AV-unprocessed.smi:3241|AV-procd|sdf|12390|dock2
  -GOLD-   2272018263D 1   1.00000     0.00000
 Structure written by MMmdl.
 43 44  0  0  0  0  0  0  0  0  1 V2000
  151.4298  145.3345  160.0061 C   0  0  0  0  0  0  0  0  0  0  0  0
  152.5451  144.3240  160.3164 C   0  0  1  0  0  0  0  0  0  0  0  0
  152.4440  143.7805  161.7560 C   0  0  0  0  0  0  0  0  0  0  0  0
  153.5857  142.8004  162.0706 C   0  0  0  0  0  0  0  0  0  0  0  0
  153.6360  141.6546  161.0487 C   0  0  0  0  0  0  0  0  0  0  0  0
  153.7372  142.1941  159.6123 C   0  0  0  0  0  0  0  0  0  0  0  0
  152.5875  143.1722  159.2874 C   0  0  1  0  0  0  0  0  0  0  0  0
  151.3385  142.4906  159.3211 O   0  0  0  0  0  0  0  0  0  0  0  0
  151.2667  141.3448  158.4862 C   0  0  0  0  0  0  0  0  0  0  0  0
  151.1624  141.8117  157.0312 C   0  0  0  0  0  0  0  0  0  0  0  0
  151.4783  140.7206  156.1169 N   0  0  0  0  0  0  0  0  0  0  0  0
  150.3575  139.8189  155.8684 C   0  0  0  0  0  0  0  0  0  0  0  0
  149.8306  139.9511  154.4300 C   0  0  0  0  0  0  0  0  0  0  0  0
  148.5666  140.6633  154.3672 N   0  0  0  0  0  0  0  0  0  0  0  0
  148.3103  141.9793  154.6890 C   0  0  0  0  0  0  0  0  0  0  0  0
  146.9816  142.2012  154.4654 C   0  0  0  0  0  0  0  0  0  0  0  0
  146.5026  140.9442  154.0019 C   0  0  0  0  0  0  0  0  0  0  0  0
  147.4525  140.0248  153.9471 N   0  0  0  0  0  0  0  0  0  0  0  0
  150.4431  144.8764  160.0806 H   0  0  0  0  0  0  0  0  0  0  0  0
  151.5345  145.7369  158.9983 H   0  0  0  0  0  0  0  0  0  0  0  0
  151.4582  146.1744  160.7007 H   0  0  0  0  0  0  0  0  0  0  0  0
  153.4899  144.8642  160.2386 H   0  0  0  0  0  0  0  0  0  0  0  0
  152.4675  144.6060  162.4683 H   0  0  0  0  0  0  0  0  0  0  0  0
  151.4850  143.2803  161.8977 H   0  0  0  0  0  0  0  0  0  0  0  0
  154.5364  143.3347  162.0666 H   0  0  0  0  0  0  0  0  0  0  0  0
  153.4631  142.3966  163.0759 H   0  0  0  0  0  0  0  0  0  0  0  0
  154.4850  141.0047  161.2622 H   0  0  0  0  0  0  0  0  0  0  0  0
  152.7427  141.0363  161.1461 H   0  0  0  0  0  0  0  0  0  0  0  0
  154.6903  142.7103  159.4914 H   0  0  0  0  0  0  0  0  0  0  0  0
  153.7566  141.3645  158.9065 H   0  0  0  0  0  0  0  0  0  0  0  0
  152.7452  143.6022  158.2964 H   0  0  0  0  0  0  0  0  0  0  0  0
  152.1739  140.7536  158.6179 H   0  0  0  0  0  0  0  0  0  0  0  0
  150.4223  140.7037  158.7413 H   0  0  0  0  0  0  0  0  0  0  0  0
  150.1619  142.2002  156.8379 H   0  0  0  0  0  0  0  0  0  0  0  0
  151.8577  142.6354  156.8664 H   0  0  0  0  0  0  0  0  0  0  0  0
  152.2708  140.1953  156.4734 H   0  0  0  0  0  0  0  0  0  0  0  0
  150.6754  138.7887  156.0325 H   0  0  0  0  0  0  0  0  0  0  0  0
  149.5524  140.0120  156.5783 H   0  0  0  0  0  0  0  0  0  0  0  0
  150.5619  140.4531  153.7941 H   0  0  0  0  0  0  0  0  0  0  0  0
  149.6777  138.9591  154.0037 H   0  0  0  0  0  0  0  0  0  0  0  0
  149.0869  142.6407  155.0439 H   0  0  0  0  0  0  0  0  0  0  0  0
  146.4353  143.1213  154.6094 H   0  0  0  0  0  0  0  0  0  0  0  0
  145.4996  140.6743  153.7062 H   0  0  0  0  0  0  0  0  0  0  0  0
  1  2  1  0  0  0  0
  1 19  1  0  0  0  0
  1 20  1  0  0  0  0
  1 21  1  0  0  0  0
  2  7  1  0  0  0  0
  2  3  1  0  0  0  0
  2 22  1  0  0  0  0
  3  4  1  0  0  0  0
  3 23  1  0  0  0  0
  3 24  1  0  0  0  0
  4  5  1  0  0  0  0
  4 25  1  0  0  0  0
  4 26  1  0  0  0  0
  5  6  1  0  0  0  0
  5 27  1  0  0  0  0
  5 28  1  0  0  0  0
  6  7  1  0  0  0  0
  6 29  1  0  0  0  0
  6 30  1  0  0  0  0
  7  8  1  0  0  0  0
  7 31  1  0  0  0  0
  8  9  1  0  0  0  0
  9 10  1  0  0  0  0
  9 32  1  0  0  0  0
  9 33  1  0  0  0  0
 10 11  1  0  0  0  0
 10 34  1  0  0  0  0
 10 35  1  0  0  0  0
 11 12  1  0  0  0  0
 11 36  1  0  0  0  0
 12 13  1  0  0  0  0
 12 37  1  0  0  0  0
 12 38  1  0  0  0  0
 13 14  1  0  0  0  0
 13 39  1  0  0  0  0
 13 40  1  0  0  0  0
 14 18  1  0  0  0  0
 14 15  1  0  0  0  0
 15 16  2  0  0  0  0
 15 41  1  0  0  0  0
 16 17  1  0  0  0  0
 16 42  1  0  0  0  0
 17 18  2  0  0  0  0
 17 43  1  0  0  0  0
M  END
> <s_m_source_file>
AV-unprocessed.smi

> <i_m_source_file_index>
3241

> <i_lp_mmshare_version>
43012

> <i_f3d_flags>
0

> <s_epik_input>
W0NIM11bQ0BASF0xW0NIMl1bQ0gyXVtDSDJdW0NIMl1bQ0BIXTFPW0NIMl1bQ0gyXVtOSF1bQ0gyXVtDSDJdbjJbY0hdW2NIXVtjSF1uMg==

> <s_epik_cmdline>
J2VwaWtfcHl0aG9uJywgJy1waCcsICc3LjAnLCAnLXRuJywgJzgnLCAnLW1hJywgJzIwMCcsICctbWV0YWxfYmluZGluZycsICctaW1hZScsICc8aW5maWxlLm1hZT4nLCAnLW9tYWUnLCAnPG91dGZpbGUubWFlPic=

> <r_lp_tautomer_probability>
1

> <r_epik_Ionization_Penalty>
2.47055

> <r_epik_Ionization_Penalty_Charging>
0

> <r_epik_Ionization_Penalty_Neutral>
2.47055

> <r_epik_State_Penalty>
2.6322

> <r_epik_Charging_Adjusted_Penalty>
2.6322

> <i_epik_Tot_Q>
0

> <i_epik_Tot_abs_Q>
0

> <r_epik_Metal_State_Penalty>
2.63108

> <b_epik_Metal_Only>
0

> <s_lp_Force_Field>
OPLS_2005

> <r_lp_Energy>
16.4291

> <b_lp_Chiralities_Consistent>
1

> <s_lp_Variant>
AV-unprocessed.smi:3241-6

> <Gold.Version>
5.8.1

> <Gold.Id.Protein>
6NUR|6NUR_protein|mol2

> <Gold.PLP.Fitness>
50.8458

> <Gold.PLP.PLP>
-47.1668

> <Gold.PLP.part.hbond>
-0.0679

> <Gold.PLP.part.metal>
0.0000

> <Gold.PLP.part.buried>
-4.1399

> <Gold.PLP.part.nonpolar>
-41.7335

> <Gold.PLP.part.repulsive>
0.1746

> <Gold.PLP.ligand.clash>
0.0000

> <Gold.PLP.ligand.torsion>
0.9384

> <Gold.PLP.Chemscore.Hbond>
0.0000

> <Gold.PLP.Chemscore.CHOScore>
1.8298

> <Gold.PLP.Chemscore.Metal>
0.0000

> <Gold.Chemscore.Hbonds>
donor molecule, donor type, donor heavy atom, donor atom, acceptor molecule, acceptor atom, score
      L1  C    15    41       P1  8028  0.94
      L1  C    17    43       P1 10175  1.00

> <Gold.PLP.Chemscore.Internal.Correction>
0.0665

> <Gold.Rescore>
     Score         DG    S(hbond)    S(metal)    S(lipo)     H(rot)  DE(clash)    DE(int)     intcor
     14.85     -15.61       0.00        0.00     125.77       1.79       0.05       0.71       ----

> <Gold.Chemscore.Fitness>
14.8544

> <Gold.Chemscore.DG>
-15.6125

> <Gold.Chemscore.ZeroCoef>
-5.4800

> <Gold.Chemscore.Hbond>
0.0000

> <Gold.Chemscore.Metal>
0.0000

> <Gold.Chemscore.Lipo>
125.7713

> <Gold.Chemscore.Internal_Hbond>
0.0000

> <Gold.Chemscore.DEClash>
0.0477

> <Gold.Chemscore.DEInternal>
0.7104

> <Gold.Chemscore.Rot>
1.7901

> <Gold.Chemscore.Internal.Correction>
   9.000000E+99

> <Gold.Chemscore.Hbond.Weighted>
-0.0000

> <Gold.Chemscore.Metal.Weighted>
-0.0000

> <Gold.Chemscore.Lipo.Weighted>
-14.7152

> <Gold.Chemscore.Internal_Hbond.Weighted>
0.0000

> <Gold.Chemscore.DEClash.Weighted>
0.0477

> <Gold.Chemscore.DEInternal.Weighted>
0.7104

> <Gold.Chemscore.Rot.Weighted>
4.5827

> <Gold.Chemscore.Internal.Correction.Weighted>
   9.000000E+99

> <Gold.Protein.RotatedTorsions>
[ 6907 6896 6895 6894 ] final  168.10 input  -60.11 | X-H torsion
[ 7974 7965 7964 7962 ] final -100.97 input  175.53 | X-H torsion
[ 8008 7997 7996 7995 ] final  -43.76 input   59.86 | X-H torsion
[ 10167 10162 10161 10158 ] final  130.64 input  -65.29 | X-H torsion
[ 10718 10713 10712 10709 ] final   58.17 input   66.30 | X-H torsion
[ 10763 10752 10751 10750 ] final   51.86 input  -60.55 | X-H torsion
[ 11005 11000 10999 10996 ] final   29.17 input  -57.11 | X-H torsion

> <Gold.Protein.ActiveResidues>
 VAL166  LYS551  ARG553  GLY616  TRP617  ASP618  TYR619  PRO620  LYS621  CYS622 
 ASP623  PHE694  ASN695  SER759  ASP760  ASP761  ALA762  ILE779  LEU786  VAL792 
 PHE793  MET794  SER795  GLU796  ALA797  LYS798  CYS799  TRP800  GLU811  SER814 

> <Gold.Protein.RotatedAtoms>
  151.8529  133.3443  159.3678 H   0  0  0  0  0  0  0  0  0  0  0  0  # atno 6907 bound_to 6896
  150.7201  134.5281  159.5696 H   0  0  0  0  0  0  0  0  0  0  0  0  # atno 6908 bound_to 6896
  152.2778  134.7862  160.0453 H   0  0  0  0  0  0  0  0  0  0  0  0  # atno 6909 bound_to 6896
  145.2877  140.9344  143.2895 H   0  0  0  0  0  0  0  0  0  0  0  0  # atno 7974 bound_to 7965
  154.3997  140.1439  156.3572 H   0  0  0  0  0  0  0  0  0  0  0  0  # atno 8008 bound_to 7997
  155.8215  140.3469  155.5496 H   0  0  0  0  0  0  0  0  0  0  0  0  # atno 8009 bound_to 7997
  155.8283  140.0908  157.1798 H   0  0  0  0  0  0  0  0  0  0  0  0  # atno 8010 bound_to 7997
  139.5420  144.6739  151.4593 H   0  0  0  0  0  0  0  0  0  0  0  0  # atno 10167 bound_to 10162
  157.5574  130.8810  149.9057 H   0  0  0  0  0  0  0  0  0  0  0  0  # atno 10718 bound_to 10713
  152.9786  135.5832  154.4485 H   0  0  0  0  0  0  0  0  0  0  0  0  # atno 10763 bound_to 10752
  154.4077  135.2769  155.2059 H   0  0  0  0  0  0  0  0  0  0  0  0  # atno 10764 bound_to 10752
  154.3862  135.6135  153.5872 H   0  0  0  0  0  0  0  0  0  0  0  0  # atno 10765 bound_to 10752
  140.3078  134.2683  155.7740 H   0  0  0  0  0  0  0  0  0  0  0  0  # atno 11005 bound_to 11000
  144.9199  139.4424  143.6546 LP  0  0  0  0  0  0  0  0  0  0  0  0  # atno 17320 bound_to 7965
  146.3195  139.8054  142.8957 LP  0  0  0  0  0  0  0  0  0  0  0  0  # atno 17321 bound_to 7965
  140.6654  143.8409  150.6936 LP  0  0  0  0  0  0  0  0  0  0  0  0  # atno 17342 bound_to 10162
  140.1817  143.4109  152.1928 LP  0  0  0  0  0  0  0  0  0  0  0  0  # atno 17343 bound_to 10162
  156.0631  130.3696  150.0938 LP  0  0  0  0  0  0  0  0  0  0  0  0  # atno 17370 bound_to 10713
  156.9105  130.9650  151.3563 LP  0  0  0  0  0  0  0  0  0  0  0  0  # atno 17371 bound_to 10713
  141.2114  133.7688  156.9863 LP  0  0  0  0  0  0  0  0  0  0  0  0  # atno 17394 bound_to 11000
  140.1051  134.9511  157.1982 LP  0  0  0  0  0  0  0  0  0  0  0  0  # atno 17395 bound_to 11000

$$$$
