#       Name:                AV-unprocessed.smi:2784
#       Creating user name   scv26
#       Creation time:       Fri Mar 27 15:16:59 2020


#       File generated by GOLD software.
#

@<TRIPOS>MOLECULE
AV-unprocessed.smi:2784
    38    39     1
SMALL
NO_CHARGES


@<TRIPOS>ATOM
      1 ****        -1.3804   0.9998   2.7012 C.3            1 S1                 0.0000
      2 ****        -0.7628  -0.0112   1.9209 O.3            1 S1                 0.0000
      3 ****         0.6519  -0.0828   2.0818 C.3            1 S1                 0.0000
      4 ****         0.9805  -0.9757   3.2840 C.3            1 S1                 0.0000
      5 ****         0.8985  -2.3946   2.7290 C.3            1 S1                 0.0000
      6 ****         1.4622  -2.2885   1.3103 C.3            1 S1                 0.0000
      7 ****         1.2837  -0.8198   0.8773 C.3            1 S1                 0.0000
      8 ****         0.4784  -0.7231  -0.3387 N.am           1 S1                 0.0000
      9 ****         0.4145   0.3580  -1.1291 C.2            1 S1                 0.0000
     10 ****         1.0520   1.3917  -0.9254 O.2            1 S1                 0.0000
     11 ****        -0.4309   0.1713  -2.1536 N.am           1 S1                 0.0000
     12 ****        -0.7098   1.1090  -3.1742 C.2            1 S1                 0.0000
     13 ****        -1.5635   0.8915  -4.1736 N.pl3          1 S1                 1.0000
     14 ****        -1.5894   2.0022  -4.9802 C.2            1 S1                 0.0000
     15 ****        -0.7091   2.8942  -4.4161 C.2            1 S1                 0.0000
     16 ****        -0.1485   2.3471  -3.2793 O.3            1 S1                 0.0000
     17 ****        -2.4553   0.9906   2.5218 H              1 S1                 0.0000
     18 ****        -1.0057   1.9877   2.4308 H              1 S1                 0.0000
     19 ****        -1.2190   0.8455   3.7678 H              1 S1                 0.0000
     20 ****         1.0775   0.9174   2.1829 H              1 S1                 0.0000
     21 ****         2.0002  -0.7763   3.6163 H              1 S1                 0.0000
     22 ****         0.3235  -0.8229   4.1401 H              1 S1                 0.0000
     23 ****         1.4393  -3.1167   3.3413 H              1 S1                 0.0000
     24 ****        -0.1449  -2.7101   2.6877 H              1 S1                 0.0000
     25 ****         2.5239  -2.5386   1.3168 H              1 S1                 0.0000
     26 ****         0.9728  -2.9962   0.6396 H              1 S1                 0.0000
     27 ****         2.2756  -0.4054   0.6855 H              1 S1                 0.0000
     28 ****        -0.0839  -1.5278  -0.5739 H              1 S1                 0.0000
     29 ****        -2.1186   0.0626  -4.3459 H              1 S1                 0.0000
     30 ****        -2.2179   2.0463  -5.8583 H              1 S1                 0.0000
     31 ****        -0.3865   3.8916  -4.6776 H              1 S1                 0.0000
     32 ****        -0.9094  -0.7154  -2.2106 H              1 S1                 0.0000
     33 ****        -0.9612   0.1694   0.9576 LP             1 S1                 0.0000
     34 ****        -1.1543  -0.8936   2.1821 LP             1 S1                 0.0000
     35 ****         1.6594   1.4567  -0.1336 LP             1 S1                 0.0000
     36 ****         0.9624   2.1660  -1.5517 LP             1 S1                 0.0000
     37 ****         0.8444   2.2765  -3.3752 LP             1 S1                 0.0000
     38 ****        -0.3672   2.9021  -2.4767 LP             1 S1                 0.0000
@<TRIPOS>BOND
    1    1    2 1     
    2    1   17 1     
    3    1   18 1     
    4    1   19 1     
    5    2    3 1     
    6    3    7 1     
    7    3    4 1     
    8    3   20 1     
    9    4    5 1     
   10    4   21 1     
   11    4   22 1     
   12    5    6 1     
   13    5   23 1     
   14    5   24 1     
   15    6    7 1     
   16    6   25 1     
   17    6   26 1     
   18    7    8 1     
   19    7   27 1     
   20    8   28 1     
   21    8    9 am    
   22    9   11 am    
   23    9   10 2     
   24   11   12 1     
   25   11   32 1     
   26   12   16 1     
   27   12   13 2     
   28   13   29 1     
   29   13   14 1     
   30   14   30 1     
   31   14   15 2     
   32   15   31 1     
   33   15   16 1     
   34    2   33 1     
   35    2   34 1     
   36   10   35 1     
   37   10   36 1     
   38   16   37 1     
   39   16   38 1     
@<TRIPOS>SUBSTRUCTURE
      1 S1             1
@<TRIPOS>SET
LONE_PAIRS      STATIC     ATOMS    <user>   **** ""
6 33 34 35 36 37 38
DONOR_HYDROGENS      STATIC     ATOMS    <user>   **** ""
3 28 32 29
ATOM$BLUE        STATIC     ATOMS    COLORGROUP SYSTEM
6 33 34 35 36 37 38
ATOM$RED        STATIC     ATOMS    COLORGROUP SYSTEM
3 28 32 29
