AV-unprocessed.smi:1600|AV-procd|sdf|6427|dock3
  -GOLD-   22720 7 73D 1   1.00000     0.00000
 Structure written by MMmdl.
 46 47  0  0  0  0  0  0  0  0  2 V2000
  150.9437  142.1923  156.8094 C   0  0  0  0  0  0  0  0  0  0  0  0
  150.6890  141.0415  155.8812 C   0  0  0  0  0  0  0  0  0  0  0  0
  149.5300  140.7918  155.0905 C   0  0  0  0  0  0  0  0  0  0  0  0
  149.8434  139.6195  154.4582 C   0  0  0  0  0  0  0  0  0  0  0  0
  149.1042  138.9043  153.5691 N   0  0  0  0  0  0  0  0  0  0  0  0
  147.8344  139.1103  153.1796 C   0  0  0  0  0  0  0  0  0  0  0  0
  147.0769  139.9643  153.6389 O   0  0  0  0  0  0  0  0  0  0  0  0
  147.4894  138.2754  152.1888 N   0  0  0  0  0  0  0  0  0  0  0  0
  146.2005  138.2549  151.4965 C   0  0  0  0  0  0  0  0  0  0  0  0
  145.3173  137.0272  151.8385 C   0  0  2  0  0  0  0  0  0  0  0  0
  145.3864  136.5973  153.3121 C   0  0  0  0  0  0  0  0  0  0  0  0
  146.1962  135.2916  153.3356 C   0  0  0  0  0  0  0  0  0  0  0  0
  146.6438  135.0357  151.9477 N   0  3  1  0  0  0  0  0  0  0  0  0
  146.8937  133.6080  151.6062 C   0  0  0  0  0  0  0  0  0  0  0  0
  145.5832  132.7993  151.6189 C   0  0  0  0  0  0  0  0  0  0  0  0
  147.9047  132.9642  152.5736 C   0  0  0  0  0  0  0  0  0  0  0  0
  145.6924  135.7527  151.0744 C   0  0  0  0  0  0  0  0  0  0  0  0
  151.1024  139.2240  154.8525 N   0  0  0  0  0  0  0  0  0  0  0  0
  151.8690  138.0564  154.4632 C   0  0  0  0  0  0  0  0  0  0  0  0
  151.6203  140.1060  155.7342 N   0  0  0  0  0  0  0  0  0  0  0  0
  150.1049  142.8885  156.8136 H   0  0  0  0  0  0  0  0  0  0  0  0
  151.8336  142.7478  156.5126 H   0  0  0  0  0  0  0  0  0  0  0  0
  151.0912  141.8459  157.8327 H   0  0  0  0  0  0  0  0  0  0  0  0
  148.6318  141.3863  155.0182 H   0  0  0  0  0  0  0  0  0  0  0  0
  149.5921  138.1436  153.1194 H   0  0  0  0  0  0  0  0  0  0  0  0
  148.1744  137.5998  151.8817 H   0  0  0  0  0  0  0  0  0  0  0  0
  145.6704  139.1627  151.7862 H   0  0  0  0  0  0  0  0  0  0  0  0
  146.3456  138.3292  150.4174 H   0  0  0  0  0  0  0  0  0  0  0  0
  144.2906  137.2944  151.5845 H   0  0  0  0  0  0  0  0  0  0  0  0
  145.8337  137.3633  153.9467 H   0  0  0  0  0  0  0  0  0  0  0  0
  144.3829  136.4141  153.6988 H   0  0  0  0  0  0  0  0  0  0  0  0
  147.0535  135.3605  154.0062 H   0  0  0  0  0  0  0  0  0  0  0  0
  145.5616  134.4754  153.6851 H   0  0  0  0  0  0  0  0  0  0  0  0
  147.3130  133.5658  150.5997 H   0  0  0  0  0  0  0  0  0  0  0  0
  145.7704  131.7480  151.3980 H   0  0  0  0  0  0  0  0  0  0  0  0
  144.8745  133.1571  150.8720 H   0  0  0  0  0  0  0  0  0  0  0  0
  145.0963  132.8498  152.5938 H   0  0  0  0  0  0  0  0  0  0  0  0
  148.0338  131.9036  152.3554 H   0  0  0  0  0  0  0  0  0  0  0  0
  147.5734  133.0507  153.6094 H   0  0  0  0  0  0  0  0  0  0  0  0
  148.8910  133.4216  152.4967 H   0  0  0  0  0  0  0  0  0  0  0  0
  144.8034  135.1351  150.9352 H   0  0  0  0  0  0  0  0  0  0  0  0
  146.1046  135.9647  150.0879 H   0  0  0  0  0  0  0  0  0  0  0  0
  151.7852  137.8993  153.3876 H   0  0  0  0  0  0  0  0  0  0  0  0
  151.4857  137.1785  154.9837 H   0  0  0  0  0  0  0  0  0  0  0  0
  152.9218  138.1887  154.7165 H   0  0  0  0  0  0  0  0  0  0  0  0
  147.5234  135.5212  151.8425 H   0  0  0  0  0  0  0  0  0  0  0  0
  1  2  1  0  0  0  0
  1 21  1  0  0  0  0
  1 22  1  0  0  0  0
  1 23  1  0  0  0  0
  2 20  2  0  0  0  0
  2  3  1  0  0  0  0
  3  4  2  0  0  0  0
  3 24  1  0  0  0  0
  4  5  1  0  0  0  0
  4 18  1  0  0  0  0
  5  6  1  0  0  0  0
  5 25  1  0  0  0  0
  6  7  2  0  0  0  0
  6  8  1  0  0  0  0
  8  9  1  0  0  0  0
  8 26  1  0  0  0  0
  9 10  1  0  0  0  0
  9 27  1  0  0  0  0
  9 28  1  0  0  0  0
 10 17  1  0  0  0  0
 10 11  1  0  0  0  0
 10 29  1  0  0  0  0
 11 12  1  0  0  0  0
 11 30  1  0  0  0  0
 11 31  1  0  0  0  0
 12 13  1  0  0  0  0
 12 32  1  0  0  0  0
 12 33  1  0  0  0  0
 13 14  1  0  0  0  0
 13 17  1  0  0  0  0
 13 46  1  0  0  0  0
 14 15  1  0  0  0  0
 14 16  1  0  0  0  0
 14 34  1  0  0  0  0
 15 35  1  0  0  0  0
 15 36  1  0  0  0  0
 15 37  1  0  0  0  0
 16 38  1  0  0  0  0
 16 39  1  0  0  0  0
 16 40  1  0  0  0  0
 17 41  1  0  0  0  0
 17 42  1  0  0  0  0
 18 19  1  0  0  0  0
 18 20  1  0  0  0  0
 19 43  1  0  0  0  0
 19 44  1  0  0  0  0
 19 45  1  0  0  0  0
M  CHG  1  13   1
M  END
> <s_m_source_file>
AV-unprocessed.smi

> <i_m_source_file_index>
1600

> <i_lp_mmshare_version>
43012

> <i_f3d_flags>
0

> <s_epik_input>
W0NIM11jMVtjSF1jKG4objEpW0NIM10pW05IXUMoPU8pW05IXVtDSDJdW0NAQEhdMltDSDJdW0NIMl1OKFtDSDJdMilbQ0hdKFtDSDNdKVtDSDNd

> <s_epik_cmdline>
J2VwaWtfcHl0aG9uJywgJy1waCcsICc3LjAnLCAnLXRuJywgJzgnLCAnLW1hJywgJzIwMCcsICctbWV0YWxfYmluZGluZycsICctaW1hZScsICc8aW5maWxlLm1hZT4nLCAnLW9tYWUnLCAnPG91dGZpbGUubWFlPic=

> <r_lp_tautomer_probability>
1

> <r_epik_Ionization_Penalty>
0.000297652

> <r_epik_Ionization_Penalty_Charging>
0.000213653

> <r_epik_Ionization_Penalty_Neutral>
8.3999e-05

> <r_epik_State_Penalty>
-0

> <r_epik_Charging_Adjusted_Penalty>
0.000213653

> <i_epik_Tot_Q>
1

> <i_epik_Tot_abs_Q>
1

> <r_epik_Metal_State_Penalty>
-0

> <b_epik_Metal_Only>
0

> <s_lp_Force_Field>
OPLS_2005

> <r_lp_Energy>
33.9079

> <b_lp_Chiralities_Consistent>
1

> <s_lp_Variant>
AV-unprocessed.smi:1600-1

> <Gold.Version>
5.8.1

> <Gold.Id.Protein>
6NUR|6NUR_protein|mol2

> <Gold.PLP.Fitness>
47.8125

> <Gold.PLP.PLP>
-38.8329

> <Gold.PLP.part.hbond>
-5.1930

> <Gold.PLP.part.metal>
0.0000

> <Gold.PLP.part.buried>
2.7726

> <Gold.PLP.part.nonpolar>
-36.4151

> <Gold.PLP.part.repulsive>
0.3965

> <Gold.PLP.ligand.clash>
0.0000

> <Gold.PLP.ligand.torsion>
0.2968

> <Gold.PLP.Chemscore.Hbond>
3.1794

> <Gold.PLP.Chemscore.CHOScore>
0.0000

> <Gold.PLP.Chemscore.Metal>
0.0000

> <Gold.Chemscore.Hbonds>
donor molecule, donor type, donor heavy atom, donor atom, acceptor molecule, acceptor atom, score
      L1  H     5    25       P1  7948  0.17
      L1  H     8    26       P1  7948  1.00
      L1  H    13    46       P1  7948  2.00

> <Gold.PLP.Chemscore.Internal.Correction>
0.0351

> <Gold.Rescore>
     Score         DG    S(hbond)    S(metal)    S(lipo)     H(rot)  DE(clash)    DE(int)     intcor
     15.38     -18.56       2.56        0.00      70.20       1.44       1.82       1.36       ----

> <Gold.Chemscore.Fitness>
15.3820

> <Gold.Chemscore.DG>
-18.5593

> <Gold.Chemscore.ZeroCoef>
-5.4800

> <Gold.Chemscore.Hbond>
2.5580

> <Gold.Chemscore.Metal>
0.0000

> <Gold.Chemscore.Lipo>
70.2043

> <Gold.Chemscore.Internal_Hbond>
0.0000

> <Gold.Chemscore.DEClash>
1.8190

> <Gold.Chemscore.DEInternal>
1.3583

> <Gold.Chemscore.Rot>
1.4369

> <Gold.Chemscore.Internal.Correction>
   9.000000E+99

> <Gold.Chemscore.Hbonds>
donor molecule, donor type, donor heavy atom, donor atom, acceptor molecule, acceptor atom, score
      L1  H     5    25       P1  7948  0.15
      L1  H     8    26       P1  7948  0.94
      L1  H    13    46       P1  7948  0.96

> <Gold.Chemscore.Hbond.Weighted>
-8.5438

> <Gold.Chemscore.Metal.Weighted>
-0.0000

> <Gold.Chemscore.Lipo.Weighted>
-8.2139

> <Gold.Chemscore.Internal_Hbond.Weighted>
0.0000

> <Gold.Chemscore.DEClash.Weighted>
1.8190

> <Gold.Chemscore.DEInternal.Weighted>
1.3583

> <Gold.Chemscore.Rot.Weighted>
3.6785

> <Gold.Chemscore.Internal.Correction.Weighted>
   9.000000E+99

> <Gold.Protein.RotatedTorsions>
[ 6907 6896 6895 6894 ] final -118.06 input  -60.11 | X-H torsion
[ 7974 7965 7964 7962 ] final  145.14 input  175.53 | X-H torsion
[ 8008 7997 7996 7995 ] final   -1.96 input   59.86 | X-H torsion
[ 10167 10162 10161 10158 ] final   99.44 input  -65.29 | X-H torsion
[ 10718 10713 10712 10709 ] final  -32.47 input   66.30 | X-H torsion
[ 10763 10752 10751 10750 ] final  -11.62 input  -60.55 | X-H torsion
[ 11005 11000 10999 10996 ] final   41.84 input  -57.11 | X-H torsion

> <Gold.Protein.ActiveResidues>
 VAL166  LYS551  ARG553  GLY616  TRP617  ASP618  TYR619  PRO620  LYS621  CYS622 
 ASP623  PHE694  ASN695  SER759  ASP760  ASP761  ALA762  ILE779  LEU786  VAL792 
 PHE793  MET794  SER795  GLU796  ALA797  LYS798  CYS799  TRP800  GLU811  SER814 

> <Gold.Protein.RotatedAtoms>
  150.8188  133.8289  159.3148 H   0  0  0  0  0  0  0  0  0  0  0  0  # atno 6907 bound_to 6896
  151.6053  135.1042  160.0079 H   0  0  0  0  0  0  0  0  0  0  0  0  # atno 6908 bound_to 6896
  152.4278  133.7185  159.6576 H   0  0  0  0  0  0  0  0  0  0  0  0  # atno 6909 bound_to 6896
  144.8777  139.5747  143.5857 H   0  0  0  0  0  0  0  0  0  0  0  0  # atno 7974 bound_to 7965
  154.6410  140.2546  155.7322 H   0  0  0  0  0  0  0  0  0  0  0  0  # atno 8008 bound_to 7997
  156.2528  140.2887  156.0723 H   0  0  0  0  0  0  0  0  0  0  0  0  # atno 8009 bound_to 7997
  155.1597  140.0384  157.2830 H   0  0  0  0  0  0  0  0  0  0  0  0  # atno 8010 bound_to 7997
  139.7617  144.6952  151.0282 H   0  0  0  0  0  0  0  0  0  0  0  0  # atno 10167 bound_to 10162
  156.3746  130.4345  149.7518 H   0  0  0  0  0  0  0  0  0  0  0  0  # atno 10718 bound_to 10713
  153.4865  135.7017  153.5908 H   0  0  0  0  0  0  0  0  0  0  0  0  # atno 10763 bound_to 10752
  153.4099  135.3851  155.2044 H   0  0  0  0  0  0  0  0  0  0  0  0  # atno 10764 bound_to 10752
  154.8719  135.3902  154.4320 H   0  0  0  0  0  0  0  0  0  0  0  0  # atno 10765 bound_to 10752
  140.1796  134.4120  155.8208 H   0  0  0  0  0  0  0  0  0  0  0  0  # atno 11005 bound_to 11000
  146.2973  139.7318  142.9117 LP  0  0  0  0  0  0  0  0  0  0  0  0  # atno 17320 bound_to 7965
  145.4012  141.0385  143.3069 LP  0  0  0  0  0  0  0  0  0  0  0  0  # atno 17321 bound_to 7965
  140.7807  143.4689  151.0174 LP  0  0  0  0  0  0  0  0  0  0  0  0  # atno 17342 bound_to 10162
  139.8375  143.7608  152.3180 LP  0  0  0  0  0  0  0  0  0  0  0  0  # atno 17343 bound_to 10162
  156.4632  130.7962  151.2981 LP  0  0  0  0  0  0  0  0  0  0  0  0  # atno 17370 bound_to 10713
  157.7487  131.0059  150.3131 LP  0  0  0  0  0  0  0  0  0  0  0  0  # atno 17371 bound_to 10713
  141.2222  133.6994  156.7908 LP  0  0  0  0  0  0  0  0  0  0  0  0  # atno 17394 bound_to 11000
  140.2282  134.8705  157.3449 LP  0  0  0  0  0  0  0  0  0  0  0  0  # atno 17395 bound_to 11000

$$$$
