AV-unprocessed.smi:2867|AV-procd|sdf|11023|dock1
  -GOLD-   2272015483D 1   1.00000     0.00000
 Structure written by MMmdl.
 40 42  0  0  0  0  0  0  0  0  1 V2000
  155.0023  138.3671  159.7435 C   0  0  0  0  0  0  0  0  0  0  0  0
  155.4145  139.5703  159.1191 O   0  0  0  0  0  0  0  0  0  0  0  0
  155.3706  140.6785  160.0003 C   0  0  0  0  0  0  0  0  0  0  0  0
  153.9277  140.8765  160.4788 C   0  0  0  0  0  0  0  0  0  0  0  0
  153.8684  141.7680  161.6260 N   0  0  0  0  0  0  0  0  0  0  0  0
  153.1887  142.9381  161.7327 C   0  0  0  0  0  0  0  0  0  0  0  0
  152.3869  143.5157  160.6636 C   0  0  0  0  0  0  0  0  0  0  0  0
  152.8366  143.4649  159.3273 C   0  0  0  0  0  0  0  0  0  0  0  0
  152.0544  144.0235  158.2976 C   0  0  0  0  0  0  0  0  0  0  0  0
  150.8238  144.6376  158.6016 C   0  0  0  0  0  0  0  0  0  0  0  0
  150.3759  144.6953  159.9358 C   0  0  0  0  0  0  0  0  0  0  0  0
  149.1936  145.2871  160.2281 F   0  0  0  0  0  0  0  0  0  0  0  0
  151.1571  144.1369  160.9660 C   0  0  0  0  0  0  0  0  0  0  0  0
  153.2855  143.5398  162.9203 N   0  0  0  0  0  0  0  0  0  0  0  0
  154.0971  142.6868  163.6414 C   0  0  0  0  0  0  0  0  0  0  0  0
  154.5639  142.7696  164.9723 C   0  0  0  0  0  0  0  0  0  0  0  0
  155.3882  141.7506  165.4949 C   0  0  0  0  0  0  0  0  0  0  0  0
  155.9668  141.8697  167.1826 S   0  0  0  0  0  0  0  0  0  0  0  0
  154.5302  142.3116  168.0175 N   0  0  0  0  0  0  0  0  0  0  0  0
  156.3665  140.5349  167.6545 O   0  0  0  0  0  0  0  0  0  0  0  0
  156.8943  143.0081  167.2707 O   0  0  0  0  0  0  0  0  0  0  0  0
  155.7590  140.6409  164.7066 C   0  0  0  0  0  0  0  0  0  0  0  0
  155.3019  140.5451  163.3783 C   0  0  0  0  0  0  0  0  0  0  0  0
  154.4798  141.5631  162.8577 C   0  0  0  0  0  0  0  0  0  0  0  0
  155.0454  137.5483  159.0256 H   0  0  0  0  0  0  0  0  0  0  0  0
  153.9764  138.4421  160.1072 H   0  0  0  0  0  0  0  0  0  0  0  0
  155.6535  138.1151  160.5818 H   0  0  0  0  0  0  0  0  0  0  0  0
  156.0291  140.5026  160.8527 H   0  0  0  0  0  0  0  0  0  0  0  0
  155.7230  141.5767  159.4901 H   0  0  0  0  0  0  0  0  0  0  0  0
  153.3187  141.2943  159.6768 H   0  0  0  0  0  0  0  0  0  0  0  0
  153.4766  139.9192  160.7385 H   0  0  0  0  0  0  0  0  0  0  0  0
  153.7801  142.9956  159.0895 H   0  0  0  0  0  0  0  0  0  0  0  0
  152.3982  143.9812  157.2746 H   0  0  0  0  0  0  0  0  0  0  0  0
  150.2245  145.0656  157.8117 H   0  0  0  0  0  0  0  0  0  0  0  0
  150.8092  144.1818  161.9880 H   0  0  0  0  0  0  0  0  0  0  0  0
  154.2836  143.6131  165.5856 H   0  0  0  0  0  0  0  0  0  0  0  0
  153.7479  141.7158  167.7479 H   0  0  0  0  0  0  0  0  0  0  0  0
  154.3097  143.2970  167.8756 H   0  0  0  0  0  0  0  0  0  0  0  0
  156.3874  139.8630  165.1152 H   0  0  0  0  0  0  0  0  0  0  0  0
  155.5780  139.6976  162.7686 H   0  0  0  0  0  0  0  0  0  0  0  0
  1  2  1  0  0  0  0
  1 25  1  0  0  0  0
  1 26  1  0  0  0  0
  1 27  1  0  0  0  0
  2  3  1  0  0  0  0
  3  4  1  0  0  0  0
  3 28  1  0  0  0  0
  3 29  1  0  0  0  0
  4  5  1  0  0  0  0
  4 30  1  0  0  0  0
  4 31  1  0  0  0  0
  5 24  1  0  0  0  0
  5  6  1  0  0  0  0
  6  7  1  0  0  0  0
  6 14  2  0  0  0  0
  7 13  1  0  0  0  0
  7  8  2  0  0  0  0
  8  9  1  0  0  0  0
  8 32  1  0  0  0  0
  9 10  2  0  0  0  0
  9 33  1  0  0  0  0
 10 11  1  0  0  0  0
 10 34  1  0  0  0  0
 11 12  1  0  0  0  0
 11 13  2  0  0  0  0
 13 35  1  0  0  0  0
 14 15  1  0  0  0  0
 15 24  2  0  0  0  0
 15 16  1  0  0  0  0
 16 17  2  0  0  0  0
 16 36  1  0  0  0  0
 17 18  1  0  0  0  0
 17 22  1  0  0  0  0
 18 19  1  0  0  0  0
 18 20  2  0  0  0  0
 18 21  2  0  0  0  0
 19 37  1  0  0  0  0
 19 38  1  0  0  0  0
 22 23  2  0  0  0  0
 22 39  1  0  0  0  0
 23 24  1  0  0  0  0
 23 40  1  0  0  0  0
M  END
> <s_m_source_file>
AV-unprocessed.smi

> <i_m_source_file_index>
2867

> <i_lp_mmshare_version>
43012

> <i_f3d_flags>
0

> <s_epik_input>
W05IMl1TKD1PKSg9TyljKFtjSF0xKVtjSF1bY0hdYyhjMTIpbihbQ0gyXVtDSDJdT1tDSDNdKWMobjIpLWMzW2NIXVtjSF1bY0hdYyhGKVtjSF0z

> <s_epik_cmdline>
J2VwaWtfcHl0aG9uJywgJy1waCcsICc3LjAnLCAnLXRuJywgJzgnLCAnLW1hJywgJzIwMCcsICctbWV0YWxfYmluZGluZycsICctaW1hZScsICc8aW5maWxlLm1hZT4nLCAnLW9tYWUnLCAnPG91dGZpbGUubWFlPic=

> <r_epik_Ionization_Penalty>
0.0786023

> <r_epik_Ionization_Penalty_Charging>
0

> <r_epik_Ionization_Penalty_Neutral>
0.0786023

> <r_epik_State_Penalty>
0.0592545

> <r_epik_Charging_Adjusted_Penalty>
0.0592545

> <i_epik_Tot_Q>
0

> <i_epik_Tot_abs_Q>
0

> <r_epik_Metal_State_Penalty>
0.300641

> <b_epik_Metal_Only>
0

> <s_lp_Force_Field>
OPLS_2005

> <r_lp_Energy>
19.4946

> <b_lp_Chiralities_Consistent>
1

> <s_lp_Variant>
AV-unprocessed.smi:2867-1

> <Gold.Version>
5.8.1

> <Gold.Id.Protein>
6NUR|6NUR_protein|mol2

> <Gold.PLP.Fitness>
52.4932

> <Gold.PLP.PLP>
-49.9874

> <Gold.PLP.part.hbond>
-2.7369

> <Gold.PLP.part.metal>
0.0000

> <Gold.PLP.part.buried>
0.1969

> <Gold.PLP.part.nonpolar>
-48.2205

> <Gold.PLP.part.repulsive>
0.1903

> <Gold.PLP.ligand.clash>
0.0000

> <Gold.PLP.ligand.torsion>
1.7645

> <Gold.PLP.Chemscore.Hbond>
1.0000

> <Gold.PLP.Chemscore.CHOScore>
0.0000

> <Gold.PLP.Chemscore.Metal>
0.0000

> <Gold.Chemscore.Hbonds>
donor molecule, donor type, donor heavy atom, donor atom, acceptor molecule, acceptor atom, score
      P1  H  7997  8008       L1     2  1.00

> <Gold.PLP.Chemscore.Internal.Correction>
3.0349

> <Gold.Rescore>
     Score         DG    S(hbond)    S(metal)    S(lipo)     H(rot)  DE(clash)    DE(int)     intcor
     17.80     -20.77       0.92        0.00     136.19       1.45       0.32       2.66       ----

> <Gold.Chemscore.Fitness>
17.7978

> <Gold.Chemscore.DG>
-20.7698

> <Gold.Chemscore.ZeroCoef>
-5.4800

> <Gold.Chemscore.Hbond>
0.9208

> <Gold.Chemscore.Metal>
0.0000

> <Gold.Chemscore.Lipo>
136.1894

> <Gold.Chemscore.Internal_Hbond>
0.0000

> <Gold.Chemscore.DEClash>
0.3160

> <Gold.Chemscore.DEInternal>
2.6561

> <Gold.Chemscore.Rot>
1.4530

> <Gold.Chemscore.Internal.Correction>
   9.000000E+99

> <Gold.Chemscore.Hbonds>
donor molecule, donor type, donor heavy atom, donor atom, acceptor molecule, acceptor atom, score
      P1  H  7997  8008       L1     2  0.85

> <Gold.Chemscore.Hbond.Weighted>
-3.0753

> <Gold.Chemscore.Metal.Weighted>
-0.0000

> <Gold.Chemscore.Lipo.Weighted>
-15.9342

> <Gold.Chemscore.Internal_Hbond.Weighted>
0.0000

> <Gold.Chemscore.DEClash.Weighted>
0.3160

> <Gold.Chemscore.DEInternal.Weighted>
2.6561

> <Gold.Chemscore.Rot.Weighted>
3.7196

> <Gold.Chemscore.Internal.Correction.Weighted>
   9.000000E+99

> <Gold.Protein.RotatedTorsions>
[ 6907 6896 6895 6894 ] final   -0.78 input  -60.11 | X-H torsion
[ 7974 7965 7964 7962 ] final  -24.33 input  175.53 | X-H torsion
[ 8008 7997 7996 7995 ] final -119.14 input   59.86 | X-H torsion
[ 10167 10162 10161 10158 ] final   49.50 input  -65.29 | X-H torsion
[ 10718 10713 10712 10709 ] final  -11.10 input   66.30 | X-H torsion
[ 10763 10752 10751 10750 ] final  -70.26 input  -60.55 | X-H torsion
[ 11005 11000 10999 10996 ] final   63.01 input  -57.11 | X-H torsion

> <Gold.Protein.ActiveResidues>
 VAL166  LYS551  ARG553  GLY616  TRP617  ASP618  TYR619  PRO620  LYS621  CYS622 
 ASP623  PHE694  ASN695  SER759  ASP760  ASP761  ALA762  ILE779  LEU786  VAL792 
 PHE793  MET794  SER795  GLU796  ALA797  LYS798  CYS799  TRP800  GLU811  SER814 

> <Gold.Protein.RotatedAtoms>
  151.5567  135.1066  159.9962 H   0  0  0  0  0  0  0  0  0  0  0  0  # atno 6907 bound_to 6896
  152.4466  133.7544  159.6722 H   0  0  0  0  0  0  0  0  0  0  0  0  # atno 6908 bound_to 6896
  150.8383  133.7910  159.3095 H   0  0  0  0  0  0  0  0  0  0  0  0  # atno 6909 bound_to 6896
  146.1561  140.4737  142.8591 H   0  0  0  0  0  0  0  0  0  0  0  0  # atno 7974 bound_to 7965
  155.1109  140.0397  157.2724 H   0  0  0  0  0  0  0  0  0  0  0  0  # atno 8008 bound_to 7997
  154.6686  140.2607  155.7006 H   0  0  0  0  0  0  0  0  0  0  0  0  # atno 8009 bound_to 7997
  156.2649  140.2802  156.1186 H   0  0  0  0  0  0  0  0  0  0  0  0  # atno 8010 bound_to 7997
  140.2822  144.3143  150.6261 H   0  0  0  0  0  0  0  0  0  0  0  0  # atno 10167 bound_to 10162
  156.6639  130.4990  149.6021 H   0  0  0  0  0  0  0  0  0  0  0  0  # atno 10718 bound_to 10713
  154.4151  135.6000  153.5976 H   0  0  0  0  0  0  0  0  0  0  0  0  # atno 10763 bound_to 10752
  152.9791  135.5939  154.4022 H   0  0  0  0  0  0  0  0  0  0  0  0  # atno 10764 bound_to 10752
  154.3840  135.2841  155.2173 H   0  0  0  0  0  0  0  0  0  0  0  0  # atno 10765 bound_to 10752
  140.0053  134.6379  155.9865 H   0  0  0  0  0  0  0  0  0  0  0  0  # atno 11005 bound_to 11000
  144.7965  140.6133  143.6506 LP  0  0  0  0  0  0  0  0  0  0  0  0  # atno 17320 bound_to 7965
  145.4705  139.1504  143.3817 LP  0  0  0  0  0  0  0  0  0  0  0  0  # atno 17321 bound_to 7965
  140.5802  143.2173  151.7442 LP  0  0  0  0  0  0  0  0  0  0  0  0  # atno 17342 bound_to 10162
  139.4959  144.4091  152.0100 LP  0  0  0  0  0  0  0  0  0  0  0  0  # atno 17343 bound_to 10162
  156.1989  130.6607  151.1146 LP  0  0  0  0  0  0  0  0  0  0  0  0  # atno 17370 bound_to 10713
  157.7100  131.0738  150.6534 LP  0  0  0  0  0  0  0  0  0  0  0  0  # atno 17371 bound_to 10713
  141.1672  133.6537  156.4522 LP  0  0  0  0  0  0  0  0  0  0  0  0  # atno 17394 bound_to 11000
  140.4652  134.6804  157.5104 LP  0  0  0  0  0  0  0  0  0  0  0  0  # atno 17395 bound_to 11000

$$$$
