AV-unprocessed.smi:1464|AV-procd|sdf|5941|dock6
  -GOLD-   22720 6 23D 1   1.00000     0.00000
 Structure written by MMmdl.
 40 41  0  0  0  0  0  0  0  0  2 V2000
  152.5302  143.9862  161.9251 C   0  0  0  0  0  0  0  0  0  0  0  0
  152.5897  142.5833  161.2978 C   0  0  2  0  0  0  0  0  0  0  0  0
  153.9289  141.8792  161.5966 C   0  0  0  0  0  0  0  0  0  0  0  0
  153.9431  140.4417  161.0536 C   0  0  0  0  0  0  0  0  0  0  0  0
  153.6060  140.4004  159.5556 C   0  0  0  0  0  0  0  0  0  0  0  0
  152.2647  141.1009  159.2648 C   0  0  2  0  0  0  0  0  0  0  0  0
  151.9582  141.0099  157.8389 N   0  0  0  0  0  0  0  0  0  0  0  0
  150.8728  141.5252  157.2413 C   0  0  0  0  0  0  0  0  0  0  0  0
  150.0014  142.1470  157.8519 O   0  0  0  0  0  0  0  0  0  0  0  0
  150.7813  141.2995  155.7236 C   0  0  0  0  0  0  0  0  0  0  0  0
  150.7466  139.8843  155.3255 N   0  0  0  0  0  0  0  0  0  0  0  0
  149.4035  139.3113  155.3015 N   0  5  0  0  0  0  0  0  0  0  0  0
  149.2486  137.9994  154.9808 C   0  0  0  0  0  0  0  0  0  0  0  0
  148.1528  137.4438  154.9581 O   0  0  0  0  0  0  0  0  0  0  0  0
  150.4369  137.2317  154.6465 C   0  0  0  0  0  0  0  0  0  0  0  0
  151.6614  137.7944  154.6485 C   0  0  0  0  0  0  0  0  0  0  0  0
  151.8751  139.1955  154.9909 C   0  0  0  0  0  0  0  0  0  0  0  0
  152.9898  139.7185  154.9852 O   0  0  0  0  0  0  0  0  0  0  0  0
  152.2599  142.5667  159.7811 C   0  0  2  0  0  0  0  0  0  0  0  0
  153.1534  143.5111  158.9435 C   0  0  0  0  0  0  0  0  0  0  0  0
  153.3420  144.6231  161.5739 H   0  0  0  0  0  0  0  0  0  0  0  0
  152.6103  143.9291  163.0109 H   0  0  0  0  0  0  0  0  0  0  0  0
  151.5879  144.4824  161.6915 H   0  0  0  0  0  0  0  0  0  0  0  0
  151.8102  142.0013  161.7923 H   0  0  0  0  0  0  0  0  0  0  0  0
  154.7559  142.4438  161.1650 H   0  0  0  0  0  0  0  0  0  0  0  0
  154.1051  141.8584  162.6726 H   0  0  0  0  0  0  0  0  0  0  0  0
  154.9191  139.9877  161.2278 H   0  0  0  0  0  0  0  0  0  0  0  0
  153.2203  139.8383  161.6045 H   0  0  0  0  0  0  0  0  0  0  0  0
  154.4092  140.8697  158.9864 H   0  0  0  0  0  0  0  0  0  0  0  0
  153.5632  139.3624  159.2236 H   0  0  0  0  0  0  0  0  0  0  0  0
  151.4922  140.5487  159.8041 H   0  0  0  0  0  0  0  0  0  0  0  0
  152.6243  140.5183  157.2609 H   0  0  0  0  0  0  0  0  0  0  0  0
  149.8929  141.8170  155.3569 H   0  0  0  0  0  0  0  0  0  0  0  0
  151.6260  141.7949  155.2416 H   0  0  0  0  0  0  0  0  0  0  0  0
  150.3349  136.1879  154.3882 H   0  0  0  0  0  0  0  0  0  0  0  0
  152.5161  137.1867  154.3916 H   0  0  0  0  0  0  0  0  0  0  0  0
  151.2408  142.9414  159.6757 H   0  0  0  0  0  0  0  0  0  0  0  0
  154.2061  143.2370  158.9984 H   0  0  0  0  0  0  0  0  0  0  0  0
  153.0637  144.5447  159.2759 H   0  0  0  0  0  0  0  0  0  0  0  0
  152.8674  143.5040  157.8918 H   0  0  0  0  0  0  0  0  0  0  0  0
  1  2  1  0  0  0  0
  1 21  1  0  0  0  0
  1 22  1  0  0  0  0
  1 23  1  0  0  0  0
  2 19  1  0  0  0  0
  2  3  1  0  0  0  0
  2 24  1  0  0  0  0
  3  4  1  0  0  0  0
  3 25  1  0  0  0  0
  3 26  1  0  0  0  0
  4  5  1  0  0  0  0
  4 27  1  0  0  0  0
  4 28  1  0  0  0  0
  5  6  1  0  0  0  0
  5 29  1  0  0  0  0
  5 30  1  0  0  0  0
  6  7  1  0  0  0  0
  6 19  1  0  0  0  0
  6 31  1  0  0  0  0
  7  8  1  0  0  0  0
  7 32  1  0  0  0  0
  8  9  2  0  0  0  0
  8 10  1  0  0  0  0
 10 33  1  0  0  0  0
 10 34  1  0  0  0  0
 10 11  1  0  0  0  0
 11 12  1  0  0  0  0
 11 17  1  0  0  0  0
 12 13  1  0  0  0  0
 13 14  2  0  0  0  0
 13 15  1  0  0  0  0
 15 35  1  0  0  0  0
 15 16  2  0  0  0  0
 16 36  1  0  0  0  0
 16 17  1  0  0  0  0
 17 18  2  0  0  0  0
 19 20  1  0  0  0  0
 19 37  1  0  0  0  0
 20 38  1  0  0  0  0
 20 39  1  0  0  0  0
 20 40  1  0  0  0  0
M  CHG  1  12  -1
M  END
> <s_m_source_file>
AV-unprocessed.smi

> <i_m_source_file_index>
1464

> <i_lp_mmshare_version>
43012

> <i_f3d_flags>
0

> <s_epik_input>
W0NIM11bQ0BASF0xW0NIMl1bQ0gyXVtDSDJdW0NASF0oW0NASF0xW0NIM10pW05IXUMoPU8pW0NIMl1uMltuSF1jKD1PKVtjSF1bY0hdYzI9Tw==

> <s_epik_cmdline>
J2VwaWtfcHl0aG9uJywgJy1waCcsICc3LjAnLCAnLXRuJywgJzgnLCAnLW1hJywgJzIwMCcsICctbWV0YWxfYmluZGluZycsICctaW1hZScsICc8aW5maWxlLm1hZT4nLCAnLW9tYWUnLCAnPG91dGZpbGUubWFlPic=

> <r_lp_tautomer_probability>
1

> <r_epik_Ionization_Penalty>
0.101366

> <r_epik_Ionization_Penalty_Charging>
0.101366

> <r_epik_Ionization_Penalty_Neutral>
1.90469e-08

> <r_epik_State_Penalty>
0.035861

> <r_epik_Charging_Adjusted_Penalty>
0.137227

> <i_epik_Tot_Q>
-1

> <i_epik_Tot_abs_Q>
1

> <r_epik_Metal_State_Penalty>
0.035861

> <b_epik_Metal_Only>
0

> <s_lp_Force_Field>
OPLS_2005

> <r_lp_Energy>
29.9934

> <b_lp_Chiralities_Consistent>
1

> <s_lp_Variant>
AV-unprocessed.smi:1464-7

> <Gold.Version>
5.8.1

> <Gold.Id.Protein>
6NUR|6NUR_protein|mol2

> <Gold.PLP.Fitness>
45.1503

> <Gold.PLP.PLP>
-42.8990

> <Gold.PLP.part.hbond>
-2.0000

> <Gold.PLP.part.metal>
0.0000

> <Gold.PLP.part.buried>
-2.7521

> <Gold.PLP.part.nonpolar>
-37.0245

> <Gold.PLP.part.repulsive>
0.3331

> <Gold.PLP.ligand.clash>
0.0000

> <Gold.PLP.ligand.torsion>
0.3813

> <Gold.PLP.Chemscore.Hbond>
1.0000

> <Gold.PLP.Chemscore.CHOScore>
0.0000

> <Gold.PLP.Chemscore.Metal>
0.0000

> <Gold.Chemscore.Hbonds>
donor molecule, donor type, donor heavy atom, donor atom, acceptor molecule, acceptor atom, score
      P1  H  7997  8010       L1    18  1.00

> <Gold.PLP.Chemscore.Internal.Correction>
0.0139

> <Gold.Rescore>
     Score         DG    S(hbond)    S(metal)    S(lipo)     H(rot)  DE(clash)    DE(int)     intcor
     16.35     -16.88       1.00        0.00     104.84       1.64       0.11       0.42       ----

> <Gold.Chemscore.Fitness>
16.3475

> <Gold.Chemscore.DG>
-16.8787

> <Gold.Chemscore.ZeroCoef>
-5.4800

> <Gold.Chemscore.Hbond>
1.0001

> <Gold.Chemscore.Metal>
0.0000

> <Gold.Chemscore.Lipo>
104.8425

> <Gold.Chemscore.Internal_Hbond>
0.0000

> <Gold.Chemscore.DEClash>
0.1095

> <Gold.Chemscore.DEInternal>
0.4218

> <Gold.Chemscore.Rot>
1.6438

> <Gold.Chemscore.Internal.Correction>
   9.000000E+99

> <Gold.Chemscore.Hbonds>
donor molecule, donor type, donor heavy atom, donor atom, acceptor molecule, acceptor atom, score
      P1  H  7997  8010       L1    18  1.00

> <Gold.Chemscore.Hbond.Weighted>
-3.3402

> <Gold.Chemscore.Metal.Weighted>
-0.0000

> <Gold.Chemscore.Lipo.Weighted>
-12.2666

> <Gold.Chemscore.Internal_Hbond.Weighted>
0.0000

> <Gold.Chemscore.DEClash.Weighted>
0.1095

> <Gold.Chemscore.DEInternal.Weighted>
0.4218

> <Gold.Chemscore.Rot.Weighted>
4.2080

> <Gold.Chemscore.Internal.Correction.Weighted>
   9.000000E+99

> <Gold.Protein.RotatedTorsions>
[ 6907 6896 6895 6894 ] final  -52.33 input  -60.11 | X-H torsion
[ 7974 7965 7964 7962 ] final   11.28 input  175.53 | X-H torsion
[ 8008 7997 7996 7995 ] final  103.48 input   59.86 | X-H torsion
[ 10167 10162 10161 10158 ] final   84.74 input  -65.29 | X-H torsion
[ 10718 10713 10712 10709 ] final  -28.79 input   66.30 | X-H torsion
[ 10763 10752 10751 10750 ] final   74.85 input  -60.55 | X-H torsion
[ 11005 11000 10999 10996 ] final    4.90 input  -57.11 | X-H torsion

> <Gold.Protein.ActiveResidues>
 VAL166  LYS551  ARG553  GLY616  TRP617  ASP618  TYR619  PRO620  LYS621  CYS622 
 ASP623  PHE694  ASN695  SER759  ASP760  ASP761  ALA762  ILE779  LEU786  VAL792 
 PHE793  MET794  SER795  GLU796  ALA797  LYS798  CYS799  TRP800  GLU811  SER814 

> <Gold.Protein.RotatedAtoms>
  150.8528  134.7858  159.7021 H   0  0  0  0  0  0  0  0  0  0  0  0  # atno 6907 bound_to 6896
  152.4588  134.5228  159.9797 H   0  0  0  0  0  0  0  0  0  0  0  0  # atno 6908 bound_to 6896
  151.5345  133.3405  159.2960 H   0  0  0  0  0  0  0  0  0  0  0  0  # atno 6909 bound_to 6896
  146.2374  139.9508  142.8471 H   0  0  0  0  0  0  0  0  0  0  0  0  # atno 7974 bound_to 7965
  156.1488  140.3164  155.8613 H   0  0  0  0  0  0  0  0  0  0  0  0  # atno 8008 bound_to 7997
  155.4012  140.0500  157.3053 H   0  0  0  0  0  0  0  0  0  0  0  0  # atno 8009 bound_to 7997
  154.5040  140.2140  155.9301 H   0  0  0  0  0  0  0  0  0  0  0  0  # atno 8010 bound_to 7997
  139.9049  144.6307  150.8598 H   0  0  0  0  0  0  0  0  0  0  0  0  # atno 10167 bound_to 10162
  156.4208  130.4426  149.7185 H   0  0  0  0  0  0  0  0  0  0  0  0  # atno 10718 bound_to 10713
  153.0615  135.5010  154.8103 H   0  0  0  0  0  0  0  0  0  0  0  0  # atno 10763 bound_to 10752
  154.6889  135.2981  154.9510 H   0  0  0  0  0  0  0  0  0  0  0  0  # atno 10764 bound_to 10752
  154.0271  135.6734  153.4830 H   0  0  0  0  0  0  0  0  0  0  0  0  # atno 10765 bound_to 10752
  140.5767  134.0051  155.8031 H   0  0  0  0  0  0  0  0  0  0  0  0  # atno 11005 bound_to 11000
  145.1863  140.9791  143.4237 LP  0  0  0  0  0  0  0  0  0  0  0  0  # atno 17320 bound_to 7965
  144.9897  139.3702  143.6221 LP  0  0  0  0  0  0  0  0  0  0  0  0  # atno 17321 bound_to 7965
  140.7698  143.3409  151.2211 LP  0  0  0  0  0  0  0  0  0  0  0  0  # atno 17342 bound_to 10162
  139.6993  143.9560  152.2897 LP  0  0  0  0  0  0  0  0  0  0  0  0  # atno 17343 bound_to 10162
  156.4127  130.7730  151.2744 LP  0  0  0  0  0  0  0  0  0  0  0  0  # atno 17370 bound_to 10713
  157.7508  131.0206  150.3717 LP  0  0  0  0  0  0  0  0  0  0  0  0  # atno 17371 bound_to 10713
  141.1022  133.9750  157.3059 LP  0  0  0  0  0  0  0  0  0  0  0  0  # atno 17394 bound_to 11000
  139.9336  135.0198  156.8482 LP  0  0  0  0  0  0  0  0  0  0  0  0  # atno 17395 bound_to 11000

$$$$
