AV-unprocessed.smi:2364|AV-procd|sdf|9418|dock4
  -GOLD-   2272013 53D 1   1.00000     0.00000
 Structure written by MMmdl.
 46 47  0  0  0  0  0  0  0  0  1 V2000
  147.9787  141.6721  154.7644 C   0  0  0  0  0  0  0  0  0  0  0  0
  149.4545  141.2354  154.7946 C   0  0  0  0  0  0  0  0  0  0  0  0
  149.9932  140.7414  156.1678 C   0  0  2  0  0  0  0  0  0  0  0  0
  150.0082  141.9201  157.1660 C   0  0  0  0  0  0  0  0  0  0  0  0
  151.4394  140.2093  155.9765 C   0  0  0  0  0  0  0  0  0  0  0  0
  151.5985  139.5093  154.7574 O   0  0  0  0  0  0  0  0  0  0  0  0
  149.1274  139.6950  156.7329 N   0  0  0  0  0  0  0  0  0  0  0  0
  149.3762  138.8705  157.7650 C   0  0  0  0  0  0  0  0  0  0  0  0
  150.4273  138.8671  158.4064 O   0  0  0  0  0  0  0  0  0  0  0  0
  148.3289  138.0590  157.9935 N   0  0  0  0  0  0  0  0  0  0  0  0
  148.2029  137.0427  158.9763 C   0  0  0  0  0  0  0  0  0  0  0  0
  148.4004  135.7425  158.6180 N   0  0  0  0  0  0  0  0  0  0  0  0
  148.2013  135.1675  159.7968 C   0  0  0  0  0  0  0  0  0  0  0  0
  147.8733  136.0170  160.7794 N   0  0  0  0  0  0  0  0  0  0  0  0
  147.6684  135.7922  162.2138 C   0  0  0  0  0  0  0  0  0  0  0  0
  147.5592  134.2896  162.5640 C   0  0  0  0  0  0  0  0  0  0  0  0
  146.2735  133.6571  161.9988 C   0  0  0  0  0  0  0  0  0  0  0  0
  145.0248  134.4031  162.4972 C   0  0  0  0  0  0  0  0  0  0  0  0
  145.1105  135.9102  162.2027 C   0  0  0  0  0  0  0  0  0  0  0  0
  146.4120  136.5122  162.7649 C   0  0  0  0  0  0  0  0  0  0  0  0
  147.9165  137.2698  160.2593 N   0  0  0  0  0  0  0  0  0  0  0  0
  147.6935  141.9735  153.7565 H   0  0  0  0  0  0  0  0  0  0  0  0
  147.7927  142.5229  155.4190 H   0  0  0  0  0  0  0  0  0  0  0  0
  147.3095  140.8648  155.0613 H   0  0  0  0  0  0  0  0  0  0  0  0
  149.5896  140.4560  154.0445 H   0  0  0  0  0  0  0  0  0  0  0  0
  150.0683  142.0682  154.4490 H   0  0  0  0  0  0  0  0  0  0  0  0
  150.6258  142.7413  156.8008 H   0  0  0  0  0  0  0  0  0  0  0  0
  150.4035  141.6227  158.1377 H   0  0  0  0  0  0  0  0  0  0  0  0
  149.0086  142.3152  157.3449 H   0  0  0  0  0  0  0  0  0  0  0  0
  152.1714  141.0162  156.0097 H   0  0  0  0  0  0  0  0  0  0  0  0
  151.6993  139.5307  156.7895 H   0  0  0  0  0  0  0  0  0  0  0  0
  150.7637  139.1405  154.5126 H   0  0  0  0  0  0  0  0  0  0  0  0
  148.2248  139.6023  156.2907 H   0  0  0  0  0  0  0  0  0  0  0  0
  147.5276  138.1800  157.3922 H   0  0  0  0  0  0  0  0  0  0  0  0
  148.2990  134.1018  159.9388 H   0  0  0  0  0  0  0  0  0  0  0  0
  148.5457  136.1997  162.7176 H   0  0  0  0  0  0  0  0  0  0  0  0
  148.4345  133.7427  162.2143 H   0  0  0  0  0  0  0  0  0  0  0  0
  147.5610  134.1762  163.6490 H   0  0  0  0  0  0  0  0  0  0  0  0
  146.2970  133.6701  160.9088 H   0  0  0  0  0  0  0  0  0  0  0  0
  146.2175  132.6084  162.2910 H   0  0  0  0  0  0  0  0  0  0  0  0
  144.1309  133.9835  162.0355 H   0  0  0  0  0  0  0  0  0  0  0  0
  144.9176  134.2501  163.5718 H   0  0  0  0  0  0  0  0  0  0  0  0
  145.0556  136.0779  161.1265 H   0  0  0  0  0  0  0  0  0  0  0  0
  144.2498  136.4204  162.6357 H   0  0  0  0  0  0  0  0  0  0  0  0
  146.4006  136.4265  163.8523 H   0  0  0  0  0  0  0  0  0  0  0  0
  146.4499  137.5825  162.5598 H   0  0  0  0  0  0  0  0  0  0  0  0
  1  2  1  0  0  0  0
  1 22  1  0  0  0  0
  1 23  1  0  0  0  0
  1 24  1  0  0  0  0
  2  3  1  0  0  0  0
  2 25  1  0  0  0  0
  2 26  1  0  0  0  0
  3  4  1  0  0  0  0
  3  5  1  0  0  0  0
  3  7  1  0  0  0  0
  4 27  1  0  0  0  0
  4 28  1  0  0  0  0
  4 29  1  0  0  0  0
  5  6  1  0  0  0  0
  5 30  1  0  0  0  0
  5 31  1  0  0  0  0
  6 32  1  0  0  0  0
  7  8  1  0  0  0  0
  7 33  1  0  0  0  0
  8  9  2  0  0  0  0
  8 10  1  0  0  0  0
 10 11  1  0  0  0  0
 10 34  1  0  0  0  0
 11 21  2  0  0  0  0
 11 12  1  0  0  0  0
 12 13  2  0  0  0  0
 13 14  1  0  0  0  0
 13 35  1  0  0  0  0
 14 15  1  0  0  0  0
 14 21  1  0  0  0  0
 15 20  1  0  0  0  0
 15 16  1  0  0  0  0
 15 36  1  0  0  0  0
 16 17  1  0  0  0  0
 16 37  1  0  0  0  0
 16 38  1  0  0  0  0
 17 18  1  0  0  0  0
 17 39  1  0  0  0  0
 17 40  1  0  0  0  0
 18 19  1  0  0  0  0
 18 41  1  0  0  0  0
 18 42  1  0  0  0  0
 19 20  1  0  0  0  0
 19 43  1  0  0  0  0
 19 44  1  0  0  0  0
 20 45  1  0  0  0  0
 20 46  1  0  0  0  0
M  END
> <s_m_source_file>
AV-unprocessed.smi

> <i_m_source_file_index>
2364

> <i_lp_mmshare_version>
43012

> <i_f3d_flags>
0

> <s_epik_input>
W0NIM11bQ0gyXVtDQEBdKFtDSDNdKShbQ0gyXVtPSF0pW05IXUMoPU8pW05IXWMxbltjSF1uKG4xKVtDSF0yW0NIMl1bQ0gyXVtDSDJdW0NIMl1bQ0gyXTI=

> <s_epik_cmdline>
J2VwaWtfcHl0aG9uJywgJy1waCcsICc3LjAnLCAnLXRuJywgJzgnLCAnLW1hJywgJzIwMCcsICctbWV0YWxfYmluZGluZycsICctaW1hZScsICc8aW5maWxlLm1hZT4nLCAnLW9tYWUnLCAnPG91dGZpbGUubWFlPic=

> <r_lp_tautomer_probability>
1

> <r_epik_Ionization_Penalty>
9.31261e-05

> <r_epik_Ionization_Penalty_Charging>
0

> <r_epik_Ionization_Penalty_Neutral>
9.31261e-05

> <r_epik_State_Penalty>
-0

> <r_epik_Charging_Adjusted_Penalty>
0

> <i_epik_Tot_Q>
0

> <i_epik_Tot_abs_Q>
0

> <r_epik_Metal_State_Penalty>
-0

> <b_epik_Metal_Only>
0

> <s_lp_Force_Field>
OPLS_2005

> <r_lp_Energy>
24.8913

> <b_lp_Chiralities_Consistent>
1

> <s_lp_Variant>
AV-unprocessed.smi:2364-2

> <Gold.Version>
5.8.1

> <Gold.Id.Protein>
6NUR|6NUR_protein|mol2

> <Gold.PLP.Fitness>
42.3444

> <Gold.PLP.PLP>
-39.1322

> <Gold.PLP.part.hbond>
-3.0000

> <Gold.PLP.part.metal>
0.0000

> <Gold.PLP.part.buried>
-4.4916

> <Gold.PLP.part.nonpolar>
-32.4251

> <Gold.PLP.part.repulsive>
0.1372

> <Gold.PLP.ligand.clash>
0.0000

> <Gold.PLP.ligand.torsion>
1.5417

> <Gold.PLP.Chemscore.Hbond>
2.0640

> <Gold.PLP.Chemscore.CHOScore>
0.0000

> <Gold.PLP.Chemscore.Metal>
0.0000

> <Gold.Chemscore.Hbonds>
donor molecule, donor type, donor heavy atom, donor atom, acceptor molecule, acceptor atom, score
      P1  H  6931  6943       L1    21  0.34
      P1  H  6934  6947       L1    21  0.77
      P1  H  7989  7998       L1     6  0.90

> <Gold.PLP.Chemscore.Internal.Correction>
0.1035

> <Gold.Rescore>
     Score         DG    S(hbond)    S(metal)    S(lipo)     H(rot)  DE(clash)    DE(int)     intcor
     11.65     -14.16       1.79        0.00      74.16       2.34       0.15       2.35       ----

> <Gold.Chemscore.Fitness>
11.6532

> <Gold.Chemscore.DG>
-14.1601

> <Gold.Chemscore.ZeroCoef>
-5.4800

> <Gold.Chemscore.Hbond>
1.7910

> <Gold.Chemscore.Metal>
0.0000

> <Gold.Chemscore.Lipo>
74.1624

> <Gold.Chemscore.Internal_Hbond>
0.0000

> <Gold.Chemscore.DEClash>
0.1550

> <Gold.Chemscore.DEInternal>
2.3519

> <Gold.Chemscore.Rot>
2.3354

> <Gold.Chemscore.Internal.Correction>
   9.000000E+99

> <Gold.Chemscore.Hbonds>
donor molecule, donor type, donor heavy atom, donor atom, acceptor molecule, acceptor atom, score
      P1  H  6931  6943       L1    21  0.08
      P1  H  6934  6947       L1    21  0.74
      P1  H  7989  7998       L1     6  0.07

> <Gold.Chemscore.Hbond.Weighted>
-5.9818

> <Gold.Chemscore.Metal.Weighted>
-0.0000

> <Gold.Chemscore.Lipo.Weighted>
-8.6770

> <Gold.Chemscore.Internal_Hbond.Weighted>
0.0000

> <Gold.Chemscore.DEClash.Weighted>
0.1550

> <Gold.Chemscore.DEInternal.Weighted>
2.3519

> <Gold.Chemscore.Rot.Weighted>
5.9787

> <Gold.Chemscore.Internal.Correction.Weighted>
   9.000000E+99

> <Gold.Protein.RotatedTorsions>
[ 6907 6896 6895 6894 ] final   53.14 input  -60.11 | X-H torsion
[ 7974 7965 7964 7962 ] final   47.00 input  175.53 | X-H torsion
[ 8008 7997 7996 7995 ] final -102.03 input   59.86 | X-H torsion
[ 10167 10162 10161 10158 ] final  130.87 input  -65.29 | X-H torsion
[ 10718 10713 10712 10709 ] final  -11.76 input   66.30 | X-H torsion
[ 10763 10752 10751 10750 ] final  -11.16 input  -60.55 | X-H torsion
[ 11005 11000 10999 10996 ] final -129.64 input  -57.11 | X-H torsion

> <Gold.Protein.ActiveResidues>
 VAL166  LYS551  ARG553  GLY616  TRP617  ASP618  TYR619  PRO620  LYS621  CYS622 
 ASP623  PHE694  ASN695  SER759  ASP760  ASP761  ALA762  ILE779  LEU786  VAL792 
 PHE793  MET794  SER795  GLU796  ALA797  LYS798  CYS799  TRP800  GLU811  SER814 

> <Gold.Protein.RotatedAtoms>
  152.3306  134.7264  160.0290 H   0  0  0  0  0  0  0  0  0  0  0  0  # atno 6907 bound_to 6896
  151.7682  133.3333  159.3445 H   0  0  0  0  0  0  0  0  0  0  0  0  # atno 6908 bound_to 6896
  150.7421  134.5975  159.6064 H   0  0  0  0  0  0  0  0  0  0  0  0  # atno 6909 bound_to 6896
  146.0338  139.4796  142.9821 H   0  0  0  0  0  0  0  0  0  0  0  0  # atno 7974 bound_to 7965
  154.8510  140.0431  157.1604 H   0  0  0  0  0  0  0  0  0  0  0  0  # atno 8008 bound_to 7997
  154.8943  140.2991  155.5332 H   0  0  0  0  0  0  0  0  0  0  0  0  # atno 8009 bound_to 7997
  156.2996  140.2387  156.3963 H   0  0  0  0  0  0  0  0  0  0  0  0  # atno 8010 bound_to 7997
  139.5410  144.6730  151.4626 H   0  0  0  0  0  0  0  0  0  0  0  0  # atno 10167 bound_to 10162
  156.6544  130.4964  149.6051 H   0  0  0  0  0  0  0  0  0  0  0  0  # atno 10718 bound_to 10713
  153.4796  135.7017  153.5945 H   0  0  0  0  0  0  0  0  0  0  0  0  # atno 10763 bound_to 10752
  153.4164  135.3836  155.2083 H   0  0  0  0  0  0  0  0  0  0  0  0  # atno 10764 bound_to 10752
  154.8722  135.3917  154.4244 H   0  0  0  0  0  0  0  0  0  0  0  0  # atno 10765 bound_to 10752
  140.9414  134.1188  157.4147 H   0  0  0  0  0  0  0  0  0  0  0  0  # atno 11005 bound_to 11000
  145.6997  141.0139  143.1511 LP  0  0  0  0  0  0  0  0  0  0  0  0  # atno 17320 bound_to 7965
  144.7042  139.8630  143.7435 LP  0  0  0  0  0  0  0  0  0  0  0  0  # atno 17321 bound_to 7965
  140.6639  143.8439  150.6919 LP  0  0  0  0  0  0  0  0  0  0  0  0  # atno 17342 bound_to 10162
  140.1842  143.4089  152.1910 LP  0  0  0  0  0  0  0  0  0  0  0  0  # atno 17343 bound_to 10162
  156.2059  130.6649  151.1218 LP  0  0  0  0  0  0  0  0  0  0  0  0  # atno 17370 bound_to 10713
  157.7130  131.0724  150.6431 LP  0  0  0  0  0  0  0  0  0  0  0  0  # atno 17371 bound_to 10713
  139.8821  135.0038  156.6207 LP  0  0  0  0  0  0  0  0  0  0  0  0  # atno 17394 bound_to 11000
  140.7729  133.8723  155.8506 LP  0  0  0  0  0  0  0  0  0  0  0  0  # atno 17395 bound_to 11000

$$$$
