AV-unprocessed.smi:1956|AV-procd|sdf|7900|dock9
  -GOLD-   2272010 53D 1   1.00000     0.00000
 Structure written by MMmdl.
 46 47  0  0  0  0  0  0  0  0  2 V2000
  154.6864  137.1276  157.2704 C   0  0  0  0  0  0  0  0  0  0  0  0
  153.9677  138.3309  157.0230 O   0  0  0  0  0  0  0  0  0  0  0  0
  152.8958  138.2870  156.1554 C   0  0  0  0  0  0  0  0  0  0  0  0
  151.9813  139.3584  156.1600 C   0  0  0  0  0  0  0  0  0  0  0  0
  150.8829  139.3217  155.2802 C   0  0  0  0  0  0  0  0  0  0  0  0
  150.7366  138.2120  154.4130 C   0  0  0  0  0  0  0  0  0  0  0  0
  149.6663  138.0412  153.4922 N   0  0  0  0  0  0  0  0  0  0  0  0
  148.3960  138.4703  153.5844 C   0  0  0  0  0  0  0  0  0  0  0  0
  147.9374  139.1592  154.4945 O   0  0  0  0  0  0  0  0  0  0  0  0
  147.6665  138.0546  152.5393 N   0  0  0  0  0  0  0  0  0  0  0  0
  146.2504  138.3508  152.3322 C   0  0  0  0  0  0  0  0  0  0  0  0
  145.5279  137.2955  151.4658 C   0  0  0  0  0  0  0  0  0  0  0  0
  145.9305  135.9016  151.7855 N   0  3  1  0  0  0  0  0  0  0  0  0
  145.8605  135.6110  153.2399 C   0  0  0  0  0  0  0  0  0  0  0  0
  146.4255  134.2160  153.5497 C   0  0  0  0  0  0  0  0  0  0  0  0
  145.6932  133.1370  152.7423 C   0  0  0  0  0  0  0  0  0  0  0  0
  145.7440  133.4657  151.2403 C   0  0  1  0  0  0  0  0  0  0  0  0
  144.9875  132.4172  150.4125 C   0  0  0  0  0  0  0  0  0  0  0  0
  145.1989  134.8852  150.9841 C   0  0  0  0  0  0  0  0  0  0  0  0
  151.7030  137.1878  154.4933 C   0  0  0  0  0  0  0  0  0  0  0  0
  152.7573  137.2163  155.3352 N   0  0  0  0  0  0  0  0  0  0  0  0
  155.4992  137.3302  157.9677 H   0  0  0  0  0  0  0  0  0  0  0  0
  155.1275  136.7300  156.3554 H   0  0  0  0  0  0  0  0  0  0  0  0
  154.0468  136.3666  157.7200 H   0  0  0  0  0  0  0  0  0  0  0  0
  152.1172  140.1930  156.8321 H   0  0  0  0  0  0  0  0  0  0  0  0
  150.1768  140.1361  155.3030 H   0  0  0  0  0  0  0  0  0  0  0  0
  149.9075  137.5506  152.6434 H   0  0  0  0  0  0  0  0  0  0  0  0
  148.1267  137.5063  151.8268 H   0  0  0  0  0  0  0  0  0  0  0  0
  145.7498  138.4492  153.2967 H   0  0  0  0  0  0  0  0  0  0  0  0
  146.1837  139.3306  151.8598 H   0  0  0  0  0  0  0  0  0  0  0  0
  144.4555  137.4003  151.6354 H   0  0  0  0  0  0  0  0  0  0  0  0
  145.6832  137.4981  150.4052 H   0  0  0  0  0  0  0  0  0  0  0  0
  146.4316  136.3571  153.7936 H   0  0  0  0  0  0  0  0  0  0  0  0
  144.8260  135.6850  153.5789 H   0  0  0  0  0  0  0  0  0  0  0  0
  147.4907  134.1915  153.3156 H   0  0  0  0  0  0  0  0  0  0  0  0
  146.3381  134.0064  154.6161 H   0  0  0  0  0  0  0  0  0  0  0  0
  146.1435  132.1620  152.9323 H   0  0  0  0  0  0  0  0  0  0  0  0
  144.6562  133.0718  153.0750 H   0  0  0  0  0  0  0  0  0  0  0  0
  146.7882  133.4438  150.9244 H   0  0  0  0  0  0  0  0  0  0  0  0
  143.9317  132.3846  150.6835 H   0  0  0  0  0  0  0  0  0  0  0  0
  145.4016  131.4205  150.5679 H   0  0  0  0  0  0  0  0  0  0  0  0
  145.0504  132.6370  149.3463 H   0  0  0  0  0  0  0  0  0  0  0  0
  144.1351  134.9308  151.2240 H   0  0  0  0  0  0  0  0  0  0  0  0
  145.2927  135.1155  149.9230 H   0  0  0  0  0  0  0  0  0  0  0  0
  151.6307  136.3154  153.8603 H   0  0  0  0  0  0  0  0  0  0  0  0
  146.9062  135.8273  151.5349 H   0  0  0  0  0  0  0  0  0  0  0  0
  1  2  1  0  0  0  0
  1 22  1  0  0  0  0
  1 23  1  0  0  0  0
  1 24  1  0  0  0  0
  2  3  1  0  0  0  0
  3 21  1  0  0  0  0
  3  4  2  0  0  0  0
  4  5  1  0  0  0  0
  4 25  1  0  0  0  0
  5  6  2  0  0  0  0
  5 26  1  0  0  0  0
  6  7  1  0  0  0  0
  6 20  1  0  0  0  0
  7  8  1  0  0  0  0
  7 27  1  0  0  0  0
  8  9  2  0  0  0  0
  8 10  1  0  0  0  0
 10 11  1  0  0  0  0
 10 28  1  0  0  0  0
 11 12  1  0  0  0  0
 11 29  1  0  0  0  0
 11 30  1  0  0  0  0
 12 13  1  0  0  0  0
 12 31  1  0  0  0  0
 12 32  1  0  0  0  0
 13 19  1  0  0  0  0
 13 14  1  0  0  0  0
 13 46  1  0  0  0  0
 14 15  1  0  0  0  0
 14 33  1  0  0  0  0
 14 34  1  0  0  0  0
 15 16  1  0  0  0  0
 15 35  1  0  0  0  0
 15 36  1  0  0  0  0
 16 17  1  0  0  0  0
 16 37  1  0  0  0  0
 16 38  1  0  0  0  0
 17 18  1  0  0  0  0
 17 19  1  0  0  0  0
 17 39  1  0  0  0  0
 18 40  1  0  0  0  0
 18 41  1  0  0  0  0
 18 42  1  0  0  0  0
 19 43  1  0  0  0  0
 19 44  1  0  0  0  0
 20 21  2  0  0  0  0
 20 45  1  0  0  0  0
M  CHG  1  13   1
M  END
> <s_m_source_file>
AV-unprocessed.smi

> <i_m_source_file_index>
1956

> <i_lp_mmshare_version>
43012

> <i_f3d_flags>
0

> <s_epik_input>
W0NIM11PYzFbY0hdW2NIXWMoW2NIXW4xKVtOSF1DKD1PKVtOSF1bQ0gyXVtDSDJdTjJbQ0gyXVtDSDJdW0NIMl1bQ0BASF0oW0NIM10pW0NIMl0y

> <s_epik_cmdline>
J2VwaWtfcHl0aG9uJywgJy1waCcsICc3LjAnLCAnLXRuJywgJzgnLCAnLW1hJywgJzIwMCcsICctbWV0YWxfYmluZGluZycsICctaW1hZScsICc8aW5maWxlLm1hZT4nLCAnLW9tYWUnLCAnPG91dGZpbGUubWFlPic=

> <r_lp_tautomer_probability>
1

> <r_epik_Ionization_Penalty>
0.00179545

> <r_epik_Ionization_Penalty_Charging>
0.00171832

> <r_epik_Ionization_Penalty_Neutral>
7.7124e-05

> <r_epik_State_Penalty>
0.0011618

> <r_epik_Charging_Adjusted_Penalty>
0.00288012

> <i_epik_Tot_Q>
1

> <i_epik_Tot_abs_Q>
1

> <r_epik_Metal_State_Penalty>
-0

> <b_epik_Metal_Only>
0

> <s_lp_Force_Field>
OPLS_2005

> <r_lp_Energy>
26.1696

> <b_lp_Chiralities_Consistent>
1

> <s_lp_Variant>
AV-unprocessed.smi:1956-1

> <Gold.Version>
5.8.1

> <Gold.Id.Protein>
6NUR|6NUR_protein|mol2

> <Gold.PLP.Fitness>
45.3871

> <Gold.PLP.PLP>
-31.1825

> <Gold.PLP.part.hbond>
-6.4112

> <Gold.PLP.part.metal>
0.0000

> <Gold.PLP.part.buried>
3.6863

> <Gold.PLP.part.nonpolar>
-29.9974

> <Gold.PLP.part.repulsive>
0.3196

> <Gold.PLP.ligand.clash>
0.0000

> <Gold.PLP.ligand.torsion>
0.6946

> <Gold.PLP.Chemscore.Hbond>
4.2047

> <Gold.PLP.Chemscore.CHOScore>
0.9763

> <Gold.PLP.Chemscore.Metal>
0.0000

> <Gold.Chemscore.Hbonds>
donor molecule, donor type, donor heavy atom, donor atom, acceptor molecule, acceptor atom, score
      L1  H     7    27       P1  7948  0.49
      L1  H    10    28       P1  7948  0.63
      L1  H    13    46       P1  7948  1.79
      P1  H  7997  8010       L1     2  0.67
      P1  H 10752 10763       L1    21  0.32
      L1  C    20    45       P1  7949  1.00

> <Gold.PLP.Chemscore.Internal.Correction>
0.0508

> <Gold.Rescore>
     Score         DG    S(hbond)    S(metal)    S(lipo)     H(rot)  DE(clash)    DE(int)     intcor
     16.98     -18.64       2.63        0.00      74.85       1.71       0.93       0.73       ----

> <Gold.Chemscore.Fitness>
16.9773

> <Gold.Chemscore.DG>
-18.6423

> <Gold.Chemscore.ZeroCoef>
-5.4800

> <Gold.Chemscore.Hbond>
2.6300

> <Gold.Chemscore.Metal>
0.0000

> <Gold.Chemscore.Lipo>
74.8506

> <Gold.Chemscore.Internal_Hbond>
0.0000

> <Gold.Chemscore.DEClash>
0.9337

> <Gold.Chemscore.DEInternal>
0.7313

> <Gold.Chemscore.Rot>
1.7107

> <Gold.Chemscore.Internal.Correction>
   9.000000E+99

> <Gold.Chemscore.Hbonds>
donor molecule, donor type, donor heavy atom, donor atom, acceptor molecule, acceptor atom, score
      L1  H     7    27       P1  7948  0.08
      L1  H    10    28       P1  7948  0.60
      L1  H    13    46       P1  7948  0.83
      P1  H  7997  8010       L1     2  0.43
      P1  H 10752 10763       L1    21  0.04

> <Gold.Chemscore.Hbond.Weighted>
-8.7842

> <Gold.Chemscore.Metal.Weighted>
-0.0000

> <Gold.Chemscore.Lipo.Weighted>
-8.7575

> <Gold.Chemscore.Internal_Hbond.Weighted>
0.0000

> <Gold.Chemscore.DEClash.Weighted>
0.9337

> <Gold.Chemscore.DEInternal.Weighted>
0.7313

> <Gold.Chemscore.Rot.Weighted>
4.3794

> <Gold.Chemscore.Internal.Correction.Weighted>
   9.000000E+99

> <Gold.Protein.RotatedTorsions>
[ 6907 6896 6895 6894 ] final   98.60 input  -60.11 | X-H torsion
[ 7974 7965 7964 7962 ] final  154.96 input  175.53 | X-H torsion
[ 8008 7997 7996 7995 ] final   32.59 input   59.86 | X-H torsion
[ 10167 10162 10161 10158 ] final   83.51 input  -65.29 | X-H torsion
[ 10718 10713 10712 10709 ] final  -82.34 input   66.30 | X-H torsion
[ 10763 10752 10751 10750 ] final   94.03 input  -60.55 | X-H torsion
[ 11005 11000 10999 10996 ] final   -9.16 input  -57.11 | X-H torsion

> <Gold.Protein.ActiveResidues>
 VAL166  LYS551  ARG553  GLY616  TRP617  ASP618  TYR619  PRO620  LYS621  CYS622 
 ASP623  PHE694  ASN695  SER759  ASP760  ASP761  ALA762  ILE779  LEU786  VAL792 
 PHE793  MET794  SER795  GLU796  ALA797  LYS798  CYS799  TRP800  GLU811  SER814 

> <Gold.Protein.RotatedAtoms>
  152.5406  134.0556  159.8128 H   0  0  0  0  0  0  0  0  0  0  0  0  # atno 6907 bound_to 6896
  151.0691  133.5473  159.2635 H   0  0  0  0  0  0  0  0  0  0  0  0  # atno 6908 bound_to 6896
  151.2343  135.0574  159.9054 H   0  0  0  0  0  0  0  0  0  0  0  0  # atno 6909 bound_to 6896
  144.8055  139.7004  143.6164 H   0  0  0  0  0  0  0  0  0  0  0  0  # atno 7974 bound_to 7965
  155.1249  140.3252  155.4488 H   0  0  0  0  0  0  0  0  0  0  0  0  # atno 8008 bound_to 7997
  156.2652  140.2020  156.6319 H   0  0  0  0  0  0  0  0  0  0  0  0  # atno 8009 bound_to 7997
  154.6656  140.0542  157.0096 H   0  0  0  0  0  0  0  0  0  0  0  0  # atno 8010 bound_to 7997
  139.9176  144.6233  150.8473 H   0  0  0  0  0  0  0  0  0  0  0  0  # atno 10167 bound_to 10162
  156.0035  130.4631  150.4090 H   0  0  0  0  0  0  0  0  0  0  0  0  # atno 10718 bound_to 10713
  153.2370  135.4304  155.0657 H   0  0  0  0  0  0  0  0  0  0  0  0  # atno 10763 bound_to 10752
  154.8323  135.3393  154.6704 H   0  0  0  0  0  0  0  0  0  0  0  0  # atno 10764 bound_to 10752
  153.7129  135.7021  153.5089 H   0  0  0  0  0  0  0  0  0  0  0  0  # atno 10765 bound_to 10752
  140.7312  133.8747  155.8894 H   0  0  0  0  0  0  0  0  0  0  0  0  # atno 11005 bound_to 11000
  146.2345  139.5879  142.9533 LP  0  0  0  0  0  0  0  0  0  0  0  0  # atno 17320 bound_to 7965
  145.5449  141.0418  143.2310 LP  0  0  0  0  0  0  0  0  0  0  0  0  # atno 17321 bound_to 7965
  140.7670  143.3320  151.2390 LP  0  0  0  0  0  0  0  0  0  0  0  0  # atno 17342 bound_to 10162
  139.6889  143.9726  152.2848 LP  0  0  0  0  0  0  0  0  0  0  0  0  # atno 17343 bound_to 10162
  157.2154  131.0470  151.2576 LP  0  0  0  0  0  0  0  0  0  0  0  0  # atno 17370 bound_to 10713
  157.3850  130.7251  149.6657 LP  0  0  0  0  0  0  0  0  0  0  0  0  # atno 17371 bound_to 10713
  140.9919  134.1267  157.4400 LP  0  0  0  0  0  0  0  0  0  0  0  0  # atno 17394 bound_to 11000
  139.8826  135.0043  156.6240 LP  0  0  0  0  0  0  0  0  0  0  0  0  # atno 17395 bound_to 11000

$$$$
