AV-unprocessed.smi:2858|AV-procd|sdf|11002|dock4
  -GOLD-   2272015463D 1   1.00000     0.00000
 Structure written by MMmdl.
 39 40  0  0  0  0  0  0  0  0  3 V2000
  152.0657  136.9721  155.2111 O   0  0  0  0  0  0  0  0  0  0  0  0
  150.8411  136.8804  155.1633 C   0  0  0  0  0  0  0  0  0  0  0  0
  150.0659  138.1167  154.6324 C   0  0  0  0  0  0  0  0  0  0  0  0
  148.6859  137.7720  154.1823 N   0  3  2  0  0  0  0  0  0  0  0  0
  147.9047  138.9542  153.7396 C   0  0  0  0  0  0  0  0  0  0  0  0
  148.0370  140.1394  154.7100 C   0  0  0  0  0  0  0  0  0  0  0  0
  148.8234  141.3103  154.0995 C   0  0  0  0  0  0  0  0  0  0  0  0
  149.2828  142.2352  155.1289 N   0  0  0  0  0  0  0  0  0  0  0  0
  150.1456  141.9262  156.1078 C   0  0  0  0  0  0  0  0  0  0  0  0
  150.6601  140.8140  156.2303 O   0  0  0  0  0  0  0  0  0  0  0  0
  150.3553  142.9758  156.9215 N   0  0  0  0  0  0  0  0  0  0  0  0
  151.2058  143.0506  158.0566 C   0  0  0  0  0  0  0  0  0  0  0  0
  151.4868  141.8117  158.6755 C   0  0  0  0  0  0  0  0  0  0  0  0
  152.3172  141.7777  159.8123 C   0  0  0  0  0  0  0  0  0  0  0  0
  152.8458  142.9853  160.3021 C   0  0  0  0  0  0  0  0  0  0  0  0
  152.5169  144.1751  159.6269 C   0  0  0  0  0  0  0  0  0  0  0  0
  151.7217  144.2100  158.5366 N   0  0  0  0  0  0  0  0  0  0  0  0
  147.9621  136.9535  155.1890 C   0  0  0  0  0  0  0  0  0  0  0  0
  148.6690  135.5992  155.3882 C   0  0  0  0  0  0  0  0  0  0  0  0
  150.1090  135.8016  155.5819 N   0  5  0  0  0  0  0  0  0  0  0  0
  150.0228  138.8634  155.4265 H   0  0  0  0  0  0  0  0  0  0  0  0
  150.6325  138.5506  153.8088 H   0  0  0  0  0  0  0  0  0  0  0  0
  148.2692  139.2794  152.7642 H   0  0  0  0  0  0  0  0  0  0  0  0
  146.8583  138.6786  153.6015 H   0  0  0  0  0  0  0  0  0  0  0  0
  147.0523  140.4977  155.0096 H   0  0  0  0  0  0  0  0  0  0  0  0
  148.5335  139.8003  155.6204 H   0  0  0  0  0  0  0  0  0  0  0  0
  149.6715  140.9431  153.5188 H   0  0  0  0  0  0  0  0  0  0  0  0
  148.1889  141.8629  153.4061 H   0  0  0  0  0  0  0  0  0  0  0  0
  148.9078  143.1721  155.1008 H   0  0  0  0  0  0  0  0  0  0  0  0
  149.8494  143.8213  156.7035 H   0  0  0  0  0  0  0  0  0  0  0  0
  151.0719  140.8930  158.2862 H   0  0  0  0  0  0  0  0  0  0  0  0
  152.5436  140.8408  160.2996 H   0  0  0  0  0  0  0  0  0  0  0  0
  153.4855  142.9998  161.1722 H   0  0  0  0  0  0  0  0  0  0  0  0
  152.9015  145.1240  159.9705 H   0  0  0  0  0  0  0  0  0  0  0  0
  147.9055  137.5004  156.1317 H   0  0  0  0  0  0  0  0  0  0  0  0
  146.9368  136.7699  154.8663 H   0  0  0  0  0  0  0  0  0  0  0  0
  148.2138  135.0744  156.2277 H   0  0  0  0  0  0  0  0  0  0  0  0
  148.4818  134.9776  154.5122 H   0  0  0  0  0  0  0  0  0  0  0  0
  148.7882  137.1705  153.3776 H   0  0  0  0  0  0  0  0  0  0  0  0
  1  2  2  0  0  0  0
  2 20  1  0  0  0  0
  2  3  1  0  0  0  0
  3  4  1  0  0  0  0
  3 21  1  0  0  0  0
  3 22  1  0  0  0  0
  4  5  1  0  0  0  0
  4 18  1  0  0  0  0
  4 39  1  0  0  0  0
  5  6  1  0  0  0  0
  5 23  1  0  0  0  0
  5 24  1  0  0  0  0
  6  7  1  0  0  0  0
  6 25  1  0  0  0  0
  6 26  1  0  0  0  0
  7  8  1  0  0  0  0
  7 27  1  0  0  0  0
  7 28  1  0  0  0  0
  8  9  1  0  0  0  0
  8 29  1  0  0  0  0
  9 10  2  0  0  0  0
  9 11  1  0  0  0  0
 11 12  1  0  0  0  0
 11 30  1  0  0  0  0
 12 17  1  0  0  0  0
 12 13  2  0  0  0  0
 13 14  1  0  0  0  0
 13 31  1  0  0  0  0
 14 15  2  0  0  0  0
 14 32  1  0  0  0  0
 15 16  1  0  0  0  0
 15 33  1  0  0  0  0
 16 17  2  0  0  0  0
 16 34  1  0  0  0  0
 18 19  1  0  0  0  0
 18 35  1  0  0  0  0
 18 36  1  0  0  0  0
 19 20  1  0  0  0  0
 19 37  1  0  0  0  0
 19 38  1  0  0  0  0
M  CHG  1   4   1
M  CHG  1  20  -1
M  END
> <s_m_source_file>
AV-unprocessed.smi

> <i_m_source_file_index>
2858

> <i_lp_mmshare_version>
43012

> <i_f3d_flags>
0

> <s_epik_input>
Tz1DMVtDSDJdTihbQ0gyXVtDSDJdW05IXTEpW0NIMl1bQ0gyXVtDSDJdW05IXUMoPU8pW05IXWMyW2NIXVtjSF1bY0hdW2NIXW4y

> <s_epik_cmdline>
J2VwaWtfcHl0aG9uJywgJy1waCcsICc3LjAnLCAnLXRuJywgJzgnLCAnLW1hJywgJzIwMCcsICctbWV0YWxfYmluZGluZycsICctaW1hZScsICc8aW5maWxlLm1hZT4nLCAnLW9tYWUnLCAnPG91dGZpbGUubWFlPic=

> <r_epik_Ionization_Penalty>
5.09835

> <r_epik_Ionization_Penalty_Charging>
5.09831

> <r_epik_Ionization_Penalty_Neutral>
4.20822e-05

> <r_epik_State_Penalty>
5.19693

> <r_epik_Charging_Adjusted_Penalty>
10.2952

> <i_epik_Tot_Q>
0

> <i_epik_Tot_abs_Q>
2

> <r_epik_Metal_State_Penalty>
1.27693

> <b_epik_Metal_Only>
1

> <s_lp_Force_Field>
OPLS_2005

> <r_lp_Energy>
13.8629

> <b_lp_Chiralities_Consistent>
1

> <s_lp_Variant>
AV-unprocessed.smi:2858-4

> <Gold.Version>
5.8.1

> <Gold.Id.Protein>
6NUR|6NUR_protein|mol2

> <Gold.PLP.Fitness>
47.8431

> <Gold.PLP.PLP>
-34.6612

> <Gold.PLP.part.hbond>
-3.7823

> <Gold.PLP.part.metal>
0.0000

> <Gold.PLP.part.buried>
-5.2577

> <Gold.PLP.part.nonpolar>
-26.5352

> <Gold.PLP.part.repulsive>
0.5495

> <Gold.PLP.ligand.clash>
0.0000

> <Gold.PLP.ligand.torsion>
0.7274

> <Gold.PLP.Chemscore.Hbond>
4.8640

> <Gold.PLP.Chemscore.CHOScore>
0.0000

> <Gold.PLP.Chemscore.Metal>
0.0000

> <Gold.Chemscore.Hbonds>
donor molecule, donor type, donor heavy atom, donor atom, acceptor molecule, acceptor atom, score
      L1  H     4    39       P1  7948  2.00
      L1  H     8    29       P1  8028  1.00
      L1  H    11    30       P1  8028  1.00
      P1  H 10752 10764       L1     1  0.94

> <Gold.PLP.Chemscore.Internal.Correction>
0.0447

> <Gold.Rescore>
     Score         DG    S(hbond)    S(metal)    S(lipo)     H(rot)  DE(clash)    DE(int)     intcor
     19.62     -21.77       3.96        0.00      70.50       2.02       0.01       2.15       ----

> <Gold.Chemscore.Fitness>
19.6153

> <Gold.Chemscore.DG>
-21.7746

> <Gold.Chemscore.ZeroCoef>
-5.4800

> <Gold.Chemscore.Hbond>
3.9583

> <Gold.Chemscore.Metal>
0.0000

> <Gold.Chemscore.Lipo>
70.4965

> <Gold.Chemscore.Internal_Hbond>
0.0000

> <Gold.Chemscore.DEClash>
0.0106

> <Gold.Chemscore.DEInternal>
2.1486

> <Gold.Chemscore.Rot>
2.0213

> <Gold.Chemscore.Internal.Correction>
   9.000000E+99

> <Gold.Chemscore.Hbonds>
donor molecule, donor type, donor heavy atom, donor atom, acceptor molecule, acceptor atom, score
      L1  H     4    39       P1  7948  1.00
      L1  H     8    29       P1  8028  0.96
      L1  H    11    30       P1  8028  0.96
      P1  H 10752 10764       L1     1  0.85

> <Gold.Chemscore.Hbond.Weighted>
-13.2209

> <Gold.Chemscore.Metal.Weighted>
-0.0000

> <Gold.Chemscore.Lipo.Weighted>
-8.2481

> <Gold.Chemscore.Internal_Hbond.Weighted>
0.0000

> <Gold.Chemscore.DEClash.Weighted>
0.0106

> <Gold.Chemscore.DEInternal.Weighted>
2.1486

> <Gold.Chemscore.Rot.Weighted>
5.1744

> <Gold.Chemscore.Internal.Correction.Weighted>
   9.000000E+99

> <Gold.Protein.RotatedTorsions>
[ 6907 6896 6895 6894 ] final -151.65 input  -60.11 | X-H torsion
[ 7974 7965 7964 7962 ] final  138.05 input  175.53 | X-H torsion
[ 8008 7997 7996 7995 ] final -178.30 input   59.86 | X-H torsion
[ 10167 10162 10161 10158 ] final  -49.44 input  -65.29 | X-H torsion
[ 10718 10713 10712 10709 ] final -146.48 input   66.30 | X-H torsion
[ 10763 10752 10751 10750 ] final  -59.06 input  -60.55 | X-H torsion
[ 11005 11000 10999 10996 ] final  -68.86 input  -57.11 | X-H torsion

> <Gold.Protein.ActiveResidues>
 VAL166  LYS551  ARG553  GLY616  TRP617  ASP618  TYR619  PRO620  LYS621  CYS622 
 ASP623  PHE694  ASN695  SER759  ASP760  ASP761  ALA762  ILE779  LEU786  VAL792 
 PHE793  MET794  SER795  GLU796  ALA797  LYS798  CYS799  TRP800  GLU811  SER814 

> <Gold.Protein.RotatedAtoms>
  151.2162  133.4528  159.2599 H   0  0  0  0  0  0  0  0  0  0  0  0  # atno 6907 bound_to 6896
  151.0928  134.9926  159.8421 H   0  0  0  0  0  0  0  0  0  0  0  0  # atno 6908 bound_to 6896
  152.5436  134.2095  159.8797 H   0  0  0  0  0  0  0  0  0  0  0  0  # atno 6909 bound_to 6896
  144.9409  139.4932  143.5572 H   0  0  0  0  0  0  0  0  0  0  0  0  # atno 7974 bound_to 7965
  156.0172  140.1253  157.0394 H   0  0  0  0  0  0  0  0  0  0  0  0  # atno 8008 bound_to 7997
  154.4298  140.1076  156.5982 H   0  0  0  0  0  0  0  0  0  0  0  0  # atno 8009 bound_to 7997
  155.5996  140.3470  155.4592 H   0  0  0  0  0  0  0  0  0  0  0  0  # atno 8010 bound_to 7997
  140.6685  143.2698  151.4215 H   0  0  0  0  0  0  0  0  0  0  0  0  # atno 10167 bound_to 10162
  156.3954  130.7907  151.2113 H   0  0  0  0  0  0  0  0  0  0  0  0  # atno 10718 bound_to 10713
  154.2478  135.6331  153.5229 H   0  0  0  0  0  0  0  0  0  0  0  0  # atno 10763 bound_to 10752
  152.9918  135.5557  154.5841 H   0  0  0  0  0  0  0  0  0  0  0  0  # atno 10764 bound_to 10752
  154.5361  135.2891  155.1112 H   0  0  0  0  0  0  0  0  0  0  0  0  # atno 10765 bound_to 10752
  141.1541  133.6750  156.6511 H   0  0  0  0  0  0  0  0  0  0  0  0  # atno 11005 bound_to 11000
  146.3285  139.8428  142.8887 LP  0  0  0  0  0  0  0  0  0  0  0  0  # atno 17320 bound_to 7965
  145.2992  141.0189  143.3618 LP  0  0  0  0  0  0  0  0  0  0  0  0  # atno 17321 bound_to 7965
  139.5943  144.1431  152.2125 LP  0  0  0  0  0  0  0  0  0  0  0  0  # atno 17342 bound_to 10162
  140.0795  144.5712  150.7132 LP  0  0  0  0  0  0  0  0  0  0  0  0  # atno 17343 bound_to 10162
  157.7501  131.0303  150.4130 LP  0  0  0  0  0  0  0  0  0  0  0  0  # atno 17370 bound_to 10713
  156.4399  130.3989  149.6704 LP  0  0  0  0  0  0  0  0  0  0  0  0  # atno 17371 bound_to 10713
  140.3320  134.7921  157.4333 LP  0  0  0  0  0  0  0  0  0  0  0  0  # atno 17394 bound_to 11000
  140.1009  134.5474  155.8354 LP  0  0  0  0  0  0  0  0  0  0  0  0  # atno 17395 bound_to 11000

$$$$
