AV-unprocessed.smi:2439|AV-procd|sdf|9609|dock3
  -GOLD-   2272013243D 1   1.00000     0.00000
 Structure written by MMmdl.
 41 43  0  0  0  0  0  0  0  0  2 V2000
  151.5670  136.7942  154.3311 N   0  0  0  0  0  0  0  0  0  0  0  0
  151.0547  137.8232  154.4620 C   0  0  0  0  0  0  0  0  0  0  0  0
  150.4093  139.1198  154.6289 C   0  0  0  0  0  0  0  0  0  0  0  0
  151.0234  140.0888  155.4499 C   0  0  0  0  0  0  0  0  0  0  0  0
  150.4018  141.3399  155.6160 C   0  0  0  0  0  0  0  0  0  0  0  0
  149.1851  141.5734  154.9501 C   0  0  0  0  0  0  0  0  0  0  0  0
  148.5867  140.6558  154.1618 N   0  0  0  0  0  0  0  0  0  0  0  0
  149.1791  139.4474  153.9978 C   0  0  0  0  0  0  0  0  0  0  0  0
  148.5297  138.5126  153.1722 N   0  0  0  0  0  0  0  0  0  0  0  0
  147.1059  138.6212  152.8878 C   0  0  0  0  0  0  0  0  0  0  0  0
  146.2625  137.8358  153.9112 C   0  0  2  0  0  0  0  0  0  0  0  0
  147.0102  136.6279  154.5065 C   0  0  0  0  0  0  0  0  0  0  0  0
  147.1622  135.5426  153.5089 N   0  3  1  0  0  0  0  0  0  0  0  0
  147.9179  134.3848  154.0517 C   0  0  0  0  0  0  0  0  0  0  0  0
  148.1386  133.3107  152.9753 C   0  0  0  0  0  0  0  0  0  0  0  0
  146.8016  132.8595  152.3748 C   0  0  0  0  0  0  0  0  0  0  0  0
  146.0305  134.0742  151.8423 C   0  0  0  0  0  0  0  0  0  0  0  0
  145.8475  135.1483  152.9339 C   0  0  2  0  0  0  0  0  0  0  0  0
  145.1231  136.3872  152.3735 C   0  0  0  0  0  0  0  0  0  0  0  0
  145.0153  137.3967  153.3717 O   0  0  0  0  0  0  0  0  0  0  0  0
  151.9587  139.8810  155.9499 H   0  0  0  0  0  0  0  0  0  0  0  0
  150.8472  142.1015  156.2391 H   0  0  0  0  0  0  0  0  0  0  0  0
  148.6778  142.5212  155.0533 H   0  0  0  0  0  0  0  0  0  0  0  0
  149.0250  137.6857  152.8692 H   0  0  0  0  0  0  0  0  0  0  0  0
  146.8099  139.6696  152.8588 H   0  0  0  0  0  0  0  0  0  0  0  0
  146.9271  138.2209  151.8891 H   0  0  0  0  0  0  0  0  0  0  0  0
  146.0268  138.5145  154.7320 H   0  0  0  0  0  0  0  0  0  0  0  0
  147.9900  136.9368  154.8727 H   0  0  0  0  0  0  0  0  0  0  0  0
  146.4582  136.2459  155.3669 H   0  0  0  0  0  0  0  0  0  0  0  0
  148.8827  134.7242  154.4307 H   0  0  0  0  0  0  0  0  0  0  0  0
  147.3766  133.9592  154.8983 H   0  0  0  0  0  0  0  0  0  0  0  0
  148.7818  133.7054  152.1876 H   0  0  0  0  0  0  0  0  0  0  0  0
  148.6621  132.4554  153.4036 H   0  0  0  0  0  0  0  0  0  0  0  0
  146.9718  132.1398  151.5734 H   0  0  0  0  0  0  0  0  0  0  0  0
  146.2083  132.3487  153.1344 H   0  0  0  0  0  0  0  0  0  0  0  0
  146.5676  134.4982  150.9923 H   0  0  0  0  0  0  0  0  0  0  0  0
  145.0586  133.7551  151.4642 H   0  0  0  0  0  0  0  0  0  0  0  0
  145.2399  134.7294  153.7383 H   0  0  0  0  0  0  0  0  0  0  0  0
  145.6290  136.7754  151.4892 H   0  0  0  0  0  0  0  0  0  0  0  0
  144.1168  136.1159  152.0536 H   0  0  0  0  0  0  0  0  0  0  0  0
  147.7116  135.9186  152.7491 H   0  0  0  0  0  0  0  0  0  0  0  0
  1  2  3  0  0  0  0
  2  3  1  0  0  0  0
  3  8  1  0  0  0  0
  3  4  2  0  0  0  0
  4  5  1  0  0  0  0
  4 21  1  0  0  0  0
  5  6  2  0  0  0  0
  5 22  1  0  0  0  0
  6  7  1  0  0  0  0
  6 23  1  0  0  0  0
  7  8  2  0  0  0  0
  8  9  1  0  0  0  0
  9 10  1  0  0  0  0
  9 24  1  0  0  0  0
 10 11  1  0  0  0  0
 10 25  1  0  0  0  0
 10 26  1  0  0  0  0
 11 20  1  0  0  0  0
 11 12  1  0  0  0  0
 11 27  1  0  0  0  0
 12 13  1  0  0  0  0
 12 28  1  0  0  0  0
 12 29  1  0  0  0  0
 13 18  1  0  0  0  0
 13 14  1  0  0  0  0
 13 41  1  0  0  0  0
 14 15  1  0  0  0  0
 14 30  1  0  0  0  0
 14 31  1  0  0  0  0
 15 16  1  0  0  0  0
 15 32  1  0  0  0  0
 15 33  1  0  0  0  0
 16 17  1  0  0  0  0
 16 34  1  0  0  0  0
 16 35  1  0  0  0  0
 17 18  1  0  0  0  0
 17 36  1  0  0  0  0
 17 37  1  0  0  0  0
 18 19  1  0  0  0  0
 18 38  1  0  0  0  0
 19 20  1  0  0  0  0
 19 39  1  0  0  0  0
 19 40  1  0  0  0  0
M  CHG  1  13   1
M  END
> <s_m_source_file>
AV-unprocessed.smi

> <i_m_source_file_index>
2439

> <i_lp_mmshare_version>
43012

> <i_f3d_flags>
0

> <s_epik_input>
TiNDYzFbY0hdW2NIXVtjSF1uYzFbTkhdW0NIMl1bQ0BIXShbQ0gyXTIpT1tDSDJdW0NAQEhdKE4yMylbQ0gyXVtDSDJdW0NIMl1bQ0gyXTM=

> <s_epik_cmdline>
J2VwaWtfcHl0aG9uJywgJy1waCcsICc3LjAnLCAnLXRuJywgJzgnLCAnLW1hJywgJzIwMCcsICctbWV0YWxfYmluZGluZycsICctaW1hZScsICc8aW5maWxlLm1hZT4nLCAnLW9tYWUnLCAnPG91dGZpbGUubWFlPic=

> <r_epik_Ionization_Penalty>
0.0803594

> <r_epik_Ionization_Penalty_Charging>
0.0803403

> <r_epik_Ionization_Penalty_Neutral>
1.90988e-05

> <r_epik_State_Penalty>
0.0711481

> <r_epik_Charging_Adjusted_Penalty>
0.151488

> <i_epik_Tot_Q>
1

> <i_epik_Tot_abs_Q>
1

> <r_epik_Metal_State_Penalty>
0.0711482

> <b_epik_Metal_Only>
0

> <s_lp_Force_Field>
OPLS_2005

> <r_lp_Energy>
31.556

> <b_lp_Chiralities_Consistent>
1

> <s_lp_Variant>
AV-unprocessed.smi:2439-7

> <Gold.Version>
5.8.1

> <Gold.Id.Protein>
6NUR|6NUR_protein|mol2

> <Gold.PLP.Fitness>
46.1206

> <Gold.PLP.PLP>
-32.6197

> <Gold.PLP.part.hbond>
-4.0000

> <Gold.PLP.part.metal>
0.0000

> <Gold.PLP.part.buried>
-0.3736

> <Gold.PLP.part.nonpolar>
-29.0524

> <Gold.PLP.part.repulsive>
1.1897

> <Gold.PLP.ligand.clash>
0.0000

> <Gold.PLP.ligand.torsion>
0.6461

> <Gold.PLP.Chemscore.Hbond>
3.9280

> <Gold.PLP.Chemscore.CHOScore>
1.0000

> <Gold.PLP.Chemscore.Metal>
0.0000

> <Gold.Chemscore.Hbonds>
donor molecule, donor type, donor heavy atom, donor atom, acceptor molecule, acceptor atom, score
      L1  H     9    24       P1  7948  0.93
      L1  H    13    41       P1  7948  2.00
      P1  H 10752 10764       L1     1  1.00
      L1  C     6    23       P1  8028  1.00

> <Gold.PLP.Chemscore.Internal.Correction>
0.0090

> <Gold.Rescore>
     Score         DG    S(hbond)    S(metal)    S(lipo)     H(rot)  DE(clash)    DE(int)     intcor
     18.68     -19.51       2.91        0.00      64.56       1.27       0.17       0.66       ----

> <Gold.Chemscore.Fitness>
18.6804

> <Gold.Chemscore.DG>
-19.5099

> <Gold.Chemscore.ZeroCoef>
-5.4800

> <Gold.Chemscore.Hbond>
2.9092

> <Gold.Chemscore.Metal>
0.0000

> <Gold.Chemscore.Lipo>
64.5643

> <Gold.Chemscore.Internal_Hbond>
0.0000

> <Gold.Chemscore.DEClash>
0.1738

> <Gold.Chemscore.DEInternal>
0.6556

> <Gold.Chemscore.Rot>
1.2659

> <Gold.Chemscore.Internal.Correction>
   9.000000E+99

> <Gold.Chemscore.Hbonds>
donor molecule, donor type, donor heavy atom, donor atom, acceptor molecule, acceptor atom, score
      L1  H     9    24       P1  7948  0.89
      L1  H    13    41       P1  7948  0.95
      P1  H 10752 10764       L1     1  1.00

> <Gold.Chemscore.Hbond.Weighted>
-9.7166

> <Gold.Chemscore.Metal.Weighted>
-0.0000

> <Gold.Chemscore.Lipo.Weighted>
-7.5540

> <Gold.Chemscore.Internal_Hbond.Weighted>
0.0000

> <Gold.Chemscore.DEClash.Weighted>
0.1738

> <Gold.Chemscore.DEInternal.Weighted>
0.6556

> <Gold.Chemscore.Rot.Weighted>
3.2408

> <Gold.Chemscore.Internal.Correction.Weighted>
   9.000000E+99

> <Gold.Protein.RotatedTorsions>
[ 6907 6896 6895 6894 ] final -104.75 input  -60.11 | X-H torsion
[ 7974 7965 7964 7962 ] final -144.90 input  175.53 | X-H torsion
[ 8008 7997 7996 7995 ] final  -17.44 input   59.86 | X-H torsion
[ 10167 10162 10161 10158 ] final  131.66 input  -65.29 | X-H torsion
[ 10718 10713 10712 10709 ] final   23.54 input   66.30 | X-H torsion
[ 10763 10752 10751 10750 ] final  -87.17 input  -60.55 | X-H torsion
[ 11005 11000 10999 10996 ] final  128.25 input  -57.11 | X-H torsion

> <Gold.Protein.ActiveResidues>
 VAL166  LYS551  ARG553  GLY616  TRP617  ASP618  TYR619  PRO620  LYS621  CYS622 
 ASP623  PHE694  ASN695  SER759  ASP760  ASP761  ALA762  ILE779  LEU786  VAL792 
 PHE793  MET794  SER795  GLU796  ALA797  LYS798  CYS799  TRP800  GLU811  SER814 

> <Gold.Protein.RotatedAtoms>
  150.7302  134.0230  159.3707 H   0  0  0  0  0  0  0  0  0  0  0  0  # atno 6907 bound_to 6896
  151.8196  135.0653  160.0432 H   0  0  0  0  0  0  0  0  0  0  0  0  # atno 6908 bound_to 6896
  152.3013  133.5622  159.5657 H   0  0  0  0  0  0  0  0  0  0  0  0  # atno 6909 bound_to 6896
  144.8265  140.5652  143.5543 H   0  0  0  0  0  0  0  0  0  0  0  0  # atno 7974 bound_to 7965
  154.4978  140.2143  155.9409 H   0  0  0  0  0  0  0  0  0  0  0  0  # atno 8008 bound_to 7997
  156.1394  140.3182  155.8439 H   0  0  0  0  0  0  0  0  0  0  0  0  # atno 8009 bound_to 7997
  155.4149  140.0493  157.3020 H   0  0  0  0  0  0  0  0  0  0  0  0  # atno 8010 bound_to 7997
  139.5374  144.6696  151.4740 H   0  0  0  0  0  0  0  0  0  0  0  0  # atno 10167 bound_to 10162
  157.1675  130.6744  149.6066 H   0  0  0  0  0  0  0  0  0  0  0  0  # atno 10718 bound_to 10713
  154.6307  135.5423  153.7677 H   0  0  0  0  0  0  0  0  0  0  0  0  # atno 10763 bound_to 10752
  153.0283  135.6435  154.1305 H   0  0  0  0  0  0  0  0  0  0  0  0  # atno 10764 bound_to 10752
  154.1236  135.2919  155.3182 H   0  0  0  0  0  0  0  0  0  0  0  0  # atno 10765 bound_to 10752
  139.9551  134.9614  156.8975 H   0  0  0  0  0  0  0  0  0  0  0  0  # atno 11005 bound_to 11000
  145.4989  139.1484  143.3668 LP  0  0  0  0  0  0  0  0  0  0  0  0  # atno 17320 bound_to 7965
  146.2570  140.5129  142.8869 LP  0  0  0  0  0  0  0  0  0  0  0  0  # atno 17321 bound_to 7965
  140.6587  143.8544  150.6864 LP  0  0  0  0  0  0  0  0  0  0  0  0  # atno 17342 bound_to 10162
  140.1932  143.4019  152.1848 LP  0  0  0  0  0  0  0  0  0  0  0  0  # atno 17343 bound_to 10162
  155.9744  130.4690  150.6381 LP  0  0  0  0  0  0  0  0  0  0  0  0  # atno 17370 bound_to 10713
  157.4075  131.0819  151.1252 LP  0  0  0  0  0  0  0  0  0  0  0  0  # atno 17371 bound_to 10713
  140.5629  134.0518  155.7404 LP  0  0  0  0  0  0  0  0  0  0  0  0  # atno 17394 bound_to 11000
  141.1221  133.9445  157.2709 LP  0  0  0  0  0  0  0  0  0  0  0  0  # atno 17395 bound_to 11000

$$$$
