AV-unprocessed.smi:158|AV-procd|sdf|1332|dock2
  -GOLD-   2262019 33D 1   1.00000     0.00000
 Structure written by MMmdl.
 31 33  0  0  0  0  0  0  0  0  1 V2000
  154.3975  141.6282  161.4148 N   0  0  0  0  0  0  0  0  0  0  0  0
  153.6915  140.8151  160.6164 C   0  0  0  0  0  0  0  0  0  0  0  0
  153.9661  139.4903  160.6422 N   0  0  0  0  0  0  0  0  0  0  0  0
  153.2855  138.6435  159.8600 C   0  0  0  0  0  0  0  0  0  0  0  0
  153.7181  136.9782  159.9734 Cl  0  0  0  0  0  0  0  0  0  0  0  0
  152.3078  138.9433  158.9986 N   0  0  0  0  0  0  0  0  0  0  0  0
  152.0276  140.2788  158.9691 C   0  0  0  0  0  0  0  0  0  0  0  0
  152.6729  141.2770  159.7471 C   0  0  0  0  0  0  0  0  0  0  0  0
  152.1325  142.5236  159.4617 N   0  0  0  0  0  0  0  0  0  0  0  0
  151.2179  142.2707  158.5636 C   0  0  0  0  0  0  0  0  0  0  0  0
  151.0879  140.9461  158.2082 N   0  0  0  0  0  0  0  0  0  0  0  0
  150.1379  140.3576  157.2137 C   0  0  1  0  0  0  0  0  0  0  0  0
  149.4965  141.3869  156.5189 O   0  0  0  0  0  0  0  0  0  0  0  0
  149.5598  141.1473  155.1118 C   0  0  2  0  0  0  0  0  0  0  0  0
  148.2254  141.5531  154.4678 C   0  0  0  0  0  0  0  0  0  0  0  0
  148.2576  141.3289  153.0741 O   0  0  0  0  0  0  0  0  0  0  0  0
  149.9034  139.6567  155.0015 C   0  0  1  0  0  0  0  0  0  0  0  0
  150.5164  139.2975  153.7791 O   0  0  0  0  0  0  0  0  0  0  0  0
  150.8423  139.4757  156.1777 C   0  0  1  0  0  0  0  0  0  0  0  0
  152.0556  139.9673  155.9070 F   0  0  0  0  0  0  0  0  0  0  0  0
  149.4040  139.8119  157.8081 H   0  0  0  0  0  0  0  0  0  0  0  0
  150.3757  141.7542  154.7146 H   0  0  0  0  0  0  0  0  0  0  0  0
  149.0083  139.0506  155.1487 H   0  0  0  0  0  0  0  0  0  0  0  0
  150.9475  138.4471  156.5236 H   0  0  0  0  0  0  0  0  0  0  0  0
  154.2112  142.6208  161.4129 H   0  0  0  0  0  0  0  0  0  0  0  0
  155.1144  141.2476  162.0152 H   0  0  0  0  0  0  0  0  0  0  0  0
  150.6076  143.0507  158.1320 H   0  0  0  0  0  0  0  0  0  0  0  0
  147.3933  141.0034  154.9089 H   0  0  0  0  0  0  0  0  0  0  0  0
  148.0374  142.6134  154.6383 H   0  0  0  0  0  0  0  0  0  0  0  0
  147.5314  141.7872  152.6794 H   0  0  0  0  0  0  0  0  0  0  0  0
  149.8846  139.4086  153.0846 H   0  0  0  0  0  0  0  0  0  0  0  0
  1  2  1  0  0  0  0
  1 25  1  0  0  0  0
  1 26  1  0  0  0  0
  2  8  1  0  0  0  0
  2  3  2  0  0  0  0
  3  4  1  0  0  0  0
  4  5  1  0  0  0  0
  4  6  2  0  0  0  0
  6  7  1  0  0  0  0
  7 11  1  0  0  0  0
  7  8  2  0  0  0  0
  8  9  1  0  0  0  0
  9 10  2  0  0  0  0
 10 11  1  0  0  0  0
 10 27  1  0  0  0  0
 11 12  1  0  0  0  0
 12 21  1  0  0  0  0
 12 19  1  0  0  0  0
 12 13  1  0  0  0  0
 13 14  1  0  0  0  0
 14 22  1  0  0  0  0
 14 15  1  0  0  0  0
 14 17  1  0  0  0  0
 15 16  1  0  0  0  0
 15 28  1  0  0  0  0
 15 29  1  0  0  0  0
 16 30  1  0  0  0  0
 17 23  1  0  0  0  0
 17 18  1  0  0  0  0
 17 19  1  0  0  0  0
 18 31  1  0  0  0  0
 19 24  1  0  0  0  0
 19 20  1  0  0  0  0
M  END
> <s_m_source_file>
AV-unprocessed.smi

> <i_m_source_file_index>
158

> <i_lp_mmshare_version>
43012

> <i_f3d_flags>
0

> <s_epik_input>
Q2xjKG4xKW5jKFtOSDJdKWMoYzEyKW5bY0hdbjJbQ0BASF0zT1tDQEhdKFtDSDJdW09IXSlbQ0BASF0oW09IXSlbQ0BASF0zRg==

> <s_epik_cmdline>
J2VwaWtfcHl0aG9uJywgJy1waCcsICc3LjAnLCAnLXRuJywgJzgnLCAnLW1hJywgJzIwMCcsICctbWV0YWxfYmluZGluZycsICctaW1hZScsICc8aW5maWxlLm1hZT4nLCAnLW9tYWUnLCAnPG91dGZpbGUubWFlPic=

> <r_lp_tautomer_probability>
1

> <r_epik_Ionization_Penalty>
6.51543e-05

> <r_epik_Ionization_Penalty_Charging>
0

> <r_epik_Ionization_Penalty_Neutral>
6.51543e-05

> <r_epik_State_Penalty>
-0

> <r_epik_Charging_Adjusted_Penalty>
0

> <i_epik_Tot_Q>
0

> <i_epik_Tot_abs_Q>
0

> <r_epik_Metal_State_Penalty>
-0

> <b_epik_Metal_Only>
0

> <s_epik_Chemistry_Notes>
This compound contains an acetal/aminal-like group ( X-CH(R)-Y where X, Y are N, S, or O) that may be acid/base labile, releasing an aldehyde.

> <s_lp_Force_Field>
OPLS_2005

> <r_lp_Energy>
35.9633

> <b_lp_Chiralities_Consistent>
1

> <s_lp_Variant>
AV-unprocessed.smi:158-10

> <Gold.Version>
5.8.1

> <Gold.Id.Protein>
6NUR|6NUR_protein|mol2

> <Gold.PLP.Fitness>
38.3424

> <Gold.PLP.PLP>
-30.6746

> <Gold.PLP.part.hbond>
-5.0000

> <Gold.PLP.part.metal>
0.0000

> <Gold.PLP.part.buried>
-1.3745

> <Gold.PLP.part.nonpolar>
-24.5651

> <Gold.PLP.part.repulsive>
0.0836

> <Gold.PLP.ligand.clash>
0.0000

> <Gold.PLP.ligand.torsion>
0.1404

> <Gold.PLP.Chemscore.Hbond>
2.6482

> <Gold.PLP.Chemscore.CHOScore>
0.0000

> <Gold.PLP.Chemscore.Metal>
0.0000

> <Gold.Chemscore.Hbonds>
donor molecule, donor type, donor heavy atom, donor atom, acceptor molecule, acceptor atom, score
      L1  H    18    31       P1  7957  0.86
      P1  H  7989  7998       L1    18  1.00
      P1  H  8011  8017       L1    16  0.76

> <Gold.PLP.Chemscore.Internal.Correction>
0.0042

> <Gold.Rescore>
     Score         DG    S(hbond)    S(metal)    S(lipo)     H(rot)  DE(clash)    DE(int)     intcor
      6.02      -6.57       1.49        0.00      35.18       3.12       0.54       0.01       ----

> <Gold.Chemscore.Fitness>
6.0157

> <Gold.Chemscore.DG>
-6.5667

> <Gold.Chemscore.ZeroCoef>
-5.4800

> <Gold.Chemscore.Hbond>
1.4866

> <Gold.Chemscore.Metal>
0.0000

> <Gold.Chemscore.Lipo>
35.1841

> <Gold.Chemscore.Internal_Hbond>
0.0000

> <Gold.Chemscore.DEClash>
0.5430

> <Gold.Chemscore.DEInternal>
0.0080

> <Gold.Chemscore.Rot>
3.1230

> <Gold.Chemscore.Internal.Correction>
   9.000000E+99

> <Gold.Chemscore.Hbonds>
donor molecule, donor type, donor heavy atom, donor atom, acceptor molecule, acceptor atom, score
      L1  H    18    31       P1  7957  0.80
      P1  H  7989  7998       L1    18  0.07
      P1  H  8011  8017       L1    16  0.11

> <Gold.Chemscore.Hbond.Weighted>
-4.9652

> <Gold.Chemscore.Metal.Weighted>
-0.0000

> <Gold.Chemscore.Lipo.Weighted>
-4.1165

> <Gold.Chemscore.Internal_Hbond.Weighted>
0.0000

> <Gold.Chemscore.DEClash.Weighted>
0.5430

> <Gold.Chemscore.DEInternal.Weighted>
0.0080

> <Gold.Chemscore.Rot.Weighted>
7.9950

> <Gold.Chemscore.Internal.Correction.Weighted>
   9.000000E+99

> <Gold.Protein.RotatedTorsions>
[ 6907 6896 6895 6894 ] final   17.55 input  -60.11 | X-H torsion
[ 7974 7965 7964 7962 ] final -115.01 input  175.53 | X-H torsion
[ 8008 7997 7996 7995 ] final -149.21 input   59.86 | X-H torsion
[ 10167 10162 10161 10158 ] final   16.91 input  -65.29 | X-H torsion
[ 10718 10713 10712 10709 ] final   -8.35 input   66.30 | X-H torsion
[ 10763 10752 10751 10750 ] final -135.03 input  -60.55 | X-H torsion
[ 11005 11000 10999 10996 ] final  -82.34 input  -57.11 | X-H torsion

> <Gold.Protein.ActiveResidues>
 VAL166  LYS551  ARG553  GLY616  TRP617  ASP618  TYR619  PRO620  LYS621  CYS622 
 ASP623  PHE694  ASN695  SER759  ASP760  ASP761  ALA762  ILE779  LEU786  VAL792 
 PHE793  MET794  SER795  GLU796  ALA797  LYS798  CYS799  TRP800  GLU811  SER814 

> <Gold.Protein.RotatedAtoms>
  151.8514  135.0556  160.0459 H   0  0  0  0  0  0  0  0  0  0  0  0  # atno 6907 bound_to 6896
  152.2733  133.5398  159.5461 H   0  0  0  0  0  0  0  0  0  0  0  0  # atno 6908 bound_to 6896
  150.7160  134.0583  159.3864 H   0  0  0  0  0  0  0  0  0  0  0  0  # atno 6909 bound_to 6896
  145.1134  140.8626  143.3856 H   0  0  0  0  0  0  0  0  0  0  0  0  # atno 7974 bound_to 7965
  155.6040  140.0665  157.2725 H   0  0  0  0  0  0  0  0  0  0  0  0  # atno 8008 bound_to 7997
  154.4271  140.1813  156.1251 H   0  0  0  0  0  0  0  0  0  0  0  0  # atno 8009 bound_to 7997
  156.0137  140.3324  155.6970 H   0  0  0  0  0  0  0  0  0  0  0  0  # atno 8010 bound_to 7997
  140.5764  143.9065  150.6753 H   0  0  0  0  0  0  0  0  0  0  0  0  # atno 10167 bound_to 10162
  156.7038  130.5101  149.5910 H   0  0  0  0  0  0  0  0  0  0  0  0  # atno 10718 bound_to 10713
  154.8710  135.3716  154.4833 H   0  0  0  0  0  0  0  0  0  0  0  0  # atno 10763 bound_to 10752
  153.5485  135.7025  153.5608 H   0  0  0  0  0  0  0  0  0  0  0  0  # atno 10764 bound_to 10752
  153.3737  135.4014  155.1771 H   0  0  0  0  0  0  0  0  0  0  0  0  # atno 10765 bound_to 10752
  141.1663  133.7240  156.8557 H   0  0  0  0  0  0  0  0  0  0  0  0  # atno 11005 bound_to 11000
  145.0821  139.2952  143.5778 LP  0  0  0  0  0  0  0  0  0  0  0  0  # atno 17320 bound_to 7965
  146.3525  140.0330  142.8649 LP  0  0  0  0  0  0  0  0  0  0  0  0  # atno 17321 bound_to 7965
  140.2553  143.3563  152.1370 LP  0  0  0  0  0  0  0  0  0  0  0  0  # atno 17342 bound_to 10162
  139.5145  144.6949  151.5659 LP  0  0  0  0  0  0  0  0  0  0  0  0  # atno 17343 bound_to 10162
  156.1709  130.6436  151.0836 LP  0  0  0  0  0  0  0  0  0  0  0  0  # atno 17370 bound_to 10713
  157.6962  131.0793  150.6960 LP  0  0  0  0  0  0  0  0  0  0  0  0  # atno 17371 bound_to 10713
  140.1884  134.8983  157.3031 LP  0  0  0  0  0  0  0  0  0  0  0  0  # atno 17394 bound_to 11000
  140.2318  134.3900  155.7519 LP  0  0  0  0  0  0  0  0  0  0  0  0  # atno 17395 bound_to 11000

$$$$
