AV-unprocessed.smi:1412|AV-procd|sdf|5743|dock9
  -GOLD-   22720 5383D 1   1.00000     0.00000
 Structure written by MMmdl.
 42 43  0  0  0  0  0  0  0  0  2 V2000
  148.8758  140.2671  154.3404 C   0  0  0  0  0  0  0  0  0  0  0  0
  148.5822  138.7771  154.0924 C   0  0  0  0  0  0  0  0  0  0  0  0
  147.1365  138.4329  153.6195 C   0  0  2  0  0  0  0  0  0  0  0  0
  146.8397  139.1894  152.2983 C   0  0  0  0  0  0  0  0  0  0  0  0
  146.1077  138.9245  154.6861 C   0  0  0  0  0  0  0  0  0  0  0  0
  144.7222  138.9476  154.2131 N   0  0  0  0  0  0  0  0  0  0  0  0
  143.7614  138.0826  154.5688 C   0  0  0  0  0  0  0  0  0  0  0  0
  143.9361  137.1702  155.3762 O   0  0  0  0  0  0  0  0  0  0  0  0
  142.6070  138.3490  153.9324 N   0  0  0  0  0  0  0  0  0  0  0  0
  141.3678  137.6624  154.0362 C   0  0  0  0  0  0  0  0  0  0  0  0
  141.1990  136.5353  154.7453 N   0  0  0  0  0  0  0  0  0  0  0  0
  139.8919  136.0711  154.6793 N   0  0  0  0  0  0  0  0  0  0  0  0
  139.1269  136.8652  153.9248 C   0  0  0  0  0  0  0  0  0  0  0  0
  139.9280  138.2608  153.2240 S   0  0  0  0  0  0  0  0  0  0  0  0
  146.9815  136.9482  153.3933 N   0  3  0  0  0  0  0  0  0  0  0  0
  147.1526  136.0762  154.5903 C   0  0  0  0  0  0  0  0  0  0  0  0
  147.1680  134.5941  154.1788 C   0  0  0  0  0  0  0  0  0  0  0  0
  145.9720  134.2733  153.4822 O   0  0  0  0  0  0  0  0  0  0  0  0
  145.8337  135.0371  152.2926 C   0  0  0  0  0  0  0  0  0  0  0  0
  145.7601  136.5306  152.6481 C   0  0  0  0  0  0  0  0  0  0  0  0
  149.9091  140.4000  154.6613 H   0  0  0  0  0  0  0  0  0  0  0  0
  148.2424  140.6827  155.1233 H   0  0  0  0  0  0  0  0  0  0  0  0
  148.7413  140.8659  153.4400 H   0  0  0  0  0  0  0  0  0  0  0  0
  149.3075  138.4198  153.3622 H   0  0  0  0  0  0  0  0  0  0  0  0
  148.8080  138.2483  155.0179 H   0  0  0  0  0  0  0  0  0  0  0  0
  146.6875  140.2558  152.4666 H   0  0  0  0  0  0  0  0  0  0  0  0
  145.9382  138.8146  151.8127 H   0  0  0  0  0  0  0  0  0  0  0  0
  147.6589  139.1065  151.5838 H   0  0  0  0  0  0  0  0  0  0  0  0
  146.1348  138.2771  155.5626 H   0  0  0  0  0  0  0  0  0  0  0  0
  146.3821  139.9096  155.0662 H   0  0  0  0  0  0  0  0  0  0  0  0
  144.4890  139.6563  153.5328 H   0  0  0  0  0  0  0  0  0  0  0  0
  142.6162  139.1262  153.2888 H   0  0  0  0  0  0  0  0  0  0  0  0
  138.0835  136.6273  153.7804 H   0  0  0  0  0  0  0  0  0  0  0  0
  148.0860  136.2816  155.1106 H   0  0  0  0  0  0  0  0  0  0  0  0
  146.3435  136.2460  155.3006 H   0  0  0  0  0  0  0  0  0  0  0  0
  148.0370  134.3719  153.5572 H   0  0  0  0  0  0  0  0  0  0  0  0
  147.2401  133.9608  155.0632 H   0  0  0  0  0  0  0  0  0  0  0  0
  146.6646  134.8369  151.6139 H   0  0  0  0  0  0  0  0  0  0  0  0
  144.9225  134.7278  151.7801 H   0  0  0  0  0  0  0  0  0  0  0  0
  144.8692  136.7094  153.2504 H   0  0  0  0  0  0  0  0  0  0  0  0
  145.6398  137.0940  151.7246 H   0  0  0  0  0  0  0  0  0  0  0  0
  147.7544  136.7101  152.7882 H   0  0  0  0  0  0  0  0  0  0  0  0
  1  2  1  0  0  0  0
  1 21  1  0  0  0  0
  1 22  1  0  0  0  0
  1 23  1  0  0  0  0
  2  3  1  0  0  0  0
  2 24  1  0  0  0  0
  2 25  1  0  0  0  0
  3  4  1  0  0  0  0
  3  5  1  0  0  0  0
  3 15  1  0  0  0  0
  4 26  1  0  0  0  0
  4 27  1  0  0  0  0
  4 28  1  0  0  0  0
  5  6  1  0  0  0  0
  5 29  1  0  0  0  0
  5 30  1  0  0  0  0
  6  7  1  0  0  0  0
  6 31  1  0  0  0  0
  7  8  2  0  0  0  0
  7  9  1  0  0  0  0
  9 10  1  0  0  0  0
  9 32  1  0  0  0  0
 10 14  1  0  0  0  0
 10 11  2  0  0  0  0
 11 12  1  0  0  0  0
 12 13  2  0  0  0  0
 13 14  1  0  0  0  0
 13 33  1  0  0  0  0
 15 20  1  0  0  0  0
 15 16  1  0  0  0  0
 15 42  1  0  0  0  0
 16 17  1  0  0  0  0
 16 34  1  0  0  0  0
 16 35  1  0  0  0  0
 17 18  1  0  0  0  0
 17 36  1  0  0  0  0
 17 37  1  0  0  0  0
 18 19  1  0  0  0  0
 19 20  1  0  0  0  0
 19 38  1  0  0  0  0
 19 39  1  0  0  0  0
 20 40  1  0  0  0  0
 20 41  1  0  0  0  0
M  CHG  1  15   1
M  END
> <s_m_source_file>
AV-unprocessed.smi

> <i_m_source_file_index>
1412

> <i_lp_mmshare_version>
43012

> <i_f3d_flags>
0

> <s_epik_input>
W0NIMl0xW0NIMl1PW0NIMl1bQ0gyXU4xW0NAQF0oW0NIM10pKFtDSDJdW0NIM10pW0NIMl1bTkhdQyg9TylbTkhdYzJubltjSF1zMg==

> <s_epik_cmdline>
J2VwaWtfcHl0aG9uJywgJy1waCcsICc3LjAnLCAnLXRuJywgJzgnLCAnLW1hJywgJzIwMCcsICctbWV0YWxfYmluZGluZycsICctaW1hZScsICc8aW5maWxlLm1hZT4nLCAnLW9tYWUnLCAnPG91dGZpbGUubWFlPic=

> <r_lp_tautomer_probability>
1

> <r_epik_Ionization_Penalty>
0.554649

> <r_epik_Ionization_Penalty_Charging>
0.553838

> <r_epik_Ionization_Penalty_Neutral>
0.000811527

> <r_epik_State_Penalty>
0.564424

> <r_epik_Charging_Adjusted_Penalty>
1.11826

> <i_epik_Tot_Q>
1

> <i_epik_Tot_abs_Q>
1

> <r_epik_Metal_State_Penalty>
0.786249

> <b_epik_Metal_Only>
0

> <s_lp_Force_Field>
OPLS_2005

> <r_lp_Energy>
32.8849

> <b_lp_Chiralities_Consistent>
1

> <s_lp_Variant>
AV-unprocessed.smi:1412-4

> <Gold.Version>
5.8.1

> <Gold.Id.Protein>
6NUR|6NUR_protein|mol2

> <Gold.PLP.Fitness>
40.3338

> <Gold.PLP.PLP>
-25.9840

> <Gold.PLP.part.hbond>
-4.6224

> <Gold.PLP.part.metal>
0.0000

> <Gold.PLP.part.buried>
-2.3075

> <Gold.PLP.part.nonpolar>
-19.1882

> <Gold.PLP.part.repulsive>
0.2383

> <Gold.PLP.ligand.clash>
0.0000

> <Gold.PLP.ligand.torsion>
0.3415

> <Gold.PLP.Chemscore.Hbond>
4.9600

> <Gold.PLP.Chemscore.CHOScore>
0.0000

> <Gold.PLP.Chemscore.Metal>
0.0000

> <Gold.Chemscore.Hbonds>
donor molecule, donor type, donor heavy atom, donor atom, acceptor molecule, acceptor atom, score
      L1  H     6    31       P1 10175  1.00
      L1  H     9    32       P1 10175  0.96
      L1  H    15    42       P1  7948  2.00
      P1  H 11000 11005       L1    12  1.00

> <Gold.PLP.Chemscore.Internal.Correction>
0.1528

> <Gold.Rescore>
     Score         DG    S(hbond)    S(metal)    S(lipo)     H(rot)  DE(clash)    DE(int)     intcor
     17.35     -19.30       3.75        0.00      52.98       1.91       0.23       1.73       ----

> <Gold.Chemscore.Fitness>
17.3454

> <Gold.Chemscore.DG>
-19.3047

> <Gold.Chemscore.ZeroCoef>
-5.4800

> <Gold.Chemscore.Hbond>
3.7501

> <Gold.Chemscore.Metal>
0.0000

> <Gold.Chemscore.Lipo>
52.9840

> <Gold.Chemscore.Internal_Hbond>
0.0000

> <Gold.Chemscore.DEClash>
0.2316

> <Gold.Chemscore.DEInternal>
1.7276

> <Gold.Chemscore.Rot>
1.9140

> <Gold.Chemscore.Internal.Correction>
   9.000000E+99

> <Gold.Chemscore.Hbonds>
donor molecule, donor type, donor heavy atom, donor atom, acceptor molecule, acceptor atom, score
      L1  H     6    31       P1 10175  0.96
      L1  H     9    32       P1 10175  0.92
      L1  H    15    42       P1  7948  0.98
      P1  H 11000 11005       L1    12  0.25

> <Gold.Chemscore.Hbond.Weighted>
-12.5254

> <Gold.Chemscore.Metal.Weighted>
-0.0000

> <Gold.Chemscore.Lipo.Weighted>
-6.1991

> <Gold.Chemscore.Internal_Hbond.Weighted>
0.0000

> <Gold.Chemscore.DEClash.Weighted>
0.2316

> <Gold.Chemscore.DEInternal.Weighted>
1.7276

> <Gold.Chemscore.Rot.Weighted>
4.8998

> <Gold.Chemscore.Internal.Correction.Weighted>
   9.000000E+99

> <Gold.Protein.RotatedTorsions>
[ 6907 6896 6895 6894 ] final -161.28 input  -60.11 | X-H torsion
[ 7974 7965 7964 7962 ] final  -39.01 input  175.53 | X-H torsion
[ 8008 7997 7996 7995 ] final   49.21 input   59.86 | X-H torsion
[ 10167 10162 10161 10158 ] final  -92.66 input  -65.29 | X-H torsion
[ 10718 10713 10712 10709 ] final  -35.59 input   66.30 | X-H torsion
[ 10763 10752 10751 10750 ] final -120.49 input  -60.55 | X-H torsion
[ 11005 11000 10999 10996 ] final   79.48 input  -57.11 | X-H torsion

> <Gold.Protein.ActiveResidues>
 VAL166  LYS551  ARG553  GLY616  TRP617  ASP618  TYR619  PRO620  LYS621  CYS622 
 ASP623  PHE694  ASN695  SER759  ASP760  ASP761  ALA762  ILE779  LEU786  VAL792 
 PHE793  MET794  SER795  GLU796  ALA797  LYS798  CYS799  TRP800  GLU811  SER814 

> <Gold.Protein.RotatedAtoms>
  151.3622  133.3885  159.2690 H   0  0  0  0  0  0  0  0  0  0  0  0  # atno 6907 bound_to 6896
  150.9716  134.9089  159.7802 H   0  0  0  0  0  0  0  0  0  0  0  0  # atno 6908 bound_to 6896
  152.5186  134.3584  159.9328 H   0  0  0  0  0  0  0  0  0  0  0  0  # atno 6909 bound_to 6896
  146.0435  140.6578  142.9076 H   0  0  0  0  0  0  0  0  0  0  0  0  # atno 7974 bound_to 7965
  155.3985  140.3437  155.4255 H   0  0  0  0  0  0  0  0  0  0  0  0  # atno 8008 bound_to 7997
  156.1517  140.1573  156.8791 H   0  0  0  0  0  0  0  0  0  0  0  0  # atno 8009 bound_to 7997
  154.5058  140.0802  156.7873 H   0  0  0  0  0  0  0  0  0  0  0  0  # atno 8010 bound_to 7997
  140.3325  143.2987  151.9926 H   0  0  0  0  0  0  0  0  0  0  0  0  # atno 10167 bound_to 10162
  156.3368  130.4287  149.7822 H   0  0  0  0  0  0  0  0  0  0  0  0  # atno 10718 bound_to 10713
  154.8645  135.4201  154.2468 H   0  0  0  0  0  0  0  0  0  0  0  0  # atno 10763 bound_to 10752
  153.3423  135.6994  153.6863 H   0  0  0  0  0  0  0  0  0  0  0  0  # atno 10764 bound_to 10752
  153.5836  135.3568  155.2857 H   0  0  0  0  0  0  0  0  0  0  0  0  # atno 10765 bound_to 10752
  139.9171  134.7845  156.1784 H   0  0  0  0  0  0  0  0  0  0  0  0  # atno 11005 bound_to 11000
  144.7086  140.3950  143.7098 LP  0  0  0  0  0  0  0  0  0  0  0  0  # atno 17320 bound_to 7965
  145.6845  139.1625  143.2681 LP  0  0  0  0  0  0  0  0  0  0  0  0  # atno 17321 bound_to 7965
  139.4854  144.6223  151.7231 LP  0  0  0  0  0  0  0  0  0  0  0  0  # atno 17342 bound_to 10162
  140.5384  144.0619  150.6079 LP  0  0  0  0  0  0  0  0  0  0  0  0  # atno 17343 bound_to 10162
  156.5074  130.8156  151.3156 LP  0  0  0  0  0  0  0  0  0  0  0  0  # atno 17370 bound_to 10713
  157.7440  130.9925  150.2638 LP  0  0  0  0  0  0  0  0  0  0  0  0  # atno 17371 bound_to 10713
  141.0657  133.6820  156.2041 LP  0  0  0  0  0  0  0  0  0  0  0  0  # atno 17394 bound_to 11000
  140.6588  134.4989  157.5582 LP  0  0  0  0  0  0  0  0  0  0  0  0  # atno 17395 bound_to 11000

$$$$
