AV-unprocessed.smi:2842|AV-procd|sdf|10936|dock7
  -GOLD-   2272015383D 1   1.00000     0.00000
 Structure written by MMmdl.
 35 37  0  0  0  0  0  0  0  0  1 V2000
  149.3815  137.8077  155.5207 O   0  0  0  0  0  0  0  0  0  0  0  0
  149.6887  138.6222  154.6491 C   0  0  0  0  0  0  0  0  0  0  0  0
  151.0305  139.3679  154.7124 C   0  0  0  0  0  0  0  0  0  0  0  0
  151.1212  140.3088  155.8443 N   0  0  0  0  0  0  0  0  0  0  0  0
  150.2140  141.3870  155.8462 C   0  0  0  0  0  0  0  0  0  0  0  0
  150.2075  142.2710  156.7926 N   0  0  0  0  0  0  0  0  0  0  0  0
  151.1240  142.1700  157.8458 C   0  0  0  0  0  0  0  0  0  0  0  0
  151.0963  143.2506  158.9178 C   0  0  0  0  0  0  0  0  0  0  0  0
  151.4720  144.6731  158.4685 C   0  0  0  0  0  0  0  0  0  0  0  0
  152.2049  144.8298  159.8056 C   0  0  0  0  0  0  0  0  0  0  0  0
  152.3230  143.3020  159.8427 C   0  0  0  0  0  0  0  0  0  0  0  0
  152.0208  141.1562  157.8837 C   0  0  0  0  0  0  0  0  0  0  0  0
  152.0460  140.1376  156.8346 C   0  0  0  0  0  0  0  0  0  0  0  0
  152.8406  139.1970  156.8420 O   0  0  0  0  0  0  0  0  0  0  0  0
  148.9102  138.9036  153.5945 N   0  0  0  0  0  0  0  0  0  0  0  0
  147.6264  138.3361  153.3365 C   0  0  0  0  0  0  0  0  0  0  0  0
  146.7936  138.9504  152.2322 C   0  0  0  0  0  0  0  0  0  0  0  0
  146.4107  139.1738  153.6692 C   0  0  0  0  0  0  0  0  0  0  0  0
  151.8283  138.6236  154.7424 H   0  0  0  0  0  0  0  0  0  0  0  0
  151.1870  139.9101  153.7776 H   0  0  0  0  0  0  0  0  0  0  0  0
  149.5267  141.4247  154.9995 H   0  0  0  0  0  0  0  0  0  0  0  0
  150.1625  143.2359  159.4828 H   0  0  0  0  0  0  0  0  0  0  0  0
  152.1556  144.6996  157.6179 H   0  0  0  0  0  0  0  0  0  0  0  0
  150.6260  145.3465  158.3290 H   0  0  0  0  0  0  0  0  0  0  0  0
  153.1545  145.3622  159.7475 H   0  0  0  0  0  0  0  0  0  0  0  0
  151.5650  145.2247  160.5965 H   0  0  0  0  0  0  0  0  0  0  0  0
  152.1740  142.8548  160.8258 H   0  0  0  0  0  0  0  0  0  0  0  0
  153.2388  142.9426  159.3693 H   0  0  0  0  0  0  0  0  0  0  0  0
  152.7302  141.0911  158.6958 H   0  0  0  0  0  0  0  0  0  0  0  0
  149.2488  139.5811  152.9266 H   0  0  0  0  0  0  0  0  0  0  0  0
  147.5171  137.2614  153.4755 H   0  0  0  0  0  0  0  0  0  0  0  0
  147.2123  139.7943  151.6872 H   0  0  0  0  0  0  0  0  0  0  0  0
  146.1687  138.2812  151.6444 H   0  0  0  0  0  0  0  0  0  0  0  0
  145.5312  138.6529  154.0426 H   0  0  0  0  0  0  0  0  0  0  0  0
  146.5743  140.1666  154.0843 H   0  0  0  0  0  0  0  0  0  0  0  0
  1  2  2  0  0  0  0
  2  3  1  0  0  0  0
  2 15  1  0  0  0  0
  3  4  1  0  0  0  0
  3 19  1  0  0  0  0
  3 20  1  0  0  0  0
  4 13  1  0  0  0  0
  4  5  1  0  0  0  0
  5  6  2  0  0  0  0
  5 21  1  0  0  0  0
  6  7  1  0  0  0  0
  7  8  1  0  0  0  0
  7 12  2  0  0  0  0
  8 11  1  0  0  0  0
  8  9  1  0  0  0  0
  8 22  1  0  0  0  0
  9 10  1  0  0  0  0
  9 23  1  0  0  0  0
  9 24  1  0  0  0  0
 10 11  1  0  0  0  0
 10 25  1  0  0  0  0
 10 26  1  0  0  0  0
 11 27  1  0  0  0  0
 11 28  1  0  0  0  0
 12 13  1  0  0  0  0
 12 29  1  0  0  0  0
 13 14  2  0  0  0  0
 15 16  1  0  0  0  0
 15 30  1  0  0  0  0
 16 18  1  0  0  0  0
 16 17  1  0  0  0  0
 16 31  1  0  0  0  0
 17 18  1  0  0  0  0
 17 32  1  0  0  0  0
 17 33  1  0  0  0  0
 18 34  1  0  0  0  0
 18 35  1  0  0  0  0
M  END
> <s_m_source_file>
AV-unprocessed.smi

> <i_m_source_file_index>
2842

> <i_lp_mmshare_version>
43012

> <i_f3d_flags>
0

> <s_epik_input>
W0NIMl0xW0NIMl1bQ0hdMVtOSF1DKD1PKVtDSDJdbjJbY0hdbmMoW2NIXWMyPU8pW0NIXTNbQ0gyXVtDSDJdW0NIMl0z

> <s_epik_cmdline>
J2VwaWtfcHl0aG9uJywgJy1waCcsICc3LjAnLCAnLXRuJywgJzgnLCAnLW1hJywgJzIwMCcsICctbWV0YWxfYmluZGluZycsICctaW1hZScsICc8aW5maWxlLm1hZT4nLCAnLW9tYWUnLCAnPG91dGZpbGUubWFlPic=

> <r_lp_tautomer_probability>
1

> <r_epik_Ionization_Penalty>
7.30946e-06

> <r_epik_Ionization_Penalty_Charging>
8.23701e-09

> <r_epik_Ionization_Penalty_Neutral>
7.30122e-06

> <r_epik_State_Penalty>
-0

> <r_epik_Charging_Adjusted_Penalty>
8.23701e-09

> <i_epik_Tot_Q>
0

> <i_epik_Tot_abs_Q>
0

> <r_epik_Metal_State_Penalty>
-0

> <b_epik_Metal_Only>
0

> <s_lp_Force_Field>
OPLS_2005

> <r_lp_Energy>
30.4853

> <b_lp_Chiralities_Consistent>
1

> <s_lp_Variant>
AV-unprocessed.smi:2842-1

> <Gold.Version>
5.8.1

> <Gold.Id.Protein>
6NUR|6NUR_protein|mol2

> <Gold.PLP.Fitness>
41.8466

> <Gold.PLP.PLP>
-36.3824

> <Gold.PLP.part.hbond>
-2.5820

> <Gold.PLP.part.metal>
0.0000

> <Gold.PLP.part.buried>
0.0008

> <Gold.PLP.part.nonpolar>
-34.6423

> <Gold.PLP.part.repulsive>
1.1305

> <Gold.PLP.ligand.clash>
0.0000

> <Gold.PLP.ligand.torsion>
0.4373

> <Gold.PLP.Chemscore.Hbond>
1.9760

> <Gold.PLP.Chemscore.CHOScore>
0.0000

> <Gold.PLP.Chemscore.Metal>
0.0000

> <Gold.Chemscore.Hbonds>
donor molecule, donor type, donor heavy atom, donor atom, acceptor molecule, acceptor atom, score
      L1  H    15    30       P1  7957  0.98
      P1  H  7997  8008       L1    14  1.00

> <Gold.PLP.Chemscore.Internal.Correction>
0.4108

> <Gold.Rescore>
     Score         DG    S(hbond)    S(metal)    S(lipo)     H(rot)  DE(clash)    DE(int)     intcor
     14.30     -15.17       1.15        0.00      87.92       1.73       0.58       0.29       ----

> <Gold.Chemscore.Fitness>
14.3027

> <Gold.Chemscore.DG>
-15.1710

> <Gold.Chemscore.ZeroCoef>
-5.4800

> <Gold.Chemscore.Hbond>
1.1480

> <Gold.Chemscore.Metal>
0.0000

> <Gold.Chemscore.Lipo>
87.9211

> <Gold.Chemscore.Internal_Hbond>
0.0000

> <Gold.Chemscore.DEClash>
0.5788

> <Gold.Chemscore.DEInternal>
0.2895

> <Gold.Chemscore.Rot>
1.7305

> <Gold.Chemscore.Internal.Correction>
   9.000000E+99

> <Gold.Chemscore.Hbonds>
donor molecule, donor type, donor heavy atom, donor atom, acceptor molecule, acceptor atom, score
      L1  H    15    30       P1  7957  0.93
      P1  H  7997  8008       L1    14  0.26

> <Gold.Chemscore.Hbond.Weighted>
-3.8342

> <Gold.Chemscore.Metal.Weighted>
-0.0000

> <Gold.Chemscore.Lipo.Weighted>
-10.2868

> <Gold.Chemscore.Internal_Hbond.Weighted>
0.0000

> <Gold.Chemscore.DEClash.Weighted>
0.5788

> <Gold.Chemscore.DEInternal.Weighted>
0.2895

> <Gold.Chemscore.Rot.Weighted>
4.4300

> <Gold.Chemscore.Internal.Correction.Weighted>
   9.000000E+99

> <Gold.Protein.RotatedTorsions>
[ 6907 6896 6895 6894 ] final  146.14 input  -60.11 | X-H torsion
[ 7974 7965 7964 7962 ] final -102.95 input  175.53 | X-H torsion
[ 8008 7997 7996 7995 ] final  -52.95 input   59.86 | X-H torsion
[ 10167 10162 10161 10158 ] final -106.47 input  -65.29 | X-H torsion
[ 10718 10713 10712 10709 ] final   78.51 input   66.30 | X-H torsion
[ 10763 10752 10751 10750 ] final -163.70 input  -60.55 | X-H torsion
[ 11005 11000 10999 10996 ] final  161.73 input  -57.11 | X-H torsion

> <Gold.Protein.ActiveResidues>
 VAL166  LYS551  ARG553  GLY616  TRP617  ASP618  TYR619  PRO620  LYS621  CYS622 
 ASP623  PHE694  ASN695  SER759  ASP760  ASP761  ALA762  ILE779  LEU786  VAL792 
 PHE793  MET794  SER795  GLU796  ALA797  LYS798  CYS799  TRP800  GLU811  SER814 

> <Gold.Protein.RotatedAtoms>
  152.1718  133.4648  159.4912 H   0  0  0  0  0  0  0  0  0  0  0  0  # atno 6907 bound_to 6896
  150.6921  134.1944  159.4307 H   0  0  0  0  0  0  0  0  0  0  0  0  # atno 6908 bound_to 6896
  151.9851  135.0008  160.0610 H   0  0  0  0  0  0  0  0  0  0  0  0  # atno 6909 bound_to 6896
  145.2622  140.9272  143.3034 H   0  0  0  0  0  0  0  0  0  0  0  0  # atno 7974 bound_to 7965
  154.4120  140.1211  156.5075 H   0  0  0  0  0  0  0  0  0  0  0  0  # atno 8008 bound_to 7997
  155.6833  140.3496  155.4844 H   0  0  0  0  0  0  0  0  0  0  0  0  # atno 8009 bound_to 7997
  155.9533  140.1109  157.0948 H   0  0  0  0  0  0  0  0  0  0  0  0  # atno 8010 bound_to 7997
  140.1874  143.3918  152.1233 H   0  0  0  0  0  0  0  0  0  0  0  0  # atno 10167 bound_to 10162
  157.6747  130.9871  150.1796 H   0  0  0  0  0  0  0  0  0  0  0  0  # atno 10718 bound_to 10713
  154.7098  135.3004  154.9215 H   0  0  0  0  0  0  0  0  0  0  0  0  # atno 10763 bound_to 10752
  154.0121  135.6693  153.4770 H   0  0  0  0  0  0  0  0  0  0  0  0  # atno 10764 bound_to 10752
  153.0746  135.5042  154.8289 H   0  0  0  0  0  0  0  0  0  0  0  0  # atno 10765 bound_to 10752
  140.2187  134.8213  157.3197 H   0  0  0  0  0  0  0  0  0  0  0  0  # atno 11005 bound_to 11000
  144.9408  139.4191  143.6449 LP  0  0  0  0  0  0  0  0  0  0  0  0  # atno 17320 bound_to 7965
  146.3272  139.8368  142.8898 LP  0  0  0  0  0  0  0  0  0  0  0  0  # atno 17321 bound_to 7965
  139.5270  144.7114  151.5193 LP  0  0  0  0  0  0  0  0  0  0  0  0  # atno 17342 bound_to 10162
  140.6479  143.8757  150.6755 LP  0  0  0  0  0  0  0  0  0  0  0  0  # atno 17343 bound_to 10162
  156.2532  130.3703  149.8210 LP  0  0  0  0  0  0  0  0  0  0  0  0  # atno 17370 bound_to 10713
  156.5977  130.8533  151.3424 LP  0  0  0  0  0  0  0  0  0  0  0  0  # atno 17371 bound_to 10713
  140.1873  134.4415  155.7736 LP  0  0  0  0  0  0  0  0  0  0  0  0  # atno 17394 bound_to 11000
  141.2224  133.7011  156.7968 LP  0  0  0  0  0  0  0  0  0  0  0  0  # atno 17395 bound_to 11000

$$$$
