AV-unprocessed.smi:3127|AV-procd|sdf|11916|dock4
  -GOLD-   2272017293D 1   1.00000     0.00000
 Structure written by MMmdl.
 33 34  0  0  0  0  0  0  0  0  1 V2000
  150.3342  144.6969  159.4415 C   0  0  0  0  0  0  0  0  0  0  0  0
  151.6952  144.0459  159.1148 C   0  0  0  0  0  0  0  0  0  0  0  0
  152.5177  145.0532  158.2874 C   0  0  0  0  0  0  0  0  0  0  0  0
  152.4134  143.7517  160.4467 C   0  0  0  0  0  0  0  0  0  0  0  0
  151.5131  142.7613  158.3308 C   0  0  0  0  0  0  0  0  0  0  0  0
  150.9190  142.5935  157.1008 C   0  0  0  0  0  0  0  0  0  0  0  0
  150.9267  140.9303  156.5831 S   0  0  0  0  0  0  0  0  0  0  0  0
  151.7673  140.5035  158.0658 C   0  0  0  0  0  0  0  0  0  0  0  0
  152.1378  139.0974  158.4138 C   0  0  2  0  0  0  0  0  0  0  0  0
  152.7648  138.9885  159.8172 C   0  0  0  0  0  0  0  0  0  0  0  0
  153.1834  137.6125  160.0796 N   0  0  0  0  0  0  0  0  0  0  0  0
  154.0824  137.1256  159.0340 C   0  0  0  0  0  0  0  0  0  0  0  0
  153.4288  137.2831  157.6491 C   0  0  0  0  0  0  0  0  0  0  0  0
  153.0760  138.6462  157.4395 O   0  0  0  0  0  0  0  0  0  0  0  0
  151.9809  141.5533  158.8645 N   0  0  0  0  0  0  0  0  0  0  0  0
  150.4620  145.6240  160.0015 H   0  0  0  0  0  0  0  0  0  0  0  0
  149.7098  144.0378  160.0459 H   0  0  0  0  0  0  0  0  0  0  0  0
  149.7789  144.9413  158.5350 H   0  0  0  0  0  0  0  0  0  0  0  0
  152.0272  145.2816  157.3403 H   0  0  0  0  0  0  0  0  0  0  0  0
  153.5119  144.6681  158.0576 H   0  0  0  0  0  0  0  0  0  0  0  0
  152.6514  145.9931  158.8239 H   0  0  0  0  0  0  0  0  0  0  0  0
  152.5403  144.6587  161.0389 H   0  0  0  0  0  0  0  0  0  0  0  0
  153.4061  143.3307  160.2843 H   0  0  0  0  0  0  0  0  0  0  0  0
  151.8503  143.0401  161.0516 H   0  0  0  0  0  0  0  0  0  0  0  0
  150.4724  143.3430  156.4650 H   0  0  0  0  0  0  0  0  0  0  0  0
  151.2345  138.4870  158.3570 H   0  0  0  0  0  0  0  0  0  0  0  0
  153.6248  139.6556  159.8897 H   0  0  0  0  0  0  0  0  0  0  0  0
  152.0508  139.3133  160.5745 H   0  0  0  0  0  0  0  0  0  0  0  0
  153.6512  137.5656  160.9793 H   0  0  0  0  0  0  0  0  0  0  0  0
  155.0198  137.6824  159.0611 H   0  0  0  0  0  0  0  0  0  0  0  0
  154.3337  136.0799  159.2131 H   0  0  0  0  0  0  0  0  0  0  0  0
  154.1251  136.9755  156.8689 H   0  0  0  0  0  0  0  0  0  0  0  0
  152.5471  136.6466  157.5581 H   0  0  0  0  0  0  0  0  0  0  0  0
  1  2  1  0  0  0  0
  1 16  1  0  0  0  0
  1 17  1  0  0  0  0
  1 18  1  0  0  0  0
  2  3  1  0  0  0  0
  2  4  1  0  0  0  0
  2  5  1  0  0  0  0
  3 19  1  0  0  0  0
  3 20  1  0  0  0  0
  3 21  1  0  0  0  0
  4 22  1  0  0  0  0
  4 23  1  0  0  0  0
  4 24  1  0  0  0  0
  5 15  1  0  0  0  0
  5  6  2  0  0  0  0
  6  7  1  0  0  0  0
  6 25  1  0  0  0  0
  7  8  1  0  0  0  0
  8  9  1  0  0  0  0
  8 15  2  0  0  0  0
  9 14  1  0  0  0  0
  9 10  1  0  0  0  0
  9 26  1  0  0  0  0
 10 11  1  0  0  0  0
 10 27  1  0  0  0  0
 10 28  1  0  0  0  0
 11 12  1  0  0  0  0
 11 29  1  0  0  0  0
 12 13  1  0  0  0  0
 12 30  1  0  0  0  0
 12 31  1  0  0  0  0
 13 14  1  0  0  0  0
 13 32  1  0  0  0  0
 13 33  1  0  0  0  0
M  END
> <s_m_source_file>
AV-unprocessed.smi

> <i_m_source_file_index>
3127

> <i_lp_mmshare_version>
43012

> <i_f3d_flags>
0

> <s_epik_input>
W0NIM11DKFtDSDNdKShbQ0gzXSljMVtjSF1zYyhuMSlbQ0BASF0yW0NIMl1bTkhdW0NIMl1bQ0gyXU8y

> <s_epik_cmdline>
J2VwaWtfcHl0aG9uJywgJy1waCcsICc3LjAnLCAnLXRuJywgJzgnLCAnLW1hJywgJzIwMCcsICctbWV0YWxfYmluZGluZycsICctaW1hZScsICc8aW5maWxlLm1hZT4nLCAnLW9tYWUnLCAnPG91dGZpbGUubWFlPic=

> <r_epik_Ionization_Penalty>
0.982256

> <r_epik_Ionization_Penalty_Charging>
0

> <r_epik_Ionization_Penalty_Neutral>
0.982256

> <r_epik_State_Penalty>
2.16535

> <r_epik_Charging_Adjusted_Penalty>
2.16535

> <i_epik_Tot_Q>
0

> <i_epik_Tot_abs_Q>
0

> <r_epik_Metal_State_Penalty>
2.16345

> <b_epik_Metal_Only>
0

> <s_lp_Force_Field>
OPLS_2005

> <r_lp_Energy>
6.45537

> <b_lp_Chiralities_Consistent>
1

> <s_lp_Variant>
AV-unprocessed.smi:3127-3

> <Gold.Version>
5.8.1

> <Gold.Id.Protein>
6NUR|6NUR_protein|mol2

> <Gold.PLP.Fitness>
35.3202

> <Gold.PLP.PLP>
-29.3523

> <Gold.PLP.part.hbond>
-1.0000

> <Gold.PLP.part.metal>
0.0000

> <Gold.PLP.part.buried>
-5.0718

> <Gold.PLP.part.nonpolar>
-23.3350

> <Gold.PLP.part.repulsive>
0.0000

> <Gold.PLP.ligand.clash>
0.0000

> <Gold.PLP.ligand.torsion>
0.0219

> <Gold.PLP.Chemscore.Hbond>
1.0000

> <Gold.PLP.Chemscore.CHOScore>
1.0000

> <Gold.PLP.Chemscore.Metal>
0.0000

> <Gold.Chemscore.Hbonds>
donor molecule, donor type, donor heavy atom, donor atom, acceptor molecule, acceptor atom, score
      P1  H  7997  8008       L1    14  0.88
      L1  C     6    25       P1  8028  1.00

> <Gold.PLP.Chemscore.Internal.Correction>
0.0116

> <Gold.Rescore>
     Score         DG    S(hbond)    S(metal)    S(lipo)     H(rot)  DE(clash)    DE(int)     intcor
     17.16     -17.32       0.96        0.00      98.12       1.12       0.02       0.14       ----

> <Gold.Chemscore.Fitness>
17.1631

> <Gold.Chemscore.DG>
-17.3232

> <Gold.Chemscore.ZeroCoef>
-5.4800

> <Gold.Chemscore.Hbond>
0.9648

> <Gold.Chemscore.Metal>
0.0000

> <Gold.Chemscore.Lipo>
98.1155

> <Gold.Chemscore.Internal_Hbond>
0.0000

> <Gold.Chemscore.DEClash>
0.0189

> <Gold.Chemscore.DEInternal>
0.1413

> <Gold.Chemscore.Rot>
1.1167

> <Gold.Chemscore.Internal.Correction>
   9.000000E+99

> <Gold.Chemscore.Hbonds>
donor molecule, donor type, donor heavy atom, donor atom, acceptor molecule, acceptor atom, score
      P1  H  7997  8008       L1    14  0.74

> <Gold.Chemscore.Hbond.Weighted>
-3.2226

> <Gold.Chemscore.Metal.Weighted>
-0.0000

> <Gold.Chemscore.Lipo.Weighted>
-11.4795

> <Gold.Chemscore.Internal_Hbond.Weighted>
0.0000

> <Gold.Chemscore.DEClash.Weighted>
0.0189

> <Gold.Chemscore.DEInternal.Weighted>
0.1413

> <Gold.Chemscore.Rot.Weighted>
2.8588

> <Gold.Chemscore.Internal.Correction.Weighted>
   9.000000E+99

> <Gold.Protein.RotatedTorsions>
[ 6907 6896 6895 6894 ] final   36.26 input  -60.11 | X-H torsion
[ 7974 7965 7964 7962 ] final -140.59 input  175.53 | X-H torsion
[ 8008 7997 7996 7995 ] final  -84.07 input   59.86 | X-H torsion
[ 10167 10162 10161 10158 ] final   12.61 input  -65.29 | X-H torsion
[ 10718 10713 10712 10709 ] final   93.93 input   66.30 | X-H torsion
[ 10763 10752 10751 10750 ] final -176.89 input  -60.55 | X-H torsion
[ 11005 11000 10999 10996 ] final   47.05 input  -57.11 | X-H torsion

> <Gold.Protein.ActiveResidues>
 VAL166  LYS551  ARG553  GLY616  TRP617  ASP618  TYR619  PRO620  LYS621  CYS622 
 ASP623  PHE694  ASN695  SER759  ASP760  ASP761  ALA762  ILE779  LEU786  VAL792 
 PHE793  MET794  SER795  GLU796  ALA797  LYS798  CYS799  TRP800  GLU811  SER814 

> <Gold.Protein.RotatedAtoms>
  152.1273  134.9161  160.0560 H   0  0  0  0  0  0  0  0  0  0  0  0  # atno 6907 bound_to 6896
  152.0279  133.3920  159.4293 H   0  0  0  0  0  0  0  0  0  0  0  0  # atno 6908 bound_to 6896
  150.6853  134.3475  159.4938 H   0  0  0  0  0  0  0  0  0  0  0  0  # atno 6909 bound_to 6896
  144.8585  140.6182  143.5343 H   0  0  0  0  0  0  0  0  0  0  0  0  # atno 7974 bound_to 7965
  154.6258  140.0610  156.9672 H   0  0  0  0  0  0  0  0  0  0  0  0  # atno 8008 bound_to 7997
  155.1744  140.3293  155.4368 H   0  0  0  0  0  0  0  0  0  0  0  0  # atno 8009 bound_to 7997
  156.2457  140.1908  156.6844 H   0  0  0  0  0  0  0  0  0  0  0  0  # atno 8010 bound_to 7997
  140.6057  143.8513  150.7011 H   0  0  0  0  0  0  0  0  0  0  0  0  # atno 10167 bound_to 10162
  157.6951  131.0495  150.4109 H   0  0  0  0  0  0  0  0  0  0  0  0  # atno 10718 bound_to 10713
  154.5668  135.2824  155.0866 H   0  0  0  0  0  0  0  0  0  0  0  0  # atno 10763 bound_to 10752
  154.2254  135.6383  153.5162 H   0  0  0  0  0  0  0  0  0  0  0  0  # atno 10764 bound_to 10752
  153.0045  135.5524  154.6279 H   0  0  0  0  0  0  0  0  0  0  0  0  # atno 10765 bound_to 10752
  140.1314  134.4701  155.8519 H   0  0  0  0  0  0  0  0  0  0  0  0  # atno 11005 bound_to 11000
  145.4358  139.1542  143.3997 LP  0  0  0  0  0  0  0  0  0  0  0  0  # atno 17320 bound_to 7965
  146.2842  140.4477  142.8764 LP  0  0  0  0  0  0  0  0  0  0  0  0  # atno 17321 bound_to 7965
  140.2069  143.3914  152.1748 LP  0  0  0  0  0  0  0  0  0  0  0  0  # atno 17342 bound_to 10162
  139.5323  144.7172  151.5013 LP  0  0  0  0  0  0  0  0  0  0  0  0  # atno 17343 bound_to 10162
  156.4493  130.4008  149.6646 LP  0  0  0  0  0  0  0  0  0  0  0  0  # atno 17370 bound_to 10713
  156.3802  130.7575  151.2567 LP  0  0  0  0  0  0  0  0  0  0  0  0  # atno 17371 bound_to 10713
  141.2171  133.6797  156.7076 LP  0  0  0  0  0  0  0  0  0  0  0  0  # atno 17394 bound_to 11000
  140.2837  134.8296  157.3956 LP  0  0  0  0  0  0  0  0  0  0  0  0  # atno 17395 bound_to 11000

$$$$
