AV-unprocessed.smi:3161|AV-procd|sdf|12062|dock6
  -GOLD-   2272017493D 1   1.00000     0.00000
 Structure written by MMmdl.
 40 41  0  0  0  0  0  0  0  0  1 V2000
  146.9253  141.6234  155.0103 C   0  0  0  0  0  0  0  0  0  0  0  0
  148.3516  141.1544  155.0297 C   0  0  0  0  0  0  0  0  0  0  0  0
  149.0456  140.4211  154.0258 C   0  0  0  0  0  0  0  0  0  0  0  0
  150.3015  140.1644  154.3516 N   0  0  0  0  0  0  0  0  0  0  0  0
  150.4533  140.7151  155.5752 N   0  0  0  0  0  0  0  0  0  0  0  0
  151.7353  140.6263  156.2566 C   0  0  0  0  0  0  0  0  0  0  0  0
  151.6264  140.2484  157.7561 C   0  0  1  0  0  0  0  0  0  0  0  0
  151.3316  138.7546  157.9643 C   0  0  0  0  0  0  0  0  0  0  0  0
  152.8137  140.6207  158.5334 N   0  0  0  0  0  0  0  0  0  0  0  0
  152.5591  141.0627  159.9034 C   0  0  0  0  0  0  0  0  0  0  0  0
  152.5889  142.5945  159.9981 C   0  0  1  0  0  0  0  0  0  0  0  0
  152.0247  143.2522  158.7238 C   0  0  0  0  0  0  0  0  0  0  0  0
  151.9732  144.7764  158.8794 C   0  0  0  0  0  0  0  0  0  0  0  0
  151.2122  145.1383  160.1588 C   0  0  0  0  0  0  0  0  0  0  0  0
  151.8028  144.3856  161.3613 C   0  0  0  0  0  0  0  0  0  0  0  0
  151.7851  142.9837  161.1108 O   0  0  0  0  0  0  0  0  0  0  0  0
  149.2932  141.3249  156.0047 C   0  0  0  0  0  0  0  0  0  0  0  0
  146.4155  141.3349  154.0908 H   0  0  0  0  0  0  0  0  0  0  0  0
  146.8580  142.7087  155.0875 H   0  0  0  0  0  0  0  0  0  0  0  0
  146.3534  141.2050  155.8388 H   0  0  0  0  0  0  0  0  0  0  0  0
  148.6753  140.0711  153.0734 H   0  0  0  0  0  0  0  0  0  0  0  0
  152.3788  139.9341  155.7138 H   0  0  0  0  0  0  0  0  0  0  0  0
  152.2221  141.5984  156.1696 H   0  0  0  0  0  0  0  0  0  0  0  0
  150.7733  140.7950  158.1600 H   0  0  0  0  0  0  0  0  0  0  0  0
  150.4499  138.4469  157.4017 H   0  0  0  0  0  0  0  0  0  0  0  0
  151.1415  138.5369  159.0157 H   0  0  0  0  0  0  0  0  0  0  0  0
  152.1665  138.1296  157.6458 H   0  0  0  0  0  0  0  0  0  0  0  0
  153.4677  139.8444  158.5479 H   0  0  0  0  0  0  0  0  0  0  0  0
  151.5805  140.7115  160.2292 H   0  0  0  0  0  0  0  0  0  0  0  0
  153.2928  140.6356  160.5882 H   0  0  0  0  0  0  0  0  0  0  0  0
  153.6173  142.9287  160.1498 H   0  0  0  0  0  0  0  0  0  0  0  0
  152.6348  142.9873  157.8596 H   0  0  0  0  0  0  0  0  0  0  0  0
  151.0217  142.8716  158.5264 H   0  0  0  0  0  0  0  0  0  0  0  0
  152.9870  145.1756  158.9296 H   0  0  0  0  0  0  0  0  0  0  0  0
  151.4976  145.2326  158.0108 H   0  0  0  0  0  0  0  0  0  0  0  0
  151.2495  146.2145  160.3298 H   0  0  0  0  0  0  0  0  0  0  0  0
  150.1597  144.8746  160.0458 H   0  0  0  0  0  0  0  0  0  0  0  0
  152.8218  144.7167  161.5672 H   0  0  0  0  0  0  0  0  0  0  0  0
  151.2150  144.5899  162.2563 H   0  0  0  0  0  0  0  0  0  0  0  0
  149.2338  141.8216  156.9620 H   0  0  0  0  0  0  0  0  0  0  0  0
  1  2  1  0  0  0  0
  1 18  1  0  0  0  0
  1 19  1  0  0  0  0
  1 20  1  0  0  0  0
  2 17  2  0  0  0  0
  2  3  1  0  0  0  0
  3  4  2  0  0  0  0
  3 21  1  0  0  0  0
  4  5  1  0  0  0  0
  5  6  1  0  0  0  0
  5 17  1  0  0  0  0
  6  7  1  0  0  0  0
  6 22  1  0  0  0  0
  6 23  1  0  0  0  0
  7  8  1  0  0  0  0
  7  9  1  0  0  0  0
  7 24  1  0  0  0  0
  8 25  1  0  0  0  0
  8 26  1  0  0  0  0
  8 27  1  0  0  0  0
  9 10  1  0  0  0  0
  9 28  1  0  0  0  0
 10 11  1  0  0  0  0
 10 29  1  0  0  0  0
 10 30  1  0  0  0  0
 11 16  1  0  0  0  0
 11 12  1  0  0  0  0
 11 31  1  0  0  0  0
 12 13  1  0  0  0  0
 12 32  1  0  0  0  0
 12 33  1  0  0  0  0
 13 14  1  0  0  0  0
 13 34  1  0  0  0  0
 13 35  1  0  0  0  0
 14 15  1  0  0  0  0
 14 36  1  0  0  0  0
 14 37  1  0  0  0  0
 15 16  1  0  0  0  0
 15 38  1  0  0  0  0
 15 39  1  0  0  0  0
 17 40  1  0  0  0  0
M  END
> <s_m_source_file>
AV-unprocessed.smi

> <i_m_source_file_index>
3161

> <i_lp_mmshare_version>
43012

> <i_f3d_flags>
0

> <s_epik_input>
W0NIM11jMVtjSF1ubihbY0hdMSlbQ0gyXVtDQEhdKFtDSDNdKVtOSF1bQ0gyXVtDQEBIXTJbQ0gyXVtDSDJdW0NIMl1bQ0gyXU8y

> <s_epik_cmdline>
J2VwaWtfcHl0aG9uJywgJy1waCcsICc3LjAnLCAnLXRuJywgJzgnLCAnLW1hJywgJzIwMCcsICctbWV0YWxfYmluZGluZycsICctaW1hZScsICc8aW5maWxlLm1hZT4nLCAnLW9tYWUnLCAnPG91dGZpbGUubWFlPic=

> <r_lp_tautomer_probability>
1

> <r_epik_Ionization_Penalty>
2.51986

> <r_epik_Ionization_Penalty_Charging>
0

> <r_epik_Ionization_Penalty_Neutral>
2.51986

> <r_epik_State_Penalty>
2.68614

> <r_epik_Charging_Adjusted_Penalty>
2.68614

> <i_epik_Tot_Q>
0

> <i_epik_Tot_abs_Q>
0

> <r_epik_Metal_State_Penalty>
2.68606

> <b_epik_Metal_Only>
0

> <s_lp_Force_Field>
OPLS_2005

> <r_lp_Energy>
14.0123

> <b_lp_Chiralities_Consistent>
1

> <s_lp_Variant>
AV-unprocessed.smi:3161-8

> <Gold.Version>
5.8.1

> <Gold.Id.Protein>
6NUR|6NUR_protein|mol2

> <Gold.PLP.Fitness>
44.9122

> <Gold.PLP.PLP>
-41.5330

> <Gold.PLP.part.hbond>
-1.1690

> <Gold.PLP.part.metal>
0.0000

> <Gold.PLP.part.buried>
-2.9522

> <Gold.PLP.part.nonpolar>
-37.1430

> <Gold.PLP.part.repulsive>
0.2039

> <Gold.PLP.ligand.clash>
0.0000

> <Gold.PLP.ligand.torsion>
1.3469

> <Gold.PLP.Chemscore.Hbond>
1.0000

> <Gold.PLP.Chemscore.CHOScore>
1.0000

> <Gold.PLP.Chemscore.Metal>
0.0000

> <Gold.Chemscore.Hbonds>
donor molecule, donor type, donor heavy atom, donor atom, acceptor molecule, acceptor atom, score
      P1  H  6933  6945       L1    16  0.04
      P1  H  7989  7998       L1     4  1.00
      L1  C     3    21       P1  7957  1.00

> <Gold.PLP.Chemscore.Internal.Correction>
0.0730

> <Gold.Rescore>
     Score         DG    S(hbond)    S(metal)    S(lipo)     H(rot)  DE(clash)    DE(int)     intcor
     15.47     -16.92       0.80        0.00     107.79       1.50       0.16       1.29       ----

> <Gold.Chemscore.Fitness>
15.4677

> <Gold.Chemscore.DG>
-16.9204

> <Gold.Chemscore.ZeroCoef>
-5.4800

> <Gold.Chemscore.Hbond>
0.8014

> <Gold.Chemscore.Metal>
0.0000

> <Gold.Chemscore.Lipo>
107.7898

> <Gold.Chemscore.Internal_Hbond>
0.0000

> <Gold.Chemscore.DEClash>
0.1606

> <Gold.Chemscore.DEInternal>
1.2922

> <Gold.Chemscore.Rot>
1.5030

> <Gold.Chemscore.Internal.Correction>
   9.000000E+99

> <Gold.Chemscore.Hbonds>
donor molecule, donor type, donor heavy atom, donor atom, acceptor molecule, acceptor atom, score
      P1  H  6933  6945       L1    16  0.04
      P1  H  7989  7998       L1     4  0.33

> <Gold.Chemscore.Hbond.Weighted>
-2.6767

> <Gold.Chemscore.Metal.Weighted>
-0.0000

> <Gold.Chemscore.Lipo.Weighted>
-12.6114

> <Gold.Chemscore.Internal_Hbond.Weighted>
0.0000

> <Gold.Chemscore.DEClash.Weighted>
0.1606

> <Gold.Chemscore.DEInternal.Weighted>
1.2922

> <Gold.Chemscore.Rot.Weighted>
3.8477

> <Gold.Chemscore.Internal.Correction.Weighted>
   9.000000E+99

> <Gold.Protein.RotatedTorsions>
[ 6907 6896 6895 6894 ] final -118.60 input  -60.11 | X-H torsion
[ 7974 7965 7964 7962 ] final  -10.93 input  175.53 | X-H torsion
[ 8008 7997 7996 7995 ] final -175.14 input   59.86 | X-H torsion
[ 10167 10162 10161 10158 ] final -120.36 input  -65.29 | X-H torsion
[ 10718 10713 10712 10709 ] final   75.59 input   66.30 | X-H torsion
[ 10763 10752 10751 10750 ] final    6.77 input  -60.55 | X-H torsion
[ 11005 11000 10999 10996 ] final  -73.85 input  -57.11 | X-H torsion

> <Gold.Protein.ActiveResidues>
 VAL166  LYS551  ARG553  GLY616  TRP617  ASP618  TYR619  PRO620  LYS621  CYS622 
 ASP623  PHE694  ASN695  SER759  ASP760  ASP761  ALA762  ILE779  LEU786  VAL792 
 PHE793  MET794  SER795  GLU796  ALA797  LYS798  CYS799  TRP800  GLU811  SER814 

> <Gold.Protein.RotatedAtoms>
  150.8234  133.8214  159.3129 H   0  0  0  0  0  0  0  0  0  0  0  0  # atno 6907 bound_to 6896
  151.5965  135.1048  160.0060 H   0  0  0  0  0  0  0  0  0  0  0  0  # atno 6908 bound_to 6896
  152.4321  133.7255  159.6614 H   0  0  0  0  0  0  0  0  0  0  0  0  # atno 6909 bound_to 6896
  146.2204  140.2836  142.8364 H   0  0  0  0  0  0  0  0  0  0  0  0  # atno 7974 bound_to 7965
  155.9789  140.1178  157.0745 H   0  0  0  0  0  0  0  0  0  0  0  0  # atno 8008 bound_to 7997
  154.4177  140.1148  156.5476 H   0  0  0  0  0  0  0  0  0  0  0  0  # atno 8009 bound_to 7997
  155.6498  140.3473  155.4746 H   0  0  0  0  0  0  0  0  0  0  0  0  # atno 8010 bound_to 7997
  140.0367  143.5194  152.2150 H   0  0  0  0  0  0  0  0  0  0  0  0  # atno 10167 bound_to 10162
  157.6640  130.9734  150.1376 H   0  0  0  0  0  0  0  0  0  0  0  0  # atno 10718 bound_to 10713
  153.2439  135.6906  153.7753 H   0  0  0  0  0  0  0  0  0  0  0  0  # atno 10763 bound_to 10752
  153.6872  135.3318  155.3194 H   0  0  0  0  0  0  0  0  0  0  0  0  # atno 10764 bound_to 10752
  154.8367  135.4536  154.1371 H   0  0  0  0  0  0  0  0  0  0  0  0  # atno 10765 bound_to 10752
  141.1628  133.6892  156.7275 H   0  0  0  0  0  0  0  0  0  0  0  0  # atno 11005 bound_to 11000
  144.9179  140.7833  143.5767 LP  0  0  0  0  0  0  0  0  0  0  0  0  # atno 17320 bound_to 7965
  145.2771  139.1932  143.4811 LP  0  0  0  0  0  0  0  0  0  0  0  0  # atno 17321 bound_to 7965
  139.6041  144.7591  151.3104 LP  0  0  0  0  0  0  0  0  0  0  0  0  # atno 17342 bound_to 10162
  140.7278  143.6952  150.7890 LP  0  0  0  0  0  0  0  0  0  0  0  0  # atno 17343 bound_to 10162
  156.2207  130.3674  149.8560 LP  0  0  0  0  0  0  0  0  0  0  0  0  # atno 17370 bound_to 10713
  156.6413  130.8706  151.3514 LP  0  0  0  0  0  0  0  0  0  0  0  0  # atno 17371 bound_to 10713
  140.2770  134.8347  157.3899 LP  0  0  0  0  0  0  0  0  0  0  0  0  # atno 17394 bound_to 11000
  140.1468  134.4900  155.7990 LP  0  0  0  0  0  0  0  0  0  0  0  0  # atno 17395 bound_to 11000

$$$$
