AV-unprocessed.smi:2150|AV-procd|sdf|8756|dock3
  -GOLD-   2272011533D 1   1.00000     0.00000
 Structure written by MMmdl.
 35 36  0  0  0  0  0  0  0  0  1 V2000
  153.3527  140.8167  159.1884 O   0  0  0  0  0  0  0  0  0  0  0  0
  153.8067  141.1326  160.2890 C   0  0  0  0  0  0  0  0  0  0  0  0
  153.7697  142.5923  160.7618 C   0  0  0  0  0  0  0  0  0  0  0  0
  152.6858  143.3686  160.1382 N   0  0  0  0  0  0  0  0  0  0  0  0
  152.8081  143.6769  158.7728 C   0  0  0  0  0  0  0  0  0  0  0  0
  151.8655  144.3915  158.1416 C   0  0  0  0  0  0  0  0  0  0  0  0
  150.7204  144.8229  158.9539 C   0  0  0  0  0  0  0  0  0  0  0  0
  150.6065  144.5450  160.1988 N   0  0  0  0  0  0  0  0  0  0  0  0
  151.5989  143.7967  160.8599 C   0  0  0  0  0  0  0  0  0  0  0  0
  151.4990  143.5308  162.0580 O   0  0  0  0  0  0  0  0  0  0  0  0
  154.3427  140.2479  161.1448 N   0  0  0  0  0  0  0  0  0  0  0  0
  154.5212  138.8181  160.8825 C   0  0  2  0  0  0  0  0  0  0  0  0
  155.1836  138.1890  162.1298 C   0  0  0  0  0  0  0  0  0  0  0  0
  154.9585  136.6716  162.2512 C   0  0  0  0  0  0  0  0  0  0  0  0
  155.6000  135.8274  161.1391 C   0  0  0  0  0  0  0  0  0  0  0  0
  155.0476  136.1287  159.7353 C   0  0  0  0  0  0  0  0  0  0  0  0
  155.6027  137.3565  159.1810 N   0  0  0  0  0  0  0  0  0  0  0  0
  155.4388  138.6002  159.6560 C   0  0  0  0  0  0  0  0  0  0  0  0
  156.0155  139.5492  159.1247 O   0  0  0  0  0  0  0  0  0  0  0  0
  153.6683  142.5942  161.8479 H   0  0  0  0  0  0  0  0  0  0  0  0
  154.7312  143.0694  160.5616 H   0  0  0  0  0  0  0  0  0  0  0  0
  153.7009  143.3088  158.2886 H   0  0  0  0  0  0  0  0  0  0  0  0
  151.8989  144.6660  157.0978 H   0  0  0  0  0  0  0  0  0  0  0  0
  149.9627  145.4036  158.4217 H   0  0  0  0  0  0  0  0  0  0  0  0
  154.6914  140.5948  162.0262 H   0  0  0  0  0  0  0  0  0  0  0  0
  153.5449  138.3628  160.7063 H   0  0  0  0  0  0  0  0  0  0  0  0
  156.2506  138.4167  162.1637 H   0  0  0  0  0  0  0  0  0  0  0  0
  154.7603  138.6465  163.0256 H   0  0  0  0  0  0  0  0  0  0  0  0
  155.3560  136.3384  163.2102 H   0  0  0  0  0  0  0  0  0  0  0  0
  153.8879  136.4668  162.2882 H   0  0  0  0  0  0  0  0  0  0  0  0
  156.6842  135.9482  161.1513 H   0  0  0  0  0  0  0  0  0  0  0  0
  155.4147  134.7764  161.3636 H   0  0  0  0  0  0  0  0  0  0  0  0
  155.3237  135.3187  159.0600 H   0  0  0  0  0  0  0  0  0  0  0  0
  153.9575  136.1670  159.7379 H   0  0  0  0  0  0  0  0  0  0  0  0
  156.1983  137.2505  158.3724 H   0  0  0  0  0  0  0  0  0  0  0  0
  1  2  2  0  0  0  0
  2  3  1  0  0  0  0
  2 11  1  0  0  0  0
  3  4  1  0  0  0  0
  3 20  1  0  0  0  0
  3 21  1  0  0  0  0
  4  9  1  0  0  0  0
  4  5  1  0  0  0  0
  5  6  2  0  0  0  0
  5 22  1  0  0  0  0
  6  7  1  0  0  0  0
  6 23  1  0  0  0  0
  7  8  2  0  0  0  0
  7 24  1  0  0  0  0
  8  9  1  0  0  0  0
  9 10  2  0  0  0  0
 11 12  1  0  0  0  0
 11 25  1  0  0  0  0
 12 18  1  0  0  0  0
 12 13  1  0  0  0  0
 12 26  1  0  0  0  0
 13 14  1  0  0  0  0
 13 27  1  0  0  0  0
 13 28  1  0  0  0  0
 14 15  1  0  0  0  0
 14 29  1  0  0  0  0
 14 30  1  0  0  0  0
 15 16  1  0  0  0  0
 15 31  1  0  0  0  0
 15 32  1  0  0  0  0
 16 17  1  0  0  0  0
 16 33  1  0  0  0  0
 16 34  1  0  0  0  0
 17 18  1  0  0  0  0
 17 35  1  0  0  0  0
 18 19  2  0  0  0  0
M  END
> <s_m_source_file>
AV-unprocessed.smi

> <i_m_source_file_index>
2150

> <i_lp_mmshare_version>
43012

> <i_f3d_flags>
0

> <s_epik_input>
Tz1jMW5bY0hdW2NIXVtjSF1uMVtDSDJdQyg9TylbTkhdW0NAQEhdMltDSDJdW0NIMl1bQ0gyXVtDSDJdW05IXUMyPU8=

> <s_epik_cmdline>
J2VwaWtfcHl0aG9uJywgJy1waCcsICc3LjAnLCAnLXRuJywgJzgnLCAnLW1hJywgJzIwMCcsICctbWV0YWxfYmluZGluZycsICctaW1hZScsICc8aW5maWxlLm1hZT4nLCAnLW9tYWUnLCAnPG91dGZpbGUubWFlPic=

> <r_lp_tautomer_probability>
1

> <r_epik_Ionization_Penalty>
6.25431e-06

> <r_epik_Ionization_Penalty_Charging>
1.47848e-08

> <r_epik_Ionization_Penalty_Neutral>
6.23953e-06

> <r_epik_State_Penalty>
-0

> <r_epik_Charging_Adjusted_Penalty>
1.47848e-08

> <i_epik_Tot_Q>
0

> <i_epik_Tot_abs_Q>
0

> <r_epik_Metal_State_Penalty>
-0

> <b_epik_Metal_Only>
0

> <s_lp_Force_Field>
OPLS_2005

> <r_lp_Energy>
13.567

> <b_lp_Chiralities_Consistent>
1

> <s_lp_Variant>
AV-unprocessed.smi:2150-1

> <Gold.Version>
5.8.1

> <Gold.Id.Protein>
6NUR|6NUR_protein|mol2

> <Gold.PLP.Fitness>
39.8622

> <Gold.PLP.PLP>
-33.7190

> <Gold.PLP.part.hbond>
-2.4213

> <Gold.PLP.part.metal>
0.0000

> <Gold.PLP.part.buried>
-4.7561

> <Gold.PLP.part.nonpolar>
-29.0359

> <Gold.PLP.part.repulsive>
2.2212

> <Gold.PLP.ligand.clash>
0.0000

> <Gold.PLP.ligand.torsion>
0.4542

> <Gold.PLP.Chemscore.Hbond>
1.3494

> <Gold.PLP.Chemscore.CHOScore>
1.0000

> <Gold.PLP.Chemscore.Metal>
0.0000

> <Gold.Chemscore.Hbonds>
donor molecule, donor type, donor heavy atom, donor atom, acceptor molecule, acceptor atom, score
      P1  H  6933  6945       L1    10  0.24
      P1  H  7997  8009       L1    19  1.00
      L1  C     7    24       P1  8029  1.00

> <Gold.PLP.Chemscore.Internal.Correction>
0.0032

> <Gold.Rescore>
     Score         DG    S(hbond)    S(metal)    S(lipo)     H(rot)  DE(clash)    DE(int)     intcor
     11.74     -13.64       0.99        0.00      78.67       1.69       0.15       1.75       ----

> <Gold.Chemscore.Fitness>
11.7436

> <Gold.Chemscore.DG>
-13.6403

> <Gold.Chemscore.ZeroCoef>
-5.4800

> <Gold.Chemscore.Hbond>
0.9864

> <Gold.Chemscore.Metal>
0.0000

> <Gold.Chemscore.Lipo>
78.6670

> <Gold.Chemscore.Internal_Hbond>
0.0000

> <Gold.Chemscore.DEClash>
0.1475

> <Gold.Chemscore.DEInternal>
1.7492

> <Gold.Chemscore.Rot>
1.6947

> <Gold.Chemscore.Internal.Correction>
   9.000000E+99

> <Gold.Chemscore.Hbonds>
donor molecule, donor type, donor heavy atom, donor atom, acceptor molecule, acceptor atom, score
      P1  H  6933  6945       L1    10  0.14
      P1  H  7997  8009       L1    19  0.98

> <Gold.Chemscore.Hbond.Weighted>
-3.2947

> <Gold.Chemscore.Metal.Weighted>
-0.0000

> <Gold.Chemscore.Lipo.Weighted>
-9.2040

> <Gold.Chemscore.Internal_Hbond.Weighted>
0.0000

> <Gold.Chemscore.DEClash.Weighted>
0.1475

> <Gold.Chemscore.DEInternal.Weighted>
1.7492

> <Gold.Chemscore.Rot.Weighted>
4.3385

> <Gold.Chemscore.Internal.Correction.Weighted>
   9.000000E+99

> <Gold.Protein.RotatedTorsions>
[ 6907 6896 6895 6894 ] final  -50.27 input  -60.11 | X-H torsion
[ 7974 7965 7964 7962 ] final   40.68 input  175.53 | X-H torsion
[ 8008 7997 7996 7995 ] final   91.37 input   59.86 | X-H torsion
[ 10167 10162 10161 10158 ] final   31.14 input  -65.29 | X-H torsion
[ 10718 10713 10712 10709 ] final  143.55 input   66.30 | X-H torsion
[ 10763 10752 10751 10750 ] final  -20.89 input  -60.55 | X-H torsion
[ 11005 11000 10999 10996 ] final   -5.23 input  -57.11 | X-H torsion

> <Gold.Protein.ActiveResidues>
 VAL166  LYS551  ARG553  GLY616  TRP617  ASP618  TYR619  PRO620  LYS621  CYS622 
 ASP623  PHE694  ASN695  SER759  ASP760  ASP761  ALA762  ILE779  LEU786  VAL792 
 PHE793  MET794  SER795  GLU796  ALA797  LYS798  CYS799  TRP800  GLU811  SER814 

> <Gold.Protein.RotatedAtoms>
  150.8723  134.8100  159.7163 H   0  0  0  0  0  0  0  0  0  0  0  0  # atno 6907 bound_to 6896
  152.4723  134.4926  159.9710 H   0  0  0  0  0  0  0  0  0  0  0  0  # atno 6908 bound_to 6896
  151.5013  133.3465  159.2905 H   0  0  0  0  0  0  0  0  0  0  0  0  # atno 6909 bound_to 6896
  146.0885  139.5504  142.9491 H   0  0  0  0  0  0  0  0  0  0  0  0  # atno 7974 bound_to 7965
  156.0230  140.3338  155.7059 H   0  0  0  0  0  0  0  0  0  0  0  0  # atno 8008 bound_to 7997
  155.5995  140.0654  157.2754 H   0  0  0  0  0  0  0  0  0  0  0  0  # atno 8009 bound_to 7997
  154.4323  140.1813  156.1146 H   0  0  0  0  0  0  0  0  0  0  0  0  # atno 8010 bound_to 7997
  140.4615  144.0899  150.6214 H   0  0  0  0  0  0  0  0  0  0  0  0  # atno 10167 bound_to 10162
  157.3676  131.0974  151.0858 H   0  0  0  0  0  0  0  0  0  0  0  0  # atno 10718 bound_to 10713
  153.6275  135.6990  153.5288 H   0  0  0  0  0  0  0  0  0  0  0  0  # atno 10763 bound_to 10752
  153.2887  135.4163  155.1146 H   0  0  0  0  0  0  0  0  0  0  0  0  # atno 10764 bound_to 10752
  154.8529  135.3620  154.5817 H   0  0  0  0  0  0  0  0  0  0  0  0  # atno 10765 bound_to 10752
  140.6888  133.9089  155.8604 H   0  0  0  0  0  0  0  0  0  0  0  0  # atno 11005 bound_to 11000
  145.6084  141.0344  143.1980 LP  0  0  0  0  0  0  0  0  0  0  0  0  # atno 17320 bound_to 7965
  144.7343  139.7633  143.7335 LP  0  0  0  0  0  0  0  0  0  0  0  0  # atno 17321 bound_to 7965
  140.4088  143.2667  151.9859 LP  0  0  0  0  0  0  0  0  0  0  0  0  # atno 17342 bound_to 10162
  139.4807  144.5934  151.7732 LP  0  0  0  0  0  0  0  0  0  0  0  0  # atno 17343 bound_to 10162
  157.1974  130.6379  149.5726 LP  0  0  0  0  0  0  0  0  0  0  0  0  # atno 17370 bound_to 10713
  155.9749  130.4702  150.6422 LP  0  0  0  0  0  0  0  0  0  0  0  0  # atno 17371 bound_to 10713
  141.0258  134.0825  157.4070 LP  0  0  0  0  0  0  0  0  0  0  0  0  # atno 17394 bound_to 11000
  139.8929  135.0127  156.6873 LP  0  0  0  0  0  0  0  0  0  0  0  0  # atno 17395 bound_to 11000

$$$$
