AV-unprocessed.smi:1350|AV-procd|sdf|5522|dock10
  -GOLD-   22720 5113D 1   1.00000     0.00000
 Structure written by MMmdl.
 44 46  0  0  0  0  0  0  0  0  2 V2000
  147.9308  132.1987  158.8504 C   0  0  0  0  0  0  0  0  0  0  0  0
  148.1604  133.5930  158.9938 O   0  0  0  0  0  0  0  0  0  0  0  0
  147.7051  134.2226  160.1348 C   0  0  0  0  0  0  0  0  0  0  0  0
  147.0938  133.5301  161.2123 C   0  0  0  0  0  0  0  0  0  0  0  0
  146.6486  134.2236  162.3535 C   0  0  0  0  0  0  0  0  0  0  0  0
  146.8072  135.6174  162.4376 C   0  0  0  0  0  0  0  0  0  0  0  0
  147.4111  136.3161  161.3774 C   0  0  0  0  0  0  0  0  0  0  0  0
  147.8570  135.6294  160.2284 C   0  0  0  0  0  0  0  0  0  0  0  0
  148.5151  136.4335  159.1188 C   0  0  0  0  0  0  0  0  0  0  0  0
  149.6909  137.0814  159.5760 O   0  0  0  0  0  0  0  0  0  0  0  0
  150.5145  137.5355  158.5146 C   0  0  0  0  0  0  0  0  0  0  0  0
  150.1981  139.0104  158.2301 C   0  0  2  0  0  0  0  0  0  0  0  0
  149.0807  139.0750  157.3661 O   0  0  0  0  0  0  0  0  0  0  0  0
  151.3885  139.7578  157.5963 C   0  0  0  0  0  0  0  0  0  0  0  0
  151.0704  141.1529  157.2668 N   0  0  0  0  0  0  0  0  0  0  0  0
  150.3216  141.6666  156.2533 C   0  0  0  0  0  0  0  0  0  0  0  0
  150.3228  143.0221  156.3879 N   0  3  0  0  0  0  0  0  0  0  0  0
  151.0845  143.3792  157.5030 C   0  0  0  0  0  0  0  0  0  0  0  0
  151.3789  144.6263  158.0456 C   0  0  0  0  0  0  0  0  0  0  0  0
  152.1904  144.6384  159.1993 C   0  0  0  0  0  0  0  0  0  0  0  0
  152.6761  143.4432  159.7696 C   0  0  0  0  0  0  0  0  0  0  0  0
  152.3717  142.1845  159.2107 C   0  0  0  0  0  0  0  0  0  0  0  0
  151.5689  142.1821  158.0710 C   0  0  0  0  0  0  0  0  0  0  0  0
  148.3462  131.8625  157.9005 H   0  0  0  0  0  0  0  0  0  0  0  0
  146.8647  131.9679  158.8430 H   0  0  0  0  0  0  0  0  0  0  0  0
  148.4200  131.6301  159.6424 H   0  0  0  0  0  0  0  0  0  0  0  0
  146.9538  132.4602  161.1902 H   0  0  0  0  0  0  0  0  0  0  0  0
  146.1863  133.6833  163.1662 H   0  0  0  0  0  0  0  0  0  0  0  0
  146.4683  136.1497  163.3141 H   0  0  0  0  0  0  0  0  0  0  0  0
  147.5336  137.3871  161.4475 H   0  0  0  0  0  0  0  0  0  0  0  0
  148.7667  135.7468  158.3093 H   0  0  0  0  0  0  0  0  0  0  0  0
  147.8310  137.1728  158.7023 H   0  0  0  0  0  0  0  0  0  0  0  0
  151.5689  137.4117  158.7676 H   0  0  0  0  0  0  0  0  0  0  0  0
  150.3172  136.9345  157.6251 H   0  0  0  0  0  0  0  0  0  0  0  0
  149.9139  139.4951  159.1647 H   0  0  0  0  0  0  0  0  0  0  0  0
  148.3478  138.6570  157.7915 H   0  0  0  0  0  0  0  0  0  0  0  0
  152.2551  139.7506  158.2590 H   0  0  0  0  0  0  0  0  0  0  0  0
  151.7004  139.2648  156.6746 H   0  0  0  0  0  0  0  0  0  0  0  0
  149.8140  141.1014  155.4851 H   0  0  0  0  0  0  0  0  0  0  0  0
  151.0080  145.5432  157.6118 H   0  0  0  0  0  0  0  0  0  0  0  0
  152.4448  145.5836  159.6569 H   0  0  0  0  0  0  0  0  0  0  0  0
  153.2940  143.4925  160.6543 H   0  0  0  0  0  0  0  0  0  0  0  0
  152.7459  141.2736  159.6547 H   0  0  0  0  0  0  0  0  0  0  0  0
  149.8361  143.6539  155.7650 H   0  0  0  0  0  0  0  0  0  0  0  0
  1  2  1  0  0  0  0
  1 24  1  0  0  0  0
  1 25  1  0  0  0  0
  1 26  1  0  0  0  0
  2  3  1  0  0  0  0
  3  8  1  0  0  0  0
  3  4  2  0  0  0  0
  4  5  1  0  0  0  0
  4 27  1  0  0  0  0
  5  6  2  0  0  0  0
  5 28  1  0  0  0  0
  6  7  1  0  0  0  0
  6 29  1  0  0  0  0
  7  8  2  0  0  0  0
  7 30  1  0  0  0  0
  8  9  1  0  0  0  0
  9 10  1  0  0  0  0
  9 31  1  0  0  0  0
  9 32  1  0  0  0  0
 10 11  1  0  0  0  0
 11 12  1  0  0  0  0
 11 33  1  0  0  0  0
 11 34  1  0  0  0  0
 12 13  1  0  0  0  0
 12 14  1  0  0  0  0
 12 35  1  0  0  0  0
 13 36  1  0  0  0  0
 14 15  1  0  0  0  0
 14 37  1  0  0  0  0
 14 38  1  0  0  0  0
 15 23  1  0  0  0  0
 15 16  1  0  0  0  0
 16 17  2  0  0  0  0
 16 39  1  0  0  0  0
 17 18  1  0  0  0  0
 17 44  1  0  0  0  0
 18 23  2  0  0  0  0
 18 19  1  0  0  0  0
 19 20  2  0  0  0  0
 19 40  1  0  0  0  0
 20 21  1  0  0  0  0
 20 41  1  0  0  0  0
 21 22  2  0  0  0  0
 21 42  1  0  0  0  0
 22 23  1  0  0  0  0
 22 43  1  0  0  0  0
M  CHG  1  17   1
M  END
> <s_m_source_file>
AV-unprocessed.smi

> <i_m_source_file_index>
1350

> <i_lp_mmshare_version>
43012

> <i_f3d_flags>
0

> <s_epik_input>
W0NIM11PYzFbY0hdW2NIXVtjSF1bY0hdYzFbQ0gyXU9bQ0gyXVtDQEhdKFtPSF0pW0NIMl1uKFtjSF1uMiljKGMyMylbY0hdW2NIXVtjSF1bY0hdMw==

> <s_epik_cmdline>
J2VwaWtfcHl0aG9uJywgJy1waCcsICc3LjAnLCAnLXRuJywgJzgnLCAnLW1hJywgJzIwMCcsICctbWV0YWxfYmluZGluZycsICctaW1hZScsICc8aW5maWxlLm1hZT4nLCAnLW9tYWUnLCAnPG91dGZpbGUubWFlPic=

> <r_lp_tautomer_probability>
1

> <r_epik_Ionization_Penalty>
1.28975

> <r_epik_Ionization_Penalty_Charging>
1.28975

> <r_epik_Ionization_Penalty_Neutral>
1.07667e-06

> <r_epik_State_Penalty>
1.36276

> <r_epik_Charging_Adjusted_Penalty>
2.65251

> <i_epik_Tot_Q>
1

> <i_epik_Tot_abs_Q>
1

> <r_epik_Metal_State_Penalty>
5.39298

> <b_epik_Metal_Only>
0

> <s_lp_Force_Field>
OPLS_2005

> <r_lp_Energy>
23.7531

> <b_lp_Chiralities_Consistent>
1

> <s_lp_Variant>
AV-unprocessed.smi:1350-3

> <Gold.Version>
5.8.1

> <Gold.Id.Protein>
6NUR|6NUR_protein|mol2

> <Gold.PLP.Fitness>
60.2000

> <Gold.PLP.PLP>
-53.3706

> <Gold.PLP.part.hbond>
-3.0414

> <Gold.PLP.part.metal>
0.0000

> <Gold.PLP.part.buried>
-7.0374

> <Gold.PLP.part.nonpolar>
-44.1536

> <Gold.PLP.part.repulsive>
0.0602

> <Gold.PLP.ligand.clash>
0.0000

> <Gold.PLP.ligand.torsion>
0.7942

> <Gold.PLP.Chemscore.Hbond>
2.7484

> <Gold.PLP.Chemscore.CHOScore>
0.0000

> <Gold.PLP.Chemscore.Metal>
0.0000

> <Gold.Chemscore.Hbonds>
donor molecule, donor type, donor heavy atom, donor atom, acceptor molecule, acceptor atom, score
      L1  H    17    44       P1  8028  1.39

> <Gold.PLP.Chemscore.Internal.Correction>
0.1727

> <Gold.Rescore>
     Score         DG    S(hbond)    S(metal)    S(lipo)     H(rot)  DE(clash)    DE(int)     intcor
     18.26     -19.50       1.33        0.00     141.96       2.74       0.34       0.91       ----

> <Gold.Chemscore.Fitness>
18.2602

> <Gold.Chemscore.DG>
-19.5046

> <Gold.Chemscore.ZeroCoef>
-5.4800

> <Gold.Chemscore.Hbond>
1.3256

> <Gold.Chemscore.Metal>
0.0000

> <Gold.Chemscore.Lipo>
141.9555

> <Gold.Chemscore.Internal_Hbond>
0.0000

> <Gold.Chemscore.DEClash>
0.3367

> <Gold.Chemscore.DEInternal>
0.9077

> <Gold.Chemscore.Rot>
2.7390

> <Gold.Chemscore.Internal.Correction>
   9.000000E+99

> <Gold.Chemscore.Hbonds>
donor molecule, donor type, donor heavy atom, donor atom, acceptor molecule, acceptor atom, score
      L1  H    17    44       P1  8028  0.66

> <Gold.Chemscore.Hbond.Weighted>
-4.4276

> <Gold.Chemscore.Metal.Weighted>
-0.0000

> <Gold.Chemscore.Lipo.Weighted>
-16.6088

> <Gold.Chemscore.Internal_Hbond.Weighted>
0.0000

> <Gold.Chemscore.DEClash.Weighted>
0.3367

> <Gold.Chemscore.DEInternal.Weighted>
0.9077

> <Gold.Chemscore.Rot.Weighted>
7.0118

> <Gold.Chemscore.Internal.Correction.Weighted>
   9.000000E+99

> <Gold.Protein.RotatedTorsions>
[ 6907 6896 6895 6894 ] final   14.17 input  -60.11 | X-H torsion
[ 7974 7965 7964 7962 ] final  -71.39 input  175.53 | X-H torsion
[ 8008 7997 7996 7995 ] final  139.48 input   59.86 | X-H torsion
[ 10167 10162 10161 10158 ] final -157.53 input  -65.29 | X-H torsion
[ 10718 10713 10712 10709 ] final -109.26 input   66.30 | X-H torsion
[ 10763 10752 10751 10750 ] final  113.10 input  -60.55 | X-H torsion
[ 11005 11000 10999 10996 ] final  -33.33 input  -57.11 | X-H torsion

> <Gold.Protein.ActiveResidues>
 VAL166  LYS551  ARG553  GLY616  TRP617  ASP618  TYR619  PRO620  LYS621  CYS622 
 ASP623  PHE694  ASN695  SER759  ASP760  ASP761  ALA762  ILE779  LEU786  VAL792 
 PHE793  MET794  SER795  GLU796  ALA797  LYS798  CYS799  TRP800  GLU811  SER814 

> <Gold.Protein.RotatedAtoms>
  151.7980  135.0717  160.0396 H   0  0  0  0  0  0  0  0  0  0  0  0  # atno 6907 bound_to 6896
  152.3109  133.5748  159.5689 H   0  0  0  0  0  0  0  0  0  0  0  0  # atno 6908 bound_to 6896
  150.7320  134.0069  159.3698 H   0  0  0  0  0  0  0  0  0  0  0  0  # atno 6909 bound_to 6896
  145.6787  140.9196  143.0844 H   0  0  0  0  0  0  0  0  0  0  0  0  # atno 7974 bound_to 7965
  156.2989  140.2366  156.4244 H   0  0  0  0  0  0  0  0  0  0  0  0  # atno 8008 bound_to 7997
  154.8326  140.0432  157.1508 H   0  0  0  0  0  0  0  0  0  0  0  0  # atno 8009 bound_to 7997
  154.9191  140.3001  155.5229 H   0  0  0  0  0  0  0  0  0  0  0  0  # atno 8010 bound_to 7997
  139.6763  143.9658  152.2312 H   0  0  0  0  0  0  0  0  0  0  0  0  # atno 10167 bound_to 10162
  156.0527  130.5754  150.8075 H   0  0  0  0  0  0  0  0  0  0  0  0  # atno 10718 bound_to 10713
  153.4875  135.3666  155.2474 H   0  0  0  0  0  0  0  0  0  0  0  0  # atno 10763 bound_to 10752
  154.8753  135.3969  154.3628 H   0  0  0  0  0  0  0  0  0  0  0  0  # atno 10764 bound_to 10752
  153.4242  135.7081  153.6339 H   0  0  0  0  0  0  0  0  0  0  0  0  # atno 10765 bound_to 10752
  140.9625  133.7156  156.1393 H   0  0  0  0  0  0  0  0  0  0  0  0  # atno 11005 bound_to 11000
  144.7033  139.8667  143.7437 LP  0  0  0  0  0  0  0  0  0  0  0  0  # atno 17320 bound_to 7965
  146.0983  139.3977  143.0362 LP  0  0  0  0  0  0  0  0  0  0  0  0  # atno 17321 bound_to 7965
  139.9436  144.6666  150.8242 LP  0  0  0  0  0  0  0  0  0  0  0  0  # atno 17342 bound_to 10162
  140.7636  143.3228  151.2583 LP  0  0  0  0  0  0  0  0  0  0  0  0  # atno 17343 bound_to 10162
  157.5470  131.0942  150.9749 LP  0  0  0  0  0  0  0  0  0  0  0  0  # atno 17370 bound_to 10713
  157.0018  130.5603  149.5312 LP  0  0  0  0  0  0  0  0  0  0  0  0  # atno 17371 bound_to 10713
  140.7446  134.4112  157.5550 LP  0  0  0  0  0  0  0  0  0  0  0  0  # atno 17394 bound_to 11000
  139.8883  134.8859  156.2481 LP  0  0  0  0  0  0  0  0  0  0  0  0  # atno 17395 bound_to 11000

$$$$
