#       Name:                AV-unprocessed.smi:1265
#       Creating user name   scv26
#       Creation time:       Fri Mar 27 04:44:35 2020


#       File generated by GOLD software.
#

@<TRIPOS>MOLECULE
AV-unprocessed.smi:1265
    50    52     1
SMALL
NO_CHARGES


@<TRIPOS>ATOM
      1 ****        -0.3988   2.6025  -0.1730 O.2            1 S1                 0.0000
      2 ****        -0.7744   1.5940  -0.7679 C.2            1 S1                 0.0000
      3 ****         0.0602   0.6196  -1.1587 N.am           1 S1                 0.0000
      4 ****         1.5120   0.6199  -0.9729 C.3            1 S1                 0.0000
      5 ****         1.9846  -0.1902   0.2776 C.3            1 S1                 0.0000
      6 ****         1.3169  -1.5446   0.2574 N.4            1 S1                 1.0000
      7 ****         1.8337  -2.4680  -0.7924 C.3            1 S1                 0.0000
      8 ****         0.9830  -3.7443  -0.8695 C.3            1 S1                 0.0000
      9 ****         0.9931  -4.3882   0.3954 O.3            1 S1                 0.0000
     10 ****         0.4070  -3.5723   1.3984 C.3            1 S1                 0.0000
     11 ****         1.2043  -2.2651   1.5566 C.3            1 S1                 0.0000
     12 ****         1.7008   0.6196   1.5745 C.3            1 S1                 0.0000
     13 ****         2.6530   1.8184   1.6196 C.3            1 S1                 0.0000
     14 ****         4.2113   1.2803   0.8741 S.3            1 S1                 0.0000
     15 ****         3.5282  -0.2916   0.2787 C.3            1 S1                 0.0000
     16 ****        -2.0438   1.3091  -1.1099 N.am           1 S1                 0.0000
     17 ****        -3.2370   2.0520  -0.8834 C.ar           1 S1                 0.0000
     18 ****        -4.4468   1.4791  -1.3290 C.ar           1 S1                 0.0000
     19 ****        -5.6512   2.1820  -1.1257 C.ar           1 S1                 0.0000
     20 ****        -5.7128   3.3865  -0.5214 N.ar           1 S1                 0.0000
     21 ****        -4.5559   3.9357  -0.0958 C.ar           1 S1                 0.0000
     22 ****        -3.2985   3.3176  -0.2496 C.ar           1 S1                 0.0000
     23 ****        -0.3337  -0.1658  -1.6556 H              1 S1                 0.0000
     24 ****         1.9401   0.1950  -1.8799 H              1 S1                 0.0000
     25 ****         1.8891   1.6425  -0.9633 H              1 S1                 0.0000
     26 ****         1.8304  -1.9911  -1.7709 H              1 S1                 0.0000
     27 ****         2.8664  -2.7442  -0.5760 H              1 S1                 0.0000
     28 ****        -0.0397  -3.5176  -1.1757 H              1 S1                 0.0000
     29 ****         1.3951  -4.4257  -1.6139 H              1 S1                 0.0000
     30 ****        -0.6345  -3.3629   1.1480 H              1 S1                 0.0000
     31 ****         0.4004  -4.1219   2.3398 H              1 S1                 0.0000
     32 ****         2.1976  -2.4761   1.9543 H              1 S1                 0.0000
     33 ****         0.6709  -1.6649   2.2921 H              1 S1                 0.0000
     34 ****         0.6585   0.9198   1.6750 H              1 S1                 0.0000
     35 ****         1.9447   0.0358   2.4611 H              1 S1                 0.0000
     36 ****         2.2552   2.6556   1.0461 H              1 S1                 0.0000
     37 ****         2.8144   2.1703   2.6388 H              1 S1                 0.0000
     38 ****         3.8607  -1.0647   0.9719 H              1 S1                 0.0000
     39 ****         3.9403  -0.5358  -0.7010 H              1 S1                 0.0000
     40 ****        -2.1786   0.4360  -1.5980 H              1 S1                 0.0000
     41 ****        -4.4590   0.5167  -1.8194 H              1 S1                 0.0000
     42 ****        -6.5901   1.7637  -1.4570 H              1 S1                 0.0000
     43 ****        -4.6334   4.9002   0.3836 H              1 S1                 0.0000
     44 ****        -2.4258   3.8313   0.1193 H              1 S1                 0.0000
     45 ****         0.3608  -1.3476  -0.0012 H              1 S1                 0.0000
     46 ****         0.5703   2.7249   0.0411 LP             1 S1                 0.0000
     47 ****        -1.0624   3.3002   0.0967 LP             1 S1                 0.0000
     48 ****         1.9390  -4.5883   0.6508 LP             1 S1                 0.0000
     49 ****         0.4779  -5.2427   0.3293 LP             1 S1                 0.0000
     50 ****        -6.5861   3.8565  -0.3932 LP             1 S1                 0.0000
@<TRIPOS>BOND
    1    1    2 2     
    2    2    3 am    
    3    2   16 am    
    4    3    4 1     
    5    3   23 1     
    6    4    5 1     
    7    4   24 1     
    8    4   25 1     
    9    5   15 1     
   10    5    6 1     
   11    5   12 1     
   12    6   11 1     
   13    6    7 1     
   14    6   45 1     
   15    7    8 1     
   16    7   26 1     
   17    7   27 1     
   18    8    9 1     
   19    8   28 1     
   20    8   29 1     
   21    9   10 1     
   22   10   11 1     
   23   10   30 1     
   24   10   31 1     
   25   11   32 1     
   26   11   33 1     
   27   12   13 1     
   28   12   34 1     
   29   12   35 1     
   30   13   14 1     
   31   13   36 1     
   32   13   37 1     
   33   14   15 1     
   34   15   38 1     
   35   15   39 1     
   36   16   17 1     
   37   16   40 1     
   38   17   22 ar    
   39   17   18 ar    
   40   18   19 ar    
   41   18   41 1     
   42   19   20 ar    
   43   19   42 1     
   44   20   21 ar    
   45   21   22 ar    
   46   21   43 1     
   47   22   44 1     
   48    1   46 1     
   49    1   47 1     
   50    9   48 1     
   51    9   49 1     
   52   20   50 1     
@<TRIPOS>SUBSTRUCTURE
      1 S1             1
@<TRIPOS>SET
LONE_PAIRS      STATIC     ATOMS    <user>   **** ""
5 46 47 48 49 50
DONOR_HYDROGENS      STATIC     ATOMS    <user>   **** ""
3 23 45 40
ATOM$BLUE        STATIC     ATOMS    COLORGROUP SYSTEM
5 46 47 48 49 50
ATOM$RED        STATIC     ATOMS    COLORGROUP SYSTEM
3 23 45 40
