#       Name:                AV-unprocessed.smi:1884
#       Creating user name   scv26
#       Creation time:       Fri Mar 27 09:37:34 2020


#       File generated by GOLD software.
#

@<TRIPOS>MOLECULE
AV-unprocessed.smi:1884
    46    48     1
SMALL
NO_CHARGES


@<TRIPOS>ATOM
      1 ****        -2.4521   0.6146   3.2032 C.3            1 S1                 0.0000
      2 ****        -3.0334   0.5719   1.8258 C.2            1 S1                 0.0000
      3 ****        -4.3477   0.6136   1.6064 N.2            1 S1                 0.0000
      4 ****        -4.4268   0.5550   0.2282 C.ar           1 S1                 0.0000
      5 ****        -5.5506   0.5605  -0.6287 C.ar           1 S1                 0.0000
      6 ****        -5.3824   0.4891  -2.0272 C.ar           1 S1                 0.0000
      7 ****        -4.0911   0.4108  -2.5878 C.ar           1 S1                 0.0000
      8 ****        -2.9578   0.4043  -1.7522 C.ar           1 S1                 0.0000
      9 ****        -3.1310   0.4769  -0.3571 C.ar           1 S1                 0.0000
     10 ****        -2.2515   0.4906   0.7213 N.pl3          1 S1                 0.0000
     11 ****        -0.7979   0.4327   0.6542 C.3            1 S1                 0.0000
     12 ****        -0.2559  -1.0085   0.7467 C.3            1 S1                 0.0000
     13 ****        -0.7506  -1.8194  -0.3005 O.3            1 S1                 0.0000
     14 ****         1.2795  -1.0893   0.7647 C.3            1 S1                 0.0000
     15 ****         1.8205  -0.2879  -0.2788 O.3            1 S1                 0.0000
     16 ****         3.1901  -0.2344  -0.4212 C.ar           1 S1                 0.0000
     17 ****         3.6922   0.5544  -1.4765 C.ar           1 S1                 0.0000
     18 ****         5.0784   0.6674  -1.6974 C.ar           1 S1                 0.0000
     19 ****         5.9834  -0.0123  -0.8587 C.ar           1 S1                 0.0000
     20 ****         7.4147   0.1020  -1.0836 C.1            1 S1                 0.0000
     21 ****         8.5542   0.1929  -1.2625 N.1            1 S1                 0.0000
     22 ****         5.4943  -0.8035   0.1996 C.ar           1 S1                 0.0000
     23 ****         4.1072  -0.9150   0.4190 C.ar           1 S1                 0.0000
     24 ****        -3.2447   0.6237   3.9523 H              1 S1                 0.0000
     25 ****        -1.8499   1.5143   3.3307 H              1 S1                 0.0000
     26 ****        -1.8258  -0.2597   3.3791 H              1 S1                 0.0000
     27 ****        -6.5439   0.6195  -0.2089 H              1 S1                 0.0000
     28 ****        -6.2482   0.4943  -2.6729 H              1 S1                 0.0000
     29 ****        -3.9709   0.3551  -3.6598 H              1 S1                 0.0000
     30 ****        -1.9673   0.3414  -2.1783 H              1 S1                 0.0000
     31 ****        -0.4803   0.9018  -0.2777 H              1 S1                 0.0000
     32 ****        -0.3822   1.0443   1.4551 H              1 S1                 0.0000
     33 ****        -0.6193  -1.4597   1.6703 H              1 S1                 0.0000
     34 ****        -1.6952  -1.7992  -0.2746 H              1 S1                 0.0000
     35 ****         1.6386  -0.7118   1.7235 H              1 S1                 0.0000
     36 ****         1.6051  -2.1271   0.6735 H              1 S1                 0.0000
     37 ****         3.0060   1.0788  -2.1254 H              1 S1                 0.0000
     38 ****         5.4401   1.2778  -2.5127 H              1 S1                 0.0000
     39 ****         6.1790  -1.3294   0.8494 H              1 S1                 0.0000
     40 ****         3.7724  -1.5300   1.2402 H              1 S1                 0.0000
     41 ****        -5.0908   0.6726   2.2729 LP             1 S1                 0.0000
     42 ****        -0.4298  -2.7589  -0.1801 LP             1 S1                 0.0000
     43 ****        -0.4296  -1.4678  -1.1799 LP             1 S1                 0.0000
     44 ****         1.5022   0.6480  -0.1281 LP             1 S1                 0.0000
     45 ****         1.4470  -0.6324  -1.1401 LP             1 S1                 0.0000
     46 ****         9.5391   0.2715  -1.4171 LP             1 S1                 0.0000
@<TRIPOS>BOND
    1    1    2 1     
    2    1   24 1     
    3    1   25 1     
    4    1   26 1     
    5    2   10 1     
    6    2    3 2     
    7    3    4 1     
    8    4    9 ar    
    9    4    5 ar    
   10    5    6 ar    
   11    5   27 1     
   12    6    7 ar    
   13    6   28 1     
   14    7    8 ar    
   15    7   29 1     
   16    8    9 ar    
   17    8   30 1     
   18    9   10 1     
   19   10   11 1     
   20   11   12 1     
   21   11   31 1     
   22   11   32 1     
   23   12   13 1     
   24   12   14 1     
   25   12   33 1     
   26   13   34 1     
   27   14   15 1     
   28   14   35 1     
   29   14   36 1     
   30   15   16 1     
   31   16   23 ar    
   32   16   17 ar    
   33   17   18 ar    
   34   17   37 1     
   35   18   19 ar    
   36   18   38 1     
   37   19   20 1     
   38   19   22 ar    
   39   20   21 3     
   40   22   23 ar    
   41   22   39 1     
   42   23   40 1     
   43    3   41 1     
   44   13   42 1     
   45   13   43 1     
   46   15   44 1     
   47   15   45 1     
   48   21   46 1     
@<TRIPOS>SUBSTRUCTURE
      1 S1             1
@<TRIPOS>SET
LONE_PAIRS      STATIC     ATOMS    <user>   **** ""
6 41 42 43 44 45 46
DONOR_HYDROGENS      STATIC     ATOMS    <user>   **** ""
1 34
ATOM$BLUE        STATIC     ATOMS    COLORGROUP SYSTEM
6 41 42 43 44 45 46
ATOM$RED        STATIC     ATOMS    COLORGROUP SYSTEM
1 34
