AV-unprocessed.smi:2902|AV-procd|sdf|11151|dock4
  -GOLD-   2272016 33D 1   1.00000     0.00000
 Structure written by MMmdl.
 47 48  0  0  0  0  0  0  0  0  1 V2000
  144.9456  134.3115  156.5117 C   0  0  0  0  0  0  0  0  0  0  0  0
  145.7953  134.0547  155.2609 C   0  0  0  0  0  0  0  0  0  0  0  0
  145.8741  135.2814  154.3329 C   0  0  2  0  0  0  0  0  0  0  0  0
  146.5279  134.8755  153.1285 O   0  0  0  0  0  0  0  0  0  0  0  0
  146.0250  133.7131  152.4723 C   0  0  0  0  0  0  0  0  0  0  0  0
  146.8740  133.2603  151.2808 C   0  0  0  0  0  0  0  0  0  0  0  0
  145.9121  132.4596  150.3957 C   0  0  0  0  0  0  0  0  0  0  0  0
  144.4954  132.9277  150.7657 C   0  0  0  0  0  0  0  0  0  0  0  0
  144.6692  134.0108  151.8357 C   0  0  0  0  0  0  0  0  0  0  0  0
  146.6378  136.4396  154.9957 C   0  0  0  0  0  0  0  0  0  0  0  0
  146.2543  136.9068  156.0682 O   0  0  0  0  0  0  0  0  0  0  0  0
  147.7326  136.8716  154.3503 N   0  0  0  0  0  0  0  0  0  0  0  0
  148.6506  137.9041  154.8252 C   0  0  2  0  0  0  0  0  0  0  0  0
  148.3030  139.2479  154.1561 C   0  0  0  0  0  0  0  0  0  0  0  0
  150.1164  137.4597  154.5851 C   0  0  2  0  0  0  0  0  0  0  0  0
  150.4266  136.0625  155.1549 C   0  0  0  0  0  0  0  0  0  0  0  0
  151.0646  138.4311  155.1123 N   0  0  0  0  0  0  0  0  0  0  0  0
  152.3958  138.4870  155.0245 C   0  0  0  0  0  0  0  0  0  0  0  0
  152.9308  139.5355  155.6340 N   0  0  0  0  0  0  0  0  0  0  0  0
  151.7942  140.1281  156.1063 C   0  0  0  0  0  0  0  0  0  0  0  0
  150.6492  139.5086  155.8196 N   0  0  0  0  0  0  0  0  0  0  0  0
  144.9142  133.4263  157.1471 H   0  0  0  0  0  0  0  0  0  0  0  0
  143.9191  134.5670  156.2473 H   0  0  0  0  0  0  0  0  0  0  0  0
  145.3537  135.1314  157.1033 H   0  0  0  0  0  0  0  0  0  0  0  0
  146.7988  133.7654  155.5767 H   0  0  0  0  0  0  0  0  0  0  0  0
  145.3870  133.2015  154.7176 H   0  0  0  0  0  0  0  0  0  0  0  0
  144.8559  135.6056  154.1116 H   0  0  0  0  0  0  0  0  0  0  0  0
  145.8945  132.8862  153.1712 H   0  0  0  0  0  0  0  0  0  0  0  0
  147.2301  134.1336  150.7324 H   0  0  0  0  0  0  0  0  0  0  0  0
  147.7461  132.6780  151.5798 H   0  0  0  0  0  0  0  0  0  0  0  0
  146.1281  132.6112  149.3379 H   0  0  0  0  0  0  0  0  0  0  0  0
  146.0125  131.3929  150.5997 H   0  0  0  0  0  0  0  0  0  0  0  0
  143.9490  133.3047  149.9007 H   0  0  0  0  0  0  0  0  0  0  0  0
  143.9263  132.0901  151.1711 H   0  0  0  0  0  0  0  0  0  0  0  0
  143.8568  134.0185  152.5627 H   0  0  0  0  0  0  0  0  0  0  0  0
  144.6948  134.9913  151.3584 H   0  0  0  0  0  0  0  0  0  0  0  0
  147.9668  136.4266  153.4748 H   0  0  0  0  0  0  0  0  0  0  0  0
  148.5139  138.0227  155.9019 H   0  0  0  0  0  0  0  0  0  0  0  0
  148.9125  140.0632  154.5456 H   0  0  0  0  0  0  0  0  0  0  0  0
  147.2609  139.5174  154.3311 H   0  0  0  0  0  0  0  0  0  0  0  0
  148.4578  139.2032  153.0777 H   0  0  0  0  0  0  0  0  0  0  0  0
  150.2738  137.4076  153.5059 H   0  0  0  0  0  0  0  0  0  0  0  0
  149.8316  135.2891  154.6698 H   0  0  0  0  0  0  0  0  0  0  0  0
  150.2250  136.0152  156.2254 H   0  0  0  0  0  0  0  0  0  0  0  0
  151.4746  135.8023  155.0020 H   0  0  0  0  0  0  0  0  0  0  0  0
  152.9847  137.7452  154.5054 H   0  0  0  0  0  0  0  0  0  0  0  0
  151.8113  141.0445  156.6777 H   0  0  0  0  0  0  0  0  0  0  0  0
  1  2  1  0  0  0  0
  1 22  1  0  0  0  0
  1 23  1  0  0  0  0
  1 24  1  0  0  0  0
  2  3  1  0  0  0  0
  2 25  1  0  0  0  0
  2 26  1  0  0  0  0
  3  4  1  0  0  0  0
  3 10  1  0  0  0  0
  3 27  1  0  0  0  0
  4  5  1  0  0  0  0
  5  9  1  0  0  0  0
  5  6  1  0  0  0  0
  5 28  1  0  0  0  0
  6  7  1  0  0  0  0
  6 29  1  0  0  0  0
  6 30  1  0  0  0  0
  7  8  1  0  0  0  0
  7 31  1  0  0  0  0
  7 32  1  0  0  0  0
  8  9  1  0  0  0  0
  8 33  1  0  0  0  0
  8 34  1  0  0  0  0
  9 35  1  0  0  0  0
  9 36  1  0  0  0  0
 10 11  2  0  0  0  0
 10 12  1  0  0  0  0
 12 13  1  0  0  0  0
 12 37  1  0  0  0  0
 13 14  1  0  0  0  0
 13 15  1  0  0  0  0
 13 38  1  0  0  0  0
 14 39  1  0  0  0  0
 14 40  1  0  0  0  0
 14 41  1  0  0  0  0
 15 16  1  0  0  0  0
 15 17  1  0  0  0  0
 15 42  1  0  0  0  0
 16 43  1  0  0  0  0
 16 44  1  0  0  0  0
 16 45  1  0  0  0  0
 17 21  1  0  0  0  0
 17 18  1  0  0  0  0
 18 19  2  0  0  0  0
 18 46  1  0  0  0  0
 19 20  1  0  0  0  0
 20 21  2  0  0  0  0
 20 47  1  0  0  0  0
M  END
> <s_m_source_file>
AV-unprocessed.smi

> <i_m_source_file_index>
2902

> <i_lp_mmshare_version>
43012

> <i_f3d_flags>
0

> <s_epik_input>
W0NIMl0xW0NIMl1bQ0gyXVtDSDJdW0NIXTFPW0NAQEhdKFtDSDJdW0NIM10pQyg9TylbTkhdW0NASF0oW0NIM10pW0NASF0oW0NIM10pbjJbY0hdbltjSF1uMg==

> <s_epik_cmdline>
J2VwaWtfcHl0aG9uJywgJy1waCcsICc3LjAnLCAnLXRuJywgJzgnLCAnLW1hJywgJzIwMCcsICctbWV0YWxfYmluZGluZycsICctaW1hZScsICc8aW5maWxlLm1hZT4nLCAnLW9tYWUnLCAnPG91dGZpbGUubWFlPic=

> <r_lp_tautomer_probability>
1

> <r_epik_Ionization_Penalty>
6.95617e-05

> <r_epik_Ionization_Penalty_Charging>
0

> <r_epik_Ionization_Penalty_Neutral>
6.95617e-05

> <r_epik_State_Penalty>
-0

> <r_epik_Charging_Adjusted_Penalty>
0

> <i_epik_Tot_Q>
0

> <i_epik_Tot_abs_Q>
0

> <r_epik_Metal_State_Penalty>
-0

> <b_epik_Metal_Only>
0

> <s_lp_Force_Field>
OPLS_2005

> <r_lp_Energy>
29.4531

> <b_lp_Chiralities_Consistent>
1

> <s_lp_Variant>
AV-unprocessed.smi:2902-1

> <Gold.Version>
5.8.1

> <Gold.Id.Protein>
6NUR|6NUR_protein|mol2

> <Gold.PLP.Fitness>
34.5817

> <Gold.PLP.PLP>
-29.3136

> <Gold.PLP.part.hbond>
-2.0827

> <Gold.PLP.part.metal>
0.0000

> <Gold.PLP.part.buried>
-3.9975

> <Gold.PLP.part.nonpolar>
-24.2322

> <Gold.PLP.part.repulsive>
1.1471

> <Gold.PLP.ligand.clash>
0.0000

> <Gold.PLP.ligand.torsion>
0.4206

> <Gold.PLP.Chemscore.Hbond>
2.0000

> <Gold.PLP.Chemscore.CHOScore>
0.0000

> <Gold.PLP.Chemscore.Metal>
0.0000

> <Gold.Chemscore.Hbonds>
donor molecule, donor type, donor heavy atom, donor atom, acceptor molecule, acceptor atom, score
      L1  H    12    37       P1  7948  1.00
      P1  H  7997  8008       L1    19  1.00

> <Gold.PLP.Chemscore.Internal.Correction>
0.1093

> <Gold.Rescore>
     Score         DG    S(hbond)    S(metal)    S(lipo)     H(rot)  DE(clash)    DE(int)     intcor
     10.14     -11.69       1.98        0.00      55.65       2.69       0.08       1.48       ----

> <Gold.Chemscore.Fitness>
10.1395

> <Gold.Chemscore.DG>
-11.6925

> <Gold.Chemscore.ZeroCoef>
-5.4800

> <Gold.Chemscore.Hbond>
1.9751

> <Gold.Chemscore.Metal>
0.0000

> <Gold.Chemscore.Lipo>
55.6494

> <Gold.Chemscore.Internal_Hbond>
0.0000

> <Gold.Chemscore.DEClash>
0.0758

> <Gold.Chemscore.DEInternal>
1.4772

> <Gold.Chemscore.Rot>
2.6935

> <Gold.Chemscore.Internal.Correction>
   9.000000E+99

> <Gold.Chemscore.Hbonds>
donor molecule, donor type, donor heavy atom, donor atom, acceptor molecule, acceptor atom, score
      L1  H    12    37       P1  7948  0.97
      P1  H  7997  8008       L1    19  0.95

> <Gold.Chemscore.Hbond.Weighted>
-6.5969

> <Gold.Chemscore.Metal.Weighted>
-0.0000

> <Gold.Chemscore.Lipo.Weighted>
-6.5110

> <Gold.Chemscore.Internal_Hbond.Weighted>
0.0000

> <Gold.Chemscore.DEClash.Weighted>
0.0758

> <Gold.Chemscore.DEInternal.Weighted>
1.4772

> <Gold.Chemscore.Rot.Weighted>
6.8954

> <Gold.Chemscore.Internal.Correction.Weighted>
   9.000000E+99

> <Gold.Protein.RotatedTorsions>
[ 6907 6896 6895 6894 ] final   62.13 input  -60.11 | X-H torsion
[ 7974 7965 7964 7962 ] final  -59.36 input  175.53 | X-H torsion
[ 8008 7997 7996 7995 ] final  -28.27 input   59.86 | X-H torsion
[ 10167 10162 10161 10158 ] final -146.40 input  -65.29 | X-H torsion
[ 10718 10713 10712 10709 ] final   90.50 input   66.30 | X-H torsion
[ 10763 10752 10751 10750 ] final  -94.66 input  -60.55 | X-H torsion
[ 11005 11000 10999 10996 ] final  151.60 input  -57.11 | X-H torsion

> <Gold.Protein.ActiveResidues>
 VAL166  LYS551  ARG553  GLY616  TRP617  ASP618  TYR619  PRO620  LYS621  CYS622 
 ASP623  PHE694  ASN695  SER759  ASP760  ASP761  ALA762  ILE779  LEU786  VAL792 
 PHE793  MET794  SER795  GLU796  ALA797  LYS798  CYS799  TRP800  GLU811  SER814 

> <Gold.Protein.RotatedAtoms>
  152.4146  134.6063  160.0013 H   0  0  0  0  0  0  0  0  0  0  0  0  # atno 6907 bound_to 6896
  151.6231  133.3332  159.3100 H   0  0  0  0  0  0  0  0  0  0  0  0  # atno 6908 bound_to 6896
  150.8036  134.7185  159.6689 H   0  0  0  0  0  0  0  0  0  0  0  0  # atno 6909 bound_to 6896
  145.8283  140.8496  143.0097 H   0  0  0  0  0  0  0  0  0  0  0  0  # atno 7974 bound_to 7965
  154.4340  140.1850  156.1063 H   0  0  0  0  0  0  0  0  0  0  0  0  # atno 8008 bound_to 7997
  156.0253  140.3336  155.7056 H   0  0  0  0  0  0  0  0  0  0  0  0  # atno 8009 bound_to 7997
  155.5918  140.0631  157.2747 H   0  0  0  0  0  0  0  0  0  0  0  0  # atno 8010 bound_to 7997
  139.7716  143.8229  152.2625 H   0  0  0  0  0  0  0  0  0  0  0  0  # atno 10167 bound_to 10162
  157.6959  131.0373  150.3588 H   0  0  0  0  0  0  0  0  0  0  0  0  # atno 10718 bound_to 10713
  154.7076  135.5149  153.8618 H   0  0  0  0  0  0  0  0  0  0  0  0  # atno 10763 bound_to 10752
  153.0754  135.6614  154.0167 H   0  0  0  0  0  0  0  0  0  0  0  0  # atno 10764 bound_to 10752
  154.0015  135.3010  155.3381 H   0  0  0  0  0  0  0  0  0  0  0  0  # atno 10765 bound_to 10752
  140.1233  134.8849  157.2103 H   0  0  0  0  0  0  0  0  0  0  0  0  # atno 11005 bound_to 11000
  144.6742  140.0635  143.7475 LP  0  0  0  0  0  0  0  0  0  0  0  0  # atno 17320 bound_to 7965
  145.9599  139.2793  143.1162 LP  0  0  0  0  0  0  0  0  0  0  0  0  # atno 17321 bound_to 7965
  139.8265  144.7273  150.9505 LP  0  0  0  0  0  0  0  0  0  0  0  0  # atno 17342 bound_to 10162
  140.7814  143.4109  151.0994 LP  0  0  0  0  0  0  0  0  0  0  0  0  # atno 17343 bound_to 10162
  156.4027  130.3919  149.6948 LP  0  0  0  0  0  0  0  0  0  0  0  0  # atno 17370 bound_to 10713
  156.4260  130.7792  151.2810 LP  0  0  0  0  0  0  0  0  0  0  0  0  # atno 17371 bound_to 10713
  140.2936  134.3212  155.7308 LP  0  0  0  0  0  0  0  0  0  0  0  0  # atno 17394 bound_to 11000
  141.2156  133.7550  156.9539 LP  0  0  0  0  0  0  0  0  0  0  0  0  # atno 17395 bound_to 11000

$$$$
