#       Name:                AV-unprocessed.smi:912
#       Creating user name   scv26
#       Creation time:       Fri Mar 27 02:05:12 2020


#       File generated by GOLD software.
#

@<TRIPOS>MOLECULE
AV-unprocessed.smi:912
    30    30     1
SMALL
NO_CHARGES


@<TRIPOS>ATOM
      1 ****        -2.2340   2.1794   0.0386 C.3            1 S1                 0.0000
      2 ****        -1.5932   0.8995   0.3337 N.3            1 S1                 0.0000
      3 ****        -0.1252   0.8000   0.2415 C.3            1 S1                 0.0000
      4 ****         0.4276   1.4811   1.5205 C.3            1 S1                 0.0000
      5 ****         0.4066   1.4965  -1.0411 C.2            1 S1                 0.0000
      6 ****        -0.0202   1.0296  -2.2201 N.am           1 S1                 0.0000
      7 ****         1.1951   2.4380  -0.9751 O.2            1 S1                 0.0000
      8 ****         0.3520  -0.6679   0.2154 C.ar           1 S1                 0.0000
      9 ****        -0.5537  -1.7616   0.2371 C.ar           1 S1                 0.0000
     10 ****        -0.0600  -3.0821   0.2182 C.ar           1 S1                 0.0000
     11 ****         1.2700  -3.3049   0.1788 N.pl3          1 S1                 1.0000
     12 ****         2.1747  -2.3044   0.1572 C.ar           1 S1                 0.0000
     13 ****         1.7389  -0.9645   0.1764 C.ar           1 S1                 0.0000
     14 ****        -3.2890   2.1183   0.3051 H              1 S1                 0.0000
     15 ****        -2.1854   2.4265  -1.0219 H              1 S1                 0.0000
     16 ****        -1.8006   3.0005   0.6082 H              1 S1                 0.0000
     17 ****        -2.0358   0.1467  -0.1726 H              1 S1                 0.0000
     18 ****         1.5162   1.4414   1.5690 H              1 S1                 0.0000
     19 ****         0.0512   0.9914   2.4196 H              1 S1                 0.0000
     20 ****         0.1547   2.5342   1.5872 H              1 S1                 0.0000
     21 ****         0.3107   1.4439  -3.0789 H              1 S1                 0.0000
     22 ****        -0.6642   0.2520  -2.2455 H              1 S1                 0.0000
     23 ****        -1.6228  -1.6160   0.2716 H              1 S1                 0.0000
     24 ****        -0.6874  -3.9613   0.2342 H              1 S1                 0.0000
     25 ****         3.2125  -2.6028   0.1252 H              1 S1                 0.0000
     26 ****         2.4714  -0.1705   0.1570 H              1 S1                 0.0000
     27 ****         1.6052  -4.2686   0.1655 H              1 S1                 0.0000
     28 ****        -1.7460   0.8192   1.3187 LP             1 S1                 0.0000
     29 ****         1.5056   2.7687  -0.0839 LP             1 S1                 0.0000
     30 ****         1.5258   2.8730  -1.8127 LP             1 S1                 0.0000
@<TRIPOS>BOND
    1    1    2 1     
    2    1   14 1     
    3    1   15 1     
    4    1   16 1     
    5    2    3 1     
    6    2   17 1     
    7    3    4 1     
    8    3    5 1     
    9    3    8 1     
   10    4   18 1     
   11    4   19 1     
   12    4   20 1     
   13    5    6 am    
   14    5    7 2     
   15    6   21 1     
   16    6   22 1     
   17    8   13 ar    
   18    8    9 ar    
   19    9   10 ar    
   20    9   23 1     
   21   10   11 ar    
   22   10   24 1     
   23   11   12 ar    
   24   11   27 1     
   25   12   13 ar    
   26   12   25 1     
   27   13   26 1     
   28    2   28 1     
   29    7   29 1     
   30    7   30 1     
@<TRIPOS>SUBSTRUCTURE
      1 S1             1
@<TRIPOS>SET
LONE_PAIRS      STATIC     ATOMS    <user>   **** ""
3 28 29 30
DONOR_HYDROGENS      STATIC     ATOMS    <user>   **** ""
4 17 21 22 27
ATOM$BLUE        STATIC     ATOMS    COLORGROUP SYSTEM
3 28 29 30
ATOM$RED        STATIC     ATOMS    COLORGROUP SYSTEM
4 17 21 22 27
