AV-unprocessed.smi:1226|AV-procd|sdf|5145|dock4
  -GOLD-   22720 4213D 1   1.00000     0.00000
 Structure written by MMmdl.
 37 38  0  0  0  0  0  0  0  0  1 V2000
  154.4838  140.3946  161.2542 C   0  0  0  0  0  0  0  0  0  0  0  0
  153.7533  141.6920  161.1949 C   0  0  0  0  0  0  0  0  0  0  0  0
  153.4981  142.3446  160.0580 N   0  0  0  0  0  0  0  0  0  0  0  0
  152.7908  143.5328  160.2664 C   0  0  0  0  0  0  0  0  0  0  0  0
  152.4097  144.3925  159.0997 C   0  0  0  0  0  0  0  0  0  0  0  0
  150.8849  144.5246  158.9507 C   0  0  0  0  0  0  0  0  0  0  0  0
  150.3972  143.8299  157.7649 N   0  0  0  0  0  0  0  0  0  0  0  0
  150.8185  142.6251  157.3568 C   0  0  0  0  0  0  0  0  0  0  0  0
  151.6726  141.9594  157.9430 O   0  0  0  0  0  0  0  0  0  0  0  0
  150.1961  142.2329  156.2367 N   0  0  0  0  0  0  0  0  0  0  0  0
  150.4174  140.9605  155.5591 C   0  0  0  0  0  0  0  0  0  0  0  0
  149.2427  140.6048  154.6335 C   0  0  1  0  0  0  0  0  0  0  0  0
  147.9772  140.1927  155.3832 C   0  0  0  0  0  0  0  0  0  0  0  0
  146.9074  140.4826  154.3559 C   0  0  0  0  0  0  0  0  0  0  0  0
  147.4274  141.7675  153.7176 C   0  0  0  0  0  0  0  0  0  0  0  0
  148.8461  141.7276  153.8493 O   0  0  0  0  0  0  0  0  0  0  0  0
  152.5152  143.7733  161.5893 C   0  0  0  0  0  0  0  0  0  0  0  0
  153.1326  142.5132  162.6215 S   0  0  0  0  0  0  0  0  0  0  0  0
  155.0401  140.2249  160.3317 H   0  0  0  0  0  0  0  0  0  0  0  0
  153.7766  139.5767  161.3927 H   0  0  0  0  0  0  0  0  0  0  0  0
  155.1850  140.3974  162.0886 H   0  0  0  0  0  0  0  0  0  0  0  0
  152.8543  145.3821  159.2130 H   0  0  0  0  0  0  0  0  0  0  0  0
  152.8316  143.9801  158.1822 H   0  0  0  0  0  0  0  0  0  0  0  0
  150.3872  144.0965  159.8212 H   0  0  0  0  0  0  0  0  0  0  0  0
  150.5948  145.5761  158.9138 H   0  0  0  0  0  0  0  0  0  0  0  0
  149.6903  144.2997  157.2186 H   0  0  0  0  0  0  0  0  0  0  0  0
  149.5090  142.8513  155.8314 H   0  0  0  0  0  0  0  0  0  0  0  0
  151.3296  141.0558  154.9699 H   0  0  0  0  0  0  0  0  0  0  0  0
  150.5983  140.1602  156.2788 H   0  0  0  0  0  0  0  0  0  0  0  0
  149.5282  139.8027  153.9509 H   0  0  0  0  0  0  0  0  0  0  0  0
  147.9920  139.1509  155.7040 H   0  0  0  0  0  0  0  0  0  0  0  0
  147.8280  140.8206  156.2629 H   0  0  0  0  0  0  0  0  0  0  0  0
  146.8731  139.6814  153.6166 H   0  0  0  0  0  0  0  0  0  0  0  0
  145.9129  140.5930  154.7888 H   0  0  0  0  0  0  0  0  0  0  0  0
  147.1275  141.8614  152.6738 H   0  0  0  0  0  0  0  0  0  0  0  0
  147.0564  142.6395  154.2570 H   0  0  0  0  0  0  0  0  0  0  0  0
  151.9859  144.6119  162.0173 H   0  0  0  0  0  0  0  0  0  0  0  0
  1  2  1  0  0  0  0
  1 19  1  0  0  0  0
  1 20  1  0  0  0  0
  1 21  1  0  0  0  0
  2 18  1  0  0  0  0
  2  3  2  0  0  0  0
  3  4  1  0  0  0  0
  4  5  1  0  0  0  0
  4 17  2  0  0  0  0
  5  6  1  0  0  0  0
  5 22  1  0  0  0  0
  5 23  1  0  0  0  0
  6  7  1  0  0  0  0
  6 24  1  0  0  0  0
  6 25  1  0  0  0  0
  7  8  1  0  0  0  0
  7 26  1  0  0  0  0
  8  9  2  0  0  0  0
  8 10  1  0  0  0  0
 10 11  1  0  0  0  0
 10 27  1  0  0  0  0
 11 12  1  0  0  0  0
 11 28  1  0  0  0  0
 11 29  1  0  0  0  0
 12 16  1  0  0  0  0
 12 13  1  0  0  0  0
 12 30  1  0  0  0  0
 13 14  1  0  0  0  0
 13 31  1  0  0  0  0
 13 32  1  0  0  0  0
 14 15  1  0  0  0  0
 14 33  1  0  0  0  0
 14 34  1  0  0  0  0
 15 16  1  0  0  0  0
 15 35  1  0  0  0  0
 15 36  1  0  0  0  0
 17 18  1  0  0  0  0
 17 37  1  0  0  0  0
M  END
> <s_m_source_file>
AV-unprocessed.smi

> <i_m_source_file_index>
1226

> <i_lp_mmshare_version>
43012

> <i_f3d_flags>
0

> <s_epik_input>
W0NIM11jMW5jKFtjSF1zMSlbQ0gyXVtDSDJdW05IXUMoPU8pW05IXVtDSDJdW0NAQEhdMltDSDJdW0NIMl1bQ0gyXU8y

> <s_epik_cmdline>
J2VwaWtfcHl0aG9uJywgJy1waCcsICc3LjAnLCAnLXRuJywgJzgnLCAnLW1hJywgJzIwMCcsICctbWV0YWxfYmluZGluZycsICctaW1hZScsICc8aW5maWxlLm1hZT4nLCAnLW9tYWUnLCAnPG91dGZpbGUubWFlPic=

> <r_epik_Ionization_Penalty>
0.00199722

> <r_epik_Ionization_Penalty_Charging>
0

> <r_epik_Ionization_Penalty_Neutral>
0.00199722

> <r_epik_State_Penalty>
0.00132705

> <r_epik_Charging_Adjusted_Penalty>
0.00132705

> <i_epik_Tot_Q>
0

> <i_epik_Tot_abs_Q>
0

> <r_epik_Metal_State_Penalty>
-0

> <b_epik_Metal_Only>
0

> <s_lp_Force_Field>
OPLS_2005

> <r_lp_Energy>
8.90451

> <b_lp_Chiralities_Consistent>
1

> <s_lp_Variant>
AV-unprocessed.smi:1226-2

> <Gold.Version>
5.8.1

> <Gold.Id.Protein>
6NUR|6NUR_protein|mol2

> <Gold.PLP.Fitness>
51.0103

> <Gold.PLP.PLP>
-44.7912

> <Gold.PLP.part.hbond>
-3.1615

> <Gold.PLP.part.metal>
0.0000

> <Gold.PLP.part.buried>
-7.6529

> <Gold.PLP.part.nonpolar>
-33.6251

> <Gold.PLP.part.repulsive>
0.3273

> <Gold.PLP.ligand.clash>
0.0000

> <Gold.PLP.ligand.torsion>
0.7121

> <Gold.PLP.Chemscore.Hbond>
2.5360

> <Gold.PLP.Chemscore.CHOScore>
0.0000

> <Gold.PLP.Chemscore.Metal>
0.0000

> <Gold.Chemscore.Hbonds>
donor molecule, donor type, donor heavy atom, donor atom, acceptor molecule, acceptor atom, score
      L1  H     7    26       P1  8028  1.00
      L1  H    10    27       P1  8028  0.93
      P1  H  8011  8017       L1    16  0.59

> <Gold.PLP.Chemscore.Internal.Correction>
0.0353

> <Gold.Rescore>
     Score         DG    S(hbond)    S(metal)    S(lipo)     H(rot)  DE(clash)    DE(int)     intcor
     18.29     -20.73       2.01        0.00     111.14       1.75       0.25       2.18       ----

> <Gold.Chemscore.Fitness>
18.2870

> <Gold.Chemscore.DG>
-20.7251

> <Gold.Chemscore.ZeroCoef>
-5.4800

> <Gold.Chemscore.Hbond>
2.0115

> <Gold.Chemscore.Metal>
0.0000

> <Gold.Chemscore.Lipo>
111.1416

> <Gold.Chemscore.Internal_Hbond>
0.0000

> <Gold.Chemscore.DEClash>
0.2536

> <Gold.Chemscore.DEInternal>
2.1845

> <Gold.Chemscore.Rot>
1.7487

> <Gold.Chemscore.Internal.Correction>
   9.000000E+99

> <Gold.Chemscore.Hbonds>
donor molecule, donor type, donor heavy atom, donor atom, acceptor molecule, acceptor atom, score
      L1  H     7    26       P1  8028  0.34
      L1  H    10    27       P1  8028  0.88
      P1  H  8011  8017       L1    16  0.53

> <Gold.Chemscore.Hbond.Weighted>
-6.7184

> <Gold.Chemscore.Metal.Weighted>
-0.0000

> <Gold.Chemscore.Lipo.Weighted>
-13.0036

> <Gold.Chemscore.Internal_Hbond.Weighted>
0.0000

> <Gold.Chemscore.DEClash.Weighted>
0.2536

> <Gold.Chemscore.DEInternal.Weighted>
2.1845

> <Gold.Chemscore.Rot.Weighted>
4.4768

> <Gold.Chemscore.Internal.Correction.Weighted>
   9.000000E+99

> <Gold.Protein.RotatedTorsions>
[ 6907 6896 6895 6894 ] final  151.03 input  -60.11 | X-H torsion
[ 7974 7965 7964 7962 ] final -101.79 input  175.53 | X-H torsion
[ 8008 7997 7996 7995 ] final  -28.63 input   59.86 | X-H torsion
[ 10167 10162 10161 10158 ] final   73.00 input  -65.29 | X-H torsion
[ 10718 10713 10712 10709 ] final   95.84 input   66.30 | X-H torsion
[ 10763 10752 10751 10750 ] final  -86.81 input  -60.55 | X-H torsion
[ 11005 11000 10999 10996 ] final   70.45 input  -57.11 | X-H torsion

> <Gold.Protein.ActiveResidues>
 VAL166  LYS551  ARG553  GLY616  TRP617  ASP618  TYR619  PRO620  LYS621  CYS622 
 ASP623  PHE694  ASN695  SER759  ASP760  ASP761  ALA762  ILE779  LEU786  VAL792 
 PHE793  MET794  SER795  GLU796  ALA797  LYS798  CYS799  TRP800  GLU811  SER814 

> <Gold.Protein.RotatedAtoms>
  152.1062  133.4276  159.4609 H   0  0  0  0  0  0  0  0  0  0  0  0  # atno 6907 bound_to 6896
  150.6865  134.2702  159.4594 H   0  0  0  0  0  0  0  0  0  0  0  0  # atno 6908 bound_to 6896
  152.0567  134.9620  160.0625 H   0  0  0  0  0  0  0  0  0  0  0  0  # atno 6909 bound_to 6896
  145.2770  140.9315  143.2953 H   0  0  0  0  0  0  0  0  0  0  0  0  # atno 7974 bound_to 7965
  154.4324  140.1840  156.1120 H   0  0  0  0  0  0  0  0  0  0  0  0  # atno 8008 bound_to 7997
  156.0210  140.3341  155.7013 H   0  0  0  0  0  0  0  0  0  0  0  0  # atno 8009 bound_to 7997
  155.5976  140.0637  157.2732 H   0  0  0  0  0  0  0  0  0  0  0  0  # atno 8010 bound_to 7997
  140.0292  144.5479  150.7520 H   0  0  0  0  0  0  0  0  0  0  0  0  # atno 10167 bound_to 10162
  157.6934  131.0558  150.4400 H   0  0  0  0  0  0  0  0  0  0  0  0  # atno 10718 bound_to 10713
  154.6266  135.5436  153.7634 H   0  0  0  0  0  0  0  0  0  0  0  0  # atno 10763 bound_to 10752
  153.0264  135.6426  154.1362 H   0  0  0  0  0  0  0  0  0  0  0  0  # atno 10764 bound_to 10752
  154.1294  135.2915  155.3169 H   0  0  0  0  0  0  0  0  0  0  0  0  # atno 10765 bound_to 10752
  139.9597  134.7082  156.0673 H   0  0  0  0  0  0  0  0  0  0  0  0  # atno 11005 bound_to 11000
  144.9285  139.4326  143.6506 LP  0  0  0  0  0  0  0  0  0  0  0  0  # atno 17320 bound_to 7965
  146.3228  139.8184  142.8932 LP  0  0  0  0  0  0  0  0  0  0  0  0  # atno 17321 bound_to 7965
  140.7309  143.2688  151.3954 LP  0  0  0  0  0  0  0  0  0  0  0  0  # atno 17342 bound_to 10162
  139.6087  144.1143  152.2276 LP  0  0  0  0  0  0  0  0  0  0  0  0  # atno 17343 bound_to 10162
  156.4759  130.4063  149.6490 LP  0  0  0  0  0  0  0  0  0  0  0  0  # atno 17370 bound_to 10713
  156.3553  130.7453  151.2418 LP  0  0  0  0  0  0  0  0  0  0  0  0  # atno 17371 bound_to 10713
  141.1273  133.6596  156.3370 LP  0  0  0  0  0  0  0  0  0  0  0  0  # atno 17394 bound_to 11000
  140.5528  134.6011  157.5412 LP  0  0  0  0  0  0  0  0  0  0  0  0  # atno 17395 bound_to 11000

$$$$
