AV-unprocessed.smi:2528|AV-procd|sdf|9956|dock6
  -GOLD-   2272013593D 1   1.00000     0.00000
 Structure written by MMmdl.
 43 45  0  0  0  0  0  0  0  0  1 V2000
  144.5526  136.8341  152.4218 O   0  0  0  0  0  0  0  0  0  0  0  0
  145.7549  136.6368  152.2431 C   0  0  0  0  0  0  0  0  0  0  0  0
  146.7008  137.5438  152.5265 N   0  0  0  0  0  0  0  0  0  0  0  0
  146.4468  138.8654  153.0910 C   0  0  0  0  0  0  0  0  0  0  0  0
  147.7422  139.6067  153.4697 C   0  0  2  0  0  0  0  0  0  0  0  0
  148.8009  138.6896  154.1157 C   0  0  0  0  0  0  0  0  0  0  0  0
  149.9789  139.4343  154.5432 N   0  0  0  0  0  0  0  0  0  0  0  0
  150.9651  138.5551  155.1693 C   0  0  0  0  0  0  0  0  0  0  0  0
  152.2332  139.3085  155.6018 C   0  0  0  0  0  0  0  0  0  0  0  0
  151.8715  140.4617  156.5486 C   0  0  0  0  0  0  0  0  0  0  0  0
  150.7977  141.3531  155.9060 C   0  0  0  0  0  0  0  0  0  0  0  0
  149.5845  140.5153  155.4517 C   0  0  1  0  0  0  0  0  0  0  0  0
  148.5152  141.4164  154.8020 C   0  0  0  0  0  0  0  0  0  0  0  0
  147.3993  140.6297  154.3994 O   0  0  0  0  0  0  0  0  0  0  0  0
  146.2936  135.5069  151.7518 N   0  0  0  0  0  0  0  0  0  0  0  0
  145.6240  134.3229  151.3415 C   0  0  0  0  0  0  0  0  0  0  0  0
  146.4695  133.2643  150.9384 C   0  0  0  0  0  0  0  0  0  0  0  0
  145.9016  132.0473  150.5142 C   0  0  0  0  0  0  0  0  0  0  0  0
  144.5012  131.9205  150.5017 C   0  0  0  0  0  0  0  0  0  0  0  0
  143.7319  133.0228  150.9171 C   0  0  0  0  0  0  0  0  0  0  0  0
  144.2740  134.1894  151.3250 N   0  0  0  0  0  0  0  0  0  0  0  0
  147.6648  137.3014  152.3502 H   0  0  0  0  0  0  0  0  0  0  0  0
  145.8685  139.4598  152.3816 H   0  0  0  0  0  0  0  0  0  0  0  0
  145.8176  138.7438  153.9732 H   0  0  0  0  0  0  0  0  0  0  0  0
  148.1620  140.0770  152.5785 H   0  0  0  0  0  0  0  0  0  0  0  0
  148.3591  138.1750  154.9706 H   0  0  0  0  0  0  0  0  0  0  0  0
  149.0977  137.9165  153.4065 H   0  0  0  0  0  0  0  0  0  0  0  0
  150.5239  138.0634  156.0377 H   0  0  0  0  0  0  0  0  0  0  0  0
  151.2422  137.7624  154.4735 H   0  0  0  0  0  0  0  0  0  0  0  0
  152.9285  138.6256  156.0905 H   0  0  0  0  0  0  0  0  0  0  0  0
  152.7456  139.7005  154.7221 H   0  0  0  0  0  0  0  0  0  0  0  0
  151.4971  140.0584  157.4903 H   0  0  0  0  0  0  0  0  0  0  0  0
  152.7583  141.0485  156.7894 H   0  0  0  0  0  0  0  0  0  0  0  0
  150.4836  142.1197  156.6151 H   0  0  0  0  0  0  0  0  0  0  0  0
  151.2253  141.8777  155.0504 H   0  0  0  0  0  0  0  0  0  0  0  0
  149.1378  140.0708  156.3427 H   0  0  0  0  0  0  0  0  0  0  0  0
  148.1725  142.1727  155.5086 H   0  0  0  0  0  0  0  0  0  0  0  0
  148.9220  141.9467  153.9392 H   0  0  0  0  0  0  0  0  0  0  0  0
  147.2993  135.4876  151.6711 H   0  0  0  0  0  0  0  0  0  0  0  0
  147.5437  133.3785  150.9546 H   0  0  0  0  0  0  0  0  0  0  0  0
  146.5302  131.2258  150.2039 H   0  0  0  0  0  0  0  0  0  0  0  0
  144.0288  131.0034  150.1823 H   0  0  0  0  0  0  0  0  0  0  0  0
  142.6534  132.9671  150.9225 H   0  0  0  0  0  0  0  0  0  0  0  0
  1  2  2  0  0  0  0
  2  3  1  0  0  0  0
  2 15  1  0  0  0  0
  3  4  1  0  0  0  0
  3 22  1  0  0  0  0
  4  5  1  0  0  0  0
  4 23  1  0  0  0  0
  4 24  1  0  0  0  0
  5 14  1  0  0  0  0
  5  6  1  0  0  0  0
  5 25  1  0  0  0  0
  6  7  1  0  0  0  0
  6 26  1  0  0  0  0
  6 27  1  0  0  0  0
  7 12  1  0  0  0  0
  7  8  1  0  0  0  0
  8  9  1  0  0  0  0
  8 28  1  0  0  0  0
  8 29  1  0  0  0  0
  9 10  1  0  0  0  0
  9 30  1  0  0  0  0
  9 31  1  0  0  0  0
 10 11  1  0  0  0  0
 10 32  1  0  0  0  0
 10 33  1  0  0  0  0
 11 12  1  0  0  0  0
 11 34  1  0  0  0  0
 11 35  1  0  0  0  0
 12 13  1  0  0  0  0
 12 36  1  0  0  0  0
 13 14  1  0  0  0  0
 13 37  1  0  0  0  0
 13 38  1  0  0  0  0
 15 16  1  0  0  0  0
 15 39  1  0  0  0  0
 16 21  1  0  0  0  0
 16 17  2  0  0  0  0
 17 18  1  0  0  0  0
 17 40  1  0  0  0  0
 18 19  2  0  0  0  0
 18 41  1  0  0  0  0
 19 20  1  0  0  0  0
 19 42  1  0  0  0  0
 20 21  2  0  0  0  0
 20 43  1  0  0  0  0
M  END
> <s_m_source_file>
AV-unprocessed.smi

> <i_m_source_file_index>
2528

> <i_lp_mmshare_version>
43012

> <i_f3d_flags>
0

> <s_epik_input>
bjFbY0hdW2NIXVtjSF1bY0hdYzFbTkhdQyg9TylbTkhdW0NIMl1bQ0BIXShbQ0gyXTIpT1tDSDJdW0NAQEhdKE4yMylbQ0gyXVtDSDJdW0NIMl1bQ0gyXTM=

> <s_epik_cmdline>
J2VwaWtfcHl0aG9uJywgJy1waCcsICc3LjAnLCAnLXRuJywgJzgnLCAnLW1hJywgJzIwMCcsICctbWV0YWxfYmluZGluZycsICctaW1hZScsICc8aW5maWxlLm1hZT4nLCAnLW9tYWUnLCAnPG91dGZpbGUubWFlPic=

> <r_epik_Ionization_Penalty>
1.14192

> <r_epik_Ionization_Penalty_Charging>
0

> <r_epik_Ionization_Penalty_Neutral>
1.14192

> <r_epik_State_Penalty>
1.20248

> <r_epik_Charging_Adjusted_Penalty>
1.20248

> <i_epik_Tot_Q>
0

> <i_epik_Tot_abs_Q>
0

> <r_epik_Metal_State_Penalty>
1.20248

> <b_epik_Metal_Only>
0

> <s_lp_Force_Field>
OPLS_2005

> <r_lp_Energy>
34.3645

> <b_lp_Chiralities_Consistent>
1

> <s_lp_Variant>
AV-unprocessed.smi:2528-9

> <Gold.Version>
5.8.1

> <Gold.Id.Protein>
6NUR|6NUR_protein|mol2

> <Gold.PLP.Fitness>
46.2492

> <Gold.PLP.PLP>
-37.5225

> <Gold.PLP.part.hbond>
-2.0000

> <Gold.PLP.part.metal>
0.0000

> <Gold.PLP.part.buried>
-3.8421

> <Gold.PLP.part.nonpolar>
-32.7387

> <Gold.PLP.part.repulsive>
0.7661

> <Gold.PLP.ligand.clash>
0.0000

> <Gold.PLP.ligand.torsion>
0.2113

> <Gold.PLP.Chemscore.Hbond>
2.0507

> <Gold.PLP.Chemscore.CHOScore>
0.9989

> <Gold.PLP.Chemscore.Metal>
0.0000

> <Gold.Chemscore.Hbonds>
donor molecule, donor type, donor heavy atom, donor atom, acceptor molecule, acceptor atom, score
      L1  H     3    22       P1  7948  1.00
      L1  H    15    39       P1  7948  1.00
      P1  H  7989  7998       L1     7  0.01
      L1  C    20    43       P1 10186  0.83

> <Gold.PLP.Chemscore.Internal.Correction>
0.0003

> <Gold.Rescore>
     Score         DG    S(hbond)    S(metal)    S(lipo)     H(rot)  DE(clash)    DE(int)     intcor
     17.78     -20.10       1.95        0.00      96.97       1.27       0.76       1.56       ----

> <Gold.Chemscore.Fitness>
17.7844

> <Gold.Chemscore.DG>
-20.1005

> <Gold.Chemscore.ZeroCoef>
-5.4800

> <Gold.Chemscore.Hbond>
1.9536

> <Gold.Chemscore.Metal>
0.0000

> <Gold.Chemscore.Lipo>
96.9718

> <Gold.Chemscore.Internal_Hbond>
0.0000

> <Gold.Chemscore.DEClash>
0.7595

> <Gold.Chemscore.DEInternal>
1.5566

> <Gold.Chemscore.Rot>
1.2696

> <Gold.Chemscore.Internal.Correction>
   9.000000E+99

> <Gold.Chemscore.Hbonds>
donor molecule, donor type, donor heavy atom, donor atom, acceptor molecule, acceptor atom, score
      L1  H     3    22       P1  7948  0.98
      L1  H    15    39       P1  7948  0.96

> <Gold.Chemscore.Hbond.Weighted>
-6.5250

> <Gold.Chemscore.Metal.Weighted>
-0.0000

> <Gold.Chemscore.Lipo.Weighted>
-11.3457

> <Gold.Chemscore.Internal_Hbond.Weighted>
0.0000

> <Gold.Chemscore.DEClash.Weighted>
0.7595

> <Gold.Chemscore.DEInternal.Weighted>
1.5566

> <Gold.Chemscore.Rot.Weighted>
3.2502

> <Gold.Chemscore.Internal.Correction.Weighted>
   9.000000E+99

> <Gold.Protein.RotatedTorsions>
[ 6907 6896 6895 6894 ] final  127.09 input  -60.11 | X-H torsion
[ 7974 7965 7964 7962 ] final -112.67 input  175.53 | X-H torsion
[ 8008 7997 7996 7995 ] final  141.59 input   59.86 | X-H torsion
[ 10167 10162 10161 10158 ] final   54.15 input  -65.29 | X-H torsion
[ 10718 10713 10712 10709 ] final  177.12 input   66.30 | X-H torsion
[ 10763 10752 10751 10750 ] final  -33.51 input  -60.55 | X-H torsion
[ 11005 11000 10999 10996 ] final  -73.69 input  -57.11 | X-H torsion

> <Gold.Protein.ActiveResidues>
 VAL166  LYS551  ARG553  GLY616  TRP617  ASP618  TYR619  PRO620  LYS621  CYS622 
 ASP623  PHE694  ASN695  SER759  ASP760  ASP761  ALA762  ILE779  LEU786  VAL792 
 PHE793  MET794  SER795  GLU796  ALA797  LYS798  CYS799  TRP800  GLU811  SER814 

> <Gold.Protein.RotatedAtoms>
  152.3844  133.6591  159.6187 H   0  0  0  0  0  0  0  0  0  0  0  0  # atno 6907 bound_to 6896
  150.7767  133.9059  159.3364 H   0  0  0  0  0  0  0  0  0  0  0  0  # atno 6908 bound_to 6896
  151.6858  135.0956  160.0276 H   0  0  0  0  0  0  0  0  0  0  0  0  # atno 6909 bound_to 6896
  145.1412  140.8778  143.3701 H   0  0  0  0  0  0  0  0  0  0  0  0  # atno 7974 bound_to 7965
  156.2963  140.2311  156.4589 H   0  0  0  0  0  0  0  0  0  0  0  0  # atno 8008 bound_to 7997
  154.8036  140.0447  157.1311 H   0  0  0  0  0  0  0  0  0  0  0  0  # atno 8009 bound_to 7997
  154.9505  140.3041  155.5081 H   0  0  0  0  0  0  0  0  0  0  0  0  # atno 8010 bound_to 7997
  140.2332  144.3665  150.6407 H   0  0  0  0  0  0  0  0  0  0  0  0  # atno 10167 bound_to 10162
  156.9101  130.9907  151.3022 H   0  0  0  0  0  0  0  0  0  0  0  0  # atno 10718 bound_to 10713
  153.8314  135.6865  153.4814 H   0  0  0  0  0  0  0  0  0  0  0  0  # atno 10763 bound_to 10752
  153.1508  135.4619  154.9632 H   0  0  0  0  0  0  0  0  0  0  0  0  # atno 10764 bound_to 10752
  154.7885  135.3293  154.7777 H   0  0  0  0  0  0  0  0  0  0  0  0  # atno 10765 bound_to 10752
  141.1626  133.6886  156.7250 H   0  0  0  0  0  0  0  0  0  0  0  0  # atno 11005 bound_to 11000
  145.0530  139.3166  143.5919 LP  0  0  0  0  0  0  0  0  0  0  0  0  # atno 17320 bound_to 7965
  146.3505  139.9945  142.8682 LP  0  0  0  0  0  0  0  0  0  0  0  0  # atno 17321 bound_to 7965
  140.6170  143.2173  151.6772 LP  0  0  0  0  0  0  0  0  0  0  0  0  # atno 17342 bound_to 10162
  139.5103  144.3548  152.0618 LP  0  0  0  0  0  0  0  0  0  0  0  0  # atno 17343 bound_to 10162
  157.5973  130.8487  149.8748 LP  0  0  0  0  0  0  0  0  0  0  0  0  # atno 17370 bound_to 10713
  156.0540  130.3712  150.1134 LP  0  0  0  0  0  0  0  0  0  0  0  0  # atno 17371 bound_to 10713
  140.2788  134.8333  157.3914 LP  0  0  0  0  0  0  0  0  0  0  0  0  # atno 17394 bound_to 11000
  140.1453  134.4920  155.8001 LP  0  0  0  0  0  0  0  0  0  0  0  0  # atno 17395 bound_to 11000

$$$$
