AV-unprocessed.smi:2534|AV-procd|sdf|9974|dock3
  -GOLD-   2272014 23D 1   1.00000     0.00000
 Structure written by MMmdl.
 40 42  0  0  0  0  0  0  0  0  1 V2000
  152.7380  143.4961  162.2436 C   0  0  0  0  0  0  0  0  0  0  0  0
  152.6766  143.2944  160.7230 C   0  0  2  0  0  0  0  0  0  0  0  0
  151.4818  144.0401  160.1044 C   0  0  0  0  0  0  0  0  0  0  0  0
  151.4235  143.8501  158.5784 C   0  0  0  0  0  0  0  0  0  0  0  0
  151.4041  142.3648  158.1490 C   0  0  1  0  0  0  0  0  0  0  0  0
  150.1821  141.7943  158.5837 O   0  0  0  0  0  0  0  0  0  0  0  0
  151.4580  142.2690  156.6013 C   0  0  0  0  0  0  0  0  0  0  0  0
  151.3817  140.9112  156.0751 N   0  0  0  0  0  0  0  0  0  0  0  0
  152.3515  140.0124  156.3894 N   0  0  0  0  0  0  0  0  0  0  0  0
  152.0137  138.8819  155.7733 C   0  0  0  0  0  0  0  0  0  0  0  0
  150.8138  139.0223  155.0240 C   0  0  0  0  0  0  0  0  0  0  0  0
  150.0133  138.1411  154.1810 C   0  0  0  0  0  0  0  0  0  0  0  0
  148.9417  138.6230  153.6341 N   0  0  0  0  0  0  0  0  0  0  0  0
  148.5533  139.9523  153.8350 N   0  0  0  0  0  0  0  0  0  0  0  0
  147.3200  140.3106  153.1355 C   0  0  0  0  0  0  0  0  0  0  0  0
  149.2377  140.8602  154.5977 C   0  0  0  0  0  0  0  0  0  0  0  0
  148.8974  142.0329  154.7542 O   0  0  0  0  0  0  0  0  0  0  0  0
  150.4588  140.3131  155.2385 C   0  0  0  0  0  0  0  0  0  0  0  0
  152.5605  141.5911  158.8297 C   0  0  0  0  0  0  0  0  0  0  0  0
  152.6144  141.8021  160.3538 C   0  0  0  0  0  0  0  0  0  0  0  0
  151.8497  143.0951  162.7329 H   0  0  0  0  0  0  0  0  0  0  0  0
  152.8085  144.5544  162.4961 H   0  0  0  0  0  0  0  0  0  0  0  0
  153.6080  142.9971  162.6712 H   0  0  0  0  0  0  0  0  0  0  0  0
  153.5918  143.7098  160.2986 H   0  0  0  0  0  0  0  0  0  0  0  0
  150.5525  143.6897  160.5553 H   0  0  0  0  0  0  0  0  0  0  0  0
  151.5498  145.1041  160.3335 H   0  0  0  0  0  0  0  0  0  0  0  0
  150.5523  144.3706  158.1789 H   0  0  0  0  0  0  0  0  0  0  0  0
  152.2930  144.3392  158.1369 H   0  0  0  0  0  0  0  0  0  0  0  0
  150.1995  141.7272  159.5264 H   0  0  0  0  0  0  0  0  0  0  0  0
  150.6594  142.8601  156.1532 H   0  0  0  0  0  0  0  0  0  0  0  0
  152.3857  142.7161  156.2408 H   0  0  0  0  0  0  0  0  0  0  0  0
  152.6444  138.0126  155.8868 H   0  0  0  0  0  0  0  0  0  0  0  0
  150.3138  137.1062  154.0189 H   0  0  0  0  0  0  0  0  0  0  0  0
  147.0047  141.3422  153.2961 H   0  0  0  0  0  0  0  0  0  0  0  0
  146.5034  139.6665  153.4639 H   0  0  0  0  0  0  0  0  0  0  0  0
  147.4458  140.1709  152.0613 H   0  0  0  0  0  0  0  0  0  0  0  0
  152.4809  140.5232  158.6244 H   0  0  0  0  0  0  0  0  0  0  0  0
  153.5093  141.9129  158.3982 H   0  0  0  0  0  0  0  0  0  0  0  0
  153.4829  141.2826  160.7598 H   0  0  0  0  0  0  0  0  0  0  0  0
  151.7408  141.3427  160.8182 H   0  0  0  0  0  0  0  0  0  0  0  0
  1  2  1  0  0  0  0
  1 21  1  0  0  0  0
  1 22  1  0  0  0  0
  1 23  1  0  0  0  0
  2 20  1  0  0  0  0
  2  3  1  0  0  0  0
  2 24  1  0  0  0  0
  3  4  1  0  0  0  0
  3 25  1  0  0  0  0
  3 26  1  0  0  0  0
  4  5  1  0  0  0  0
  4 27  1  0  0  0  0
  4 28  1  0  0  0  0
  5  6  1  0  0  0  0
  5  7  1  0  0  0  0
  5 19  1  0  0  0  0
  6 29  1  0  0  0  0
  7  8  1  0  0  0  0
  7 30  1  0  0  0  0
  7 31  1  0  0  0  0
  8 18  1  0  0  0  0
  8  9  1  0  0  0  0
  9 10  2  0  0  0  0
 10 11  1  0  0  0  0
 10 32  1  0  0  0  0
 11 18  2  0  0  0  0
 11 12  1  0  0  0  0
 12 13  2  0  0  0  0
 12 33  1  0  0  0  0
 13 14  1  0  0  0  0
 14 15  1  0  0  0  0
 14 16  1  0  0  0  0
 15 34  1  0  0  0  0
 15 35  1  0  0  0  0
 15 36  1  0  0  0  0
 16 17  2  0  0  0  0
 16 18  1  0  0  0  0
 19 20  1  0  0  0  0
 19 37  1  0  0  0  0
 19 38  1  0  0  0  0
 20 39  1  0  0  0  0
 20 40  1  0  0  0  0
M  END
> <s_m_source_file>
AV-unprocessed.smi

> <i_m_source_file_index>
2534

> <i_lp_mmshare_version>
43012

> <i_f3d_flags>
0

> <s_epik_input>
W0NIMl0xW0NIMl1bQ0BIXShbQ0gzXSlbQ0gyXVtDSDJdW0NAQF0xKFtPSF0pW0NIMl1uKG5bY0hdMiljKGMyMyljKD1PKW4oW0NIM10pbltjSF0z

> <s_epik_cmdline>
J2VwaWtfcHl0aG9uJywgJy1waCcsICc3LjAnLCAnLXRuJywgJzgnLCAnLW1hJywgJzIwMCcsICctbWV0YWxfYmluZGluZycsICctaW1hZScsICc8aW5maWxlLm1hZT4nLCAnLW9tYWUnLCAnPG91dGZpbGUubWFlPic=

> <r_lp_tautomer_probability>
1

> <r_epik_Ionization_Penalty>
4.4666e-07

> <r_epik_Ionization_Penalty_Charging>
3.10141e-10

> <r_epik_Ionization_Penalty_Neutral>
4.46349e-07

> <r_epik_State_Penalty>
-0

> <r_epik_Charging_Adjusted_Penalty>
3.10141e-10

> <i_epik_Tot_Q>
0

> <i_epik_Tot_abs_Q>
0

> <r_epik_Metal_State_Penalty>
-0

> <b_epik_Metal_Only>
0

> <s_lp_Force_Field>
OPLS_2005

> <r_lp_Energy>
31.1347

> <b_lp_Chiralities_Consistent>
1

> <s_lp_Variant>
AV-unprocessed.smi:2534-1

> <Gold.Version>
5.8.1

> <Gold.Id.Protein>
6NUR|6NUR_protein|mol2

> <Gold.PLP.Fitness>
44.7339

> <Gold.PLP.PLP>
-39.8456

> <Gold.PLP.part.hbond>
-1.2037

> <Gold.PLP.part.metal>
0.0000

> <Gold.PLP.part.buried>
-2.1001

> <Gold.PLP.part.nonpolar>
-38.6712

> <Gold.PLP.part.repulsive>
4.7186

> <Gold.PLP.ligand.clash>
0.0000

> <Gold.PLP.ligand.torsion>
0.0047

> <Gold.PLP.Chemscore.Hbond>
1.0000

> <Gold.PLP.Chemscore.CHOScore>
0.6314

> <Gold.PLP.Chemscore.Metal>
0.0000

> <Gold.Chemscore.Hbonds>
donor molecule, donor type, donor heavy atom, donor atom, acceptor molecule, acceptor atom, score
      P1  H  7997  8008       L1     9  1.00
      L1  C    12    33       P1  7948  0.37
      L1  C    12    33       P1  7949  0.04

> <Gold.PLP.Chemscore.Internal.Correction>
0.0035

> <Gold.Rescore>
     Score         DG    S(hbond)    S(metal)    S(lipo)     H(rot)  DE(clash)    DE(int)     intcor
     13.82     -15.71       0.44        0.00     111.50       1.68       0.64       1.25       ----

> <Gold.Chemscore.Fitness>
13.8168

> <Gold.Chemscore.DG>
-15.7112

> <Gold.Chemscore.ZeroCoef>
-5.4800

> <Gold.Chemscore.Hbond>
0.4419

> <Gold.Chemscore.Metal>
0.0000

> <Gold.Chemscore.Lipo>
111.4970

> <Gold.Chemscore.Internal_Hbond>
0.0000

> <Gold.Chemscore.DEClash>
0.6409

> <Gold.Chemscore.DEInternal>
1.2535

> <Gold.Chemscore.Rot>
1.6758

> <Gold.Chemscore.Internal.Correction>
   9.000000E+99

> <Gold.Chemscore.Hbonds>
donor molecule, donor type, donor heavy atom, donor atom, acceptor molecule, acceptor atom, score
      P1  H  7997  8008       L1     9  0.58

> <Gold.Chemscore.Hbond.Weighted>
-1.4760

> <Gold.Chemscore.Metal.Weighted>
-0.0000

> <Gold.Chemscore.Lipo.Weighted>
-13.0451

> <Gold.Chemscore.Internal_Hbond.Weighted>
0.0000

> <Gold.Chemscore.DEClash.Weighted>
0.6409

> <Gold.Chemscore.DEInternal.Weighted>
1.2535

> <Gold.Chemscore.Rot.Weighted>
4.2899

> <Gold.Chemscore.Internal.Correction.Weighted>
   9.000000E+99

> <Gold.Protein.RotatedTorsions>
[ 6907 6896 6895 6894 ] final -136.86 input  -60.11 | X-H torsion
[ 7974 7965 7964 7962 ] final   16.59 input  175.53 | X-H torsion
[ 8008 7997 7996 7995 ] final  -38.01 input   59.86 | X-H torsion
[ 10167 10162 10161 10158 ] final   45.22 input  -65.29 | X-H torsion
[ 10718 10713 10712 10709 ] final   83.77 input   66.30 | X-H torsion
[ 10763 10752 10751 10750 ] final -155.37 input  -60.55 | X-H torsion
[ 11005 11000 10999 10996 ] final  -82.06 input  -57.11 | X-H torsion

> <Gold.Protein.ActiveResidues>
 VAL166  LYS551  ARG553  GLY616  TRP617  ASP618  TYR619  PRO620  LYS621  CYS622 
 ASP623  PHE694  ASN695  SER759  ASP760  ASP761  ALA762  ILE779  LEU786  VAL792 
 PHE793  MET794  SER795  GLU796  ALA797  LYS798  CYS799  TRP800  GLU811  SER814 

> <Gold.Protein.RotatedAtoms>
  151.0153  133.5927  159.2677 H   0  0  0  0  0  0  0  0  0  0  0  0  # atno 6907 bound_to 6896
  151.3063  135.0781  159.9266 H   0  0  0  0  0  0  0  0  0  0  0  0  # atno 6908 bound_to 6896
  152.5310  133.9826  159.7867 H   0  0  0  0  0  0  0  0  0  0  0  0  # atno 6909 bound_to 6896
  146.2245  139.8726  142.8585 H   0  0  0  0  0  0  0  0  0  0  0  0  # atno 7974 bound_to 7965
  154.4043  140.1589  156.2631 H   0  0  0  0  0  0  0  0  0  0  0  0  # atno 8008 bound_to 7997
  155.9019  140.3432  155.6011 H   0  0  0  0  0  0  0  0  0  0  0  0  # atno 8009 bound_to 7997
  155.7438  140.0796  157.2224 H   0  0  0  0  0  0  0  0  0  0  0  0  # atno 8010 bound_to 7997
  140.3263  144.2643  150.6174 H   0  0  0  0  0  0  0  0  0  0  0  0  # atno 10167 bound_to 10162
  157.6885  131.0105  150.2572 H   0  0  0  0  0  0  0  0  0  0  0  0  # atno 10718 bound_to 10713
  154.7792  135.3169  154.8026 H   0  0  0  0  0  0  0  0  0  0  0  0  # atno 10763 bound_to 10752
  153.8742  135.6841  153.4776 H   0  0  0  0  0  0  0  0  0  0  0  0  # atno 10764 bound_to 10752
  153.1424  135.4733  154.9452 H   0  0  0  0  0  0  0  0  0  0  0  0  # atno 10765 bound_to 10752
  141.1664  133.7226  156.8515 H   0  0  0  0  0  0  0  0  0  0  0  0  # atno 11005 bound_to 11000
  145.2593  141.0071  143.3836 LP  0  0  0  0  0  0  0  0  0  0  0  0  # atno 17320 bound_to 7965
  144.9311  139.4297  143.6494 LP  0  0  0  0  0  0  0  0  0  0  0  0  # atno 17321 bound_to 7965
  140.5438  143.2218  151.8042 LP  0  0  0  0  0  0  0  0  0  0  0  0  # atno 17342 bound_to 10162
  139.4864  144.4566  151.9590 LP  0  0  0  0  0  0  0  0  0  0  0  0  # atno 17343 bound_to 10162
  156.3158  130.3778  149.7620 LP  0  0  0  0  0  0  0  0  0  0  0  0  # atno 17370 bound_to 10713
  156.5206  130.8213  151.3202 LP  0  0  0  0  0  0  0  0  0  0  0  0  # atno 17371 bound_to 10713
  140.1912  134.8964  157.3062 LP  0  0  0  0  0  0  0  0  0  0  0  0  # atno 17394 bound_to 11000
  140.2288  134.3934  155.7531 LP  0  0  0  0  0  0  0  0  0  0  0  0  # atno 17395 bound_to 11000

$$$$
