#       Name:                AV-unprocessed.smi:2180
#       Creating user name   scv26
#       Creation time:       Fri Mar 27 12:05:34 2020


#       File generated by GOLD software.
#

@<TRIPOS>MOLECULE
AV-unprocessed.smi:2180
    44    45     1
SMALL
NO_CHARGES


@<TRIPOS>ATOM
      1 ****        -5.6890   1.1123  -1.7099 C.3            1 S1                 0.0000
      2 ****        -4.3168   0.5078  -1.7651 C.2            1 S1                 0.0000
      3 ****        -3.9502  -0.8600  -1.6277 C.2            1 S1                 0.0000
      4 ****        -2.5898  -0.8607  -1.7570 C.2            1 S1                 0.0000
      5 ****        -1.6237  -1.9991  -1.7004 C.3            1 S1                 0.0000
      6 ****        -2.2052   0.4549  -1.9578 N.pl3          1 S1                 0.0000
      7 ****        -0.8733   1.0090  -2.1488 C.3            1 S1                 0.0000
      8 ****        -0.1338   1.1430  -0.8167 C.2            1 S1                 0.0000
      9 ****        -0.3996   2.0712  -0.0534 O.2            1 S1                 0.0000
     10 ****         0.7868   0.2036  -0.5497 N.am           1 S1                 0.0000
     11 ****         1.5746   0.0992   0.6773 C.3            1 S1                 0.0000
     12 ****         2.7857   1.0660   0.6352 C.3            1 S1                 0.0000
     13 ****         3.9907   0.6818   1.5193 C.3            1 S1                 0.0000
     14 ****         3.6688   0.4230   3.0052 C.3            1 S1                 0.0000
     15 ****         2.5826  -0.6371   3.3079 C.3            1 S1                 0.0000
     16 ****         2.3905  -1.6263   2.2478 N.am           1 S1                 0.0000
     17 ****         1.9076  -1.3658   1.0206 C.2            1 S1                 0.0000
     18 ****         1.7531  -2.2591   0.1884 O.2            1 S1                 0.0000
     19 ****        -3.2685   1.2887  -1.9655 N.2            1 S1                 0.0000
     20 ****        -6.4182   0.3982  -1.3270 H              1 S1                 0.0000
     21 ****        -6.0184   1.4255  -2.7008 H              1 S1                 0.0000
     22 ****        -5.7099   1.9869  -1.0589 H              1 S1                 0.0000
     23 ****        -4.5905  -1.7129  -1.4580 H              1 S1                 0.0000
     24 ****        -2.1443  -2.9533  -1.7827 H              1 S1                 0.0000
     25 ****        -1.0791  -1.9979  -0.7563 H              1 S1                 0.0000
     26 ****        -0.8991  -1.9453  -2.5128 H              1 S1                 0.0000
     27 ****        -0.3178   0.3728  -2.8388 H              1 S1                 0.0000
     28 ****        -0.9509   1.9904  -2.6199 H              1 S1                 0.0000
     29 ****         0.9343  -0.5212  -1.2374 H              1 S1                 0.0000
     30 ****         0.9193   0.4345   1.4824 H              1 S1                 0.0000
     31 ****         3.1472   1.1475  -0.3911 H              1 S1                 0.0000
     32 ****         2.4464   2.0666   0.9059 H              1 S1                 0.0000
     33 ****         4.4822  -0.1969   1.0996 H              1 S1                 0.0000
     34 ****         4.7350   1.4761   1.4570 H              1 S1                 0.0000
     35 ****         4.5944   0.1128   3.4914 H              1 S1                 0.0000
     36 ****         3.3892   1.3610   3.4862 H              1 S1                 0.0000
     37 ****         2.8366  -1.1642   4.2277 H              1 S1                 0.0000
     38 ****         1.6302  -0.1474   3.5138 H              1 S1                 0.0000
     39 ****         2.6239  -2.5839   2.4686 H              1 S1                 0.0000
     40 ****        -1.1002   2.7394  -0.3037 LP             1 S1                 0.0000
     41 ****         0.0850   2.1571   0.8171 LP             1 S1                 0.0000
     42 ****         1.4076  -2.0385  -0.7237 LP             1 S1                 0.0000
     43 ****         1.9731  -3.2057   0.4243 LP             1 S1                 0.0000
     44 ****        -3.2638   2.2803  -2.0946 LP             1 S1                 0.0000
@<TRIPOS>BOND
    1    1    2 1     
    2    1   20 1     
    3    1   21 1     
    4    1   22 1     
    5    2   19 2     
    6    2    3 1     
    7    3    4 2     
    8    3   23 1     
    9    4    5 1     
   10    4    6 1     
   11    5   24 1     
   12    5   25 1     
   13    5   26 1     
   14    6    7 1     
   15    6   19 1     
   16    7    8 1     
   17    7   27 1     
   18    7   28 1     
   19    8    9 2     
   20    8   10 am    
   21   10   11 1     
   22   10   29 1     
   23   11   17 1     
   24   11   12 1     
   25   11   30 1     
   26   12   13 1     
   27   12   31 1     
   28   12   32 1     
   29   13   14 1     
   30   13   33 1     
   31   13   34 1     
   32   14   15 1     
   33   14   35 1     
   34   14   36 1     
   35   15   16 1     
   36   15   37 1     
   37   15   38 1     
   38   16   17 am    
   39   16   39 1     
   40   17   18 2     
   41    9   40 1     
   42    9   41 1     
   43   18   42 1     
   44   18   43 1     
   45   19   44 1     
@<TRIPOS>SUBSTRUCTURE
      1 S1             1
@<TRIPOS>SET
LONE_PAIRS      STATIC     ATOMS    <user>   **** ""
5 40 41 42 43 44
DONOR_HYDROGENS      STATIC     ATOMS    <user>   **** ""
2 29 39
ATOM$BLUE        STATIC     ATOMS    COLORGROUP SYSTEM
5 40 41 42 43 44
ATOM$RED        STATIC     ATOMS    COLORGROUP SYSTEM
2 29 39
