AV-unprocessed.smi:3246|AV-procd|sdf|12411|dock7
  -GOLD-   2272018293D 1   1.00000     0.00000
 Structure written by MMmdl.
 36 37  0  0  0  0  0  0  0  0  2 V2000
  150.2244  136.5928  158.8005 O   0  0  0  0  0  0  0  0  0  0  0  0
  149.2332  137.2618  158.5096 C   0  0  0  0  0  0  0  0  0  0  0  0
  147.8365  136.6632  158.7457 C   0  0  0  0  0  0  0  0  0  0  0  0
  147.7461  135.7197  159.8631 N   0  0  0  0  0  0  0  0  0  0  0  0
  147.5933  134.2949  159.6180 C   0  0  0  0  0  0  0  0  0  0  0  0
  147.7601  133.6337  160.9936 C   0  0  0  0  0  0  0  0  0  0  0  0
  147.6511  134.7686  162.0178 C   0  0  0  0  0  0  0  0  0  0  0  0
  147.7689  136.0217  161.1674 C   0  0  0  0  0  0  0  0  0  0  0  0
  147.8786  137.1482  161.6487 O   0  0  0  0  0  0  0  0  0  0  0  0
  149.3222  138.5015  157.9975 N   0  0  0  0  0  0  0  0  0  0  0  0
  150.5671  139.2046  157.7149 C   0  0  0  0  0  0  0  0  0  0  0  0
  151.0232  140.0473  158.9170 C   0  0  0  0  0  0  0  0  0  0  0  0
  151.3579  141.4717  158.5210 C   0  0  0  0  0  0  0  0  0  0  0  0
  152.4763  142.1311  159.0774 C   0  0  0  0  0  0  0  0  0  0  0  0
  152.7593  143.4579  158.6908 C   0  0  0  0  0  0  0  0  0  0  0  0
  151.9171  144.0953  157.7565 C   0  0  0  0  0  0  0  0  0  0  0  0
  150.8551  143.4330  157.2468 N   0  3  0  0  0  0  0  0  0  0  0  0
  150.5504  142.1624  157.5914 C   0  0  0  0  0  0  0  0  0  0  0  0
  147.1300  137.4801  158.9019 H   0  0  0  0  0  0  0  0  0  0  0  0
  147.5203  136.1615  157.8302 H   0  0  0  0  0  0  0  0  0  0  0  0
  146.5997  134.1040  159.2102 H   0  0  0  0  0  0  0  0  0  0  0  0
  148.3328  133.9326  158.9026 H   0  0  0  0  0  0  0  0  0  0  0  0
  147.0114  132.8588  161.1616 H   0  0  0  0  0  0  0  0  0  0  0  0
  148.7414  133.1628  161.0664 H   0  0  0  0  0  0  0  0  0  0  0  0
  146.6833  134.7605  162.5201 H   0  0  0  0  0  0  0  0  0  0  0  0
  148.4383  134.7217  162.7709 H   0  0  0  0  0  0  0  0  0  0  0  0
  148.4631  138.9864  157.7810 H   0  0  0  0  0  0  0  0  0  0  0  0
  151.3417  138.4900  157.4305 H   0  0  0  0  0  0  0  0  0  0  0  0
  150.4048  139.8468  156.8489 H   0  0  0  0  0  0  0  0  0  0  0  0
  150.2447  140.0609  159.6810 H   0  0  0  0  0  0  0  0  0  0  0  0
  151.9020  139.5990  159.3829 H   0  0  0  0  0  0  0  0  0  0  0  0
  153.1106  141.6281  159.7930 H   0  0  0  0  0  0  0  0  0  0  0  0
  153.6103  143.9786  159.1049 H   0  0  0  0  0  0  0  0  0  0  0  0
  152.0590  145.1070  157.4050 H   0  0  0  0  0  0  0  0  0  0  0  0
  149.6756  141.7407  157.1173 H   0  0  0  0  0  0  0  0  0  0  0  0
  150.2577  143.9128  156.5725 H   0  0  0  0  0  0  0  0  0  0  0  0
  1  2  2  0  0  0  0
  2  3  1  0  0  0  0
  2 10  1  0  0  0  0
  3  4  1  0  0  0  0
  3 19  1  0  0  0  0
  3 20  1  0  0  0  0
  4  8  1  0  0  0  0
  4  5  1  0  0  0  0
  5  6  1  0  0  0  0
  5 21  1  0  0  0  0
  5 22  1  0  0  0  0
  6  7  1  0  0  0  0
  6 23  1  0  0  0  0
  6 24  1  0  0  0  0
  7  8  1  0  0  0  0
  7 25  1  0  0  0  0
  7 26  1  0  0  0  0
  8  9  2  0  0  0  0
 10 11  1  0  0  0  0
 10 27  1  0  0  0  0
 11 12  1  0  0  0  0
 11 28  1  0  0  0  0
 11 29  1  0  0  0  0
 12 13  1  0  0  0  0
 12 30  1  0  0  0  0
 12 31  1  0  0  0  0
 13 18  1  0  0  0  0
 13 14  2  0  0  0  0
 14 15  1  0  0  0  0
 14 32  1  0  0  0  0
 15 16  2  0  0  0  0
 15 33  1  0  0  0  0
 16 17  1  0  0  0  0
 16 34  1  0  0  0  0
 17 18  2  0  0  0  0
 17 36  1  0  0  0  0
 18 35  1  0  0  0  0
M  CHG  1  17   1
M  END
> <s_m_source_file>
AV-unprocessed.smi

> <i_m_source_file_index>
3246

> <i_lp_mmshare_version>
43012

> <i_f3d_flags>
0

> <s_epik_input>
Tz1DMVtDSDJdW0NIMl1bQ0gyXU4xW0NIMl1DKD1PKVtOSF1bQ0gyXVtDSDJdYzJbY0hdW2NIXVtjSF1uW2NIXTI=

> <s_epik_cmdline>
J2VwaWtfcHl0aG9uJywgJy1waCcsICc3LjAnLCAnLXRuJywgJzgnLCAnLW1hJywgJzIwMCcsICctbWV0YWxfYmluZGluZycsICctaW1hZScsICc8aW5maWxlLm1hZT4nLCAnLW9tYWUnLCAnPG91dGZpbGUubWFlPic=

> <r_epik_Ionization_Penalty>
2.27275

> <r_epik_Ionization_Penalty_Charging>
2.27275

> <r_epik_Ionization_Penalty_Neutral>
5.87859e-08

> <r_epik_State_Penalty>
2.42145

> <r_epik_Charging_Adjusted_Penalty>
4.69419

> <i_epik_Tot_Q>
1

> <i_epik_Tot_abs_Q>
1

> <r_epik_Metal_State_Penalty>
2.43419

> <b_epik_Metal_Only>
0

> <s_lp_Force_Field>
OPLS_2005

> <r_lp_Energy>
18.8936

> <b_lp_Chiralities_Consistent>
1

> <s_lp_Variant>
AV-unprocessed.smi:3246-2

> <Gold.Version>
5.8.1

> <Gold.Id.Protein>
6NUR|6NUR_protein|mol2

> <Gold.PLP.Fitness>
46.8221

> <Gold.PLP.PLP>
-35.2102

> <Gold.PLP.part.hbond>
-4.0000

> <Gold.PLP.part.metal>
0.0000

> <Gold.PLP.part.buried>
-4.7516

> <Gold.PLP.part.nonpolar>
-26.3151

> <Gold.PLP.part.repulsive>
0.1163

> <Gold.PLP.ligand.clash>
0.0000

> <Gold.PLP.ligand.torsion>
1.3300

> <Gold.PLP.Chemscore.Hbond>
4.7520

> <Gold.PLP.Chemscore.CHOScore>
0.0000

> <Gold.PLP.Chemscore.Metal>
0.0000

> <Gold.Chemscore.Hbonds>
donor molecule, donor type, donor heavy atom, donor atom, acceptor molecule, acceptor atom, score
      L1  H    17    36       P1  8028  2.00
      P1  H  6896  6908       L1     1  0.94
      P1  H  6931  6943       L1     9  1.00
      P1  H  6934  6947       L1     9  0.52

> <Gold.PLP.Chemscore.Internal.Correction>
0.0158

> <Gold.Rescore>
     Score         DG    S(hbond)    S(metal)    S(lipo)     H(rot)  DE(clash)    DE(int)     intcor
     21.04     -21.98       3.71        0.00      77.92       1.96       0.00       0.94       ----

> <Gold.Chemscore.Fitness>
21.0423

> <Gold.Chemscore.DG>
-21.9849

> <Gold.Chemscore.ZeroCoef>
-5.4800

> <Gold.Chemscore.Hbond>
3.7128

> <Gold.Chemscore.Metal>
0.0000

> <Gold.Chemscore.Lipo>
77.9164

> <Gold.Chemscore.Internal_Hbond>
0.0000

> <Gold.Chemscore.DEClash>
0.0009

> <Gold.Chemscore.DEInternal>
0.9417

> <Gold.Chemscore.Rot>
1.9579

> <Gold.Chemscore.Internal.Correction>
   9.000000E+99

> <Gold.Chemscore.Hbonds>
donor molecule, donor type, donor heavy atom, donor atom, acceptor molecule, acceptor atom, score
      L1  H    17    36       P1  8028  1.00
      P1  H  6896  6908       L1     1  0.87
      P1  H  6931  6943       L1     9  0.97
      P1  H  6934  6947       L1     9  0.52

> <Gold.Chemscore.Hbond.Weighted>
-12.4008

> <Gold.Chemscore.Metal.Weighted>
-0.0000

> <Gold.Chemscore.Lipo.Weighted>
-9.1162

> <Gold.Chemscore.Internal_Hbond.Weighted>
0.0000

> <Gold.Chemscore.DEClash.Weighted>
0.0009

> <Gold.Chemscore.DEInternal.Weighted>
0.9417

> <Gold.Chemscore.Rot.Weighted>
5.0121

> <Gold.Chemscore.Internal.Correction.Weighted>
   9.000000E+99

> <Gold.Protein.RotatedTorsions>
[ 6907 6896 6895 6894 ] final -173.59 input  -60.11 | X-H torsion
[ 7974 7965 7964 7962 ] final  120.41 input  175.53 | X-H torsion
[ 8008 7997 7996 7995 ] final  102.98 input   59.86 | X-H torsion
[ 10167 10162 10161 10158 ] final  -36.65 input  -65.29 | X-H torsion
[ 10718 10713 10712 10709 ] final  142.90 input   66.30 | X-H torsion
[ 10763 10752 10751 10750 ] final  161.68 input  -60.55 | X-H torsion
[ 11005 11000 10999 10996 ] final  -19.46 input  -57.11 | X-H torsion

> <Gold.Protein.ActiveResidues>
 VAL166  LYS551  ARG553  GLY616  TRP617  ASP618  TYR619  PRO620  LYS621  CYS622 
 ASP623  PHE694  ASN695  SER759  ASP760  ASP761  ALA762  ILE779  LEU786  VAL792 
 PHE793  MET794  SER795  GLU796  ALA797  LYS798  CYS799  TRP800  GLU811  SER814 

> <Gold.Protein.RotatedAtoms>
  151.5586  133.3406  159.2966 H   0  0  0  0  0  0  0  0  0  0  0  0  # atno 6907 bound_to 6896
  150.8436  134.7740  159.6963 H   0  0  0  0  0  0  0  0  0  0  0  0  # atno 6908 bound_to 6896
  152.4498  134.5424  159.9894 H   0  0  0  0  0  0  0  0  0  0  0  0  # atno 6909 bound_to 6896
  145.1315  139.3324  143.4663 H   0  0  0  0  0  0  0  0  0  0  0  0  # atno 7974 bound_to 7965
  156.1443  140.3172  155.8545 H   0  0  0  0  0  0  0  0  0  0  0  0  # atno 8008 bound_to 7997
  155.4095  140.0505  157.3049 H   0  0  0  0  0  0  0  0  0  0  0  0  # atno 8009 bound_to 7997
  154.5002  140.2126  155.9374 H   0  0  0  0  0  0  0  0  0  0  0  0  # atno 8010 bound_to 7997
  140.7137  143.3394  151.2390 H   0  0  0  0  0  0  0  0  0  0  0  0  # atno 10167 bound_to 10162
  157.3752  131.0984  151.0790 H   0  0  0  0  0  0  0  0  0  0  0  0  # atno 10718 bound_to 10713
  154.2667  135.2767  155.2755 H   0  0  0  0  0  0  0  0  0  0  0  0  # atno 10763 bound_to 10752
  154.5337  135.5722  153.6784 H   0  0  0  0  0  0  0  0  0  0  0  0  # atno 10764 bound_to 10752
  152.9952  135.6234  154.2820 H   0  0  0  0  0  0  0  0  0  0  0  0  # atno 10765 bound_to 10752
  140.8369  133.7955  155.9818 H   0  0  0  0  0  0  0  0  0  0  0  0  # atno 11005 bound_to 11000
  146.3513  140.1315  142.8597 LP  0  0  0  0  0  0  0  0  0  0  0  0  # atno 17320 bound_to 7965
  145.0630  140.9101  143.4927 LP  0  0  0  0  0  0  0  0  0  0  0  0  # atno 17321 bound_to 7965
  139.6898  143.9712  152.2853 LP  0  0  0  0  0  0  0  0  0  0  0  0  # atno 17342 bound_to 10162
  139.9369  144.6706  150.8305 LP  0  0  0  0  0  0  0  0  0  0  0  0  # atno 17343 bound_to 10162
  157.1879  130.6339  149.5694 LP  0  0  0  0  0  0  0  0  0  0  0  0  # atno 17370 bound_to 10713
  155.9764  130.4732  150.6524 LP  0  0  0  0  0  0  0  0  0  0  0  0  # atno 17371 bound_to 10713
  140.8937  134.2463  157.5080 LP  0  0  0  0  0  0  0  0  0  0  0  0  # atno 17394 bound_to 11000
  139.8704  134.9674  156.4595 LP  0  0  0  0  0  0  0  0  0  0  0  0  # atno 17395 bound_to 11000

$$$$
