AV-unprocessed.smi:1812|AV-procd|sdf|7338|dock2
  -GOLD-   22720 8593D 1   1.00000     0.00000
 Structure written by MMmdl.
 33 35  0  0  0  0  0  0  0  0  2 V2000
  152.6800  138.3483  159.4141 O   0  0  0  0  0  0  0  0  0  0  0  0
  153.1396  139.1907  158.6396 C   0  0  0  0  0  0  0  0  0  0  0  0
  153.6566  140.3281  159.1215 N   0  0  0  0  0  0  0  0  0  0  0  0
  153.7347  140.6851  160.5322 C   0  0  0  0  0  0  0  0  0  0  0  0
  153.6200  142.2046  160.7203 C   0  0  2  0  0  0  0  0  0  0  0  0
  153.1777  142.6433  162.1168 C   0  0  0  0  0  0  0  0  0  0  0  0
  152.5905  144.0064  161.8321 C   0  0  0  0  0  0  0  0  0  0  0  0
  151.9017  143.7755  160.4899 C   0  0  0  0  0  0  0  0  0  0  0  0
  152.6396  142.7445  159.8379 O   0  0  0  0  0  0  0  0  0  0  0  0
  153.1850  139.1014  157.2907 N   0  5  0  0  0  0  0  0  0  0  0  0
  152.1243  139.4747  156.5560 C   0  0  0  0  0  0  0  0  0  0  0  0
  152.0986  139.3624  155.2202 N   0  0  0  0  0  0  0  0  0  0  0  0
  150.9138  139.8157  154.6586 N   0  0  0  0  0  0  0  0  0  0  0  0
  150.0621  140.2731  155.5796 C   0  0  0  0  0  0  0  0  0  0  0  0
  148.7203  140.8215  155.2248 C   0  0  0  0  0  0  0  0  0  0  0  0
  148.0313  140.4061  153.9452 C   0  0  0  0  0  0  0  0  0  0  0  0
  148.5409  141.8166  154.0990 C   0  0  0  0  0  0  0  0  0  0  0  0
  150.6555  140.1794  157.2303 S   0  0  0  0  0  0  0  0  0  0  0  0
  154.0231  140.9935  158.4568 H   0  0  0  0  0  0  0  0  0  0  0  0
  152.9322  140.1851  161.0763 H   0  0  0  0  0  0  0  0  0  0  0  0
  154.6773  140.3244  160.9467 H   0  0  0  0  0  0  0  0  0  0  0  0
  154.5720  142.6815  160.4807 H   0  0  0  0  0  0  0  0  0  0  0  0
  152.4052  141.9771  162.5040 H   0  0  0  0  0  0  0  0  0  0  0  0
  153.9975  142.6720  162.8352 H   0  0  0  0  0  0  0  0  0  0  0  0
  151.9080  144.3523  162.6088 H   0  0  0  0  0  0  0  0  0  0  0  0
  153.3890  144.7418  161.7241 H   0  0  0  0  0  0  0  0  0  0  0  0
  150.8802  143.4245  160.6414 H   0  0  0  0  0  0  0  0  0  0  0  0
  151.8619  144.6809  159.8839 H   0  0  0  0  0  0  0  0  0  0  0  0
  148.1088  140.9472  156.1161 H   0  0  0  0  0  0  0  0  0  0  0  0
  148.5745  139.7480  153.2696 H   0  0  0  0  0  0  0  0  0  0  0  0
  146.9549  140.2522  153.9821 H   0  0  0  0  0  0  0  0  0  0  0  0
  147.8046  142.6049  154.2407 H   0  0  0  0  0  0  0  0  0  0  0  0
  149.4146  142.0961  153.5134 H   0  0  0  0  0  0  0  0  0  0  0  0
  1  2  2  0  0  0  0
  2  3  1  0  0  0  0
  2 10  1  0  0  0  0
  3  4  1  0  0  0  0
  3 19  1  0  0  0  0
  4  5  1  0  0  0  0
  4 20  1  0  0  0  0
  4 21  1  0  0  0  0
  5  9  1  0  0  0  0
  5  6  1  0  0  0  0
  5 22  1  0  0  0  0
  6  7  1  0  0  0  0
  6 23  1  0  0  0  0
  6 24  1  0  0  0  0
  7  8  1  0  0  0  0
  7 25  1  0  0  0  0
  7 26  1  0  0  0  0
  8  9  1  0  0  0  0
  8 27  1  0  0  0  0
  8 28  1  0  0  0  0
 10 11  1  0  0  0  0
 11 18  1  0  0  0  0
 11 12  2  0  0  0  0
 12 13  1  0  0  0  0
 13 14  2  0  0  0  0
 14 15  1  0  0  0  0
 14 18  1  0  0  0  0
 15 17  1  0  0  0  0
 15 16  1  0  0  0  0
 15 29  1  0  0  0  0
 16 17  1  0  0  0  0
 16 30  1  0  0  0  0
 16 31  1  0  0  0  0
 17 32  1  0  0  0  0
 17 33  1  0  0  0  0
M  CHG  1  10  -1
M  END
> <s_m_source_file>
AV-unprocessed.smi

> <i_m_source_file_index>
1812

> <i_lp_mmshare_version>
43012

> <i_f3d_flags>
0

> <s_epik_input>
TzFbQ0gyXVtDSDJdW0NIMl1bQ0BIXTFbQ0gyXVtOSF1DKD1PKVtOSF1jMm5uYyhzMilbQ0hdM1tDSDJdW0NIMl0z

> <s_epik_cmdline>
J2VwaWtfcHl0aG9uJywgJy1waCcsICc3LjAnLCAnLXRuJywgJzgnLCAnLW1hJywgJzIwMCcsICctbWV0YWxfYmluZGluZycsICctaW1hZScsICc8aW5maWxlLm1hZT4nLCAnLW9tYWUnLCAnPG91dGZpbGUubWFlPic=

> <r_lp_tautomer_probability>
1

> <r_epik_Ionization_Penalty>
4.72991

> <r_epik_Ionization_Penalty_Charging>
4.58249

> <r_epik_Ionization_Penalty_Neutral>
0.147417

> <r_epik_State_Penalty>
4.58223

> <r_epik_Charging_Adjusted_Penalty>
9.16473

> <i_epik_Tot_Q>
-1

> <i_epik_Tot_abs_Q>
1

> <r_epik_Metal_State_Penalty>
0.861876

> <b_epik_Metal_Only>
1

> <s_lp_Force_Field>
OPLS_2005

> <r_lp_Energy>
13.803

> <b_lp_Chiralities_Consistent>
1

> <s_lp_Variant>
AV-unprocessed.smi:1812-3

> <Gold.Version>
5.8.1

> <Gold.Id.Protein>
6NUR|6NUR_protein|mol2

> <Gold.PLP.Fitness>
40.9467

> <Gold.PLP.PLP>
-35.5940

> <Gold.PLP.part.hbond>
-2.6780

> <Gold.PLP.part.metal>
0.0000

> <Gold.PLP.part.buried>
-3.4867

> <Gold.PLP.part.nonpolar>
-28.4010

> <Gold.PLP.part.repulsive>
0.3188

> <Gold.PLP.ligand.clash>
0.0000

> <Gold.PLP.ligand.torsion>
1.6280

> <Gold.PLP.Chemscore.Hbond>
2.8000

> <Gold.PLP.Chemscore.CHOScore>
0.0000

> <Gold.PLP.Chemscore.Metal>
0.0000

> <Gold.Chemscore.Hbonds>
donor molecule, donor type, donor heavy atom, donor atom, acceptor molecule, acceptor atom, score
      P1  H  7989  7998       L1    13  0.85
      P1  H  7997  8008       L1    10  2.00

> <Gold.PLP.Chemscore.Internal.Correction>
0.2086

> <Gold.Rescore>
     Score         DG    S(hbond)    S(metal)    S(lipo)     H(rot)  DE(clash)    DE(int)     intcor
     12.67     -13.79       0.62        0.00      84.83       1.45       0.03       1.08       ----

> <Gold.Chemscore.Fitness>
12.6675

> <Gold.Chemscore.DG>
-13.7854

> <Gold.Chemscore.ZeroCoef>
-5.4800

> <Gold.Chemscore.Hbond>
0.6227

> <Gold.Chemscore.Metal>
0.0000

> <Gold.Chemscore.Lipo>
84.8307

> <Gold.Chemscore.Internal_Hbond>
0.0000

> <Gold.Chemscore.DEClash>
0.0347

> <Gold.Chemscore.DEInternal>
1.0832

> <Gold.Chemscore.Rot>
1.4451

> <Gold.Chemscore.Internal.Correction>
   9.000000E+99

> <Gold.Chemscore.Hbonds>
donor molecule, donor type, donor heavy atom, donor atom, acceptor molecule, acceptor atom, score
      P1  H  7989  7998       L1    13  0.14
      P1  H  7997  8008       L1    10  0.29

> <Gold.Chemscore.Hbond.Weighted>
-2.0797

> <Gold.Chemscore.Metal.Weighted>
-0.0000

> <Gold.Chemscore.Lipo.Weighted>
-9.9252

> <Gold.Chemscore.Internal_Hbond.Weighted>
0.0000

> <Gold.Chemscore.DEClash.Weighted>
0.0347

> <Gold.Chemscore.DEInternal.Weighted>
1.0832

> <Gold.Chemscore.Rot.Weighted>
3.6995

> <Gold.Chemscore.Internal.Correction.Weighted>
   9.000000E+99

> <Gold.Protein.RotatedTorsions>
[ 6907 6896 6895 6894 ] final  -96.44 input  -60.11 | X-H torsion
[ 7974 7965 7964 7962 ] final -129.43 input  175.53 | X-H torsion
[ 8008 7997 7996 7995 ] final  -63.28 input   59.86 | X-H torsion
[ 10167 10162 10161 10158 ] final  -14.93 input  -65.29 | X-H torsion
[ 10718 10713 10712 10709 ] final -133.60 input   66.30 | X-H torsion
[ 10763 10752 10751 10750 ] final  -66.83 input  -60.55 | X-H torsion
[ 11005 11000 10999 10996 ] final  -88.19 input  -57.11 | X-H torsion

> <Gold.Protein.ActiveResidues>
 VAL166  LYS551  ARG553  GLY616  TRP617  ASP618  TYR619  PRO620  LYS621  CYS622 
 ASP623  PHE694  ASN695  SER759  ASP760  ASP761  ALA762  ILE779  LEU786  VAL792 
 PHE793  MET794  SER795  GLU796  ALA797  LYS798  CYS799  TRP800  GLU811  SER814 

> <Gold.Protein.RotatedAtoms>
  150.6989  134.1502  159.4137 H   0  0  0  0  0  0  0  0  0  0  0  0  # atno 6907 bound_to 6896
  151.9485  135.0178  160.0550 H   0  0  0  0  0  0  0  0  0  0  0  0  # atno 6908 bound_to 6896
  152.2031  133.4821  159.5106 H   0  0  0  0  0  0  0  0  0  0  0  0  # atno 6909 bound_to 6896
  144.9573  140.7409  143.4751 H   0  0  0  0  0  0  0  0  0  0  0  0  # atno 7974 bound_to 7965
  154.4546  140.0978  156.6718 H   0  0  0  0  0  0  0  0  0  0  0  0  # atno 8008 bound_to 7997
  155.5179  140.3478  155.4382 H   0  0  0  0  0  0  0  0  0  0  0  0  # atno 8009 bound_to 7997
  156.0751  140.1359  156.9770 H   0  0  0  0  0  0  0  0  0  0  0  0  # atno 8010 bound_to 7997
  140.7210  143.5270  150.9565 H   0  0  0  0  0  0  0  0  0  0  0  0  # atno 10167 bound_to 10162
  156.2466  130.7128  151.1010 H   0  0  0  0  0  0  0  0  0  0  0  0  # atno 10718 bound_to 10713
  154.3655  135.6106  153.5713 H   0  0  0  0  0  0  0  0  0  0  0  0  # atno 10763 bound_to 10752
  152.9792  135.5825  154.4583 H   0  0  0  0  0  0  0  0  0  0  0  0  # atno 10764 bound_to 10752
  154.4328  135.2848  155.1878 H   0  0  0  0  0  0  0  0  0  0  0  0  # atno 10765 bound_to 10752
  141.1605  133.7555  156.9415 H   0  0  0  0  0  0  0  0  0  0  0  0  # atno 11005 bound_to 11000
  145.2753  139.1939  143.4820 LP  0  0  0  0  0  0  0  0  0  0  0  0  # atno 17320 bound_to 7965
  146.3341  140.2706  142.8605 LP  0  0  0  0  0  0  0  0  0  0  0  0  # atno 17321 bound_to 7965
  139.8989  143.6860  152.3134 LP  0  0  0  0  0  0  0  0  0  0  0  0  # atno 17342 bound_to 10162
  139.7202  144.7604  151.0967 LP  0  0  0  0  0  0  0  0  0  0  0  0  # atno 17343 bound_to 10162
  157.7197  131.0689  150.6185 LP  0  0  0  0  0  0  0  0  0  0  0  0  # atno 17370 bound_to 10713
  156.6261  130.4419  149.5804 LP  0  0  0  0  0  0  0  0  0  0  0  0  # atno 17371 bound_to 10713
  140.1318  134.9350  157.2348 LP  0  0  0  0  0  0  0  0  0  0  0  0  # atno 17394 bound_to 11000
  140.2943  134.3204  155.7306 LP  0  0  0  0  0  0  0  0  0  0  0  0  # atno 17395 bound_to 11000

$$$$
