AV-unprocessed.smi:2902|AV-procd|sdf|11152|dock6
  -GOLD-   2272016 33D 1   1.00000     0.00000
 Structure written by MMmdl.
 47 48  0  0  0  0  0  0  0  0  1 V2000
  149.2376  135.3811  156.2454 C   0  0  0  0  0  0  0  0  0  0  0  0
  149.0020  136.5840  155.3230 C   0  0  0  0  0  0  0  0  0  0  0  0
  147.5073  136.8577  155.0723 C   0  0  1  0  0  0  0  0  0  0  0  0
  147.4100  137.9519  154.1608 O   0  0  0  0  0  0  0  0  0  0  0  0
  147.5671  139.2575  154.7113 C   0  0  0  0  0  0  0  0  0  0  0  0
  146.9131  140.2950  153.8019 C   0  0  0  0  0  0  0  0  0  0  0  0
  147.5863  141.6178  154.1799 C   0  0  0  0  0  0  0  0  0  0  0  0
  148.9655  141.2476  154.7482 C   0  0  0  0  0  0  0  0  0  0  0  0
  149.0272  139.7155  154.7678 C   0  0  0  0  0  0  0  0  0  0  0  0
  146.7999  135.6244  154.4889 C   0  0  0  0  0  0  0  0  0  0  0  0
  145.9010  135.0681  155.1202 O   0  0  0  0  0  0  0  0  0  0  0  0
  147.2350  135.2055  153.2898 N   0  0  0  0  0  0  0  0  0  0  0  0
  146.7515  134.0366  152.5570 C   0  0  2  0  0  0  0  0  0  0  0  0
  147.9099  133.0325  152.4181 C   0  0  0  0  0  0  0  0  0  0  0  0
  146.1412  134.4705  151.1985 C   0  0  2  0  0  0  0  0  0  0  0  0
  145.2090  135.6918  151.3220 C   0  0  0  0  0  0  0  0  0  0  0  0
  145.4513  133.3719  150.5357 N   0  0  0  0  0  0  0  0  0  0  0  0
  145.9238  132.2184  150.0588 C   0  0  0  0  0  0  0  0  0  0  0  0
  144.9965  131.4409  149.5173 N   0  0  0  0  0  0  0  0  0  0  0  0
  143.8980  132.2311  149.7053 C   0  0  0  0  0  0  0  0  0  0  0  0
  144.1148  133.3987  150.3103 N   0  0  0  0  0  0  0  0  0  0  0  0
  150.3036  135.2097  156.3947 H   0  0  0  0  0  0  0  0  0  0  0  0
  148.8102  134.4712  155.8233 H   0  0  0  0  0  0  0  0  0  0  0  0
  148.7868  135.5400  157.2254 H   0  0  0  0  0  0  0  0  0  0  0  0
  149.4768  137.4662  155.7548 H   0  0  0  0  0  0  0  0  0  0  0  0
  149.5066  136.3977  154.3737 H   0  0  0  0  0  0  0  0  0  0  0  0
  147.0448  137.1203  156.0251 H   0  0  0  0  0  0  0  0  0  0  0  0
  147.1143  139.3380  155.7004 H   0  0  0  0  0  0  0  0  0  0  0  0
  147.1327  140.0618  152.7590 H   0  0  0  0  0  0  0  0  0  0  0  0
  145.8290  140.3266  153.9132 H   0  0  0  0  0  0  0  0  0  0  0  0
  147.6603  142.2897  153.3245 H   0  0  0  0  0  0  0  0  0  0  0  0
  146.9997  142.1268  154.9455 H   0  0  0  0  0  0  0  0  0  0  0  0
  149.7752  141.6653  154.1489 H   0  0  0  0  0  0  0  0  0  0  0  0
  149.0692  141.6454  155.7583 H   0  0  0  0  0  0  0  0  0  0  0  0
  149.5558  139.3320  155.6408 H   0  0  0  0  0  0  0  0  0  0  0  0
  149.5550  139.3633  153.8802 H   0  0  0  0  0  0  0  0  0  0  0  0
  147.9804  135.7306  152.8563 H   0  0  0  0  0  0  0  0  0  0  0  0
  145.9672  133.5404  153.1314 H   0  0  0  0  0  0  0  0  0  0  0  0
  147.5825  132.0977  151.9629 H   0  0  0  0  0  0  0  0  0  0  0  0
  148.3291  132.7836  153.3938 H   0  0  0  0  0  0  0  0  0  0  0  0
  148.7148  133.4387  151.8047 H   0  0  0  0  0  0  0  0  0  0  0  0
  146.9643  134.7584  150.5421 H   0  0  0  0  0  0  0  0  0  0  0  0
  145.7443  136.5709  151.6807 H   0  0  0  0  0  0  0  0  0  0  0  0
  144.3894  135.4990  152.0150 H   0  0  0  0  0  0  0  0  0  0  0  0
  144.7739  135.9511  150.3564 H   0  0  0  0  0  0  0  0  0  0  0  0
  146.9660  131.9400  150.1111 H   0  0  0  0  0  0  0  0  0  0  0  0
  142.9086  131.9368  149.3870 H   0  0  0  0  0  0  0  0  0  0  0  0
  1  2  1  0  0  0  0
  1 22  1  0  0  0  0
  1 23  1  0  0  0  0
  1 24  1  0  0  0  0
  2  3  1  0  0  0  0
  2 25  1  0  0  0  0
  2 26  1  0  0  0  0
  3  4  1  0  0  0  0
  3 10  1  0  0  0  0
  3 27  1  0  0  0  0
  4  5  1  0  0  0  0
  5  9  1  0  0  0  0
  5  6  1  0  0  0  0
  5 28  1  0  0  0  0
  6  7  1  0  0  0  0
  6 29  1  0  0  0  0
  6 30  1  0  0  0  0
  7  8  1  0  0  0  0
  7 31  1  0  0  0  0
  7 32  1  0  0  0  0
  8  9  1  0  0  0  0
  8 33  1  0  0  0  0
  8 34  1  0  0  0  0
  9 35  1  0  0  0  0
  9 36  1  0  0  0  0
 10 11  2  0  0  0  0
 10 12  1  0  0  0  0
 12 13  1  0  0  0  0
 12 37  1  0  0  0  0
 13 14  1  0  0  0  0
 13 15  1  0  0  0  0
 13 38  1  0  0  0  0
 14 39  1  0  0  0  0
 14 40  1  0  0  0  0
 14 41  1  0  0  0  0
 15 16  1  0  0  0  0
 15 17  1  0  0  0  0
 15 42  1  0  0  0  0
 16 43  1  0  0  0  0
 16 44  1  0  0  0  0
 16 45  1  0  0  0  0
 17 21  1  0  0  0  0
 17 18  1  0  0  0  0
 18 19  2  0  0  0  0
 18 46  1  0  0  0  0
 19 20  1  0  0  0  0
 20 21  2  0  0  0  0
 20 47  1  0  0  0  0
M  END
> <s_m_source_file>
AV-unprocessed.smi

> <i_m_source_file_index>
2902

> <i_lp_mmshare_version>
43012

> <i_f3d_flags>
0

> <s_epik_input>
W0NIMl0xW0NIMl1bQ0gyXVtDSDJdW0NIXTFPW0NAQEhdKFtDSDJdW0NIM10pQyg9TylbTkhdW0NASF0oW0NIM10pW0NASF0oW0NIM10pbjJbY0hdbltjSF1uMg==

> <s_epik_cmdline>
J2VwaWtfcHl0aG9uJywgJy1waCcsICc3LjAnLCAnLXRuJywgJzgnLCAnLW1hJywgJzIwMCcsICctbWV0YWxfYmluZGluZycsICctaW1hZScsICc8aW5maWxlLm1hZT4nLCAnLW9tYWUnLCAnPG91dGZpbGUubWFlPic=

> <r_lp_tautomer_probability>
1

> <r_epik_Ionization_Penalty>
6.95617e-05

> <r_epik_Ionization_Penalty_Charging>
0

> <r_epik_Ionization_Penalty_Neutral>
6.95617e-05

> <r_epik_State_Penalty>
-0

> <r_epik_Charging_Adjusted_Penalty>
0

> <i_epik_Tot_Q>
0

> <i_epik_Tot_abs_Q>
0

> <r_epik_Metal_State_Penalty>
-0

> <b_epik_Metal_Only>
0

> <s_lp_Force_Field>
OPLS_2005

> <r_lp_Energy>
28.6706

> <b_lp_Chiralities_Consistent>
1

> <s_lp_Variant>
AV-unprocessed.smi:2902-2

> <Gold.Version>
5.8.1

> <Gold.Id.Protein>
6NUR|6NUR_protein|mol2

> <Gold.PLP.Fitness>
39.9266

> <Gold.PLP.PLP>
-31.4939

> <Gold.PLP.part.hbond>
-1.9202

> <Gold.PLP.part.metal>
0.0000

> <Gold.PLP.part.buried>
-3.0501

> <Gold.PLP.part.nonpolar>
-27.5550

> <Gold.PLP.part.repulsive>
0.5690

> <Gold.PLP.ligand.clash>
0.0000

> <Gold.PLP.ligand.torsion>
0.7719

> <Gold.PLP.Chemscore.Hbond>
1.0719

> <Gold.PLP.Chemscore.CHOScore>
2.1732

> <Gold.PLP.Chemscore.Metal>
0.0000

> <Gold.Chemscore.Hbonds>
donor molecule, donor type, donor heavy atom, donor atom, acceptor molecule, acceptor atom, score
      L1  H    12    37       P1  7948  0.84
      L1  C    18    46       P1 10747  1.00
      L1  C    20    47       P1 10952  0.76

> <Gold.PLP.Chemscore.Internal.Correction>
0.2413

> <Gold.Rescore>
     Score         DG    S(hbond)    S(metal)    S(lipo)     H(rot)  DE(clash)    DE(int)     intcor
      7.71      -8.70       0.95        0.00      59.29       2.69       0.07       0.92       ----

> <Gold.Chemscore.Fitness>
7.7095

> <Gold.Chemscore.DG>
-8.6980

> <Gold.Chemscore.ZeroCoef>
-5.4800

> <Gold.Chemscore.Hbond>
0.9510

> <Gold.Chemscore.Metal>
0.0000

> <Gold.Chemscore.Lipo>
59.2895

> <Gold.Chemscore.Internal_Hbond>
0.0000

> <Gold.Chemscore.DEClash>
0.0697

> <Gold.Chemscore.DEInternal>
0.9188

> <Gold.Chemscore.Rot>
2.6935

> <Gold.Chemscore.Internal.Correction>
   9.000000E+99

> <Gold.Chemscore.Hbonds>
donor molecule, donor type, donor heavy atom, donor atom, acceptor molecule, acceptor atom, score
      L1  H    12    37       P1  7948  0.82

> <Gold.Chemscore.Hbond.Weighted>
-3.1765

> <Gold.Chemscore.Metal.Weighted>
-0.0000

> <Gold.Chemscore.Lipo.Weighted>
-6.9369

> <Gold.Chemscore.Internal_Hbond.Weighted>
0.0000

> <Gold.Chemscore.DEClash.Weighted>
0.0697

> <Gold.Chemscore.DEInternal.Weighted>
0.9188

> <Gold.Chemscore.Rot.Weighted>
6.8954

> <Gold.Chemscore.Internal.Correction.Weighted>
   9.000000E+99

> <Gold.Protein.RotatedTorsions>
[ 6907 6896 6895 6894 ] final  -45.78 input  -60.11 | X-H torsion
[ 7974 7965 7964 7962 ] final  -48.65 input  175.53 | X-H torsion
[ 8008 7997 7996 7995 ] final   35.85 input   59.86 | X-H torsion
[ 10167 10162 10161 10158 ] final   63.70 input  -65.29 | X-H torsion
[ 10718 10713 10712 10709 ] final  -67.31 input   66.30 | X-H torsion
[ 10763 10752 10751 10750 ] final  -31.55 input  -60.55 | X-H torsion
[ 11005 11000 10999 10996 ] final  -72.61 input  -57.11 | X-H torsion

> <Gold.Protein.ActiveResidues>
 VAL166  LYS551  ARG553  GLY616  TRP617  ASP618  TYR619  PRO620  LYS621  CYS622 
 ASP623  PHE694  ASN695  SER759  ASP760  ASP761  ALA762  ILE779  LEU786  VAL792 
 PHE793  MET794  SER795  GLU796  ALA797  LYS798  CYS799  TRP800  GLU811  SER814 

> <Gold.Protein.RotatedAtoms>
  150.9183  134.8600  159.7471 H   0  0  0  0  0  0  0  0  0  0  0  0  # atno 6907 bound_to 6896
  152.4980  134.4256  159.9505 H   0  0  0  0  0  0  0  0  0  0  0  0  # atno 6908 bound_to 6896
  151.4292  133.3635  159.2801 H   0  0  0  0  0  0  0  0  0  0  0  0  # atno 6909 bound_to 6896
  145.9489  140.7591  142.9514 H   0  0  0  0  0  0  0  0  0  0  0  0  # atno 7974 bound_to 7965
  155.1777  140.3297  155.4381 H   0  0  0  0  0  0  0  0  0  0  0  0  # atno 8008 bound_to 7997
  156.2487  140.1932  156.6828 H   0  0  0  0  0  0  0  0  0  0  0  0  # atno 8009 bound_to 7997
  154.6293  140.0585  156.9698 H   0  0  0  0  0  0  0  0  0  0  0  0  # atno 8010 bound_to 7997
  140.1302  144.4650  150.6869 H   0  0  0  0  0  0  0  0  0  0  0  0  # atno 10167 bound_to 10162
  156.0564  130.4276  150.1836 H   0  0  0  0  0  0  0  0  0  0  0  0  # atno 10718 bound_to 10713
  153.7991  135.6891  153.4858 H   0  0  0  0  0  0  0  0  0  0  0  0  # atno 10763 bound_to 10752
  153.1700  135.4546  154.9888 H   0  0  0  0  0  0  0  0  0  0  0  0  # atno 10764 bound_to 10752
  154.8014  135.3339  154.7481 H   0  0  0  0  0  0  0  0  0  0  0  0  # atno 10765 bound_to 10752
  141.1611  133.6852  156.7086 H   0  0  0  0  0  0  0  0  0  0  0  0  # atno 11005 bound_to 11000
  144.6792  140.2402  143.7344 LP  0  0  0  0  0  0  0  0  0  0  0  0  # atno 17320 bound_to 7965
  145.8198  139.2039  143.1944 LP  0  0  0  0  0  0  0  0  0  0  0  0  # atno 17321 bound_to 7965
  140.6821  143.2332  151.5356 LP  0  0  0  0  0  0  0  0  0  0  0  0  # atno 17342 bound_to 10162
  139.5523  144.2363  152.1553 LP  0  0  0  0  0  0  0  0  0  0  0  0  # atno 17343 bound_to 10162
  156.9911  130.9893  151.3414 LP  0  0  0  0  0  0  0  0  0  0  0  0  # atno 17370 bound_to 10713
  157.5538  130.8200  149.8178 LP  0  0  0  0  0  0  0  0  0  0  0  0  # atno 17371 bound_to 10713
  140.2905  134.8245  157.4012 LP  0  0  0  0  0  0  0  0  0  0  0  0  # atno 17394 bound_to 11000
  140.1351  134.5044  155.8074 LP  0  0  0  0  0  0  0  0  0  0  0  0  # atno 17395 bound_to 11000

$$$$
