AV-unprocessed.smi:3301|AV-procd|sdf|12655|dock2
  -GOLD-   2272018593D 1   1.00000     0.00000
 Structure written by MMmdl.
 36 37  0  0  0  0  0  0  0  0  1 V2000
  152.6696  139.9829  159.4223 C   0  0  0  0  0  0  0  0  0  0  0  0
  151.6371  141.1108  159.2577 C   0  0  1  0  0  0  0  0  0  0  0  0
  152.1772  142.4987  159.6558 C   0  0  0  0  0  0  0  0  0  0  0  0
  152.6668  142.5418  161.0206 N   0  0  0  0  0  0  0  0  0  0  0  0
  152.1823  143.3282  162.0573 C   0  0  0  0  0  0  0  0  0  0  0  0
  152.9536  143.0421  163.1610 C   0  0  0  0  0  0  0  0  0  0  0  0
  153.9148  142.0904  162.8276 N   0  0  0  0  0  0  0  0  0  0  0  0
  153.6849  141.8447  161.5443 C   0  0  0  0  0  0  0  0  0  0  0  0
  151.1830  141.1558  157.8700 N   0  0  0  0  0  0  0  0  0  0  0  0
  150.2393  141.9705  157.3733 C   0  0  0  0  0  0  0  0  0  0  0  0
  149.6109  142.7794  158.0576 O   0  0  0  0  0  0  0  0  0  0  0  0
  149.9579  141.8255  155.8718 C   0  0  0  0  0  0  0  0  0  0  0  0
  149.4599  140.4997  155.5024 N   0  0  0  0  0  0  0  0  0  0  0  0
  148.0700  140.1393  155.7294 C   0  0  0  0  0  0  0  0  0  0  0  0
  147.9849  138.6430  155.3957 C   0  0  0  0  0  0  0  0  0  0  0  0
  149.2903  138.3010  154.6693 C   0  0  0  0  0  0  0  0  0  0  0  0
  150.1612  139.5208  154.9171 C   0  0  0  0  0  0  0  0  0  0  0  0
  151.3500  139.5676  154.6043 O   0  0  0  0  0  0  0  0  0  0  0  0
  152.9746  139.8693  160.4628 H   0  0  0  0  0  0  0  0  0  0  0  0
  153.5656  140.1754  158.8312 H   0  0  0  0  0  0  0  0  0  0  0  0
  152.2575  139.0257  159.1011 H   0  0  0  0  0  0  0  0  0  0  0  0
  150.7974  140.8807  159.9158 H   0  0  0  0  0  0  0  0  0  0  0  0
  152.9854  142.7988  158.9870 H   0  0  0  0  0  0  0  0  0  0  0  0
  151.3933  143.2506  159.5550 H   0  0  0  0  0  0  0  0  0  0  0  0
  151.3519  144.0064  161.9270 H   0  0  0  0  0  0  0  0  0  0  0  0
  152.8924  143.4459  164.1609 H   0  0  0  0  0  0  0  0  0  0  0  0
  154.2690  141.1382  160.9728 H   0  0  0  0  0  0  0  0  0  0  0  0
  151.6351  140.5205  157.2284 H   0  0  0  0  0  0  0  0  0  0  0  0
  149.2339  142.5807  155.5611 H   0  0  0  0  0  0  0  0  0  0  0  0
  150.8778  142.0362  155.3253 H   0  0  0  0  0  0  0  0  0  0  0  0
  147.7684  140.3397  156.7582 H   0  0  0  0  0  0  0  0  0  0  0  0
  147.4337  140.7259  155.0653 H   0  0  0  0  0  0  0  0  0  0  0  0
  147.9077  138.0585  156.3134 H   0  0  0  0  0  0  0  0  0  0  0  0
  147.1088  138.4152  154.7878 H   0  0  0  0  0  0  0  0  0  0  0  0
  149.7539  137.3939  155.0582 H   0  0  0  0  0  0  0  0  0  0  0  0
  149.1302  138.1824  153.5974 H   0  0  0  0  0  0  0  0  0  0  0  0
  1  2  1  0  0  0  0
  1 19  1  0  0  0  0
  1 20  1  0  0  0  0
  1 21  1  0  0  0  0
  2  3  1  0  0  0  0
  2  9  1  0  0  0  0
  2 22  1  0  0  0  0
  3  4  1  0  0  0  0
  3 23  1  0  0  0  0
  3 24  1  0  0  0  0
  4  8  1  0  0  0  0
  4  5  1  0  0  0  0
  5  6  2  0  0  0  0
  5 25  1  0  0  0  0
  6  7  1  0  0  0  0
  6 26  1  0  0  0  0
  7  8  2  0  0  0  0
  8 27  1  0  0  0  0
  9 10  1  0  0  0  0
  9 28  1  0  0  0  0
 10 11  2  0  0  0  0
 10 12  1  0  0  0  0
 12 13  1  0  0  0  0
 12 29  1  0  0  0  0
 12 30  1  0  0  0  0
 13 17  1  0  0  0  0
 13 14  1  0  0  0  0
 14 15  1  0  0  0  0
 14 31  1  0  0  0  0
 14 32  1  0  0  0  0
 15 16  1  0  0  0  0
 15 33  1  0  0  0  0
 15 34  1  0  0  0  0
 16 17  1  0  0  0  0
 16 35  1  0  0  0  0
 16 36  1  0  0  0  0
 17 18  2  0  0  0  0
M  END
> <s_m_source_file>
AV-unprocessed.smi

> <i_m_source_file_index>
3301

> <i_lp_mmshare_version>
43012

> <i_f3d_flags>
0

> <s_epik_input>
W2NIXTFuW2NIXVtjSF1uMVtDSDJdW0NAQEhdKFtDSDNdKVtOSF1DKD1PKVtDSDJdTjJbQ0gyXVtDSDJdW0NIMl1DMj1P

> <s_epik_cmdline>
J2VwaWtfcHl0aG9uJywgJy1waCcsICc3LjAnLCAnLXRuJywgJzgnLCAnLW1hJywgJzIwMCcsICctbWV0YWxfYmluZGluZycsICctaW1hZScsICc8aW5maWxlLm1hZT4nLCAnLW9tYWUnLCAnPG91dGZpbGUubWFlPic=

> <r_lp_tautomer_probability>
1

> <r_epik_Ionization_Penalty>
0.623868

> <r_epik_Ionization_Penalty_Charging>
0.623868

> <r_epik_Ionization_Penalty_Neutral>
4.45089e-08

> <r_epik_State_Penalty>
0.640129

> <r_epik_Charging_Adjusted_Penalty>
1.264

> <i_epik_Tot_Q>
0

> <i_epik_Tot_abs_Q>
0

> <r_epik_Metal_State_Penalty>
0.307431

> <b_epik_Metal_Only>
0

> <s_lp_Force_Field>
OPLS_2005

> <r_lp_Energy>
14.8621

> <b_lp_Chiralities_Consistent>
1

> <s_lp_Variant>
AV-unprocessed.smi:3301-4

> <Gold.Version>
5.8.1

> <Gold.Id.Protein>
6NUR|6NUR_protein|mol2

> <Gold.PLP.Fitness>
40.3696

> <Gold.PLP.PLP>
-37.8045

> <Gold.PLP.part.hbond>
-2.0000

> <Gold.PLP.part.metal>
0.0000

> <Gold.PLP.part.buried>
-3.8103

> <Gold.PLP.part.nonpolar>
-31.1847

> <Gold.PLP.part.repulsive>
0.3236

> <Gold.PLP.ligand.clash>
0.0017

> <Gold.PLP.ligand.torsion>
0.2599

> <Gold.PLP.Chemscore.Hbond>
1.0000

> <Gold.PLP.Chemscore.CHOScore>
0.0000

> <Gold.PLP.Chemscore.Metal>
0.0000

> <Gold.Chemscore.Hbonds>
donor molecule, donor type, donor heavy atom, donor atom, acceptor molecule, acceptor atom, score
      P1  H  7989  7998       L1    18  1.00

> <Gold.PLP.Chemscore.Internal.Correction>
0.0866

> <Gold.Rescore>
     Score         DG    S(hbond)    S(metal)    S(lipo)     H(rot)  DE(clash)    DE(int)     intcor
      8.79     -10.56       0.88        0.00      67.75       2.26       0.38       1.38       ----

> <Gold.Chemscore.Fitness>
8.7940

> <Gold.Chemscore.DG>
-10.5553

> <Gold.Chemscore.ZeroCoef>
-5.4800

> <Gold.Chemscore.Hbond>
0.8819

> <Gold.Chemscore.Metal>
0.0000

> <Gold.Chemscore.Lipo>
67.7542

> <Gold.Chemscore.Internal_Hbond>
0.0000

> <Gold.Chemscore.DEClash>
0.3784

> <Gold.Chemscore.DEInternal>
1.3829

> <Gold.Chemscore.Rot>
2.2647

> <Gold.Chemscore.Internal.Correction>
   9.000000E+99

> <Gold.Chemscore.Hbonds>
donor molecule, donor type, donor heavy atom, donor atom, acceptor molecule, acceptor atom, score
      P1  H  7989  7998       L1    18  0.78

> <Gold.Chemscore.Hbond.Weighted>
-2.9456

> <Gold.Chemscore.Metal.Weighted>
-0.0000

> <Gold.Chemscore.Lipo.Weighted>
-7.9272

> <Gold.Chemscore.Internal_Hbond.Weighted>
0.0000

> <Gold.Chemscore.DEClash.Weighted>
0.3784

> <Gold.Chemscore.DEInternal.Weighted>
1.3829

> <Gold.Chemscore.Rot.Weighted>
5.7975

> <Gold.Chemscore.Internal.Correction.Weighted>
   9.000000E+99

> <Gold.Protein.RotatedTorsions>
[ 6907 6896 6895 6894 ] final -101.44 input  -60.11 | X-H torsion
[ 7974 7965 7964 7962 ] final  -18.47 input  175.53 | X-H torsion
[ 8008 7997 7996 7995 ] final  -87.38 input   59.86 | X-H torsion
[ 10167 10162 10161 10158 ] final -114.71 input  -65.29 | X-H torsion
[ 10718 10713 10712 10709 ] final   97.78 input   66.30 | X-H torsion
[ 10763 10752 10751 10750 ] final  -45.40 input  -60.55 | X-H torsion
[ 11005 11000 10999 10996 ] final   42.78 input  -57.11 | X-H torsion

> <Gold.Protein.ActiveResidues>
 VAL166  LYS551  ARG553  GLY616  TRP617  ASP618  TYR619  PRO620  LYS621  CYS622 
 ASP623  PHE694  ASN695  SER759  ASP760  ASP761  ALA762  ILE779  LEU786  VAL792 
 PHE793  MET794  SER795  GLU796  ALA797  LYS798  CYS799  TRP800  GLU811  SER814 

> <Gold.Protein.RotatedAtoms>
  150.7155  134.0734  159.3872 H   0  0  0  0  0  0  0  0  0  0  0  0  # atno 6907 bound_to 6896
  151.8716  135.0485  160.0489 H   0  0  0  0  0  0  0  0  0  0  0  0  # atno 6908 bound_to 6896
  152.2638  133.5285  159.5434 H   0  0  0  0  0  0  0  0  0  0  0  0  # atno 6909 bound_to 6896
  146.1890  140.3926  142.8465 H   0  0  0  0  0  0  0  0  0  0  0  0  # atno 7974 bound_to 7965
  154.6626  140.0566  157.0079 H   0  0  0  0  0  0  0  0  0  0  0  0  # atno 8008 bound_to 7997
  155.1206  140.3247  155.4480 H   0  0  0  0  0  0  0  0  0  0  0  0  # atno 8009 bound_to 7997
  156.2624  140.1998  156.6328 H   0  0  0  0  0  0  0  0  0  0  0  0  # atno 8010 bound_to 7997
  140.0980  143.4639  152.1829 H   0  0  0  0  0  0  0  0  0  0  0  0  # atno 10167 bound_to 10162
  157.6907  131.0620  150.4696 H   0  0  0  0  0  0  0  0  0  0  0  0  # atno 10718 bound_to 10713
  154.0280  135.6660  153.4778 H   0  0  0  0  0  0  0  0  0  0  0  0  # atno 10763 bound_to 10752
  153.0552  135.5060  154.7960 H   0  0  0  0  0  0  0  0  0  0  0  0  # atno 10764 bound_to 10752
  154.6896  135.3059  154.9463 H   0  0  0  0  0  0  0  0  0  0  0  0  # atno 10765 bound_to 10752
  140.1706  134.4226  155.8259 H   0  0  0  0  0  0  0  0  0  0  0  0  # atno 11005 bound_to 11000
  144.8451  140.6917  143.6204 LP  0  0  0  0  0  0  0  0  0  0  0  0  # atno 17320 bound_to 7965
  145.3850  139.1628  143.4260 LP  0  0  0  0  0  0  0  0  0  0  0  0  # atno 17321 bound_to 7965
  139.5687  144.7450  151.3950 LP  0  0  0  0  0  0  0  0  0  0  0  0  # atno 17342 bound_to 10162
  140.6993  143.7671  150.7377 LP  0  0  0  0  0  0  0  0  0  0  0  0  # atno 17343 bound_to 10162
  156.5035  130.4122  149.6340 LP  0  0  0  0  0  0  0  0  0  0  0  0  # atno 17370 bound_to 10713
  156.3306  130.7330  151.2258 LP  0  0  0  0  0  0  0  0  0  0  0  0  # atno 17371 bound_to 10713
  141.2217  133.6954  156.7757 LP  0  0  0  0  0  0  0  0  0  0  0  0  # atno 17394 bound_to 11000
  140.2381  134.8634  157.3546 LP  0  0  0  0  0  0  0  0  0  0  0  0  # atno 17395 bound_to 11000

$$$$
