AV-unprocessed.smi:2345|AV-procd|sdf|9361|dock6
  -GOLD-   2272012583D 1   1.00000     0.00000
 Structure written by MMmdl.
 37 38  0  0  0  0  0  0  0  0  1 V2000
  150.9185  136.1514  154.7166 C   0  0  0  0  0  0  0  0  0  0  0  0
  149.8311  137.2048  154.9415 C   0  0  0  0  0  0  0  0  0  0  0  0
  150.2550  138.7783  154.1441 S   0  0  0  0  0  0  0  0  0  0  0  0
  148.8868  139.8255  154.7227 C   0  0  2  0  0  0  0  0  0  0  0  0
  147.5263  139.3178  154.2381 C   0  0  0  0  0  0  0  0  0  0  0  0
  146.6385  140.5574  154.2546 C   0  0  0  0  0  0  0  0  0  0  0  0
  147.5602  141.6829  153.7842 C   0  0  0  0  0  0  0  0  0  0  0  0
  148.9822  141.2852  154.2289 C   0  0  1  0  0  0  0  0  0  0  0  0
  149.4682  142.1579  155.2948 N   0  0  0  0  0  0  0  0  0  0  0  0
  150.4316  141.8409  156.1707 C   0  0  0  0  0  0  0  0  0  0  0  0
  151.0394  140.7709  156.1522 O   0  0  0  0  0  0  0  0  0  0  0  0
  150.6174  142.8278  157.0634 N   0  0  0  0  0  0  0  0  0  0  0  0
  151.5220  142.8745  158.1587 C   0  0  0  0  0  0  0  0  0  0  0  0
  152.3061  141.7760  158.5869 C   0  0  0  0  0  0  0  0  0  0  0  0
  153.1799  141.9555  159.6781 C   0  0  0  0  0  0  0  0  0  0  0  0
  153.3177  143.1261  160.3362 N   0  0  0  0  0  0  0  0  0  0  0  0
  152.5796  144.1750  159.9157 C   0  0  0  0  0  0  0  0  0  0  0  0
  151.6771  144.1026  158.8358 C   0  0  0  0  0  0  0  0  0  0  0  0
  150.9690  145.1959  158.4617 F   0  0  0  0  0  0  0  0  0  0  0  0
  150.6584  135.2137  155.2075 H   0  0  0  0  0  0  0  0  0  0  0  0
  151.8763  136.4834  155.1179 H   0  0  0  0  0  0  0  0  0  0  0  0
  151.0520  135.9460  153.6542 H   0  0  0  0  0  0  0  0  0  0  0  0
  148.8809  136.8488  154.5433 H   0  0  0  0  0  0  0  0  0  0  0  0
  149.6917  137.3711  156.0096 H   0  0  0  0  0  0  0  0  0  0  0  0
  148.8787  139.7999  155.8139 H   0  0  0  0  0  0  0  0  0  0  0  0
  147.6051  138.9428  153.2166 H   0  0  0  0  0  0  0  0  0  0  0  0
  147.1341  138.5121  154.8594 H   0  0  0  0  0  0  0  0  0  0  0  0
  145.7532  140.4499  153.6272 H   0  0  0  0  0  0  0  0  0  0  0  0
  146.3045  140.7563  155.2739 H   0  0  0  0  0  0  0  0  0  0  0  0
  147.5298  141.7416  152.6954 H   0  0  0  0  0  0  0  0  0  0  0  0
  147.2408  142.6547  154.1639 H   0  0  0  0  0  0  0  0  0  0  0  0
  149.6507  141.3444  153.3675 H   0  0  0  0  0  0  0  0  0  0  0  0
  149.0206  143.0585  155.3835 H   0  0  0  0  0  0  0  0  0  0  0  0
  149.9844  143.6115  156.9966 H   0  0  0  0  0  0  0  0  0  0  0  0
  152.2653  140.8142  158.0993 H   0  0  0  0  0  0  0  0  0  0  0  0
  153.7905  141.1363  160.0274 H   0  0  0  0  0  0  0  0  0  0  0  0
  152.7133  145.1009  160.4553 H   0  0  0  0  0  0  0  0  0  0  0  0
  1  2  1  0  0  0  0
  1 20  1  0  0  0  0
  1 21  1  0  0  0  0
  1 22  1  0  0  0  0
  2  3  1  0  0  0  0
  2 23  1  0  0  0  0
  2 24  1  0  0  0  0
  3  4  1  0  0  0  0
  4  8  1  0  0  0  0
  4  5  1  0  0  0  0
  4 25  1  0  0  0  0
  5  6  1  0  0  0  0
  5 26  1  0  0  0  0
  5 27  1  0  0  0  0
  6  7  1  0  0  0  0
  6 28  1  0  0  0  0
  6 29  1  0  0  0  0
  7  8  1  0  0  0  0
  7 30  1  0  0  0  0
  7 31  1  0  0  0  0
  8  9  1  0  0  0  0
  8 32  1  0  0  0  0
  9 10  1  0  0  0  0
  9 33  1  0  0  0  0
 10 11  2  0  0  0  0
 10 12  1  0  0  0  0
 12 13  1  0  0  0  0
 12 34  1  0  0  0  0
 13 18  1  0  0  0  0
 13 14  2  0  0  0  0
 14 15  1  0  0  0  0
 14 35  1  0  0  0  0
 15 16  2  0  0  0  0
 15 36  1  0  0  0  0
 16 17  1  0  0  0  0
 17 18  2  0  0  0  0
 17 37  1  0  0  0  0
 18 19  1  0  0  0  0
M  END
> <s_m_source_file>
AV-unprocessed.smi

> <i_m_source_file_index>
2345

> <i_lp_mmshare_version>
43012

> <i_f3d_flags>
0

> <s_epik_input>
W0NIM11bQ0gyXVNbQ0BASF0xW0NIMl1bQ0gyXVtDSDJdW0NASF0xW05IXUMoPU8pW05IXWMyW2NIXVtjSF1uW2NIXWMyRg==

> <s_epik_cmdline>
J2VwaWtfcHl0aG9uJywgJy1waCcsICc3LjAnLCAnLXRuJywgJzgnLCAnLW1hJywgJzIwMCcsICctbWV0YWxfYmluZGluZycsICctaW1hZScsICc8aW5maWxlLm1hZT4nLCAnLW9tYWUnLCAnPG91dGZpbGUubWFlPic=

> <r_epik_Ionization_Penalty>
0.00333745

> <r_epik_Ionization_Penalty_Charging>
0

> <r_epik_Ionization_Penalty_Neutral>
0.00333745

> <r_epik_State_Penalty>
0.00233401

> <r_epik_Charging_Adjusted_Penalty>
0.00233401

> <i_epik_Tot_Q>
0

> <i_epik_Tot_abs_Q>
0

> <r_epik_Metal_State_Penalty>
-0

> <b_epik_Metal_Only>
0

> <s_lp_Force_Field>
OPLS_2005

> <r_lp_Energy>
20.2563

> <b_lp_Chiralities_Consistent>
1

> <s_lp_Variant>
AV-unprocessed.smi:2345-1

> <Gold.Version>
5.8.1

> <Gold.Id.Protein>
6NUR|6NUR_protein|mol2

> <Gold.PLP.Fitness>
44.1643

> <Gold.PLP.PLP>
-38.9840

> <Gold.PLP.part.hbond>
-2.0000

> <Gold.PLP.part.metal>
0.0000

> <Gold.PLP.part.buried>
-5.6542

> <Gold.PLP.part.nonpolar>
-31.7828

> <Gold.PLP.part.repulsive>
0.2389

> <Gold.PLP.ligand.clash>
0.0000

> <Gold.PLP.ligand.torsion>
0.3309

> <Gold.PLP.Chemscore.Hbond>
1.9440

> <Gold.PLP.Chemscore.CHOScore>
0.0000

> <Gold.PLP.Chemscore.Metal>
0.0000

> <Gold.Chemscore.Hbonds>
donor molecule, donor type, donor heavy atom, donor atom, acceptor molecule, acceptor atom, score
      L1  H     9    33       P1  8028  1.00
      L1  H    12    34       P1  8028  0.86

> <Gold.PLP.Chemscore.Internal.Correction>
0.0100

> <Gold.Rescore>
     Score         DG    S(hbond)    S(metal)    S(lipo)     H(rot)  DE(clash)    DE(int)     intcor
     16.34     -20.39       1.91        0.00     102.29       1.35       0.23       3.82       ----

> <Gold.Chemscore.Fitness>
16.3373

> <Gold.Chemscore.DG>
-20.3850

> <Gold.Chemscore.ZeroCoef>
-5.4800

> <Gold.Chemscore.Hbond>
1.9121

> <Gold.Chemscore.Metal>
0.0000

> <Gold.Chemscore.Lipo>
102.2927

> <Gold.Chemscore.Internal_Hbond>
0.0000

> <Gold.Chemscore.DEClash>
0.2270

> <Gold.Chemscore.DEInternal>
3.8207

> <Gold.Chemscore.Rot>
1.3475

> <Gold.Chemscore.Internal.Correction>
   9.000000E+99

> <Gold.Chemscore.Hbonds>
donor molecule, donor type, donor heavy atom, donor atom, acceptor molecule, acceptor atom, score
      L1  H     9    33       P1  8028  0.99
      L1  H    12    34       P1  8028  0.78

> <Gold.Chemscore.Hbond.Weighted>
-6.3864

> <Gold.Chemscore.Metal.Weighted>
-0.0000

> <Gold.Chemscore.Lipo.Weighted>
-11.9682

> <Gold.Chemscore.Internal_Hbond.Weighted>
0.0000

> <Gold.Chemscore.DEClash.Weighted>
0.2270

> <Gold.Chemscore.DEInternal.Weighted>
3.8207

> <Gold.Chemscore.Rot.Weighted>
3.4496

> <Gold.Chemscore.Internal.Correction.Weighted>
   9.000000E+99

> <Gold.Protein.RotatedTorsions>
[ 6907 6896 6895 6894 ] final  120.73 input  -60.11 | X-H torsion
[ 7974 7965 7964 7962 ] final   61.80 input  175.53 | X-H torsion
[ 8008 7997 7996 7995 ] final -173.54 input   59.86 | X-H torsion
[ 10167 10162 10161 10158 ] final   22.32 input  -65.29 | X-H torsion
[ 10718 10713 10712 10709 ] final   78.51 input   66.30 | X-H torsion
[ 10763 10752 10751 10750 ] final -127.08 input  -60.55 | X-H torsion
[ 11005 11000 10999 10996 ] final  -48.72 input  -57.11 | X-H torsion

> <Gold.Protein.ActiveResidues>
 VAL166  LYS551  ARG553  GLY616  TRP617  ASP618  TYR619  PRO620  LYS621  CYS622 
 ASP623  PHE694  ASN695  SER759  ASP760  ASP761  ALA762  ILE779  LEU786  VAL792 
 PHE793  MET794  SER795  GLU796  ALA797  LYS798  CYS799  TRP800  GLU811  SER814 

> <Gold.Protein.RotatedAtoms>
  152.4376  133.7388  159.6629 H   0  0  0  0  0  0  0  0  0  0  0  0  # atno 6907 bound_to 6896
  150.8262  133.8158  159.3124 H   0  0  0  0  0  0  0  0  0  0  0  0  # atno 6908 bound_to 6896
  151.5826  135.1060  160.0072 H   0  0  0  0  0  0  0  0  0  0  0  0  # atno 6909 bound_to 6896
  145.8806  139.3441  143.0708 H   0  0  0  0  0  0  0  0  0  0  0  0  # atno 7974 bound_to 7965
  155.9588  140.1140  157.0914 H   0  0  0  0  0  0  0  0  0  0  0  0  # atno 8008 bound_to 7997
  154.4127  140.1186  156.5217 H   0  0  0  0  0  0  0  0  0  0  0  0  # atno 8009 bound_to 7997
  155.6748  140.3473  155.4834 H   0  0  0  0  0  0  0  0  0  0  0  0  # atno 8010 bound_to 7997
  140.5357  143.9764  150.6490 H   0  0  0  0  0  0  0  0  0  0  0  0  # atno 10167 bound_to 10162
  157.6747  130.9872  150.1797 H   0  0  0  0  0  0  0  0  0  0  0  0  # atno 10718 bound_to 10713
  154.8750  135.3974  154.3535 H   0  0  0  0  0  0  0  0  0  0  0  0  # atno 10763 bound_to 10752
  153.4318  135.7025  153.6231 H   0  0  0  0  0  0  0  0  0  0  0  0  # atno 10764 bound_to 10752
  153.4850  135.3761  155.2431 H   0  0  0  0  0  0  0  0  0  0  0  0  # atno 10765 bound_to 10752
  141.0717  133.6677  156.3482 H   0  0  0  0  0  0  0  0  0  0  0  0  # atno 11005 bound_to 11000
  145.9028  140.9232  143.0494 LP  0  0  0  0  0  0  0  0  0  0  0  0  # atno 17320 bound_to 7965
  144.6727  140.1055  143.7458 LP  0  0  0  0  0  0  0  0  0  0  0  0  # atno 17321 bound_to 7965
  140.3151  143.3173  152.0840 LP  0  0  0  0  0  0  0  0  0  0  0  0  # atno 17342 bound_to 10162
  139.4970  144.6611  151.6463 LP  0  0  0  0  0  0  0  0  0  0  0  0  # atno 17343 bound_to 10162
  156.2533  130.3703  149.8209 LP  0  0  0  0  0  0  0  0  0  0  0  0  # atno 17370 bound_to 10713
  156.5976  130.8533  151.3424 LP  0  0  0  0  0  0  0  0  0  0  0  0  # atno 17371 bound_to 10713
  140.5659  134.5888  157.5445 LP  0  0  0  0  0  0  0  0  0  0  0  0  # atno 17394 bound_to 11000
  139.9530  134.7583  156.0404 LP  0  0  0  0  0  0  0  0  0  0  0  0  # atno 17395 bound_to 11000

$$$$
