AV-unprocessed.smi:2045|AV-procd|sdf|8308|dock2
  -GOLD-   2272010573D 1   1.00000     0.00000
 Structure written by MMmdl.
 39 40  0  0  0  0  0  0  0  0  2 V2000
  150.2977  142.3213  157.7042 C   0  0  0  0  0  0  0  0  0  0  0  0
  150.2069  141.4806  156.4770 C   0  0  0  0  0  0  0  0  0  0  0  0
  149.1716  141.1559  155.6462 C   0  0  0  0  0  0  0  0  0  0  0  0
  149.7886  140.3198  154.6783 C   0  0  0  0  0  0  0  0  0  0  0  0
  149.0370  139.7607  153.6132 N   0  0  0  0  0  0  0  0  0  0  0  0
  147.8377  139.1587  153.6869 C   0  0  0  0  0  0  0  0  0  0  0  0
  147.1819  139.0041  154.7176 O   0  0  0  0  0  0  0  0  0  0  0  0
  147.4280  138.7314  152.4835 N   0  0  0  0  0  0  0  0  0  0  0  0
  146.1691  138.0389  152.2327 C   0  0  0  0  0  0  0  0  0  0  0  0
  146.0053  136.8107  153.1499 C   0  0  0  0  0  0  0  0  0  0  0  0
  146.0916  135.5305  152.4033 N   0  3  0  0  0  0  0  0  0  0  0  0
  146.0618  134.3515  153.3084 C   0  0  0  0  0  0  0  0  0  0  0  0
  146.2869  133.0436  152.5306 C   0  0  0  0  0  0  0  0  0  0  0  0
  145.2577  132.8900  151.4037 C   0  0  0  0  0  0  0  0  0  0  0  0
  145.2818  134.1299  150.5012 C   0  0  0  0  0  0  0  0  0  0  0  0
  145.0749  135.4136  151.3228 C   0  0  0  0  0  0  0  0  0  0  0  0
  151.0833  140.1499  154.8975 N   0  0  0  0  0  0  0  0  0  0  0  0
  151.3579  140.8923  156.0521 O   0  0  0  0  0  0  0  0  0  0  0  0
  149.3976  142.9227  157.8322 H   0  0  0  0  0  0  0  0  0  0  0  0
  151.1503  142.9982  157.6480 H   0  0  0  0  0  0  0  0  0  0  0  0
  150.4174  141.6981  158.5905 H   0  0  0  0  0  0  0  0  0  0  0  0
  148.1407  141.4686  155.7222 H   0  0  0  0  0  0  0  0  0  0  0  0
  149.4611  139.8223  152.6995 H   0  0  0  0  0  0  0  0  0  0  0  0
  148.0239  138.9026  151.6864 H   0  0  0  0  0  0  0  0  0  0  0  0
  145.3468  138.7444  152.3544 H   0  0  0  0  0  0  0  0  0  0  0  0
  146.1567  137.7264  151.1882 H   0  0  0  0  0  0  0  0  0  0  0  0
  146.7973  136.8452  153.8997 H   0  0  0  0  0  0  0  0  0  0  0  0
  145.0630  136.8482  153.6983 H   0  0  0  0  0  0  0  0  0  0  0  0
  146.8368  134.4496  154.0696 H   0  0  0  0  0  0  0  0  0  0  0  0
  145.1052  134.3182  153.8325 H   0  0  0  0  0  0  0  0  0  0  0  0
  147.2941  133.0343  152.1117 H   0  0  0  0  0  0  0  0  0  0  0  0
  146.2258  132.1918  153.2086 H   0  0  0  0  0  0  0  0  0  0  0  0
  145.4671  131.9930  150.8202 H   0  0  0  0  0  0  0  0  0  0  0  0
  144.2612  132.7617  151.8286 H   0  0  0  0  0  0  0  0  0  0  0  0
  146.2349  134.1819  149.9730 H   0  0  0  0  0  0  0  0  0  0  0  0
  144.5089  134.0478  149.7365 H   0  0  0  0  0  0  0  0  0  0  0  0
  144.0753  135.4195  151.7607 H   0  0  0  0  0  0  0  0  0  0  0  0
  145.1279  136.2709  150.6528 H   0  0  0  0  0  0  0  0  0  0  0  0
  146.9982  135.5195  151.9585 H   0  0  0  0  0  0  0  0  0  0  0  0
  1  2  1  0  0  0  0
  1 19  1  0  0  0  0
  1 20  1  0  0  0  0
  1 21  1  0  0  0  0
  2 18  1  0  0  0  0
  2  3  2  0  0  0  0
  3  4  1  0  0  0  0
  3 22  1  0  0  0  0
  4  5  1  0  0  0  0
  4 17  2  0  0  0  0
  5  6  1  0  0  0  0
  5 23  1  0  0  0  0
  6  7  2  0  0  0  0
  6  8  1  0  0  0  0
  8  9  1  0  0  0  0
  8 24  1  0  0  0  0
  9 10  1  0  0  0  0
  9 25  1  0  0  0  0
  9 26  1  0  0  0  0
 10 11  1  0  0  0  0
 10 27  1  0  0  0  0
 10 28  1  0  0  0  0
 11 16  1  0  0  0  0
 11 12  1  0  0  0  0
 11 39  1  0  0  0  0
 12 13  1  0  0  0  0
 12 29  1  0  0  0  0
 12 30  1  0  0  0  0
 13 14  1  0  0  0  0
 13 31  1  0  0  0  0
 13 32  1  0  0  0  0
 14 15  1  0  0  0  0
 14 33  1  0  0  0  0
 14 34  1  0  0  0  0
 15 16  1  0  0  0  0
 15 35  1  0  0  0  0
 15 36  1  0  0  0  0
 16 37  1  0  0  0  0
 16 38  1  0  0  0  0
 17 18  1  0  0  0  0
M  CHG  1  11   1
M  END
> <s_m_source_file>
AV-unprocessed.smi

> <i_m_source_file_index>
2045

> <i_lp_mmshare_version>
43012

> <i_f3d_flags>
0

> <s_epik_input>
W0NIM11jMVtjSF1jKG5vMSlbTkhdQyg9TylbTkhdW0NIMl1bQ0gyXU4yW0NIMl1bQ0gyXVtDSDJdW0NIMl1bQ0gyXTI=

> <s_epik_cmdline>
J2VwaWtfcHl0aG9uJywgJy1waCcsICc3LjAnLCAnLXRuJywgJzgnLCAnLW1hJywgJzIwMCcsICctbWV0YWxfYmluZGluZycsICctaW1hZScsICc8aW5maWxlLm1hZT4nLCAnLW9tYWUnLCAnPG91dGZpbGUubWFlPic=

> <r_epik_Ionization_Penalty>
0.00265971

> <r_epik_Ionization_Penalty_Charging>
0.00262393

> <r_epik_Ionization_Penalty_Neutral>
3.57846e-05

> <r_epik_State_Penalty>
0.00182566

> <r_epik_Charging_Adjusted_Penalty>
0.00444959

> <i_epik_Tot_Q>
1

> <i_epik_Tot_abs_Q>
1

> <r_epik_Metal_State_Penalty>
0.0216344

> <b_epik_Metal_Only>
0

> <s_lp_Force_Field>
OPLS_2005

> <r_lp_Energy>
12.4185

> <b_lp_Chiralities_Consistent>
1

> <s_lp_Variant>
AV-unprocessed.smi:2045-1

> <Gold.Version>
5.8.1

> <Gold.Id.Protein>
6NUR|6NUR_protein|mol2

> <Gold.PLP.Fitness>
42.0391

> <Gold.PLP.PLP>
-28.9511

> <Gold.PLP.part.hbond>
-5.0957

> <Gold.PLP.part.metal>
0.0000

> <Gold.PLP.part.buried>
-2.8120

> <Gold.PLP.part.nonpolar>
-21.1399

> <Gold.PLP.part.repulsive>
0.3620

> <Gold.PLP.ligand.clash>
0.0000

> <Gold.PLP.ligand.torsion>
0.7700

> <Gold.PLP.Chemscore.Hbond>
4.8640

> <Gold.PLP.Chemscore.CHOScore>
0.0000

> <Gold.PLP.Chemscore.Metal>
0.0000

> <Gold.Chemscore.Hbonds>
donor molecule, donor type, donor heavy atom, donor atom, acceptor molecule, acceptor atom, score
      L1  H     5    23       P1  7957  1.00
      L1  H     8    24       P1  7957  0.83
      L1  H    11    39       P1  7948  1.89
      P1  H  7989  7998       L1    17  0.90

> <Gold.PLP.Chemscore.Internal.Correction>
0.0359

> <Gold.Rescore>
     Score         DG    S(hbond)    S(metal)    S(lipo)     H(rot)  DE(clash)    DE(int)     intcor
     16.13     -18.20       3.16        0.00      53.13       1.58       0.11       1.96       ----

> <Gold.Chemscore.Fitness>
16.1344

> <Gold.Chemscore.DG>
-18.2029

> <Gold.Chemscore.ZeroCoef>
-5.4800

> <Gold.Chemscore.Hbond>
3.1617

> <Gold.Chemscore.Metal>
0.0000

> <Gold.Chemscore.Lipo>
53.1300

> <Gold.Chemscore.Internal_Hbond>
0.0000

> <Gold.Chemscore.DEClash>
0.1117

> <Gold.Chemscore.DEInternal>
1.9568

> <Gold.Chemscore.Rot>
1.5833

> <Gold.Chemscore.Internal.Correction>
   9.000000E+99

> <Gold.Chemscore.Hbonds>
donor molecule, donor type, donor heavy atom, donor atom, acceptor molecule, acceptor atom, score
      L1  H     5    23       P1  7957  0.96
      L1  H     8    24       P1  7957  0.69
      L1  H    11    39       P1  7948  0.86
      P1  H  7989  7998       L1    17  0.15

> <Gold.Chemscore.Hbond.Weighted>
-10.5600

> <Gold.Chemscore.Metal.Weighted>
-0.0000

> <Gold.Chemscore.Lipo.Weighted>
-6.2162

> <Gold.Chemscore.Internal_Hbond.Weighted>
0.0000

> <Gold.Chemscore.DEClash.Weighted>
0.1117

> <Gold.Chemscore.DEInternal.Weighted>
1.9568

> <Gold.Chemscore.Rot.Weighted>
4.0532

> <Gold.Chemscore.Internal.Correction.Weighted>
   9.000000E+99

> <Gold.Protein.RotatedTorsions>
[ 6907 6896 6895 6894 ] final -112.53 input  -60.11 | X-H torsion
[ 7974 7965 7964 7962 ] final -176.73 input  175.53 | X-H torsion
[ 8008 7997 7996 7995 ] final  141.99 input   59.86 | X-H torsion
[ 10167 10162 10161 10158 ] final   -7.33 input  -65.29 | X-H torsion
[ 10718 10713 10712 10709 ] final -177.21 input   66.30 | X-H torsion
[ 10763 10752 10751 10750 ] final -161.17 input  -60.55 | X-H torsion
[ 11005 11000 10999 10996 ] final   97.90 input  -57.11 | X-H torsion

> <Gold.Protein.ActiveResidues>
 VAL166  LYS551  ARG553  GLY616  TRP617  ASP618  TYR619  PRO620  LYS621  CYS622 
 ASP623  PHE694  ASN695  SER759  ASP760  ASP761  ALA762  ILE779  LEU786  VAL792 
 PHE793  MET794  SER795  GLU796  ALA797  LYS798  CYS799  TRP800  GLU811  SER814 

> <Gold.Protein.RotatedAtoms>
  150.7765  133.9076  159.3359 H   0  0  0  0  0  0  0  0  0  0  0  0  # atno 6907 bound_to 6896
  151.6950  135.0938  160.0250 H   0  0  0  0  0  0  0  0  0  0  0  0  # atno 6908 bound_to 6896
  152.3802  133.6497  159.6191 H   0  0  0  0  0  0  0  0  0  0  0  0  # atno 6909 bound_to 6896
  144.7127  140.1126  143.6410 H   0  0  0  0  0  0  0  0  0  0  0  0  # atno 7974 bound_to 7965
  156.2957  140.2300  156.4656 H   0  0  0  0  0  0  0  0  0  0  0  0  # atno 8008 bound_to 7997
  154.7980  140.0450  157.1272 H   0  0  0  0  0  0  0  0  0  0  0  0  # atno 8009 bound_to 7997
  154.9566  140.3049  155.5053 H   0  0  0  0  0  0  0  0  0  0  0  0  # atno 8010 bound_to 7997
  140.7025  143.6093  150.8719 H   0  0  0  0  0  0  0  0  0  0  0  0  # atno 10167 bound_to 10162
  156.8261  130.9637  151.3109 H   0  0  0  0  0  0  0  0  0  0  0  0  # atno 10718 bound_to 10713
  154.7327  135.3050  154.8864 H   0  0  0  0  0  0  0  0  0  0  0  0  # atno 10763 bound_to 10752
  153.9702  135.6742  153.4751 H   0  0  0  0  0  0  0  0  0  0  0  0  # atno 10764 bound_to 10752
  153.0933  135.4948  154.8653 H   0  0  0  0  0  0  0  0  0  0  0  0  # atno 10765 bound_to 10752
  139.8774  134.9023  156.4376 H   0  0  0  0  0  0  0  0  0  0  0  0  # atno 11005 bound_to 11000
  145.9441  139.2689  143.1251 LP  0  0  0  0  0  0  0  0  0  0  0  0  # atno 17320 bound_to 7965
  145.9393  140.8992  143.0316 LP  0  0  0  0  0  0  0  0  0  0  0  0  # atno 17321 bound_to 7965
  139.9816  143.5944  152.2941 LP  0  0  0  0  0  0  0  0  0  0  0  0  # atno 17342 bound_to 10162
  139.6568  144.7662  151.2041 LP  0  0  0  0  0  0  0  0  0  0  0  0  # atno 17343 bound_to 10162
  157.6431  130.8822  149.9487 LP  0  0  0  0  0  0  0  0  0  0  0  0  # atno 17370 bound_to 10713
  156.0961  130.3659  150.0304 LP  0  0  0  0  0  0  0  0  0  0  0  0  # atno 17371 bound_to 10713
  140.9022  133.7771  155.9693 LP  0  0  0  0  0  0  0  0  0  0  0  0  # atno 17394 bound_to 11000
  140.8638  134.2808  157.5222 LP  0  0  0  0  0  0  0  0  0  0  0  0  # atno 17395 bound_to 11000

$$$$
