AV-unprocessed.smi:392|AV-procd|sdf|2481|dock4
  -GOLD-   2262022423D 1   1.00000     0.00000
 Structure written by MMmdl.
 32 34  0  0  0  0  0  0  0  0  1 V2000
  151.1193  144.2620  157.4599 O   0  0  0  0  0  0  0  0  0  0  0  0
  151.1939  143.0366  158.1602 C   0  0  1  0  0  0  0  0  0  0  0  0
  151.9871  142.0362  157.2960 C   0  0  0  0  0  0  0  0  0  0  0  0
  151.1590  141.4047  156.2838 N   0  0  0  0  0  0  0  0  0  0  0  0
  149.9550  141.8228  155.8483 C   0  0  0  0  0  0  0  0  0  0  0  0
  149.3549  141.0889  154.9157 N   0  0  0  0  0  0  0  0  0  0  0  0
  150.2760  140.0736  154.7239 C   0  0  0  0  0  0  0  0  0  0  0  0
  150.2398  138.9537  153.8625 C   0  0  0  0  0  0  0  0  0  0  0  0
  151.3083  138.0331  153.8421 C   0  0  0  0  0  0  0  0  0  0  0  0
  152.4280  138.2186  154.6788 C   0  0  0  0  0  0  0  0  0  0  0  0
  152.4883  139.3286  155.5427 C   0  0  0  0  0  0  0  0  0  0  0  0
  151.4188  140.2436  155.5627 C   0  0  0  0  0  0  0  0  0  0  0  0
  151.7962  143.2022  159.5512 C   0  0  0  0  0  0  0  0  0  0  0  0
  152.7104  142.2467  160.0493 C   0  0  0  0  0  0  0  0  0  0  0  0
  153.2430  142.3786  161.3460 C   0  0  0  0  0  0  0  0  0  0  0  0
  152.8657  143.4668  162.1548 C   0  0  0  0  0  0  0  0  0  0  0  0
  151.9559  144.4230  161.6655 C   0  0  0  0  0  0  0  0  0  0  0  0
  151.4209  144.2928  160.3692 C   0  0  0  0  0  0  0  0  0  0  0  0
  150.5345  145.2144  159.9215 F   0  0  0  0  0  0  0  0  0  0  0  0
  150.3307  144.2611  156.9391 H   0  0  0  0  0  0  0  0  0  0  0  0
  150.1664  142.6836  158.2553 H   0  0  0  0  0  0  0  0  0  0  0  0
  152.8037  142.5483  156.7846 H   0  0  0  0  0  0  0  0  0  0  0  0
  152.4448  141.2628  157.9144 H   0  0  0  0  0  0  0  0  0  0  0  0
  149.4913  142.7158  156.2416 H   0  0  0  0  0  0  0  0  0  0  0  0
  149.3868  138.8011  153.2179 H   0  0  0  0  0  0  0  0  0  0  0  0
  151.2684  137.1800  153.1809 H   0  0  0  0  0  0  0  0  0  0  0  0
  153.2408  137.5076  154.6580 H   0  0  0  0  0  0  0  0  0  0  0  0
  153.3431  139.4709  156.1867 H   0  0  0  0  0  0  0  0  0  0  0  0
  152.9986  141.4012  159.4419 H   0  0  0  0  0  0  0  0  0  0  0  0
  153.9381  141.6420  161.7215 H   0  0  0  0  0  0  0  0  0  0  0  0
  153.2715  143.5667  163.1507 H   0  0  0  0  0  0  0  0  0  0  0  0
  151.6631  145.2558  162.2877 H   0  0  0  0  0  0  0  0  0  0  0  0
  1  2  1  0  0  0  0
  1 20  1  0  0  0  0
  2  3  1  0  0  0  0
  2 13  1  0  0  0  0
  2 21  1  0  0  0  0
  3  4  1  0  0  0  0
  3 22  1  0  0  0  0
  3 23  1  0  0  0  0
  4 12  1  0  0  0  0
  4  5  1  0  0  0  0
  5  6  2  0  0  0  0
  5 24  1  0  0  0  0
  6  7  1  0  0  0  0
  7 12  2  0  0  0  0
  7  8  1  0  0  0  0
  8  9  2  0  0  0  0
  8 25  1  0  0  0  0
  9 10  1  0  0  0  0
  9 26  1  0  0  0  0
 10 11  2  0  0  0  0
 10 27  1  0  0  0  0
 11 12  1  0  0  0  0
 11 28  1  0  0  0  0
 13 18  1  0  0  0  0
 13 14  2  0  0  0  0
 14 15  1  0  0  0  0
 14 29  1  0  0  0  0
 15 16  2  0  0  0  0
 15 30  1  0  0  0  0
 16 17  1  0  0  0  0
 16 31  1  0  0  0  0
 17 18  2  0  0  0  0
 17 32  1  0  0  0  0
 18 19  1  0  0  0  0
M  END
> <s_m_source_file>
AV-unprocessed.smi

> <i_m_source_file_index>
392

> <i_lp_mmshare_version>
43012

> <i_f3d_flags>
0

> <s_epik_input>
RmMxW2NIXVtjSF1bY0hdW2NIXWMxW0NASF0oW09IXSlbQ0gyXW4oW2NIXW4yKWMoYzIzKVtjSF1bY0hdW2NIXVtjSF0z

> <s_epik_cmdline>
J2VwaWtfcHl0aG9uJywgJy1waCcsICc3LjAnLCAnLXRuJywgJzgnLCAnLW1hJywgJzIwMCcsICctbWV0YWxfYmluZGluZycsICctaW1hZScsICc8aW5maWxlLm1hZT4nLCAnLW9tYWUnLCAnPG91dGZpbGUubWFlPic=

> <r_epik_Ionization_Penalty>
0.0696512

> <r_epik_Ionization_Penalty_Charging>
0

> <r_epik_Ionization_Penalty_Neutral>
0.0696512

> <r_epik_State_Penalty>
0.0610247

> <r_epik_Charging_Adjusted_Penalty>
0.0610247

> <i_epik_Tot_Q>
0

> <i_epik_Tot_abs_Q>
0

> <r_epik_Metal_State_Penalty>
6.42746e-05

> <b_epik_Metal_Only>
0

> <s_lp_Force_Field>
OPLS_2005

> <r_lp_Energy>
12.4864

> <b_lp_Chiralities_Consistent>
1

> <s_lp_Variant>
AV-unprocessed.smi:392-2

> <Gold.Version>
5.8.1

> <Gold.Id.Protein>
6NUR|6NUR_protein|mol2

> <Gold.PLP.Fitness>
51.1818

> <Gold.PLP.PLP>
-47.0907

> <Gold.PLP.part.hbond>
-1.0000

> <Gold.PLP.part.metal>
0.0000

> <Gold.PLP.part.buried>
-2.1101

> <Gold.PLP.part.nonpolar>
-44.0307

> <Gold.PLP.part.repulsive>
0.1187

> <Gold.PLP.ligand.clash>
0.0000

> <Gold.PLP.ligand.torsion>
0.9618

> <Gold.PLP.Chemscore.Hbond>
1.0000

> <Gold.PLP.Chemscore.CHOScore>
1.0000

> <Gold.PLP.Chemscore.Metal>
0.0000

> <Gold.Chemscore.Hbonds>
donor molecule, donor type, donor heavy atom, donor atom, acceptor molecule, acceptor atom, score
      L1  H     1    20       P1  8028  1.00
      L1  C     5    24       P1  8028  1.00

> <Gold.PLP.Chemscore.Internal.Correction>
0.0148

> <Gold.Rescore>
     Score         DG    S(hbond)    S(metal)    S(lipo)     H(rot)  DE(clash)    DE(int)     intcor
     15.64     -18.49       0.94        0.00     126.28       1.91       1.12       1.73       ----

> <Gold.Chemscore.Fitness>
15.6430

> <Gold.Chemscore.DG>
-18.4942

> <Gold.Chemscore.ZeroCoef>
-5.4800

> <Gold.Chemscore.Hbond>
0.9382

> <Gold.Chemscore.Metal>
0.0000

> <Gold.Chemscore.Lipo>
126.2768

> <Gold.Chemscore.Internal_Hbond>
0.0000

> <Gold.Chemscore.DEClash>
1.1173

> <Gold.Chemscore.DEInternal>
1.7340

> <Gold.Chemscore.Rot>
1.9116

> <Gold.Chemscore.Internal.Correction>
   9.000000E+99

> <Gold.Chemscore.Hbonds>
donor molecule, donor type, donor heavy atom, donor atom, acceptor molecule, acceptor atom, score
      L1  H     1    20       P1  8028  0.93

> <Gold.Chemscore.Hbond.Weighted>
-3.1336

> <Gold.Chemscore.Metal.Weighted>
-0.0000

> <Gold.Chemscore.Lipo.Weighted>
-14.7744

> <Gold.Chemscore.Internal_Hbond.Weighted>
0.0000

> <Gold.Chemscore.DEClash.Weighted>
1.1173

> <Gold.Chemscore.DEInternal.Weighted>
1.7340

> <Gold.Chemscore.Rot.Weighted>
4.8937

> <Gold.Chemscore.Internal.Correction.Weighted>
   9.000000E+99

> <Gold.Protein.RotatedTorsions>
[ 6907 6896 6895 6894 ] final  171.90 input  -60.11 | X-H torsion
[ 7974 7965 7964 7962 ] final  146.81 input  175.53 | X-H torsion
[ 8008 7997 7996 7995 ] final -175.98 input   59.86 | X-H torsion
[ 10167 10162 10161 10158 ] final  156.38 input  -65.29 | X-H torsion
[ 10718 10713 10712 10709 ] final   76.97 input   66.30 | X-H torsion
[ 10763 10752 10751 10750 ] final -172.84 input  -60.55 | X-H torsion
[ 11005 11000 10999 10996 ] final -120.37 input  -57.11 | X-H torsion

> <Gold.Protein.ActiveResidues>
 VAL166  LYS551  ARG553  GLY616  TRP617  ASP618  TYR619  PRO620  LYS621  CYS622 
 ASP623  PHE694  ASN695  SER759  ASP760  ASP761  ALA762  ILE779  LEU786  VAL792 
 PHE793  MET794  SER795  GLU796  ALA797  LYS798  CYS799  TRP800  GLU811  SER814 

> <Gold.Protein.RotatedAtoms>
  151.7929  133.3361  159.3504 H   0  0  0  0  0  0  0  0  0  0  0  0  # atno 6907 bound_to 6896
  150.7385  134.5825  159.5955 H   0  0  0  0  0  0  0  0  0  0  0  0  # atno 6908 bound_to 6896
  152.3197  134.7397  160.0368 H   0  0  0  0  0  0  0  0  0  0  0  0  # atno 6909 bound_to 6896
  144.8641  139.5951  143.5917 H   0  0  0  0  0  0  0  0  0  0  0  0  # atno 7974 bound_to 7965
  155.9893  140.1197  157.0653 H   0  0  0  0  0  0  0  0  0  0  0  0  # atno 8008 bound_to 7997
  154.4206  140.1129  156.5611 H   0  0  0  0  0  0  0  0  0  0  0  0  # atno 8009 bound_to 7997
  155.6365  140.3473  155.4702 H   0  0  0  0  0  0  0  0  0  0  0  0  # atno 8010 bound_to 7997
  139.4821  144.5014  151.8162 H   0  0  0  0  0  0  0  0  0  0  0  0  # atno 10167 bound_to 10162
  157.6693  130.9799  150.1573 H   0  0  0  0  0  0  0  0  0  0  0  0  # atno 10718 bound_to 10713
  154.6147  135.2868  155.0393 H   0  0  0  0  0  0  0  0  0  0  0  0  # atno 10763 bound_to 10752
  154.1609  135.6488  153.4989 H   0  0  0  0  0  0  0  0  0  0  0  0  # atno 10764 bound_to 10752
  153.0210  135.5378  154.6914 H   0  0  0  0  0  0  0  0  0  0  0  0  # atno 10765 bound_to 10752
  141.0148  134.0211  157.3364 H   0  0  0  0  0  0  0  0  0  0  0  0  # atno 11005 bound_to 11000
  146.2883  139.7065  142.9180 LP  0  0  0  0  0  0  0  0  0  0  0  0  # atno 17320 bound_to 7965
  145.4255  141.0410  143.2940 LP  0  0  0  0  0  0  0  0  0  0  0  0  # atno 17321 bound_to 7965
  140.4508  144.1858  150.5897 LP  0  0  0  0  0  0  0  0  0  0  0  0  # atno 17342 bound_to 10162
  140.4587  143.2457  151.9249 LP  0  0  0  0  0  0  0  0  0  0  0  0  # atno 17343 bound_to 10162
  156.2358  130.3686  149.8393 LP  0  0  0  0  0  0  0  0  0  0  0  0  # atno 17370 bound_to 10713
  156.6207  130.8625  151.3474 LP  0  0  0  0  0  0  0  0  0  0  0  0  # atno 17371 bound_to 10713
  139.9111  135.0190  156.7693 LP  0  0  0  0  0  0  0  0  0  0  0  0  # atno 17394 bound_to 11000
  140.6673  133.9591  155.7837 LP  0  0  0  0  0  0  0  0  0  0  0  0  # atno 17395 bound_to 11000

$$$$
