AV-unprocessed.smi:732|AV-procd|sdf|3528|dock1
  -GOLD-   22720 0523D 1   1.00000     0.00000
 Structure written by MMmdl.
 34 36  0  0  0  0  0  0  0  0  1 V2000
  147.2567  133.7940  162.4867 C   0  0  0  0  0  0  0  0  0  0  0  0
  147.5696  134.9922  161.6576 C   0  0  0  0  0  0  0  0  0  0  0  0
  147.9809  135.1462  160.3635 C   0  0  0  0  0  0  0  0  0  0  0  0
  148.0846  136.5561  160.2268 C   0  0  0  0  0  0  0  0  0  0  0  0
  148.4886  137.1396  158.9992 N   0  0  0  0  0  0  0  0  0  0  0  0
  149.7359  137.2369  158.5084 C   0  0  0  0  0  0  0  0  0  0  0  0
  150.7501  136.8061  159.0581 O   0  0  0  0  0  0  0  0  0  0  0  0
  149.7410  137.8685  157.3270 N   0  0  0  0  0  0  0  0  0  0  0  0
  150.8961  138.1313  156.5272 C   0  0  2  0  0  0  0  0  0  0  0  0
  151.3294  139.5697  156.3035 C   0  0  2  0  0  0  0  0  0  0  0  0
  150.5386  140.7859  156.7616 C   0  0  0  0  0  0  0  0  0  0  0  0
  150.1041  141.6460  155.5585 C   0  0  0  0  0  0  0  0  0  0  0  0
  149.4683  140.8411  154.3956 C   0  0  0  0  0  0  0  0  0  0  0  0
  149.3939  139.3212  154.6417 C   0  0  0  0  0  0  0  0  0  0  0  0
  150.7175  138.7869  155.1686 C   0  0  2  0  0  0  0  0  0  0  0  0
  147.7666  137.2041  161.3370 N   0  0  0  0  0  0  0  0  0  0  0  0
  147.4346  136.2050  162.2595 O   0  0  0  0  0  0  0  0  0  0  0  0
  147.5531  132.8781  161.9751 H   0  0  0  0  0  0  0  0  0  0  0  0
  146.1879  133.7359  162.6928 H   0  0  0  0  0  0  0  0  0  0  0  0
  147.7841  133.8342  163.4399 H   0  0  0  0  0  0  0  0  0  0  0  0
  148.1746  134.3730  159.6349 H   0  0  0  0  0  0  0  0  0  0  0  0
  147.7478  137.5293  158.4355 H   0  0  0  0  0  0  0  0  0  0  0  0
  148.8574  138.1875  156.9573 H   0  0  0  0  0  0  0  0  0  0  0  0
  151.7041  137.4036  156.5881 H   0  0  0  0  0  0  0  0  0  0  0  0
  152.3989  139.7502  156.2144 H   0  0  0  0  0  0  0  0  0  0  0  0
  149.6545  140.4709  157.3153 H   0  0  0  0  0  0  0  0  0  0  0  0
  151.1437  141.3699  157.4555 H   0  0  0  0  0  0  0  0  0  0  0  0
  149.4129  142.4190  155.8958 H   0  0  0  0  0  0  0  0  0  0  0  0
  150.9766  142.1776  155.1764 H   0  0  0  0  0  0  0  0  0  0  0  0
  148.4690  141.2228  154.1844 H   0  0  0  0  0  0  0  0  0  0  0  0
  150.0498  141.0204  153.4903 H   0  0  0  0  0  0  0  0  0  0  0  0
  148.5964  139.1132  155.3545 H   0  0  0  0  0  0  0  0  0  0  0  0
  149.1307  138.7935  153.7246 H   0  0  0  0  0  0  0  0  0  0  0  0
  151.4140  138.4915  154.3862 H   0  0  0  0  0  0  0  0  0  0  0  0
  1  2  1  0  0  0  0
  1 18  1  0  0  0  0
  1 19  1  0  0  0  0
  1 20  1  0  0  0  0
  2 17  1  0  0  0  0
  2  3  2  0  0  0  0
  3  4  1  0  0  0  0
  3 21  1  0  0  0  0
  4  5  1  0  0  0  0
  4 16  2  0  0  0  0
  5  6  1  0  0  0  0
  5 22  1  0  0  0  0
  6  7  2  0  0  0  0
  6  8  1  0  0  0  0
  8  9  1  0  0  0  0
  8 23  1  0  0  0  0
  9 15  1  0  0  0  0
  9 10  1  0  0  0  0
  9 24  1  0  0  0  0
 10 15  1  0  0  0  0
 10 11  1  0  0  0  0
 10 25  1  0  0  0  0
 11 12  1  0  0  0  0
 11 26  1  0  0  0  0
 11 27  1  0  0  0  0
 12 13  1  0  0  0  0
 12 28  1  0  0  0  0
 12 29  1  0  0  0  0
 13 14  1  0  0  0  0
 13 30  1  0  0  0  0
 13 31  1  0  0  0  0
 14 15  1  0  0  0  0
 14 32  1  0  0  0  0
 14 33  1  0  0  0  0
 15 34  1  0  0  0  0
 16 17  1  0  0  0  0
M  END
> <s_m_source_file>
AV-unprocessed.smi

> <i_m_source_file_index>
732

> <i_lp_mmshare_version>
43012

> <i_f3d_flags>
0

> <s_epik_input>
W0NIM11jMVtjSF1jKG5vMSlbTkhdQyg9TylbTkhdW0NASF0yW0NAQEhdKFtDQEBIXTIzKVtDSDJdW0NIMl1bQ0gyXVtDSDJdMw==

> <s_epik_cmdline>
J2VwaWtfcHl0aG9uJywgJy1waCcsICc3LjAnLCAnLXRuJywgJzgnLCAnLW1hJywgJzIwMCcsICctbWV0YWxfYmluZGluZycsICctaW1hZScsICc8aW5maWxlLm1hZT4nLCAnLW9tYWUnLCAnPG91dGZpbGUubWFlPic=

> <r_lp_tautomer_probability>
1

> <r_epik_Ionization_Penalty>
2.39506e-05

> <r_epik_Ionization_Penalty_Charging>
0

> <r_epik_Ionization_Penalty_Neutral>
2.39506e-05

> <r_epik_State_Penalty>
-0

> <r_epik_Charging_Adjusted_Penalty>
0

> <i_epik_Tot_Q>
0

> <i_epik_Tot_abs_Q>
0

> <r_epik_Metal_State_Penalty>
-0

> <b_epik_Metal_Only>
0

> <s_lp_Force_Field>
OPLS_2005

> <r_lp_Energy>
36.3442

> <b_lp_Chiralities_Consistent>
1

> <s_lp_Variant>
AV-unprocessed.smi:732-2

> <Gold.Version>
5.8.1

> <Gold.Id.Protein>
6NUR|6NUR_protein|mol2

> <Gold.PLP.Fitness>
36.1048

> <Gold.PLP.PLP>
-29.3348

> <Gold.PLP.part.hbond>
-3.0000

> <Gold.PLP.part.metal>
0.0000

> <Gold.PLP.part.buried>
-2.9114

> <Gold.PLP.part.nonpolar>
-23.2743

> <Gold.PLP.part.repulsive>
0.1943

> <Gold.PLP.ligand.clash>
0.0000

> <Gold.PLP.ligand.torsion>
0.7406

> <Gold.PLP.Chemscore.Hbond>
2.7360

> <Gold.PLP.Chemscore.CHOScore>
0.0000

> <Gold.PLP.Chemscore.Metal>
0.0000

> <Gold.Chemscore.Hbonds>
donor molecule, donor type, donor heavy atom, donor atom, acceptor molecule, acceptor atom, score
      P1  H  6896  6909       L1     7  1.00
      P1  H  6931  6943       L1    16  0.99
      P1  H  6934  6947       L1    16  0.78

> <Gold.PLP.Chemscore.Internal.Correction>
0.0432

> <Gold.Rescore>
     Score         DG    S(hbond)    S(metal)    S(lipo)     H(rot)  DE(clash)    DE(int)     intcor
     17.38     -18.32       2.31        0.00      65.59       1.00       0.20       0.75       ----

> <Gold.Chemscore.Fitness>
17.3812

> <Gold.Chemscore.DG>
-18.3237

> <Gold.Chemscore.ZeroCoef>
-5.4800

> <Gold.Chemscore.Hbond>
2.3141

> <Gold.Chemscore.Metal>
0.0000

> <Gold.Chemscore.Lipo>
65.5938

> <Gold.Chemscore.Internal_Hbond>
0.0000

> <Gold.Chemscore.DEClash>
0.1961

> <Gold.Chemscore.DEInternal>
0.7464

> <Gold.Chemscore.Rot>
1.0000

> <Gold.Chemscore.Internal.Correction>
   9.000000E+99

> <Gold.Chemscore.Hbonds>
donor molecule, donor type, donor heavy atom, donor atom, acceptor molecule, acceptor atom, score
      P1  H  6896  6909       L1     7  0.95
      P1  H  6931  6943       L1    16  0.69
      P1  H  6934  6947       L1    16  0.60

> <Gold.Chemscore.Hbond.Weighted>
-7.7292

> <Gold.Chemscore.Metal.Weighted>
-0.0000

> <Gold.Chemscore.Lipo.Weighted>
-7.6745

> <Gold.Chemscore.Internal_Hbond.Weighted>
0.0000

> <Gold.Chemscore.DEClash.Weighted>
0.1961

> <Gold.Chemscore.DEInternal.Weighted>
0.7464

> <Gold.Chemscore.Rot.Weighted>
2.5600

> <Gold.Chemscore.Internal.Correction.Weighted>
   9.000000E+99

> <Gold.Protein.RotatedTorsions>
[ 6907 6896 6895 6894 ] final   81.85 input  -60.11 | X-H torsion
[ 7974 7965 7964 7962 ] final  -25.82 input  175.53 | X-H torsion
[ 8008 7997 7996 7995 ] final  127.75 input   59.86 | X-H torsion
[ 10167 10162 10161 10158 ] final   43.80 input  -65.29 | X-H torsion
[ 10718 10713 10712 10709 ] final  -46.38 input   66.30 | X-H torsion
[ 10763 10752 10751 10750 ] final -118.63 input  -60.55 | X-H torsion
[ 11005 11000 10999 10996 ] final   98.60 input  -57.11 | X-H torsion

> <Gold.Protein.ActiveResidues>
 VAL166  LYS551  ARG553  GLY616  TRP617  ASP618  TYR619  PRO620  LYS621  CYS622 
 ASP623  PHE694  ASN695  SER759  ASP760  ASP761  ALA762  ILE779  LEU786  VAL792 
 PHE793  MET794  SER795  GLU796  ALA797  LYS798  CYS799  TRP800  GLU811  SER814 

> <Gold.Protein.RotatedAtoms>
  152.5281  134.3140  159.9123 H   0  0  0  0  0  0  0  0  0  0  0  0  # atno 6907 bound_to 6896
  151.3090  133.4082  159.2653 H   0  0  0  0  0  0  0  0  0  0  0  0  # atno 6908 bound_to 6896
  151.0055  134.9372  159.8035 H   0  0  0  0  0  0  0  0  0  0  0  0  # atno 6909 bound_to 6896
  146.1466  140.4937  142.8629 H   0  0  0  0  0  0  0  0  0  0  0  0  # atno 7974 bound_to 7965
  156.2898  140.2661  156.2323 H   0  0  0  0  0  0  0  0  0  0  0  0  # atno 8008 bound_to 7997
  155.0060  140.0387  157.2398 H   0  0  0  0  0  0  0  0  0  0  0  0  # atno 8009 bound_to 7997
  154.7560  140.2752  155.6258 H   0  0  0  0  0  0  0  0  0  0  0  0  # atno 8010 bound_to 7997
  140.3407  144.2474  150.6156 H   0  0  0  0  0  0  0  0  0  0  0  0  # atno 10167 bound_to 10162
  156.2189  130.4165  149.9018 H   0  0  0  0  0  0  0  0  0  0  0  0  # atno 10718 bound_to 10713
  154.8593  135.4267  154.2169 H   0  0  0  0  0  0  0  0  0  0  0  0  # atno 10763 bound_to 10752
  153.3182  135.6980  153.7060 H   0  0  0  0  0  0  0  0  0  0  0  0  # atno 10764 bound_to 10752
  153.6125  135.3517  155.2957 H   0  0  0  0  0  0  0  0  0  0  0  0  # atno 10765 bound_to 10752
  139.8772  134.9057  156.4481 H   0  0  0  0  0  0  0  0  0  0  0  0  # atno 11005 bound_to 11000
  144.7854  140.5925  143.6577 LP  0  0  0  0  0  0  0  0  0  0  0  0  # atno 17320 bound_to 7965
  145.4923  139.1488  143.3703 LP  0  0  0  0  0  0  0  0  0  0  0  0  # atno 17321 bound_to 7965
  140.5312  143.2243  151.8236 LP  0  0  0  0  0  0  0  0  0  0  0  0  # atno 17342 bound_to 10162
  139.4841  144.4718  151.9415 LP  0  0  0  0  0  0  0  0  0  0  0  0  # atno 17343 bound_to 10162
  156.6671  130.8805  151.3556 LP  0  0  0  0  0  0  0  0  0  0  0  0  # atno 17370 bound_to 10713
  157.7077  130.9404  150.0986 LP  0  0  0  0  0  0  0  0  0  0  0  0  # atno 17371 bound_to 10713
  140.8952  133.7819  155.9616 LP  0  0  0  0  0  0  0  0  0  0  0  0  # atno 17394 bound_to 11000
  140.8711  134.2725  157.5190 LP  0  0  0  0  0  0  0  0  0  0  0  0  # atno 17395 bound_to 11000

$$$$
