AV-unprocessed.smi:826|AV-procd|sdf|3852|dock1
  -GOLD-   22720 1303D 1   1.00000     0.00000
 Structure written by MMmdl.
 39 40  0  0  0  0  0  0  0  0  1 V2000
  150.8269  130.4435  154.9305 C   0  0  0  0  0  0  0  0  0  0  0  0
  150.6228  131.9187  154.9876 C   0  0  0  0  0  0  0  0  0  0  0  0
  151.1156  132.6762  155.9748 N   0  0  0  0  0  0  0  0  0  0  0  0
  150.7958  134.0178  155.8182 N   0  0  0  0  0  0  0  0  0  0  0  0
  150.0694  134.2329  154.7129 C   0  0  0  0  0  0  0  0  0  0  0  0
  149.5993  135.5115  154.3132 N   0  0  0  0  0  0  0  0  0  0  0  0
  149.4337  136.6121  155.0675 C   0  0  0  0  0  0  0  0  0  0  0  0
  149.6983  136.7014  156.2670 O   0  0  0  0  0  0  0  0  0  0  0  0
  148.9375  137.6264  154.3431 N   0  0  0  0  0  0  0  0  0  0  0  0
  148.6591  138.9678  154.8533 C   0  0  2  0  0  0  0  0  0  0  0  0
  147.8122  139.7101  153.8059 C   0  0  0  0  0  0  0  0  0  0  0  0
  149.9692  139.7461  155.0507 C   0  0  0  0  0  0  0  0  0  0  0  0
  150.7699  139.8709  154.1224 O   0  0  0  0  0  0  0  0  0  0  0  0
  150.1679  140.2720  156.2687 N   0  0  0  0  0  0  0  0  0  0  0  0
  151.3471  141.0336  156.6696 C   0  0  0  0  0  0  0  0  0  0  0  0
  152.0690  140.3807  157.8675 C   0  0  0  0  0  0  0  0  0  0  0  0
  152.2767  141.4937  158.8963 C   0  0  0  0  0  0  0  0  0  0  0  0
  151.1166  142.4531  158.6512 C   0  0  0  0  0  0  0  0  0  0  0  0
  150.9469  142.4465  157.1320 C   0  0  0  0  0  0  0  0  0  0  0  0
  149.7178  132.7997  153.7625 S   0  0  0  0  0  0  0  0  0  0  0  0
  150.5910  129.9933  155.8950 H   0  0  0  0  0  0  0  0  0  0  0  0
  151.8643  130.2196  154.6815 H   0  0  0  0  0  0  0  0  0  0  0  0
  150.1812  129.9994  154.1726 H   0  0  0  0  0  0  0  0  0  0  0  0
  149.3473  135.5946  153.3396 H   0  0  0  0  0  0  0  0  0  0  0  0
  148.7575  137.4688  153.3625 H   0  0  0  0  0  0  0  0  0  0  0  0
  148.1070  138.9050  155.7933 H   0  0  0  0  0  0  0  0  0  0  0  0
  147.5757  140.7232  154.1336 H   0  0  0  0  0  0  0  0  0  0  0  0
  146.8654  139.1960  153.6373 H   0  0  0  0  0  0  0  0  0  0  0  0
  148.3236  139.7816  152.8444 H   0  0  0  0  0  0  0  0  0  0  0  0
  149.4606  140.1195  156.9731 H   0  0  0  0  0  0  0  0  0  0  0  0
  152.0260  141.1201  155.8191 H   0  0  0  0  0  0  0  0  0  0  0  0
  151.4500  139.5992  158.3117 H   0  0  0  0  0  0  0  0  0  0  0  0
  153.0108  139.9154  157.5753 H   0  0  0  0  0  0  0  0  0  0  0  0
  152.3049  141.1196  159.9198 H   0  0  0  0  0  0  0  0  0  0  0  0
  153.2213  142.0033  158.7009 H   0  0  0  0  0  0  0  0  0  0  0  0
  150.2131  142.0668  159.1251 H   0  0  0  0  0  0  0  0  0  0  0  0
  151.3033  143.4510  159.0493 H   0  0  0  0  0  0  0  0  0  0  0  0
  151.6322  143.1738  156.6947 H   0  0  0  0  0  0  0  0  0  0  0  0
  149.9398  142.7354  156.8283 H   0  0  0  0  0  0  0  0  0  0  0  0
  1  2  1  0  0  0  0
  1 21  1  0  0  0  0
  1 22  1  0  0  0  0
  1 23  1  0  0  0  0
  2 20  1  0  0  0  0
  2  3  2  0  0  0  0
  3  4  1  0  0  0  0
  4  5  2  0  0  0  0
  5  6  1  0  0  0  0
  5 20  1  0  0  0  0
  6  7  1  0  0  0  0
  6 24  1  0  0  0  0
  7  8  2  0  0  0  0
  7  9  1  0  0  0  0
  9 10  1  0  0  0  0
  9 25  1  0  0  0  0
 10 11  1  0  0  0  0
 10 12  1  0  0  0  0
 10 26  1  0  0  0  0
 11 27  1  0  0  0  0
 11 28  1  0  0  0  0
 11 29  1  0  0  0  0
 12 13  2  0  0  0  0
 12 14  1  0  0  0  0
 14 15  1  0  0  0  0
 14 30  1  0  0  0  0
 15 19  1  0  0  0  0
 15 16  1  0  0  0  0
 15 31  1  0  0  0  0
 16 17  1  0  0  0  0
 16 32  1  0  0  0  0
 16 33  1  0  0  0  0
 17 18  1  0  0  0  0
 17 34  1  0  0  0  0
 17 35  1  0  0  0  0
 18 19  1  0  0  0  0
 18 36  1  0  0  0  0
 18 37  1  0  0  0  0
 19 38  1  0  0  0  0
 19 39  1  0  0  0  0
M  END
> <s_m_source_file>
AV-unprocessed.smi

> <i_m_source_file_index>
826

> <i_lp_mmshare_version>
43012

> <i_f3d_flags>
0

> <s_epik_input>
W0NIM11jMW5uYyhzMSlbTkhdQyg9TylbTkhdW0NASF0oW0NIM10pQyg9TylbTkhdW0NIXTJbQ0gyXVtDSDJdW0NIMl1bQ0gyXTI=

> <s_epik_cmdline>
J2VwaWtfcHl0aG9uJywgJy1waCcsICc3LjAnLCAnLXRuJywgJzgnLCAnLW1hJywgJzIwMCcsICctbWV0YWxfYmluZGluZycsICctaW1hZScsICc8aW5maWxlLm1hZT4nLCAnLW9tYWUnLCAnPG91dGZpbGUubWFlPic=

> <r_lp_tautomer_probability>
1

> <r_epik_Ionization_Penalty>
0.00368568

> <r_epik_Ionization_Penalty_Charging>
0

> <r_epik_Ionization_Penalty_Neutral>
0.00368568

> <r_epik_State_Penalty>
-0

> <r_epik_Charging_Adjusted_Penalty>
0

> <i_epik_Tot_Q>
0

> <i_epik_Tot_abs_Q>
0

> <r_epik_Metal_State_Penalty>
0.369753

> <b_epik_Metal_Only>
0

> <s_lp_Force_Field>
OPLS_2005

> <r_lp_Energy>
15.7146

> <b_lp_Chiralities_Consistent>
1

> <s_lp_Variant>
AV-unprocessed.smi:826-1

> <Gold.Version>
5.8.1

> <Gold.Id.Protein>
6NUR|6NUR_protein|mol2

> <Gold.PLP.Fitness>
37.1201

> <Gold.PLP.PLP>
-28.9812

> <Gold.PLP.part.hbond>
-2.9595

> <Gold.PLP.part.metal>
0.0000

> <Gold.PLP.part.buried>
-3.3170

> <Gold.PLP.part.nonpolar>
-22.2512

> <Gold.PLP.part.repulsive>
0.2590

> <Gold.PLP.ligand.clash>
0.0000

> <Gold.PLP.ligand.torsion>
0.3100

> <Gold.PLP.Chemscore.Hbond>
2.9120

> <Gold.PLP.Chemscore.CHOScore>
0.0000

> <Gold.PLP.Chemscore.Metal>
0.0000

> <Gold.Chemscore.Hbonds>
donor molecule, donor type, donor heavy atom, donor atom, acceptor molecule, acceptor atom, score
      L1  H     6    24       P1  7948  1.00
      L1  H     9    25       P1  7948  0.91
      P1  H  7989  7998       L1    13  0.81

> <Gold.PLP.Chemscore.Internal.Correction>
0.0229

> <Gold.Rescore>
     Score         DG    S(hbond)    S(metal)    S(lipo)     H(rot)  DE(clash)    DE(int)     intcor
     15.74     -17.50       2.72        0.00      60.97       1.65       0.11       1.65       ----

> <Gold.Chemscore.Fitness>
15.7382

> <Gold.Chemscore.DG>
-17.4962

> <Gold.Chemscore.ZeroCoef>
-5.4800

> <Gold.Chemscore.Hbond>
2.7235

> <Gold.Chemscore.Metal>
0.0000

> <Gold.Chemscore.Lipo>
60.9651

> <Gold.Chemscore.Internal_Hbond>
0.0000

> <Gold.Chemscore.DEClash>
0.1075

> <Gold.Chemscore.DEInternal>
1.6505

> <Gold.Chemscore.Rot>
1.6458

> <Gold.Chemscore.Internal.Correction>
   9.000000E+99

> <Gold.Chemscore.Hbonds>
donor molecule, donor type, donor heavy atom, donor atom, acceptor molecule, acceptor atom, score
      L1  H     6    24       P1  7948  0.25
      L1  H     9    25       P1  7948  0.89
      P1  H  7989  7998       L1    13  0.80

> <Gold.Chemscore.Hbond.Weighted>
-9.0965

> <Gold.Chemscore.Metal.Weighted>
-0.0000

> <Gold.Chemscore.Lipo.Weighted>
-7.1329

> <Gold.Chemscore.Internal_Hbond.Weighted>
0.0000

> <Gold.Chemscore.DEClash.Weighted>
0.1075

> <Gold.Chemscore.DEInternal.Weighted>
1.6505

> <Gold.Chemscore.Rot.Weighted>
4.2133

> <Gold.Chemscore.Internal.Correction.Weighted>
   9.000000E+99

> <Gold.Protein.RotatedTorsions>
[ 6907 6896 6895 6894 ] final   61.05 input  -60.11 | X-H torsion
[ 7974 7965 7964 7962 ] final  -52.40 input  175.53 | X-H torsion
[ 8008 7997 7996 7995 ] final -176.87 input   59.86 | X-H torsion
[ 10167 10162 10161 10158 ] final   35.22 input  -65.29 | X-H torsion
[ 10718 10713 10712 10709 ] final   32.60 input   66.30 | X-H torsion
[ 10763 10752 10751 10750 ] final  151.48 input  -60.55 | X-H torsion
[ 11005 11000 10999 10996 ] final   31.52 input  -57.11 | X-H torsion

> <Gold.Protein.ActiveResidues>
 VAL166  LYS551  ARG553  GLY616  TRP617  ASP618  TYR619  PRO620  LYS621  CYS622 
 ASP623  PHE694  ASN695  SER759  ASP760  ASP761  ALA762  ILE779  LEU786  VAL792 
 PHE793  MET794  SER795  GLU796  ALA797  LYS798  CYS799  TRP800  GLU811  SER814 

> <Gold.Protein.RotatedAtoms>
  152.4055  134.6213  160.0051 H   0  0  0  0  0  0  0  0  0  0  0  0  # atno 6907 bound_to 6896
  151.6406  133.3320  159.3137 H   0  0  0  0  0  0  0  0  0  0  0  0  # atno 6908 bound_to 6896
  150.7951  134.7046  159.6614 H   0  0  0  0  0  0  0  0  0  0  0  0  # atno 6909 bound_to 6896
  145.9084  140.7936  142.9708 H   0  0  0  0  0  0  0  0  0  0  0  0  # atno 7974 bound_to 7965
  156.0001  140.1219  157.0555 H   0  0  0  0  0  0  0  0  0  0  0  0  # atno 8008 bound_to 7997
  154.4239  140.1108  156.5754 H   0  0  0  0  0  0  0  0  0  0  0  0  # atno 8009 bound_to 7997
  155.6224  140.3472  155.4658 H   0  0  0  0  0  0  0  0  0  0  0  0  # atno 8010 bound_to 7997
  140.4242  144.1417  150.6151 H   0  0  0  0  0  0  0  0  0  0  0  0  # atno 10167 bound_to 10162
  157.2873  130.7285  149.6590 H   0  0  0  0  0  0  0  0  0  0  0  0  # atno 10718 bound_to 10713
  154.1044  135.2843  155.3244 H   0  0  0  0  0  0  0  0  0  0  0  0  # atno 10763 bound_to 10752
  154.6533  135.5361  153.7931 H   0  0  0  0  0  0  0  0  0  0  0  0  # atno 10764 bound_to 10752
  153.0367  135.6515  154.1206 H   0  0  0  0  0  0  0  0  0  0  0  0  # atno 10765 bound_to 10752
  140.2830  134.2951  155.7795 H   0  0  0  0  0  0  0  0  0  0  0  0  # atno 11005 bound_to 11000
  144.6741  140.1787  143.7408 LP  0  0  0  0  0  0  0  0  0  0  0  0  # atno 17320 bound_to 7965
  145.8703  139.2268  143.1665 LP  0  0  0  0  0  0  0  0  0  0  0  0  # atno 17321 bound_to 7965
  140.4500  143.2491  151.9361 LP  0  0  0  0  0  0  0  0  0  0  0  0  # atno 17342 bound_to 10162
  139.4783  144.5572  151.8296 LP  0  0  0  0  0  0  0  0  0  0  0  0  # atno 17343 bound_to 10162
  155.9666  130.4319  150.4943 LP  0  0  0  0  0  0  0  0  0  0  0  0  # atno 17370 bound_to 10713
  157.2898  131.0624  151.2141 LP  0  0  0  0  0  0  0  0  0  0  0  0  # atno 17371 bound_to 10713
  141.2159  133.7537  156.9509 LP  0  0  0  0  0  0  0  0  0  0  0  0  # atno 17394 bound_to 11000
  140.1266  134.9383  157.2278 LP  0  0  0  0  0  0  0  0  0  0  0  0  # atno 17395 bound_to 11000

$$$$
