AV-unprocessed.smi:1965|AV-procd|sdf|7945|dock2
  -GOLD-   2272010113D 1   1.00000     0.00000
 Structure written by MMmdl.
 36 38  0  0  0  0  0  0  0  0  3 V2000
  142.9924  136.5806  153.9797 O   0  0  0  0  0  0  0  0  0  0  0  0
  142.8894  137.3940  153.0622 C   0  0  0  0  0  0  0  0  0  0  0  0
  141.7345  138.0438  152.7630 N   0  5  0  0  0  0  0  0  0  0  0  0
  140.5672  137.7633  153.3715 C   0  0  0  0  0  0  0  0  0  0  0  0
  140.4017  136.7237  154.1974 N   0  0  0  0  0  0  0  0  0  0  0  0
  139.1072  136.6235  154.7108 C   0  0  0  0  0  0  0  0  0  0  0  0
  138.2683  137.6112  154.2671 C   0  0  0  0  0  0  0  0  0  0  0  0
  139.0853  138.7060  153.1887 S   0  0  0  0  0  0  0  0  0  0  0  0
  143.9710  137.6616  152.3074 N   0  0  0  0  0  0  0  0  0  0  0  0
  145.3021  137.0962  152.4857 C   0  0  1  0  0  0  0  0  0  0  0  0
  145.8557  137.2142  153.9190 C   0  0  0  0  0  0  0  0  0  0  0  0
  146.6143  135.8961  154.1712 C   0  0  0  0  0  0  0  0  0  0  0  0
  146.5393  135.1524  152.8987 N   0  3  1  0  0  0  0  0  0  0  0  0
  146.6652  133.6800  152.9672 C   0  0  0  0  0  0  0  0  0  0  0  0
  146.6331  133.0985  151.5388 C   0  0  0  0  0  0  0  0  0  0  0  0
  145.3946  133.5758  150.7524 C   0  0  0  0  0  0  0  0  0  0  0  0
  145.2698  135.1112  150.7917 C   0  0  0  0  0  0  0  0  0  0  0  0
  145.2933  135.5881  152.2525 C   0  0  2  0  0  0  0  0  0  0  0  0
  138.8699  135.8162  155.3877 H   0  0  0  0  0  0  0  0  0  0  0  0
  137.2275  137.7641  154.5097 H   0  0  0  0  0  0  0  0  0  0  0  0
  143.8543  138.3258  151.5560 H   0  0  0  0  0  0  0  0  0  0  0  0
  145.9986  137.5647  151.7872 H   0  0  0  0  0  0  0  0  0  0  0  0
  146.5055  138.0844  154.0184 H   0  0  0  0  0  0  0  0  0  0  0  0
  145.0506  137.3219  154.6477 H   0  0  0  0  0  0  0  0  0  0  0  0
  147.6524  136.0623  154.4601 H   0  0  0  0  0  0  0  0  0  0  0  0
  146.1267  135.3312  154.9674 H   0  0  0  0  0  0  0  0  0  0  0  0
  147.6002  133.4151  153.4615 H   0  0  0  0  0  0  0  0  0  0  0  0
  145.8534  133.2654  153.5667 H   0  0  0  0  0  0  0  0  0  0  0  0
  147.5347  133.4034  151.0059 H   0  0  0  0  0  0  0  0  0  0  0  0
  146.6534  132.0091  151.5784 H   0  0  0  0  0  0  0  0  0  0  0  0
  145.4481  133.2295  149.7197 H   0  0  0  0  0  0  0  0  0  0  0  0
  144.4975  133.1280  151.1820 H   0  0  0  0  0  0  0  0  0  0  0  0
  146.0900  135.5652  150.2339 H   0  0  0  0  0  0  0  0  0  0  0  0
  144.3460  135.4267  150.3055 H   0  0  0  0  0  0  0  0  0  0  0  0
  144.4506  135.1474  152.7911 H   0  0  0  0  0  0  0  0  0  0  0  0
  147.2934  135.4956  152.3211 H   0  0  0  0  0  0  0  0  0  0  0  0
  1  2  2  0  0  0  0
  2  3  1  0  0  0  0
  2  9  1  0  0  0  0
  3  4  1  0  0  0  0
  4  8  1  0  0  0  0
  4  5  2  0  0  0  0
  5  6  1  0  0  0  0
  6  7  2  0  0  0  0
  6 19  1  0  0  0  0
  7  8  1  0  0  0  0
  7 20  1  0  0  0  0
  9 10  1  0  0  0  0
  9 21  1  0  0  0  0
 10 18  1  0  0  0  0
 10 11  1  0  0  0  0
 10 22  1  0  0  0  0
 11 12  1  0  0  0  0
 11 23  1  0  0  0  0
 11 24  1  0  0  0  0
 12 13  1  0  0  0  0
 12 25  1  0  0  0  0
 12 26  1  0  0  0  0
 13 18  1  0  0  0  0
 13 14  1  0  0  0  0
 13 36  1  0  0  0  0
 14 15  1  0  0  0  0
 14 27  1  0  0  0  0
 14 28  1  0  0  0  0
 15 16  1  0  0  0  0
 15 29  1  0  0  0  0
 15 30  1  0  0  0  0
 16 17  1  0  0  0  0
 16 31  1  0  0  0  0
 16 32  1  0  0  0  0
 17 18  1  0  0  0  0
 17 33  1  0  0  0  0
 17 34  1  0  0  0  0
 18 35  1  0  0  0  0
M  CHG  1   3  -1
M  CHG  1  13   1
M  END
> <s_m_source_file>
AV-unprocessed.smi

> <i_m_source_file_index>
1965

> <i_lp_mmshare_version>
43012

> <i_f3d_flags>
0

> <s_epik_input>
czFbY0hdW2NIXW5jMVtOSF1DKD1PKVtOSF1bQ0BIXShbQ0gyXVtDSDJdMilbQ0BASF0oTjIzKVtDSDJdW0NIMl1bQ0gyXVtDSDJdMw==

> <s_epik_cmdline>
J2VwaWtfcHl0aG9uJywgJy1waCcsICc3LjAnLCAnLXRuJywgJzgnLCAnLW1hJywgJzIwMCcsICctbWV0YWxfYmluZGluZycsICctaW1hZScsICc8aW5maWxlLm1hZT4nLCAnLW9tYWUnLCAnPG91dGZpbGUubWFlPic=

> <r_lp_tautomer_probability>
1

> <r_epik_Ionization_Penalty>
7.4116

> <r_epik_Ionization_Penalty_Charging>
6.13869

> <r_epik_Ionization_Penalty_Neutral>
1.27291

> <r_epik_State_Penalty>
6.13761

> <r_epik_Charging_Adjusted_Penalty>
12.2763

> <i_epik_Tot_Q>
0

> <i_epik_Tot_abs_Q>
2

> <r_epik_Metal_State_Penalty>
2.08142

> <b_epik_Metal_Only>
1

> <s_lp_Force_Field>
OPLS_2005

> <r_lp_Energy>
26.2693

> <b_lp_Chiralities_Consistent>
1

> <s_lp_Variant>
AV-unprocessed.smi:1965-14

> <Gold.Version>
5.8.1

> <Gold.Id.Protein>
6NUR|6NUR_protein|mol2

> <Gold.PLP.Fitness>
39.4855

> <Gold.PLP.PLP>
-27.8045

> <Gold.PLP.part.hbond>
-3.0000

> <Gold.PLP.part.metal>
0.0000

> <Gold.PLP.part.buried>
-3.6132

> <Gold.PLP.part.nonpolar>
-22.4197

> <Gold.PLP.part.repulsive>
0.9404

> <Gold.PLP.ligand.clash>
0.0000

> <Gold.PLP.ligand.torsion>
0.0715

> <Gold.PLP.Chemscore.Hbond>
2.9600

> <Gold.PLP.Chemscore.CHOScore>
0.9744

> <Gold.PLP.Chemscore.Metal>
0.0000

> <Gold.Chemscore.Hbonds>
donor molecule, donor type, donor heavy atom, donor atom, acceptor molecule, acceptor atom, score
      L1  H     9    21       P1 10171  0.94
      L1  H    13    36       P1  7948  2.00
      L1  C     6    19       P1 11000  0.99

> <Gold.PLP.Chemscore.Internal.Correction>
0.0208

> <Gold.Rescore>
     Score         DG    S(hbond)    S(metal)    S(lipo)     H(rot)  DE(clash)    DE(int)     intcor
     13.35     -16.78       2.00        0.00      61.39       1.00       0.39       3.04       ----

> <Gold.Chemscore.Fitness>
13.3463

> <Gold.Chemscore.DG>
-16.7772

> <Gold.Chemscore.ZeroCoef>
-5.4800

> <Gold.Chemscore.Hbond>
1.9984

> <Gold.Chemscore.Metal>
0.0000

> <Gold.Chemscore.Lipo>
61.3890

> <Gold.Chemscore.Internal_Hbond>
0.0000

> <Gold.Chemscore.DEClash>
0.3866

> <Gold.Chemscore.DEInternal>
3.0443

> <Gold.Chemscore.Rot>
1.0000

> <Gold.Chemscore.Internal.Correction>
   9.000000E+99

> <Gold.Chemscore.Hbonds>
donor molecule, donor type, donor heavy atom, donor atom, acceptor molecule, acceptor atom, score
      L1  H     9    21       P1 10171  0.89
      L1  H    13    36       P1  7948  1.00

> <Gold.Chemscore.Hbond.Weighted>
-6.6747

> <Gold.Chemscore.Metal.Weighted>
-0.0000

> <Gold.Chemscore.Lipo.Weighted>
-7.1825

> <Gold.Chemscore.Internal_Hbond.Weighted>
0.0000

> <Gold.Chemscore.DEClash.Weighted>
0.3866

> <Gold.Chemscore.DEInternal.Weighted>
3.0443

> <Gold.Chemscore.Rot.Weighted>
2.5600

> <Gold.Chemscore.Internal.Correction.Weighted>
   9.000000E+99

> <Gold.Protein.RotatedTorsions>
[ 6907 6896 6895 6894 ] final  -48.17 input  -60.11 | X-H torsion
[ 7974 7965 7964 7962 ] final  -29.93 input  175.53 | X-H torsion
[ 8008 7997 7996 7995 ] final -126.30 input   59.86 | X-H torsion
[ 10167 10162 10161 10158 ] final   75.83 input  -65.29 | X-H torsion
[ 10718 10713 10712 10709 ] final  -46.06 input   66.30 | X-H torsion
[ 10763 10752 10751 10750 ] final -151.80 input  -60.55 | X-H torsion
[ 11005 11000 10999 10996 ] final -170.91 input  -57.11 | X-H torsion

> <Gold.Protein.ActiveResidues>
 VAL166  LYS551  ARG553  GLY616  TRP617  ASP618  TYR619  PRO620  LYS621  CYS622 
 ASP623  PHE694  ASN695  SER759  ASP760  ASP761  ALA762  ILE779  LEU786  VAL792 
 PHE793  MET794  SER795  GLU796  ALA797  LYS798  CYS799  TRP800  GLU811  SER814 

> <Gold.Protein.RotatedAtoms>
  150.8933  134.8339  159.7308 H   0  0  0  0  0  0  0  0  0  0  0  0  # atno 6907 bound_to 6896
  152.4850  134.4615  159.9616 H   0  0  0  0  0  0  0  0  0  0  0  0  # atno 6908 bound_to 6896
  151.4675  133.3538  159.2853 H   0  0  0  0  0  0  0  0  0  0  0  0  # atno 6909 bound_to 6896
  146.1180  140.5476  142.8748 H   0  0  0  0  0  0  0  0  0  0  0  0  # atno 7974 bound_to 7965
  155.2275  140.0424  157.2957 H   0  0  0  0  0  0  0  0  0  0  0  0  # atno 8008 bound_to 7997
  154.5910  140.2426  155.7892 H   0  0  0  0  0  0  0  0  0  0  0  0  # atno 8009 bound_to 7997
  156.2259  140.2955  156.0074 H   0  0  0  0  0  0  0  0  0  0  0  0  # atno 8010 bound_to 7997
  139.9988  144.5702  150.7755 H   0  0  0  0  0  0  0  0  0  0  0  0  # atno 10167 bound_to 10162
  156.2220  130.4167  149.8981 H   0  0  0  0  0  0  0  0  0  0  0  0  # atno 10718 bound_to 10713
  154.8035  135.3251  154.7491 H   0  0  0  0  0  0  0  0  0  0  0  0  # atno 10763 bound_to 10752
  153.8154  135.6892  153.4839 H   0  0  0  0  0  0  0  0  0  0  0  0  # atno 10764 bound_to 10752
  153.1766  135.4603  154.9917 H   0  0  0  0  0  0  0  0  0  0  0  0  # atno 10765 bound_to 10752
  140.5142  134.5773  157.5028 H   0  0  0  0  0  0  0  0  0  0  0  0  # atno 11005 bound_to 11000
  144.7571  140.5333  143.6761 LP  0  0  0  0  0  0  0  0  0  0  0  0  # atno 17320 bound_to 7965
  145.5526  139.1477  143.3386 LP  0  0  0  0  0  0  0  0  0  0  0  0  # atno 17321 bound_to 7965
  140.7427  143.2835  151.3529 LP  0  0  0  0  0  0  0  0  0  0  0  0  # atno 17342 bound_to 10162
  139.6287  144.0764  152.2457 LP  0  0  0  0  0  0  0  0  0  0  0  0  # atno 17343 bound_to 10162
  156.6624  130.8787  151.3549 LP  0  0  0  0  0  0  0  0  0  0  0  0  # atno 17370 bound_to 10713
  157.7092  130.9420  150.1032 LP  0  0  0  0  0  0  0  0  0  0  0  0  # atno 17371 bound_to 10713
  139.9642  134.7401  156.0173 LP  0  0  0  0  0  0  0  0  0  0  0  0  # atno 17394 bound_to 11000
  141.1369  133.6573  156.3620 LP  0  0  0  0  0  0  0  0  0  0  0  0  # atno 17395 bound_to 11000

$$$$
