AV-unprocessed.smi:77|AV-procd|sdf|772|dock4
  -GOLD-   2262017123D 1   1.00000     0.00000
 Structure written by MMmdl.
 57 61  0  0  0  0  0  0  0  0  1 V2000
  151.1765  141.7875  158.8169 O   0  0  0  0  0  0  0  0  0  0  0  0
  150.5303  142.4269  157.9863 C   0  0  0  0  0  0  0  0  0  0  0  0
  149.2220  141.8610  157.4215 C   0  0  0  0  0  0  0  0  0  0  0  0
  149.3680  140.4834  156.9394 N   0  0  0  0  0  0  0  0  0  0  0  0
  148.3252  139.6842  157.2601 C   0  0  0  0  0  0  0  0  0  0  0  0
  147.1156  139.8820  156.6727 N   0  0  0  0  0  0  0  0  0  0  0  0
  146.0741  139.1204  157.0222 C   0  0  0  0  0  0  0  0  0  0  0  0
  146.0234  138.1373  157.9244 N   0  0  0  0  0  0  0  0  0  0  0  0
  147.2395  137.9374  158.5089 C   0  0  0  0  0  0  0  0  0  0  0  0
  148.4362  138.6511  158.2264 C   0  0  0  0  0  0  0  0  0  0  0  0
  149.4800  138.1623  159.0010 N   0  0  0  0  0  0  0  0  0  0  0  0
  148.9266  137.2244  159.7199 C   0  0  0  0  0  0  0  0  0  0  0  0
  147.5770  137.0455  159.5114 N   0  0  0  0  0  0  0  0  0  0  0  0
  146.7121  136.0988  160.1903 C   0  0  0  0  0  0  0  0  0  0  0  0
  146.8075  136.1309  161.7422 C   0  0  1  0  0  0  0  0  0  0  0  0
  145.7848  137.1566  162.2890 C   0  0  0  0  0  0  0  0  0  0  0  0
  145.7921  138.3476  161.5293 O   0  0  0  0  0  0  0  0  0  0  0  0
  146.6247  134.7290  162.4018 C   0  0  2  0  0  0  0  0  0  0  0  0
  147.2188  133.5649  161.6212 C   0  0  0  0  0  0  0  0  0  0  0  0
  146.4971  132.3675  162.2192 C   0  0  0  0  0  0  0  0  0  0  0  0
  145.1697  132.8268  162.4049 O   0  0  0  0  0  0  0  0  0  0  0  0
  145.1706  134.2428  162.5572 C   0  0  0  0  0  0  0  0  0  0  0  0
  149.8236  140.3208  155.5654 C   0  0  0  0  0  0  0  0  0  0  0  0
  149.2141  141.1814  154.4825 C   0  0  0  0  0  0  0  0  0  0  0  0
  148.8733  139.7106  154.5642 C   0  0  0  0  0  0  0  0  0  0  0  0
  150.9150  143.6193  157.5082 N   0  0  0  0  0  0  0  0  0  0  0  0
  152.0898  144.3292  157.8985 C   0  0  0  0  0  0  0  0  0  0  0  0
  152.6391  144.0702  159.2844 C   0  0  0  0  0  0  0  0  0  0  0  0
  151.9506  145.3730  158.9856 C   0  0  0  0  0  0  0  0  0  0  0  0
  148.4262  141.9246  158.1665 H   0  0  0  0  0  0  0  0  0  0  0  0
  148.9159  142.5024  156.5939 H   0  0  0  0  0  0  0  0  0  0  0  0
  145.1459  139.3360  156.5138 H   0  0  0  0  0  0  0  0  0  0  0  0
  149.4871  136.6506  160.4434 H   0  0  0  0  0  0  0  0  0  0  0  0
  145.6938  136.3111  159.8634 H   0  0  0  0  0  0  0  0  0  0  0  0
  146.9459  135.0974  159.8265 H   0  0  0  0  0  0  0  0  0  0  0  0
  147.7978  136.4943  162.0195 H   0  0  0  0  0  0  0  0  0  0  0  0
  144.7785  136.7365  162.2928 H   0  0  0  0  0  0  0  0  0  0  0  0
  146.0155  137.4461  163.3132 H   0  0  0  0  0  0  0  0  0  0  0  0
  145.1831  138.2513  160.8131 H   0  0  0  0  0  0  0  0  0  0  0  0
  147.0937  134.7373  163.3872 H   0  0  0  0  0  0  0  0  0  0  0  0
  146.9786  133.6517  160.5604 H   0  0  0  0  0  0  0  0  0  0  0  0
  148.3012  133.4835  161.7248 H   0  0  0  0  0  0  0  0  0  0  0  0
  146.5315  131.4869  161.5774 H   0  0  0  0  0  0  0  0  0  0  0  0
  146.9245  132.1049  163.1880 H   0  0  0  0  0  0  0  0  0  0  0  0
  144.7521  134.5054  163.5280 H   0  0  0  0  0  0  0  0  0  0  0  0
  144.5232  134.6602  161.7856 H   0  0  0  0  0  0  0  0  0  0  0  0
  150.8749  140.0662  155.4401 H   0  0  0  0  0  0  0  0  0  0  0  0
  148.4402  141.8910  154.7696 H   0  0  0  0  0  0  0  0  0  0  0  0
  149.8650  141.5036  153.6724 H   0  0  0  0  0  0  0  0  0  0  0  0
  149.2959  139.0531  153.8071 H   0  0  0  0  0  0  0  0  0  0  0  0
  147.8760  139.4449  154.9097 H   0  0  0  0  0  0  0  0  0  0  0  0
  150.3243  144.0641  156.8203 H   0  0  0  0  0  0  0  0  0  0  0  0
  152.8279  144.5387  157.1254 H   0  0  0  0  0  0  0  0  0  0  0  0
  152.1136  143.3550  159.9145 H   0  0  0  0  0  0  0  0  0  0  0  0
  153.7203  144.0906  159.4063 H   0  0  0  0  0  0  0  0  0  0  0  0
  152.5721  146.2629  158.9089 H   0  0  0  0  0  0  0  0  0  0  0  0
  150.9646  145.5297  159.4192 H   0  0  0  0  0  0  0  0  0  0  0  0
  1  2  2  0  0  0  0
  2  3  1  0  0  0  0
  2 26  1  0  0  0  0
  3  4  1  0  0  0  0
  3 30  1  0  0  0  0
  3 31  1  0  0  0  0
  4  5  1  0  0  0  0
  4 23  1  0  0  0  0
  5 10  1  0  0  0  0
  5  6  2  0  0  0  0
  6  7  1  0  0  0  0
  7  8  2  0  0  0  0
  7 32  1  0  0  0  0
  8  9  1  0  0  0  0
  9 13  1  0  0  0  0
  9 10  2  0  0  0  0
 10 11  1  0  0  0  0
 11 12  2  0  0  0  0
 12 13  1  0  0  0  0
 12 33  1  0  0  0  0
 13 14  1  0  0  0  0
 14 15  1  0  0  0  0
 14 34  1  0  0  0  0
 14 35  1  0  0  0  0
 15 16  1  0  0  0  0
 15 18  1  0  0  0  0
 15 36  1  0  0  0  0
 16 17  1  0  0  0  0
 16 37  1  0  0  0  0
 16 38  1  0  0  0  0
 17 39  1  0  0  0  0
 18 22  1  0  0  0  0
 18 19  1  0  0  0  0
 18 40  1  0  0  0  0
 19 20  1  0  0  0  0
 19 41  1  0  0  0  0
 19 42  1  0  0  0  0
 20 21  1  0  0  0  0
 20 43  1  0  0  0  0
 20 44  1  0  0  0  0
 21 22  1  0  0  0  0
 22 45  1  0  0  0  0
 22 46  1  0  0  0  0
 23 25  1  0  0  0  0
 23 24  1  0  0  0  0
 23 47  1  0  0  0  0
 24 25  1  0  0  0  0
 24 48  1  0  0  0  0
 24 49  1  0  0  0  0
 25 50  1  0  0  0  0
 25 51  1  0  0  0  0
 26 27  1  0  0  0  0
 26 52  1  0  0  0  0
 27 29  1  0  0  0  0
 27 28  1  0  0  0  0
 27 53  1  0  0  0  0
 28 29  1  0  0  0  0
 28 54  1  0  0  0  0
 28 55  1  0  0  0  0
 29 56  1  0  0  0  0
 29 57  1  0  0  0  0
M  END
> <s_m_source_file>
AV-unprocessed.smi

> <i_m_source_file_index>
77

> <i_lp_mmshare_version>
43012

> <i_f3d_flags>
0

> <s_epik_input>
W0NIMl0xW0NIMl1bQ0hdMVtOSF1DKD1PKVtDSDJdTihbQ0hdMltDSDJdW0NIMl0yKWMobltjSF1uMyljKGMzNCluW2NIXW40W0NIMl1bQ0BIXShbQ0gyXVtPSF0pW0NAQEhdNVtDSDJdW0NIMl1PW0NIMl01

> <s_epik_cmdline>
J2VwaWtfcHl0aG9uJywgJy1waCcsICc3LjAnLCAnLXRuJywgJzgnLCAnLW1hJywgJzIwMCcsICctbWV0YWxfYmluZGluZycsICctaW1hZScsICc8aW5maWxlLm1hZT4nLCAnLW9tYWUnLCAnPG91dGZpbGUubWFlPic=

> <r_lp_tautomer_probability>
1

> <r_epik_Ionization_Penalty>
0.000703847

> <r_epik_Ionization_Penalty_Charging>
0

> <r_epik_Ionization_Penalty_Neutral>
0.000703847

> <r_epik_State_Penalty>
0.00034025

> <r_epik_Charging_Adjusted_Penalty>
0.00034025

> <i_epik_Tot_Q>
0

> <i_epik_Tot_abs_Q>
0

> <r_epik_Metal_State_Penalty>
-0

> <b_epik_Metal_Only>
0

> <s_lp_Force_Field>
OPLS_2005

> <r_lp_Energy>
54.5586

> <b_lp_Chiralities_Consistent>
1

> <s_lp_Variant>
AV-unprocessed.smi:77-2

> <Gold.Version>
5.8.1

> <Gold.Id.Protein>
6NUR|6NUR_protein|mol2

> <Gold.PLP.Fitness>
51.9945

> <Gold.PLP.PLP>
-49.8525

> <Gold.PLP.part.hbond>
-1.7879

> <Gold.PLP.part.metal>
0.0000

> <Gold.PLP.part.buried>
-7.3562

> <Gold.PLP.part.nonpolar>
-40.6894

> <Gold.PLP.part.repulsive>
0.0842

> <Gold.PLP.ligand.clash>
0.0000

> <Gold.PLP.ligand.torsion>
2.9006

> <Gold.PLP.Chemscore.Hbond>
2.0000

> <Gold.PLP.Chemscore.CHOScore>
0.0000

> <Gold.PLP.Chemscore.Metal>
0.0000

> <Gold.Chemscore.Hbonds>
donor molecule, donor type, donor heavy atom, donor atom, acceptor molecule, acceptor atom, score
      L1  H    26    52       P1  8028  1.00
      P1  H  6934  6947       L1    17  0.58

> <Gold.PLP.Chemscore.Internal.Correction>
1.9432

> <Gold.Rescore>
     Score         DG    S(hbond)    S(metal)    S(lipo)     H(rot)  DE(clash)    DE(int)     intcor
      9.40     -15.77       1.96        0.00     114.48       3.77       0.06       6.31       ----

> <Gold.Chemscore.Fitness>
9.3978

> <Gold.Chemscore.DG>
-15.7745

> <Gold.Chemscore.ZeroCoef>
-5.4800

> <Gold.Chemscore.Hbond>
1.9627

> <Gold.Chemscore.Metal>
0.0000

> <Gold.Chemscore.Lipo>
114.4783

> <Gold.Chemscore.Internal_Hbond>
0.0000

> <Gold.Chemscore.DEClash>
0.0622

> <Gold.Chemscore.DEInternal>
6.3146

> <Gold.Chemscore.Rot>
3.7714

> <Gold.Chemscore.Internal.Correction>
   9.000000E+99

> <Gold.Chemscore.Hbonds>
donor molecule, donor type, donor heavy atom, donor atom, acceptor molecule, acceptor atom, score
      L1  H    26    52       P1  8028  0.98
      P1  H  6934  6947       L1    17  0.37

> <Gold.Chemscore.Hbond.Weighted>
-6.5554

> <Gold.Chemscore.Metal.Weighted>
-0.0000

> <Gold.Chemscore.Lipo.Weighted>
-13.3940

> <Gold.Chemscore.Internal_Hbond.Weighted>
0.0000

> <Gold.Chemscore.DEClash.Weighted>
0.0622

> <Gold.Chemscore.DEInternal.Weighted>
6.3146

> <Gold.Chemscore.Rot.Weighted>
9.6548

> <Gold.Chemscore.Internal.Correction.Weighted>
   9.000000E+99

> <Gold.Protein.RotatedTorsions>
[ 6907 6896 6895 6894 ] final  -55.12 input  -60.11 | X-H torsion
[ 7974 7965 7964 7962 ] final  108.77 input  175.53 | X-H torsion
[ 8008 7997 7996 7995 ] final  -67.90 input   59.86 | X-H torsion
[ 10167 10162 10161 10158 ] final -105.92 input  -65.29 | X-H torsion
[ 10718 10713 10712 10709 ] final  -66.85 input   66.30 | X-H torsion
[ 10763 10752 10751 10750 ] final   64.05 input  -60.55 | X-H torsion
[ 11005 11000 10999 10996 ] final -108.18 input  -57.11 | X-H torsion

> <Gold.Protein.ActiveResidues>
 VAL166  LYS551  ARG553  GLY616  TRP617  ASP618  TYR619  PRO620  LYS621  CYS622 
 ASP623  PHE694  ASN695  SER759  ASP760  ASP761  ALA762  ILE779  LEU786  VAL792 
 PHE793  MET794  SER795  GLU796  ALA797  LYS798  CYS799  TRP800  GLU811  SER814 

> <Gold.Protein.RotatedAtoms>
  150.8279  134.7518  159.6827 H   0  0  0  0  0  0  0  0  0  0  0  0  # atno 6907 bound_to 6896
  152.4387  134.5631  159.9909 H   0  0  0  0  0  0  0  0  0  0  0  0  # atno 6908 bound_to 6896
  151.5799  133.3341  159.3042 H   0  0  0  0  0  0  0  0  0  0  0  0  # atno 6909 bound_to 6896
  145.2764  139.2648  143.3939 H   0  0  0  0  0  0  0  0  0  0  0  0  # atno 7974 bound_to 7965
  154.4831  140.0883  156.7423 H   0  0  0  0  0  0  0  0  0  0  0  0  # atno 8008 bound_to 7997
  155.4420  140.3454  155.4273 H   0  0  0  0  0  0  0  0  0  0  0  0  # atno 8009 bound_to 7997
  156.1221  140.1477  156.9178 H   0  0  0  0  0  0  0  0  0  0  0  0  # atno 8010 bound_to 7997
  140.1933  143.3875  152.1189 H   0  0  0  0  0  0  0  0  0  0  0  0  # atno 10167 bound_to 10162
  156.0589  130.4268  150.1769 H   0  0  0  0  0  0  0  0  0  0  0  0  # atno 10718 bound_to 10713
  153.0041  135.5407  154.6448 H   0  0  0  0  0  0  0  0  0  0  0  0  # atno 10763 bound_to 10752
  154.5695  135.2840  155.0844 H   0  0  0  0  0  0  0  0  0  0  0  0  # atno 10764 bound_to 10752
  154.2015  135.6483  153.5141 H   0  0  0  0  0  0  0  0  0  0  0  0  # atno 10765 bound_to 10752
  141.0915  133.9046  157.2063 H   0  0  0  0  0  0  0  0  0  0  0  0  # atno 11005 bound_to 11000
  146.3230  140.3219  142.8634 LP  0  0  0  0  0  0  0  0  0  0  0  0  # atno 17320 bound_to 7965
  144.9291  140.7955  143.5700 LP  0  0  0  0  0  0  0  0  0  0  0  0  # atno 17321 bound_to 7965
  139.5247  144.7087  151.5275 LP  0  0  0  0  0  0  0  0  0  0  0  0  # atno 17342 bound_to 10162
  140.6441  143.8831  150.6720 LP  0  0  0  0  0  0  0  0  0  0  0  0  # atno 17343 bound_to 10162
  156.9841  130.9873  151.3430 LP  0  0  0  0  0  0  0  0  0  0  0  0  # atno 17370 bound_to 10713
  157.5582  130.8228  149.8232 LP  0  0  0  0  0  0  0  0  0  0  0  0  # atno 17371 bound_to 10713
  139.9742  135.0119  156.9590 LP  0  0  0  0  0  0  0  0  0  0  0  0  # atno 17394 bound_to 11000
  140.5240  134.0879  155.7299 LP  0  0  0  0  0  0  0  0  0  0  0  0  # atno 17395 bound_to 11000

$$$$
