AV-unprocessed.smi:2143|AV-procd|sdf|8729|dock7
  -GOLD-   2272011493D 1   1.00000     0.00000
 Structure written by MMmdl.
 44 45  0  0  0  0  0  0  0  0  1 V2000
  151.9898  142.0045  158.6758 C   0  0  0  0  0  0  0  0  0  0  0  0
  151.1729  141.0673  157.7681 C   0  0  1  0  0  0  0  0  0  0  0  0
  151.0274  141.6964  156.3669 C   0  0  0  0  0  0  0  0  0  0  0  0
  150.2086  140.8120  155.4174 C   0  0  0  0  0  0  0  0  0  0  0  0
  150.8233  139.4098  155.3080 C   0  0  0  0  0  0  0  0  0  0  0  0
  150.9780  138.7436  156.6894 C   0  0  2  0  0  0  0  0  0  0  0  0
  149.6705  138.3911  157.2445 N   0  0  0  0  0  0  0  0  0  0  0  0
  149.4441  137.4569  158.1797 C   0  0  0  0  0  0  0  0  0  0  0  0
  150.3325  136.7580  158.6686 O   0  0  0  0  0  0  0  0  0  0  0  0
  147.9826  137.2721  158.6070 C   0  0  0  0  0  0  0  0  0  0  0  0
  147.7756  136.0550  159.4013 N   0  0  0  0  0  0  0  0  0  0  0  0
  147.8893  134.8146  158.8008 C   0  0  0  0  0  0  0  0  0  0  0  0
  147.7318  133.6486  159.4646 C   0  0  0  0  0  0  0  0  0  0  0  0
  147.4219  133.6333  160.8891 C   0  0  0  0  0  0  0  0  0  0  0  0
  147.2862  132.5928  161.5338 O   0  0  0  0  0  0  0  0  0  0  0  0
  147.2999  134.9161  161.4761 N   0  0  0  0  0  0  0  0  0  0  0  0
  147.0066  135.0135  162.8909 C   0  0  0  0  0  0  0  0  0  0  0  0
  147.4804  136.1313  160.7792 C   0  0  0  0  0  0  0  0  0  0  0  0
  147.3916  137.2247  161.3442 O   0  0  0  0  0  0  0  0  0  0  0  0
  151.7798  139.6393  157.6693 C   0  0  2  0  0  0  0  0  0  0  0  0
  151.9442  138.9552  159.0421 C   0  0  0  0  0  0  0  0  0  0  0  0
  153.0257  142.0763  158.3428 H   0  0  0  0  0  0  0  0  0  0  0  0
  151.9920  141.6650  159.7113 H   0  0  0  0  0  0  0  0  0  0  0  0
  151.5718  143.0114  158.6745 H   0  0  0  0  0  0  0  0  0  0  0  0
  150.1748  140.9865  158.2006 H   0  0  0  0  0  0  0  0  0  0  0  0
  150.5539  142.6756  156.4454 H   0  0  0  0  0  0  0  0  0  0  0  0
  152.0151  141.8679  155.9369 H   0  0  0  0  0  0  0  0  0  0  0  0
  149.1803  140.7416  155.7741 H   0  0  0  0  0  0  0  0  0  0  0  0
  150.1605  141.2727  154.4302 H   0  0  0  0  0  0  0  0  0  0  0  0
  150.2187  138.7860  154.6485 H   0  0  0  0  0  0  0  0  0  0  0  0
  151.8034  139.4856  154.8354 H   0  0  0  0  0  0  0  0  0  0  0  0
  151.5477  137.8223  156.5520 H   0  0  0  0  0  0  0  0  0  0  0  0
  148.8782  138.9111  156.8966 H   0  0  0  0  0  0  0  0  0  0  0  0
  147.6414  138.1461  159.1653 H   0  0  0  0  0  0  0  0  0  0  0  0
  147.3672  137.2397  157.7067 H   0  0  0  0  0  0  0  0  0  0  0  0
  148.1228  134.7723  157.7468 H   0  0  0  0  0  0  0  0  0  0  0  0
  147.8395  132.7134  158.9348 H   0  0  0  0  0  0  0  0  0  0  0  0
  146.2250  135.7639  163.0242 H   0  0  0  0  0  0  0  0  0  0  0  0
  147.9321  135.3088  163.3873 H   0  0  0  0  0  0  0  0  0  0  0  0
  146.6428  134.0626  163.2798 H   0  0  0  0  0  0  0  0  0  0  0  0
  152.7821  139.7420  157.2501 H   0  0  0  0  0  0  0  0  0  0  0  0
  151.0047  138.9281  159.5951 H   0  0  0  0  0  0  0  0  0  0  0  0
  152.6797  139.4681  159.6613 H   0  0  0  0  0  0  0  0  0  0  0  0
  152.2901  137.9275  158.9268 H   0  0  0  0  0  0  0  0  0  0  0  0
  1  2  1  0  0  0  0
  1 22  1  0  0  0  0
  1 23  1  0  0  0  0
  1 24  1  0  0  0  0
  2 20  1  0  0  0  0
  2  3  1  0  0  0  0
  2 25  1  0  0  0  0
  3  4  1  0  0  0  0
  3 26  1  0  0  0  0
  3 27  1  0  0  0  0
  4  5  1  0  0  0  0
  4 28  1  0  0  0  0
  4 29  1  0  0  0  0
  5  6  1  0  0  0  0
  5 30  1  0  0  0  0
  5 31  1  0  0  0  0
  6  7  1  0  0  0  0
  6 20  1  0  0  0  0
  6 32  1  0  0  0  0
  7  8  1  0  0  0  0
  7 33  1  0  0  0  0
  8  9  2  0  0  0  0
  8 10  1  0  0  0  0
 10 11  1  0  0  0  0
 10 34  1  0  0  0  0
 10 35  1  0  0  0  0
 11 18  1  0  0  0  0
 11 12  1  0  0  0  0
 12 13  2  0  0  0  0
 12 36  1  0  0  0  0
 13 14  1  0  0  0  0
 13 37  1  0  0  0  0
 14 15  2  0  0  0  0
 14 16  1  0  0  0  0
 16 17  1  0  0  0  0
 16 18  1  0  0  0  0
 17 38  1  0  0  0  0
 17 39  1  0  0  0  0
 17 40  1  0  0  0  0
 18 19  2  0  0  0  0
 20 21  1  0  0  0  0
 20 41  1  0  0  0  0
 21 42  1  0  0  0  0
 21 43  1  0  0  0  0
 21 44  1  0  0  0  0
M  END
> <s_m_source_file>
AV-unprocessed.smi

> <i_m_source_file_index>
2143

> <i_lp_mmshare_version>
43012

> <i_f3d_flags>
0

> <s_epik_input>
W0NIM11bQ0BASF0xW0NIMl1bQ0gyXVtDSDJdW0NASF0oW0NASF0xW0NIM10pW05IXUMoPU8pW0NIMl1uMltjSF1bY0hdYyg9TyluKFtDSDNdKWMyPU8=

> <s_epik_cmdline>
J2VwaWtfcHl0aG9uJywgJy1waCcsICc3LjAnLCAnLXRuJywgJzgnLCAnLW1hJywgJzIwMCcsICctbWV0YWxfYmluZGluZycsICctaW1hZScsICc8aW5maWxlLm1hZT4nLCAnLW9tYWUnLCAnPG91dGZpbGUubWFlPic=

> <r_lp_tautomer_probability>
1

> <r_epik_Ionization_Penalty>
3.18445e-08

> <r_epik_Ionization_Penalty_Charging>
1.27977e-08

> <r_epik_Ionization_Penalty_Neutral>
1.90469e-08

> <r_epik_State_Penalty>
-0

> <r_epik_Charging_Adjusted_Penalty>
1.27977e-08

> <i_epik_Tot_Q>
0

> <i_epik_Tot_abs_Q>
0

> <r_epik_Metal_State_Penalty>
-0

> <b_epik_Metal_Only>
0

> <s_lp_Force_Field>
OPLS_2005

> <r_lp_Energy>
18.9337

> <b_lp_Chiralities_Consistent>
1

> <s_lp_Variant>
AV-unprocessed.smi:2143-8

> <Gold.Version>
5.8.1

> <Gold.Id.Protein>
6NUR|6NUR_protein|mol2

> <Gold.PLP.Fitness>
43.5465

> <Gold.PLP.PLP>
-36.1320

> <Gold.PLP.part.hbond>
-3.0000

> <Gold.PLP.part.metal>
0.0000

> <Gold.PLP.part.buried>
-4.9612

> <Gold.PLP.part.nonpolar>
-27.9616

> <Gold.PLP.part.repulsive>
0.0346

> <Gold.PLP.ligand.clash>
0.0000

> <Gold.PLP.ligand.torsion>
0.4983

> <Gold.PLP.Chemscore.Hbond>
2.7993

> <Gold.PLP.Chemscore.CHOScore>
0.0000

> <Gold.PLP.Chemscore.Metal>
0.0000

> <Gold.Chemscore.Hbonds>
donor molecule, donor type, donor heavy atom, donor atom, acceptor molecule, acceptor atom, score
      P1  H  6896  6909       L1     9  0.62
      P1  H  6931  6943       L1    19  0.88
      P1  H  6934  6947       L1    19  0.96

> <Gold.PLP.Chemscore.Internal.Correction>
0.0133

> <Gold.Rescore>
     Score         DG    S(hbond)    S(metal)    S(lipo)     H(rot)  DE(clash)    DE(int)     intcor
     18.35     -19.06       2.72        0.00      71.57       1.51       0.14       0.56       ----

> <Gold.Chemscore.Fitness>
18.3510

> <Gold.Chemscore.DG>
-19.0576

> <Gold.Chemscore.ZeroCoef>
-5.4800

> <Gold.Chemscore.Hbond>
2.7179

> <Gold.Chemscore.Metal>
0.0000

> <Gold.Chemscore.Lipo>
71.5659

> <Gold.Chemscore.Internal_Hbond>
0.0000

> <Gold.Chemscore.DEClash>
0.1426

> <Gold.Chemscore.DEInternal>
0.5640

> <Gold.Chemscore.Rot>
1.5131

> <Gold.Chemscore.Internal.Correction>
   9.000000E+99

> <Gold.Chemscore.Hbonds>
donor molecule, donor type, donor heavy atom, donor atom, acceptor molecule, acceptor atom, score
      P1  H  6896  6909       L1     9  0.62
      P1  H  6931  6943       L1    19  0.82
      P1  H  6934  6947       L1    19  0.92

> <Gold.Chemscore.Hbond.Weighted>
-9.0778

> <Gold.Chemscore.Metal.Weighted>
-0.0000

> <Gold.Chemscore.Lipo.Weighted>
-8.3732

> <Gold.Chemscore.Internal_Hbond.Weighted>
0.0000

> <Gold.Chemscore.DEClash.Weighted>
0.1426

> <Gold.Chemscore.DEInternal.Weighted>
0.5640

> <Gold.Chemscore.Rot.Weighted>
3.8734

> <Gold.Chemscore.Internal.Correction.Weighted>
   9.000000E+99

> <Gold.Protein.RotatedTorsions>
[ 6907 6896 6895 6894 ] final   86.46 input  -60.11 | X-H torsion
[ 7974 7965 7964 7962 ] final  145.84 input  175.53 | X-H torsion
[ 8008 7997 7996 7995 ] final  135.48 input   59.86 | X-H torsion
[ 10167 10162 10161 10158 ] final  159.28 input  -65.29 | X-H torsion
[ 10718 10713 10712 10709 ] final -176.74 input   66.30 | X-H torsion
[ 10763 10752 10751 10750 ] final -128.05 input  -60.55 | X-H torsion
[ 11005 11000 10999 10996 ] final  -25.32 input  -57.11 | X-H torsion

> <Gold.Protein.ActiveResidues>
 VAL166  LYS551  ARG553  GLY616  TRP617  ASP618  TYR619  PRO620  LYS621  CYS622 
 ASP623  PHE694  ASN695  SER759  ASP760  ASP761  ALA762  ILE779  LEU786  VAL792 
 PHE793  MET794  SER795  GLU796  ALA797  LYS798  CYS799  TRP800  GLU811  SER814 

> <Gold.Protein.RotatedAtoms>
  152.5394  134.2428  159.8868 H   0  0  0  0  0  0  0  0  0  0  0  0  # atno 6907 bound_to 6896
  151.2395  133.4400  159.2614 H   0  0  0  0  0  0  0  0  0  0  0  0  # atno 6908 bound_to 6896
  151.0640  134.9769  159.8331 H   0  0  0  0  0  0  0  0  0  0  0  0  # atno 6909 bound_to 6896
  144.8719  139.5832  143.5883 H   0  0  0  0  0  0  0  0  0  0  0  0  # atno 7974 bound_to 7965
  156.3003  140.2469  156.3588 H   0  0  0  0  0  0  0  0  0  0  0  0  # atno 8008 bound_to 7997
  154.8896  140.0409  157.1850 H   0  0  0  0  0  0  0  0  0  0  0  0  # atno 8009 bound_to 7997
  154.8611  140.2920  155.5542 H   0  0  0  0  0  0  0  0  0  0  0  0  # atno 8010 bound_to 7997
  139.4831  144.4745  151.8530 H   0  0  0  0  0  0  0  0  0  0  0  0  # atno 10167 bound_to 10162
  156.8191  130.9613  151.3112 H   0  0  0  0  0  0  0  0  0  0  0  0  # atno 10718 bound_to 10713
  154.8755  135.3941  154.3694 H   0  0  0  0  0  0  0  0  0  0  0  0  # atno 10763 bound_to 10752
  153.4455  135.7027  153.6147 H   0  0  0  0  0  0  0  0  0  0  0  0  # atno 10764 bound_to 10752
  153.4709  135.3790  155.2359 H   0  0  0  0  0  0  0  0  0  0  0  0  # atno 10765 bound_to 10752
  140.8927  133.7577  156.0441 H   0  0  0  0  0  0  0  0  0  0  0  0  # atno 11005 bound_to 11000
  146.2936  139.7212  142.9143 LP  0  0  0  0  0  0  0  0  0  0  0  0  # atno 17320 bound_to 7965
  145.4114  141.0397  143.3015 LP  0  0  0  0  0  0  0  0  0  0  0  0  # atno 17321 bound_to 7965
  140.4216  144.2235  150.5887 LP  0  0  0  0  0  0  0  0  0  0  0  0  # atno 17342 bound_to 10162
  140.4868  143.2360  151.8876 LP  0  0  0  0  0  0  0  0  0  0  0  0  # atno 17343 bound_to 10162
  157.6466  130.8849  149.9550 LP  0  0  0  0  0  0  0  0  0  0  0  0  # atno 17370 bound_to 10713
  156.0999  130.3656  150.0237 LP  0  0  0  0  0  0  0  0  0  0  0  0  # atno 17371 bound_to 10713
  140.8327  134.3159  157.5343 LP  0  0  0  0  0  0  0  0  0  0  0  0  # atno 17394 bound_to 11000
  139.8731  134.9372  156.3682 LP  0  0  0  0  0  0  0  0  0  0  0  0  # atno 17395 bound_to 11000

$$$$
