AV-unprocessed.smi:67|AV-procd|sdf|629|dock1
  -GOLD-   2262016523D 1   1.00000     0.00000
 Structure written by MMmdl.
 49 51  0  0  0  0  0  0  0  0  3 V2000
  144.2941  138.4483  154.0987 O   0  0  0  0  0  0  0  0  0  0  0  0
  145.6742  138.5217  154.4154 C   0  0  1  0  0  0  0  0  0  0  0  0
  145.9544  139.8973  155.0620 C   0  0  0  0  0  0  0  0  0  0  0  0
  147.3975  140.0912  155.3698 N   0  3  2  0  0  0  0  0  0  0  0  0
  147.6625  140.2592  156.8229 C   0  0  0  0  0  0  0  0  0  0  0  0
  149.1713  140.2437  157.1201 C   0  0  0  0  0  0  0  0  0  0  0  0
  149.9068  141.2934  156.2621 C   0  0  1  0  0  0  0  0  0  0  0  0
  151.3021  141.4273  156.5432 O   0  0  0  0  0  0  0  0  0  0  0  0
  151.8043  141.6918  157.8035 C   0  0  0  0  0  0  0  0  0  0  0  0
  152.6822  140.8599  158.5428 C   0  0  0  0  0  0  0  0  0  0  0  0
  153.1280  141.2477  159.8206 C   0  0  0  0  0  0  0  0  0  0  0  0
  152.7035  142.4655  160.3815 C   0  0  0  0  0  0  0  0  0  0  0  0
  151.8237  143.3034  159.6660 C   0  0  0  0  0  0  0  0  0  0  0  0
  151.3621  144.6275  160.2569 C   0  0  0  0  0  0  0  0  0  0  0  0
  151.7932  145.6251  159.4861 F   0  0  0  0  0  0  0  0  0  0  0  0
  150.0309  144.6762  160.3180 F   0  0  0  0  0  0  0  0  0  0  0  0
  151.8419  144.7993  161.4892 F   0  0  0  0  0  0  0  0  0  0  0  0
  151.3889  142.9095  158.3824 C   0  0  0  0  0  0  0  0  0  0  0  0
  149.5528  141.1948  154.7639 C   0  0  0  0  0  0  0  0  0  0  0  0
  148.0278  141.1741  154.5688 C   0  0  0  0  0  0  0  0  0  0  0  0
  146.0766  137.3104  155.2633 C   0  0  0  0  0  0  0  0  0  0  0  0
  146.2441  136.1833  154.2423 C   0  0  0  0  0  0  0  0  0  0  0  0
  146.6528  136.8311  152.9813 N   0  3  0  0  0  0  0  0  0  0  0  0
  146.4709  138.2912  153.1197 C   0  0  0  0  0  0  0  0  0  0  0  0
  144.0088  139.2875  153.7690 H   0  0  0  0  0  0  0  0  0  0  0  0
  145.5964  140.7028  154.4183 H   0  0  0  0  0  0  0  0  0  0  0  0
  145.3614  139.9754  155.9751 H   0  0  0  0  0  0  0  0  0  0  0  0
  147.2181  141.1940  157.1684 H   0  0  0  0  0  0  0  0  0  0  0  0
  147.1840  139.4535  157.3815 H   0  0  0  0  0  0  0  0  0  0  0  0
  149.3372  140.4541  158.1771 H   0  0  0  0  0  0  0  0  0  0  0  0
  149.5483  139.2377  156.9551 H   0  0  0  0  0  0  0  0  0  0  0  0
  149.5077  142.2558  156.5859 H   0  0  0  0  0  0  0  0  0  0  0  0
  153.0398  139.9177  158.1667 H   0  0  0  0  0  0  0  0  0  0  0  0
  153.8005  140.6081  160.3731 H   0  0  0  0  0  0  0  0  0  0  0  0
  153.0583  142.7518  161.3606 H   0  0  0  0  0  0  0  0  0  0  0  0
  150.7235  143.5538  157.8261 H   0  0  0  0  0  0  0  0  0  0  0  0
  149.9774  142.0462  154.2310 H   0  0  0  0  0  0  0  0  0  0  0  0
  149.9756  140.3100  154.2951 H   0  0  0  0  0  0  0  0  0  0  0  0
  147.8053  141.0382  153.5109 H   0  0  0  0  0  0  0  0  0  0  0  0
  147.5998  142.1354  154.8579 H   0  0  0  0  0  0  0  0  0  0  0  0
  147.0389  137.4967  155.7425 H   0  0  0  0  0  0  0  0  0  0  0  0
  145.3571  137.0691  156.0469 H   0  0  0  0  0  0  0  0  0  0  0  0
  146.9684  135.4334  154.5612 H   0  0  0  0  0  0  0  0  0  0  0  0
  145.2901  135.6811  154.0768 H   0  0  0  0  0  0  0  0  0  0  0  0
  147.6234  136.6298  152.7855 H   0  0  0  0  0  0  0  0  0  0  0  0
  145.9965  138.7238  152.2376 H   0  0  0  0  0  0  0  0  0  0  0  0
  147.4645  138.7337  153.2045 H   0  0  0  0  0  0  0  0  0  0  0  0
  146.0774  136.4803  152.2285 H   0  0  0  0  0  0  0  0  0  0  0  0
  147.8523  139.2287  155.1042 H   0  0  0  0  0  0  0  0  0  0  0  0
  1  2  1  0  0  0  0
  1 25  1  0  0  0  0
  2 24  1  0  0  0  0
  2  3  1  0  0  0  0
  2 21  1  0  0  0  0
  3  4  1  0  0  0  0
  3 26  1  0  0  0  0
  3 27  1  0  0  0  0
  4 20  1  0  0  0  0
  4  5  1  0  0  0  0
  4 49  1  0  0  0  0
  5  6  1  0  0  0  0
  5 28  1  0  0  0  0
  5 29  1  0  0  0  0
  6  7  1  0  0  0  0
  6 30  1  0  0  0  0
  6 31  1  0  0  0  0
  7  8  1  0  0  0  0
  7 19  1  0  0  0  0
  7 32  1  0  0  0  0
  8  9  1  0  0  0  0
  9 18  1  0  0  0  0
  9 10  2  0  0  0  0
 10 11  1  0  0  0  0
 10 33  1  0  0  0  0
 11 12  2  0  0  0  0
 11 34  1  0  0  0  0
 12 13  1  0  0  0  0
 12 35  1  0  0  0  0
 13 14  1  0  0  0  0
 13 18  2  0  0  0  0
 14 15  1  0  0  0  0
 14 16  1  0  0  0  0
 14 17  1  0  0  0  0
 18 36  1  0  0  0  0
 19 20  1  0  0  0  0
 19 37  1  0  0  0  0
 19 38  1  0  0  0  0
 20 39  1  0  0  0  0
 20 40  1  0  0  0  0
 21 22  1  0  0  0  0
 21 41  1  0  0  0  0
 21 42  1  0  0  0  0
 22 23  1  0  0  0  0
 22 43  1  0  0  0  0
 22 44  1  0  0  0  0
 23 24  1  0  0  0  0
 23 45  1  0  0  0  0
 23 48  1  0  0  0  0
 24 46  1  0  0  0  0
 24 47  1  0  0  0  0
M  CHG  1   4   1
M  CHG  1  23   1
M  END
> <s_m_source_file>
AV-unprocessed.smi

> <i_m_source_file_index>
67

> <i_lp_mmshare_version>
43012

> <i_f3d_flags>
0

> <s_epik_input>
W0NIMl0xW05IXVtDSDJdW0NIMl1bQ0BAXTEoW09IXSlbQ0gyXU4yW0NIMl1bQ0gyXVtDSF0oW0NIMl1bQ0gyXTIpT2MzW2NIXVtjSF1bY0hdYyhDKEYpKEYpRilbY0hdMw==

> <s_epik_cmdline>
J2VwaWtfcHl0aG9uJywgJy1waCcsICc3LjAnLCAnLXRuJywgJzgnLCAnLW1hJywgJzIwMCcsICctbWV0YWxfYmluZGluZycsICctaW1hZScsICc8aW5maWxlLm1hZT4nLCAnLW9tYWUnLCAnPG91dGZpbGUubWFlPic=

> <r_lp_tautomer_probability>
1

> <r_epik_Ionization_Penalty>
0.0989853

> <r_epik_Ionization_Penalty_Charging>
0.0989662

> <r_epik_Ionization_Penalty_Neutral>
1.91014e-05

> <r_epik_State_Penalty>
0.0852826

> <r_epik_Charging_Adjusted_Penalty>
0.184249

> <i_epik_Tot_Q>
2

> <i_epik_Tot_abs_Q>
2

> <r_epik_Metal_State_Penalty>
0.0849414

> <b_epik_Metal_Only>
0

> <s_lp_Force_Field>
OPLS_2005

> <r_lp_Energy>
60.8706

> <b_lp_Chiralities_Consistent>
1

> <s_lp_Variant>
AV-unprocessed.smi:67-1

> <Gold.Version>
5.8.1

> <Gold.Id.Protein>
6NUR|6NUR_protein|mol2

> <Gold.PLP.Fitness>
48.8793

> <Gold.PLP.PLP>
-41.0696

> <Gold.PLP.part.hbond>
-1.8283

> <Gold.PLP.part.metal>
0.0000

> <Gold.PLP.part.buried>
-1.9989

> <Gold.PLP.part.nonpolar>
-36.8334

> <Gold.PLP.part.repulsive>
0.0587

> <Gold.PLP.ligand.clash>
0.9682

> <Gold.PLP.ligand.torsion>
0.7908

> <Gold.PLP.Chemscore.Hbond>
3.0000

> <Gold.PLP.Chemscore.CHOScore>
0.0000

> <Gold.PLP.Chemscore.Metal>
0.0000

> <Gold.Chemscore.Hbonds>
donor molecule, donor type, donor heavy atom, donor atom, acceptor molecule, acceptor atom, score
      L1  H     1    25       P1 10175  1.00
      L1  H    23    45       P1  7948  2.00

> <Gold.PLP.Chemscore.Internal.Correction>
1.3594

> <Gold.Rescore>
     Score         DG    S(hbond)    S(metal)    S(lipo)     H(rot)  DE(clash)    DE(int)     intcor
     17.21     -18.13       1.93        0.00     101.86       2.24       0.13       0.79       ----

> <Gold.Chemscore.Fitness>
17.2084

> <Gold.Chemscore.DG>
-18.1299

> <Gold.Chemscore.ZeroCoef>
-5.4800

> <Gold.Chemscore.Hbond>
1.9325

> <Gold.Chemscore.Metal>
0.0000

> <Gold.Chemscore.Lipo>
101.8594

> <Gold.Chemscore.Internal_Hbond>
0.0000

> <Gold.Chemscore.DEClash>
0.1320

> <Gold.Chemscore.DEInternal>
0.7895

> <Gold.Chemscore.Rot>
2.2352

> <Gold.Chemscore.Internal.Correction>
   9.000000E+99

> <Gold.Chemscore.Hbonds>
donor molecule, donor type, donor heavy atom, donor atom, acceptor molecule, acceptor atom, score
      L1  H     1    25       P1 10175  0.98
      L1  H    23    45       P1  7948  0.98

> <Gold.Chemscore.Hbond.Weighted>
-6.4545

> <Gold.Chemscore.Metal.Weighted>
-0.0000

> <Gold.Chemscore.Lipo.Weighted>
-11.9176

> <Gold.Chemscore.Internal_Hbond.Weighted>
0.0000

> <Gold.Chemscore.DEClash.Weighted>
0.1320

> <Gold.Chemscore.DEInternal.Weighted>
0.7895

> <Gold.Chemscore.Rot.Weighted>
5.7221

> <Gold.Chemscore.Internal.Correction.Weighted>
   9.000000E+99

> <Gold.Protein.RotatedTorsions>
[ 6907 6896 6895 6894 ] final -177.75 input  -60.11 | X-H torsion
[ 7974 7965 7964 7962 ] final  175.07 input  175.53 | X-H torsion
[ 8008 7997 7996 7995 ] final  145.48 input   59.86 | X-H torsion
[ 10167 10162 10161 10158 ] final   70.15 input  -65.29 | X-H torsion
[ 10718 10713 10712 10709 ] final  -12.51 input   66.30 | X-H torsion
[ 10763 10752 10751 10750 ] final -151.34 input  -60.55 | X-H torsion
[ 11005 11000 10999 10996 ] final  134.59 input  -57.11 | X-H torsion

> <Gold.Protein.ActiveResidues>
 VAL166  LYS551  ARG553  GLY616  TRP617  ASP618  TYR619  PRO620  LYS621  CYS622 
 ASP623  PHE694  ASN695  SER759  ASP760  ASP761  ALA762  ILE779  LEU786  VAL792 
 PHE793  MET794  SER795  GLU796  ALA797  LYS798  CYS799  TRP800  GLU811  SER814 

> <Gold.Protein.RotatedAtoms>
  151.6261  133.3335  159.3098 H   0  0  0  0  0  0  0  0  0  0  0  0  # atno 6907 bound_to 6896
  150.8080  134.7222  159.6674 H   0  0  0  0  0  0  0  0  0  0  0  0  # atno 6908 bound_to 6896
  152.4176  134.6017  160.0053 H   0  0  0  0  0  0  0  0  0  0  0  0  # atno 6909 bound_to 6896
  144.7209  139.9892  143.6439 H   0  0  0  0  0  0  0  0  0  0  0  0  # atno 7974 bound_to 7965
  156.2882  140.2208  156.5222 H   0  0  0  0  0  0  0  0  0  0  0  0  # atno 8008 bound_to 7997
  154.7519  140.0480  157.0922 H   0  0  0  0  0  0  0  0  0  0  0  0  # atno 8009 bound_to 7997
  155.0099  140.3112  155.4837 H   0  0  0  0  0  0  0  0  0  0  0  0  # atno 8010 bound_to 7997
  140.0601  144.5240  150.7300 H   0  0  0  0  0  0  0  0  0  0  0  0  # atno 10167 bound_to 10162
  156.6436  130.4935  149.6086 H   0  0  0  0  0  0  0  0  0  0  0  0  # atno 10718 bound_to 10713
  154.8063  135.3262  154.7421 H   0  0  0  0  0  0  0  0  0  0  0  0  # atno 10763 bound_to 10752
  153.8079  135.6898  153.4850 H   0  0  0  0  0  0  0  0  0  0  0  0  # atno 10764 bound_to 10752
  153.1811  135.4586  154.9974 H   0  0  0  0  0  0  0  0  0  0  0  0  # atno 10765 bound_to 10752
  139.9924  134.9510  156.9887 H   0  0  0  0  0  0  0  0  0  0  0  0  # atno 11005 bound_to 11000
  146.0425  139.3435  143.0688 LP  0  0  0  0  0  0  0  0  0  0  0  0  # atno 17320 bound_to 7965
  145.8316  140.9627  143.0846 LP  0  0  0  0  0  0  0  0  0  0  0  0  # atno 17321 bound_to 7965
  140.7176  143.2558  151.4384 LP  0  0  0  0  0  0  0  0  0  0  0  0  # atno 17342 bound_to 10162
  139.5899  144.1522  152.2075 LP  0  0  0  0  0  0  0  0  0  0  0  0  # atno 17343 bound_to 10162
  156.2139  130.6696  151.1299 LP  0  0  0  0  0  0  0  0  0  0  0  0  # atno 17370 bound_to 10713
  157.7163  131.0707  150.6313 LP  0  0  0  0  0  0  0  0  0  0  0  0  # atno 17371 bound_to 10713
  140.4882  134.1220  155.7228 LP  0  0  0  0  0  0  0  0  0  0  0  0  # atno 17394 bound_to 11000
  141.1577  133.8852  157.1933 LP  0  0  0  0  0  0  0  0  0  0  0  0  # atno 17395 bound_to 11000

$$$$
