AV-unprocessed.smi:281|AV-procd|sdf|2111|dock8
  -GOLD-   2262021403D 1   1.00000     0.00000
 Structure written by MMmdl.
 55 59  0  0  0  0  0  0  0  0  1 V2000
  147.4062  141.2490  153.9276 C   0  0  0  0  0  0  0  0  0  0  0  0
  148.2735  140.1179  154.4885 C   0  0  2  0  0  0  0  0  0  0  0  0
  147.5000  139.2487  155.4953 C   0  0  0  0  0  0  0  0  0  0  0  0
  148.3911  138.2652  156.0982 N   0  0  0  0  0  0  0  0  0  0  0  0
  147.7668  137.2546  156.7540 C   0  0  0  0  0  0  0  0  0  0  0  0
  146.8535  136.4829  156.1057 N   0  0  0  0  0  0  0  0  0  0  0  0
  146.2434  135.4797  156.7433 C   0  0  0  0  0  0  0  0  0  0  0  0
  146.3935  135.0805  158.0074 N   0  0  0  0  0  0  0  0  0  0  0  0
  147.3039  135.8534  158.6656 C   0  0  0  0  0  0  0  0  0  0  0  0
  148.0257  136.9529  158.1208 C   0  0  0  0  0  0  0  0  0  0  0  0
  148.8429  137.5115  159.0964 N   0  0  0  0  0  0  0  0  0  0  0  0
  148.6251  136.7776  160.1528 C   0  0  0  0  0  0  0  0  0  0  0  0
  147.7290  135.7470  159.9789 N   0  0  0  0  0  0  0  0  0  0  0  0
  147.3149  134.7744  160.9792 C   0  0  0  0  0  0  0  0  0  0  0  0
  146.5765  135.3808  162.2022 C   0  0  2  0  0  0  0  0  0  0  0  0
  146.4106  134.3467  163.1524 O   0  0  0  0  0  0  0  0  0  0  0  0
  145.2162  135.9959  161.8735 C   0  0  0  0  0  0  0  0  0  0  0  0
  145.4779  137.5041  161.7831 C   0  0  0  0  0  0  0  0  0  0  0  0
  146.8504  137.6910  162.1039 O   0  0  0  0  0  0  0  0  0  0  0  0
  147.2997  136.5683  162.8456 C   0  0  0  0  0  0  0  0  0  0  0  0
  149.5656  138.8689  156.7207 C   0  0  0  0  0  0  0  0  0  0  0  0
  150.3190  139.7669  155.7070 C   0  0  2  0  0  0  0  0  0  0  0  0
  151.0462  138.9647  154.6313 C   0  0  0  0  0  0  0  0  0  0  0  0
  152.3696  138.6112  155.2993 C   0  0  0  0  0  0  0  0  0  0  0  0
  152.6539  139.6924  156.1781 O   0  0  0  0  0  0  0  0  0  0  0  0
  151.5127  140.5363  156.3079 C   0  0  2  0  0  0  0  0  0  0  0  0
  151.3626  141.0331  157.7531 C   0  0  0  0  0  0  0  0  0  0  0  0
  149.4056  140.7053  155.1303 O   0  0  0  0  0  0  0  0  0  0  0  0
  146.5320  140.8533  153.4105 H   0  0  0  0  0  0  0  0  0  0  0  0
  147.9681  141.8553  153.2167 H   0  0  0  0  0  0  0  0  0  0  0  0
  147.0551  141.9076  154.7226 H   0  0  0  0  0  0  0  0  0  0  0  0
  148.6067  139.4992  153.6542 H   0  0  0  0  0  0  0  0  0  0  0  0
  147.0809  139.8727  156.2858 H   0  0  0  0  0  0  0  0  0  0  0  0
  146.6596  138.7709  154.9929 H   0  0  0  0  0  0  0  0  0  0  0  0
  145.5347  134.9150  156.1555 H   0  0  0  0  0  0  0  0  0  0  0  0
  149.1224  136.9661  161.0930 H   0  0  0  0  0  0  0  0  0  0  0  0
  146.6767  134.0391  160.4867 H   0  0  0  0  0  0  0  0  0  0  0  0
  148.2006  134.2301  161.3100 H   0  0  0  0  0  0  0  0  0  0  0  0
  146.4009  133.5192  162.6963 H   0  0  0  0  0  0  0  0  0  0  0  0
  144.7767  135.5899  160.9625 H   0  0  0  0  0  0  0  0  0  0  0  0
  144.5004  135.8138  162.6771 H   0  0  0  0  0  0  0  0  0  0  0  0
  145.2734  137.8963  160.7866 H   0  0  0  0  0  0  0  0  0  0  0  0
  144.8560  138.0478  162.4950 H   0  0  0  0  0  0  0  0  0  0  0  0
  146.9884  136.7009  163.8835 H   0  0  0  0  0  0  0  0  0  0  0  0
  148.3853  136.4740  162.8342 H   0  0  0  0  0  0  0  0  0  0  0  0
  149.2258  139.4617  157.5706 H   0  0  0  0  0  0  0  0  0  0  0  0
  150.2288  138.0960  157.1113 H   0  0  0  0  0  0  0  0  0  0  0  0
  150.5008  138.0851  154.2873 H   0  0  0  0  0  0  0  0  0  0  0  0
  151.2387  139.5969  153.7631 H   0  0  0  0  0  0  0  0  0  0  0  0
  152.2708  137.6983  155.8878 H   0  0  0  0  0  0  0  0  0  0  0  0
  153.1731  138.4623  154.5776 H   0  0  0  0  0  0  0  0  0  0  0  0
  151.7107  141.3999  155.6703 H   0  0  0  0  0  0  0  0  0  0  0  0
  150.4770  141.6598  157.8621 H   0  0  0  0  0  0  0  0  0  0  0  0
  152.2278  141.6275  158.0469 H   0  0  0  0  0  0  0  0  0  0  0  0
  151.2827  140.2050  158.4575 H   0  0  0  0  0  0  0  0  0  0  0  0
  1  2  1  0  0  0  0
  1 29  1  0  0  0  0
  1 30  1  0  0  0  0
  1 31  1  0  0  0  0
  2 28  1  0  0  0  0
  2  3  1  0  0  0  0
  2 32  1  0  0  0  0
  3  4  1  0  0  0  0
  3 33  1  0  0  0  0
  3 34  1  0  0  0  0
  4  5  1  0  0  0  0
  4 21  1  0  0  0  0
  5 10  1  0  0  0  0
  5  6  2  0  0  0  0
  6  7  1  0  0  0  0
  7  8  2  0  0  0  0
  7 35  1  0  0  0  0
  8  9  1  0  0  0  0
  9 13  1  0  0  0  0
  9 10  2  0  0  0  0
 10 11  1  0  0  0  0
 11 12  2  0  0  0  0
 12 13  1  0  0  0  0
 12 36  1  0  0  0  0
 13 14  1  0  0  0  0
 14 15  1  0  0  0  0
 14 37  1  0  0  0  0
 14 38  1  0  0  0  0
 15 20  1  0  0  0  0
 15 16  1  0  0  0  0
 15 17  1  0  0  0  0
 16 39  1  0  0  0  0
 17 18  1  0  0  0  0
 17 40  1  0  0  0  0
 17 41  1  0  0  0  0
 18 19  1  0  0  0  0
 18 42  1  0  0  0  0
 18 43  1  0  0  0  0
 19 20  1  0  0  0  0
 20 44  1  0  0  0  0
 20 45  1  0  0  0  0
 21 22  1  0  0  0  0
 21 46  1  0  0  0  0
 21 47  1  0  0  0  0
 22 26  1  0  0  0  0
 22 23  1  0  0  0  0
 22 28  1  0  0  0  0
 23 24  1  0  0  0  0
 23 48  1  0  0  0  0
 23 49  1  0  0  0  0
 24 25  1  0  0  0  0
 24 50  1  0  0  0  0
 24 51  1  0  0  0  0
 25 26  1  0  0  0  0
 26 27  1  0  0  0  0
 26 52  1  0  0  0  0
 27 53  1  0  0  0  0
 27 54  1  0  0  0  0
 27 55  1  0  0  0  0
M  END
> <s_m_source_file>
AV-unprocessed.smi

> <i_m_source_file_index>
281

> <i_lp_mmshare_version>
43012

> <i_f3d_flags>
0

> <s_epik_input>
W0NIM11bQ0BASF0xT1tDSDJdW0NIMl1bQ0BAXTEyW0NIMl1OKFtDSDJdW0NASF0oTzIpW0NIM10pYyhuW2NIXW4zKWMoYzM0KW5bY0hdbjRbQ0gyXVtDQEBdNShbT0hdKVtDSDJdW0NIMl1PW0NIMl01

> <s_epik_cmdline>
J2VwaWtfcHl0aG9uJywgJy1waCcsICc3LjAnLCAnLXRuJywgJzgnLCAnLW1hJywgJzIwMCcsICctbWV0YWxfYmluZGluZycsICctaW1hZScsICc8aW5maWxlLm1hZT4nLCAnLW9tYWUnLCAnPG91dGZpbGUubWFlPic=

> <r_lp_tautomer_probability>
1

> <r_epik_Ionization_Penalty>
0.00571331

> <r_epik_Ionization_Penalty_Charging>
0

> <r_epik_Ionization_Penalty_Neutral>
0.00571331

> <r_epik_State_Penalty>
0.00399586

> <r_epik_Charging_Adjusted_Penalty>
0.00399586

> <i_epik_Tot_Q>
0

> <i_epik_Tot_abs_Q>
0

> <r_epik_Metal_State_Penalty>
-0

> <b_epik_Metal_Only>
0

> <s_lp_Force_Field>
OPLS_2005

> <r_lp_Energy>
56.9308

> <b_lp_Chiralities_Consistent>
1

> <s_lp_Variant>
AV-unprocessed.smi:281-11

> <Gold.Version>
5.8.1

> <Gold.Id.Protein>
6NUR|6NUR_protein|mol2

> <Gold.PLP.Fitness>
45.9303

> <Gold.PLP.PLP>
-40.8260

> <Gold.PLP.part.hbond>
-4.0000

> <Gold.PLP.part.metal>
0.0000

> <Gold.PLP.part.buried>
-6.1460

> <Gold.PLP.part.nonpolar>
-30.4200

> <Gold.PLP.part.repulsive>
0.1205

> <Gold.PLP.ligand.clash>
0.0000

> <Gold.PLP.ligand.torsion>
0.2369

> <Gold.PLP.Chemscore.Hbond>
1.7610

> <Gold.PLP.Chemscore.CHOScore>
0.0000

> <Gold.PLP.Chemscore.Metal>
0.0000

> <Gold.Chemscore.Hbonds>
donor molecule, donor type, donor heavy atom, donor atom, acceptor molecule, acceptor atom, score
      P1  H  6931  6943       L1    19  0.09
      P1  H  6934  6947       L1    19  0.56
      P1  H  7997  8010       L1    25  1.00

> <Gold.PLP.Chemscore.Internal.Correction>
0.2951

> <Gold.Rescore>
     Score         DG    S(hbond)    S(metal)    S(lipo)     H(rot)  DE(clash)    DE(int)     intcor
     13.36     -17.13       1.93        0.00      90.38       2.09       0.12       3.65       ----

> <Gold.Chemscore.Fitness>
13.3632

> <Gold.Chemscore.DG>
-17.1349

> <Gold.Chemscore.ZeroCoef>
-5.4800

> <Gold.Chemscore.Hbond>
1.9275

> <Gold.Chemscore.Metal>
0.0000

> <Gold.Chemscore.Lipo>
90.3799

> <Gold.Chemscore.Internal_Hbond>
0.0000

> <Gold.Chemscore.DEClash>
0.1229

> <Gold.Chemscore.DEInternal>
3.6488

> <Gold.Chemscore.Rot>
2.0927

> <Gold.Chemscore.Internal.Correction>
   9.000000E+99

> <Gold.Chemscore.Hbonds>
donor molecule, donor type, donor heavy atom, donor atom, acceptor molecule, acceptor atom, score
      P1  H  6934  6947       L1    19  0.10
      P1  H  7997  8010       L1    25  0.91

> <Gold.Chemscore.Hbond.Weighted>
-6.4378

> <Gold.Chemscore.Metal.Weighted>
-0.0000

> <Gold.Chemscore.Lipo.Weighted>
-10.5744

> <Gold.Chemscore.Internal_Hbond.Weighted>
0.0000

> <Gold.Chemscore.DEClash.Weighted>
0.1229

> <Gold.Chemscore.DEInternal.Weighted>
3.6488

> <Gold.Chemscore.Rot.Weighted>
5.3573

> <Gold.Chemscore.Internal.Correction.Weighted>
   9.000000E+99

> <Gold.Protein.RotatedTorsions>
[ 6907 6896 6895 6894 ] final -162.39 input  -60.11 | X-H torsion
[ 7974 7965 7964 7962 ] final -159.66 input  175.53 | X-H torsion
[ 8008 7997 7996 7995 ] final   80.96 input   59.86 | X-H torsion
[ 10167 10162 10161 10158 ] final   95.64 input  -65.29 | X-H torsion
[ 10718 10713 10712 10709 ] final  163.79 input   66.30 | X-H torsion
[ 10763 10752 10751 10750 ] final   21.78 input  -60.55 | X-H torsion
[ 11005 11000 10999 10996 ] final  -59.35 input  -57.11 | X-H torsion

> <Gold.Protein.ActiveResidues>
 VAL166  LYS551  ARG553  GLY616  TRP617  ASP618  TYR619  PRO620  LYS621  CYS622 
 ASP623  PHE694  ASN695  SER759  ASP760  ASP761  ALA762  ILE779  LEU786  VAL792 
 PHE793  MET794  SER795  GLU796  ALA797  LYS798  CYS799  TRP800  GLU811  SER814 

> <Gold.Protein.RotatedAtoms>
  151.3795  133.3826  159.2708 H   0  0  0  0  0  0  0  0  0  0  0  0  # atno 6907 bound_to 6896
  150.9588  134.8980  159.7728 H   0  0  0  0  0  0  0  0  0  0  0  0  # atno 6908 bound_to 6896
  152.5141  134.3754  159.9385 H   0  0  0  0  0  0  0  0  0  0  0  0  # atno 6909 bound_to 6896
  144.7457  140.3654  143.6087 H   0  0  0  0  0  0  0  0  0  0  0  0  # atno 7974 bound_to 7965
  155.8906  140.3439  155.5953 H   0  0  0  0  0  0  0  0  0  0  0  0  # atno 8008 bound_to 7997
  155.7615  140.0833  157.2172 H   0  0  0  0  0  0  0  0  0  0  0  0  # atno 8009 bound_to 7997
  154.4033  140.1535  156.2825 H   0  0  0  0  0  0  0  0  0  0  0  0  # atno 8010 bound_to 7997
  139.7969  144.6829  150.9816 H   0  0  0  0  0  0  0  0  0  0  0  0  # atno 10167 bound_to 10162
  157.1036  131.0449  151.2487 H   0  0  0  0  0  0  0  0  0  0  0  0  # atno 10718 bound_to 10713
  153.0967  135.6662  153.9749 H   0  0  0  0  0  0  0  0  0  0  0  0  # atno 10763 bound_to 10752
  153.9331  135.3002  155.3446 H   0  0  0  0  0  0  0  0  0  0  0  0  # atno 10764 bound_to 10752
  154.7386  135.5090  153.9159 H   0  0  0  0  0  0  0  0  0  0  0  0  # atno 10765 bound_to 10752
  141.1245  133.6616  156.5058 H   0  0  0  0  0  0  0  0  0  0  0  0  # atno 11005 bound_to 11000
  145.7134  139.1690  143.2526 LP  0  0  0  0  0  0  0  0  0  0  0  0  # atno 17320 bound_to 7965
  146.1330  140.7160  142.9403 LP  0  0  0  0  0  0  0  0  0  0  0  0  # atno 17321 bound_to 7965
  140.7820  143.4321  151.0678 LP  0  0  0  0  0  0  0  0  0  0  0  0  # atno 17342 bound_to 10162
  139.7995  143.8103  152.3161 LP  0  0  0  0  0  0  0  0  0  0  0  0  # atno 17343 bound_to 10162
  157.4620  130.7658  149.7244 LP  0  0  0  0  0  0  0  0  0  0  0  0  # atno 17370 bound_to 10713
  155.9867  130.3972  150.3198 LP  0  0  0  0  0  0  0  0  0  0  0  0  # atno 17371 bound_to 10713
  140.4408  134.7017  157.4991 LP  0  0  0  0  0  0  0  0  0  0  0  0  # atno 17394 bound_to 11000
  140.0230  134.6519  155.9212 LP  0  0  0  0  0  0  0  0  0  0  0  0  # atno 17395 bound_to 11000

$$$$
