AV-unprocessed.smi:1263|AV-procd|sdf|5310|dock6
  -GOLD-   22720 4433D 1   1.00000     0.00000
 Structure written by MMmdl.
 44 46  0  0  0  0  0  0  0  0  2 V2000
  148.7041  140.4579  153.8839 C   0  0  0  0  0  0  0  0  0  0  0  0
  149.2857  139.1664  153.7441 O   0  0  0  0  0  0  0  0  0  0  0  0
  150.4781  138.9059  154.3925 C   0  0  0  0  0  0  0  0  0  0  0  0
  151.2156  139.9560  154.8334 N   0  0  0  0  0  0  0  0  0  0  0  0
  152.3824  139.7034  155.4612 C   0  0  0  0  0  0  0  0  0  0  0  0
  152.8763  138.4036  155.6751 C   0  0  0  0  0  0  0  0  0  0  0  0
  152.1131  137.3129  155.2195 C   0  0  0  0  0  0  0  0  0  0  0  0
  150.8781  137.5609  154.5725 C   0  0  0  0  0  0  0  0  0  0  0  0
  150.0396  136.5343  154.0569 N   0  0  0  0  0  0  0  0  0  0  0  0
  149.8453  135.2936  154.5348 C   0  0  0  0  0  0  0  0  0  0  0  0
  150.3716  134.8277  155.5453 O   0  0  0  0  0  0  0  0  0  0  0  0
  148.9761  134.6117  153.7749 N   0  0  0  0  0  0  0  0  0  0  0  0
  148.5251  133.2472  154.0337 C   0  0  2  0  0  0  0  0  0  0  0  0
  149.6978  132.2510  153.9560 C   0  0  0  0  0  0  0  0  0  0  0  0
  149.2070  130.8042  154.1314 C   0  0  0  0  0  0  0  0  0  0  0  0
  148.1667  130.4680  153.1277 N   0  3  1  0  0  0  0  0  0  0  0  0
  147.7569  129.0488  153.2043 C   0  0  0  0  0  0  0  0  0  0  0  0
  148.1914  128.2262  152.0136 C   0  0  0  0  0  0  0  0  0  0  0  0
  146.7463  128.6500  152.1542 C   0  0  0  0  0  0  0  0  0  0  0  0
  147.0065  131.3900  153.2075 C   0  0  0  0  0  0  0  0  0  0  0  0
  147.4461  132.8509  153.0124 C   0  0  0  0  0  0  0  0  0  0  0  0
  147.7767  140.4996  153.3130 H   0  0  0  0  0  0  0  0  0  0  0  0
  149.3640  141.2367  153.4989 H   0  0  0  0  0  0  0  0  0  0  0  0
  148.4613  140.6760  154.9249 H   0  0  0  0  0  0  0  0  0  0  0  0
  152.9427  140.5635  155.7965 H   0  0  0  0  0  0  0  0  0  0  0  0
  153.8218  138.2465  156.1726 H   0  0  0  0  0  0  0  0  0  0  0  0
  152.4960  136.3144  155.3614 H   0  0  0  0  0  0  0  0  0  0  0  0
  149.4681  136.8028  153.2690 H   0  0  0  0  0  0  0  0  0  0  0  0
  148.5884  135.0756  152.9663 H   0  0  0  0  0  0  0  0  0  0  0  0
  148.0849  133.2032  155.0320 H   0  0  0  0  0  0  0  0  0  0  0  0
  150.2055  132.3482  152.9951 H   0  0  0  0  0  0  0  0  0  0  0  0
  150.4406  132.4784  154.7217 H   0  0  0  0  0  0  0  0  0  0  0  0
  150.0495  130.1195  154.0283 H   0  0  0  0  0  0  0  0  0  0  0  0
  148.8050  130.6625  155.1359 H   0  0  0  0  0  0  0  0  0  0  0  0
  147.7234  128.6076  154.1992 H   0  0  0  0  0  0  0  0  0  0  0  0
  148.7828  128.7108  151.2387 H   0  0  0  0  0  0  0  0  0  0  0  0
  148.4220  127.1767  152.1853 H   0  0  0  0  0  0  0  0  0  0  0  0
  146.0247  127.8793  152.4181 H   0  0  0  0  0  0  0  0  0  0  0  0
  146.3795  129.4161  151.4734 H   0  0  0  0  0  0  0  0  0  0  0  0
  146.2758  131.1253  152.4424 H   0  0  0  0  0  0  0  0  0  0  0  0
  146.5109  131.2718  154.1725 H   0  0  0  0  0  0  0  0  0  0  0  0
  146.5821  133.5104  153.1048 H   0  0  0  0  0  0  0  0  0  0  0  0
  147.8276  132.9811  151.9984 H   0  0  0  0  0  0  0  0  0  0  0  0
  148.5844  130.6005  152.2178 H   0  0  0  0  0  0  0  0  0  0  0  0
  1  2  1  0  0  0  0
  1 22  1  0  0  0  0
  1 23  1  0  0  0  0
  1 24  1  0  0  0  0
  2  3  1  0  0  0  0
  3  8  1  0  0  0  0
  3  4  2  0  0  0  0
  4  5  1  0  0  0  0
  5  6  2  0  0  0  0
  5 25  1  0  0  0  0
  6  7  1  0  0  0  0
  6 26  1  0  0  0  0
  7  8  2  0  0  0  0
  7 27  1  0  0  0  0
  8  9  1  0  0  0  0
  9 10  1  0  0  0  0
  9 28  1  0  0  0  0
 10 11  2  0  0  0  0
 10 12  1  0  0  0  0
 12 13  1  0  0  0  0
 12 29  1  0  0  0  0
 13 21  1  0  0  0  0
 13 14  1  0  0  0  0
 13 30  1  0  0  0  0
 14 15  1  0  0  0  0
 14 31  1  0  0  0  0
 14 32  1  0  0  0  0
 15 16  1  0  0  0  0
 15 33  1  0  0  0  0
 15 34  1  0  0  0  0
 16 17  1  0  0  0  0
 16 20  1  0  0  0  0
 16 44  1  0  0  0  0
 17 19  1  0  0  0  0
 17 18  1  0  0  0  0
 17 35  1  0  0  0  0
 18 19  1  0  0  0  0
 18 36  1  0  0  0  0
 18 37  1  0  0  0  0
 19 38  1  0  0  0  0
 19 39  1  0  0  0  0
 20 21  1  0  0  0  0
 20 40  1  0  0  0  0
 20 41  1  0  0  0  0
 21 42  1  0  0  0  0
 21 43  1  0  0  0  0
M  CHG  1  16   1
M  END
> <s_m_source_file>
AV-unprocessed.smi

> <i_m_source_file_index>
1263

> <i_lp_mmshare_version>
43012

> <i_f3d_flags>
0

> <s_epik_input>
W0NIM11PYzFuW2NIXVtjSF1bY0hdYzFbTkhdQyg9TylbTkhdW0NIXTJbQ0gyXVtDSDJdTihbQ0gyXVtDSDJdMilbQ0hdM1tDSDJdW0NIMl0z

> <s_epik_cmdline>
J2VwaWtfcHl0aG9uJywgJy1waCcsICc3LjAnLCAnLXRuJywgJzgnLCAnLW1hJywgJzIwMCcsICctbWV0YWxfYmluZGluZycsICctaW1hZScsICc8aW5maWxlLm1hZT4nLCAnLW9tYWUnLCAnPG91dGZpbGUubWFlPic=

> <r_lp_tautomer_probability>
1

> <r_epik_Ionization_Penalty>
0.115628

> <r_epik_Ionization_Penalty_Charging>
0.115549

> <r_epik_Ionization_Penalty_Neutral>
7.89431e-05

> <r_epik_State_Penalty>
0.105184

> <r_epik_Charging_Adjusted_Penalty>
0.220733

> <i_epik_Tot_Q>
1

> <i_epik_Tot_abs_Q>
1

> <r_epik_Metal_State_Penalty>
0.105186

> <b_epik_Metal_Only>
0

> <s_lp_Force_Field>
OPLS_2005

> <r_lp_Energy>
28.8205

> <b_lp_Chiralities_Consistent>
1

> <s_lp_Variant>
AV-unprocessed.smi:1263-1

> <Gold.Version>
5.8.1

> <Gold.Id.Protein>
6NUR|6NUR_protein|mol2

> <Gold.PLP.Fitness>
44.7970

> <Gold.PLP.PLP>
-34.5952

> <Gold.PLP.part.hbond>
-4.8072

> <Gold.PLP.part.metal>
0.0000

> <Gold.PLP.part.buried>
-0.8283

> <Gold.PLP.part.nonpolar>
-29.0835

> <Gold.PLP.part.repulsive>
1.1864

> <Gold.PLP.ligand.clash>
0.0000

> <Gold.PLP.ligand.torsion>
1.1948

> <Gold.PLP.Chemscore.Hbond>
3.7760

> <Gold.PLP.Chemscore.CHOScore>
0.0000

> <Gold.PLP.Chemscore.Metal>
0.0000

> <Gold.Chemscore.Hbonds>
donor molecule, donor type, donor heavy atom, donor atom, acceptor molecule, acceptor atom, score
      L1  H     9    28       P1  7948  0.78
      L1  H    12    29       P1  7948  0.82
      L1  H    16    44       P1 10747  1.00
      P1  H  7989  7998       L1     4  1.00

> <Gold.PLP.Chemscore.Internal.Correction>
1.2634

> <Gold.Rescore>
     Score         DG    S(hbond)    S(metal)    S(lipo)     H(rot)  DE(clash)    DE(int)     intcor
     17.64     -19.84       2.49        0.00      82.90       1.43       0.22       1.98       ----

> <Gold.Chemscore.Fitness>
17.6399

> <Gold.Chemscore.DG>
-19.8405

> <Gold.Chemscore.ZeroCoef>
-5.4800

> <Gold.Chemscore.Hbond>
2.4931

> <Gold.Chemscore.Metal>
0.0000

> <Gold.Chemscore.Lipo>
82.8967

> <Gold.Chemscore.Internal_Hbond>
0.0000

> <Gold.Chemscore.DEClash>
0.2195

> <Gold.Chemscore.DEInternal>
1.9811

> <Gold.Chemscore.Rot>
1.4318

> <Gold.Chemscore.Internal.Correction>
   9.000000E+99

> <Gold.Chemscore.Hbonds>
donor molecule, donor type, donor heavy atom, donor atom, acceptor molecule, acceptor atom, score
      L1  H     9    28       P1  7948  0.64
      L1  H    12    29       P1  7948  0.48
      L1  H    16    44       P1 10747  0.77
      P1  H  7989  7998       L1     4  0.29

> <Gold.Chemscore.Hbond.Weighted>
-8.3269

> <Gold.Chemscore.Metal.Weighted>
-0.0000

> <Gold.Chemscore.Lipo.Weighted>
-9.6989

> <Gold.Chemscore.Internal_Hbond.Weighted>
0.0000

> <Gold.Chemscore.DEClash.Weighted>
0.2195

> <Gold.Chemscore.DEInternal.Weighted>
1.9811

> <Gold.Chemscore.Rot.Weighted>
3.6653

> <Gold.Chemscore.Internal.Correction.Weighted>
   9.000000E+99

> <Gold.Protein.RotatedTorsions>
[ 6907 6896 6895 6894 ] final   92.35 input  -60.11 | X-H torsion
[ 7974 7965 7964 7962 ] final   92.40 input  175.53 | X-H torsion
[ 8008 7997 7996 7995 ] final  127.52 input   59.86 | X-H torsion
[ 10167 10162 10161 10158 ] final  -19.32 input  -65.29 | X-H torsion
[ 10718 10713 10712 10709 ] final -143.33 input   66.30 | X-H torsion
[ 10763 10752 10751 10750 ] final -147.65 input  -60.55 | X-H torsion
[ 11005 11000 10999 10996 ] final -143.74 input  -57.11 | X-H torsion

> <Gold.Protein.ActiveResidues>
 VAL166  LYS551  ARG553  GLY616  TRP617  ASP618  TYR619  PRO620  LYS621  CYS622 
 ASP623  PHE694  ASN695  SER759  ASP760  ASP761  ALA762  ILE779  LEU786  VAL792 
 PHE793  MET794  SER795  GLU796  ALA797  LYS798  CYS799  TRP800  GLU811  SER814 

> <Gold.Protein.RotatedAtoms>
  152.5452  134.1516  159.8520 H   0  0  0  0  0  0  0  0  0  0  0  0  # atno 6907 bound_to 6896
  151.1542  133.4880  159.2602 H   0  0  0  0  0  0  0  0  0  0  0  0  # atno 6908 bound_to 6896
  151.1440  135.0204  159.8693 H   0  0  0  0  0  0  0  0  0  0  0  0  # atno 6909 bound_to 6896
  145.4928  139.2276  143.2820 H   0  0  0  0  0  0  0  0  0  0  0  0  # atno 7974 bound_to 7965
  156.2893  140.2667  156.2286 H   0  0  0  0  0  0  0  0  0  0  0  0  # atno 8008 bound_to 7997
  155.0095  140.0387  157.2412 H   0  0  0  0  0  0  0  0  0  0  0  0  # atno 8009 bound_to 7997
  154.7530  140.2746  155.6282 H   0  0  0  0  0  0  0  0  0  0  0  0  # atno 8010 bound_to 7997
  140.7267  143.4830  151.0092 H   0  0  0  0  0  0  0  0  0  0  0  0  # atno 10167 bound_to 10162
  156.3567  130.7716  151.1878 H   0  0  0  0  0  0  0  0  0  0  0  0  # atno 10718 bound_to 10713
  154.8274  135.3354  154.6852 H   0  0  0  0  0  0  0  0  0  0  0  0  # atno 10763 bound_to 10752
  153.7476  135.6941  153.4957 H   0  0  0  0  0  0  0  0  0  0  0  0  # atno 10764 bound_to 10752
  153.2199  135.4452  155.0428 H   0  0  0  0  0  0  0  0  0  0  0  0  # atno 10765 bound_to 10752
  140.8094  134.2762  157.4947 H   0  0  0  0  0  0  0  0  0  0  0  0  # atno 11005 bound_to 11000
  146.2273  140.5723  142.8990 LP  0  0  0  0  0  0  0  0  0  0  0  0  # atno 17320 bound_to 7965
  144.7824  140.5867  143.6596 LP  0  0  0  0  0  0  0  0  0  0  0  0  # atno 17321 bound_to 7965
  139.8530  143.7414  152.3177 LP  0  0  0  0  0  0  0  0  0  0  0  0  # atno 17342 bound_to 10162
  139.7602  144.7508  151.0375 LP  0  0  0  0  0  0  0  0  0  0  0  0  # atno 17343 bound_to 10162
  157.7468  131.0412  150.4634 LP  0  0  0  0  0  0  0  0  0  0  0  0  # atno 17370 bound_to 10713
  156.4838  130.4080  149.6446 LP  0  0  0  0  0  0  0  0  0  0  0  0  # atno 17371 bound_to 10713
  139.8715  134.9475  156.3968 LP  0  0  0  0  0  0  0  0  0  0  0  0  # atno 17394 bound_to 11000
  140.9213  133.7643  155.9910 LP  0  0  0  0  0  0  0  0  0  0  0  0  # atno 17395 bound_to 11000

$$$$
