AV-unprocessed.smi:1047|AV-procd|sdf|4570|dock7
  -GOLD-   22720 3 23D 1   1.00000     0.00000
 Structure written by MMmdl.
 56 58  0  0  0  0  0  0  0  0  2 V2000
  141.7112  137.0252  153.0368 C   0  0  0  0  0  0  0  0  0  0  0  0
  142.7075  136.0003  153.5974 C   0  0  0  0  0  0  0  0  0  0  0  0
  144.0023  135.9637  152.9189 N   0  0  0  0  0  0  0  0  0  0  0  0
  143.9189  135.3741  151.5848 C   0  0  0  0  0  0  0  0  0  0  0  0
  145.2824  135.3735  150.8731 C   0  0  0  0  0  0  0  0  0  0  0  0
  145.7970  136.7004  150.8232 O   0  0  0  0  0  0  0  0  0  0  0  0
  145.9496  137.2876  152.1132 C   0  0  1  0  0  0  0  0  0  0  0  0
  146.5173  138.7018  151.9326 C   0  0  0  0  0  0  0  0  0  0  0  0
  147.8501  138.8236  152.5557 N   0  3  0  0  0  0  0  0  0  0  0  0
  147.8668  139.6547  153.7758 C   0  0  0  0  0  0  0  0  0  0  0  0
  149.2206  139.5664  154.5085 C   0  0  1  0  0  0  0  0  0  0  0  0
  150.2509  139.3751  153.5591 O   0  0  0  0  0  0  0  0  0  0  0  0
  149.5691  140.8351  155.3124 C   0  0  0  0  0  0  0  0  0  0  0  0
  150.6371  140.6170  156.2712 N   0  0  0  0  0  0  0  0  0  0  0  0
  151.5209  139.6007  156.2793 C   0  0  0  0  0  0  0  0  0  0  0  0
  152.4223  139.5857  157.2566 N   0  0  0  0  0  0  0  0  0  0  0  0
  152.0893  140.7294  157.9619 C   0  0  0  0  0  0  0  0  0  0  0  0
  152.6643  141.2910  159.1227 C   0  0  0  0  0  0  0  0  0  0  0  0
  152.1503  142.4821  159.6828 C   0  0  0  0  0  0  0  0  0  0  0  0
  152.8016  143.0516  160.9311 C   0  0  0  0  0  0  0  0  0  0  0  0
  151.0422  143.1302  159.0803 C   0  0  0  0  0  0  0  0  0  0  0  0
  150.4726  144.4103  159.6653 C   0  0  0  0  0  0  0  0  0  0  0  0
  150.4569  142.5839  157.9191 C   0  0  0  0  0  0  0  0  0  0  0  0
  150.9777  141.3983  157.3708 C   0  0  0  0  0  0  0  0  0  0  0  0
  144.5749  137.3010  152.8112 C   0  0  0  0  0  0  0  0  0  0  0  0
  140.7426  136.9231  153.5260 H   0  0  0  0  0  0  0  0  0  0  0  0
  141.5577  136.8809  151.9670 H   0  0  0  0  0  0  0  0  0  0  0  0
  142.0460  138.0500  153.1957 H   0  0  0  0  0  0  0  0  0  0  0  0
  142.8513  136.1790  154.6639 H   0  0  0  0  0  0  0  0  0  0  0  0
  142.2413  135.0172  153.5191 H   0  0  0  0  0  0  0  0  0  0  0  0
  143.5578  134.3478  151.6455 H   0  0  0  0  0  0  0  0  0  0  0  0
  143.1965  135.9250  150.9804 H   0  0  0  0  0  0  0  0  0  0  0  0
  145.9881  134.7219  151.3906 H   0  0  0  0  0  0  0  0  0  0  0  0
  145.1798  134.9917  149.8573 H   0  0  0  0  0  0  0  0  0  0  0  0
  146.6482  136.6910  152.7032 H   0  0  0  0  0  0  0  0  0  0  0  0
  146.5811  138.9508  150.8724 H   0  0  0  0  0  0  0  0  0  0  0  0
  145.8488  139.4296  152.3947 H   0  0  0  0  0  0  0  0  0  0  0  0
  148.1844  137.8993  152.7884 H   0  0  0  0  0  0  0  0  0  0  0  0
  147.6378  140.6910  153.5228 H   0  0  0  0  0  0  0  0  0  0  0  0
  147.0637  139.3002  154.4222 H   0  0  0  0  0  0  0  0  0  0  0  0
  149.2176  138.7098  155.1841 H   0  0  0  0  0  0  0  0  0  0  0  0
  149.8834  139.4286  152.6905 H   0  0  0  0  0  0  0  0  0  0  0  0
  149.8787  141.6357  154.6386 H   0  0  0  0  0  0  0  0  0  0  0  0
  148.6917  141.2027  155.8467 H   0  0  0  0  0  0  0  0  0  0  0  0
  151.4983  138.8258  155.5269 H   0  0  0  0  0  0  0  0  0  0  0  0
  153.5084  140.7974  159.5818 H   0  0  0  0  0  0  0  0  0  0  0  0
  153.1509  144.0687  160.7509 H   0  0  0  0  0  0  0  0  0  0  0  0
  153.6600  142.4545  161.2406 H   0  0  0  0  0  0  0  0  0  0  0  0
  152.0912  143.0703  161.7581 H   0  0  0  0  0  0  0  0  0  0  0  0
  149.6067  144.7559  159.0997 H   0  0  0  0  0  0  0  0  0  0  0  0
  151.2214  145.2025  159.6487 H   0  0  0  0  0  0  0  0  0  0  0  0
  150.1565  144.2532  160.6967 H   0  0  0  0  0  0  0  0  0  0  0  0
  149.6133  143.0687  157.4505 H   0  0  0  0  0  0  0  0  0  0  0  0
  143.8929  137.9508  152.2598 H   0  0  0  0  0  0  0  0  0  0  0  0
  144.6811  137.7355  153.8060 H   0  0  0  0  0  0  0  0  0  0  0  0
  148.4782  139.2348  151.8799 H   0  0  0  0  0  0  0  0  0  0  0  0
  1  2  1  0  0  0  0
  1 26  1  0  0  0  0
  1 27  1  0  0  0  0
  1 28  1  0  0  0  0
  2  3  1  0  0  0  0
  2 29  1  0  0  0  0
  2 30  1  0  0  0  0
  3 25  1  0  0  0  0
  3  4  1  0  0  0  0
  4  5  1  0  0  0  0
  4 31  1  0  0  0  0
  4 32  1  0  0  0  0
  5  6  1  0  0  0  0
  5 33  1  0  0  0  0
  5 34  1  0  0  0  0
  6  7  1  0  0  0  0
  7  8  1  0  0  0  0
  7 25  1  0  0  0  0
  7 35  1  0  0  0  0
  8  9  1  0  0  0  0
  8 36  1  0  0  0  0
  8 37  1  0  0  0  0
  9 10  1  0  0  0  0
  9 38  1  0  0  0  0
  9 56  1  0  0  0  0
 10 11  1  0  0  0  0
 10 39  1  0  0  0  0
 10 40  1  0  0  0  0
 11 12  1  0  0  0  0
 11 13  1  0  0  0  0
 11 41  1  0  0  0  0
 12 42  1  0  0  0  0
 13 14  1  0  0  0  0
 13 43  1  0  0  0  0
 13 44  1  0  0  0  0
 14 24  1  0  0  0  0
 14 15  1  0  0  0  0
 15 16  2  0  0  0  0
 15 45  1  0  0  0  0
 16 17  1  0  0  0  0
 17 24  2  0  0  0  0
 17 18  1  0  0  0  0
 18 19  2  0  0  0  0
 18 46  1  0  0  0  0
 19 20  1  0  0  0  0
 19 21  1  0  0  0  0
 20 47  1  0  0  0  0
 20 48  1  0  0  0  0
 20 49  1  0  0  0  0
 21 22  1  0  0  0  0
 21 23  2  0  0  0  0
 22 50  1  0  0  0  0
 22 51  1  0  0  0  0
 22 52  1  0  0  0  0
 23 24  1  0  0  0  0
 23 53  1  0  0  0  0
 25 54  1  0  0  0  0
 25 55  1  0  0  0  0
M  CHG  1   9   1
M  END
> <s_m_source_file>
AV-unprocessed.smi

> <i_m_source_file_index>
1047

> <i_lp_mmshare_version>
43012

> <i_f3d_flags>
0

> <s_epik_input>
W0NIM11bQ0gyXU4xW0NIMl1bQ0gyXU9bQ0BIXShbQ0gyXTEpW0NIMl1bTkhdW0NIMl1bQ0BIXShbT0hdKVtDSDJdbihbY0hdbjIpYyhjMjMpW2NIXWMoW0NIM10pYyhbY0hdMylbQ0gzXQ==

> <s_epik_cmdline>
J2VwaWtfcHl0aG9uJywgJy1waCcsICc3LjAnLCAnLXRuJywgJzgnLCAnLW1hJywgJzIwMCcsICctbWV0YWxfYmluZGluZycsICctaW1hZScsICc8aW5maWxlLm1hZT4nLCAnLW9tYWUnLCAnPG91dGZpbGUubWFlPic=

> <r_epik_Ionization_Penalty>
0.692425

> <r_epik_Ionization_Penalty_Charging>
0.0243549

> <r_epik_Ionization_Penalty_Neutral>
0.66807

> <r_epik_State_Penalty>
0.592789

> <r_epik_Charging_Adjusted_Penalty>
0.617144

> <i_epik_Tot_Q>
1

> <i_epik_Tot_abs_Q>
1

> <r_epik_Metal_State_Penalty>
0.508021

> <b_epik_Metal_Only>
0

> <s_lp_Force_Field>
OPLS_2005

> <r_lp_Energy>
31.2277

> <b_lp_Chiralities_Consistent>
1

> <s_lp_Variant>
AV-unprocessed.smi:1047-11

> <Gold.Version>
5.8.1

> <Gold.Id.Protein>
6NUR|6NUR_protein|mol2

> <Gold.PLP.Fitness>
61.3526

> <Gold.PLP.PLP>
-48.7543

> <Gold.PLP.part.hbond>
-4.8647

> <Gold.PLP.part.metal>
0.0000

> <Gold.PLP.part.buried>
-5.1730

> <Gold.PLP.part.nonpolar>
-40.4756

> <Gold.PLP.part.repulsive>
1.4210

> <Gold.PLP.ligand.clash>
0.0000

> <Gold.PLP.ligand.torsion>
1.8656

> <Gold.PLP.Chemscore.Hbond>
5.3840

> <Gold.PLP.Chemscore.CHOScore>
0.0000

> <Gold.PLP.Chemscore.Metal>
0.0000

> <Gold.Chemscore.Hbonds>
donor molecule, donor type, donor heavy atom, donor atom, acceptor molecule, acceptor atom, score
      L1  H     9    38       P1  7948  1.50
      L1  H     9    56       P1  7957  1.00
      L1  H    12    42       P1  7957  1.00
      P1  H  7989  7998       L1    12  0.85
      P1  H  7997  8009       L1    16  0.76

> <Gold.PLP.Chemscore.Internal.Correction>
0.1775

> <Gold.Rescore>
     Score         DG    S(hbond)    S(metal)    S(lipo)     H(rot)  DE(clash)    DE(int)     intcor
     21.37     -26.43       3.82        0.00     126.98       2.60       2.13       2.93       ----

> <Gold.Chemscore.Fitness>
21.3706

> <Gold.Chemscore.DG>
-26.4286

> <Gold.Chemscore.ZeroCoef>
-5.4800

> <Gold.Chemscore.Hbond>
3.8204

> <Gold.Chemscore.Metal>
0.0000

> <Gold.Chemscore.Lipo>
126.9832

> <Gold.Chemscore.Internal_Hbond>
0.0000

> <Gold.Chemscore.DEClash>
2.1271

> <Gold.Chemscore.DEInternal>
2.9309

> <Gold.Chemscore.Rot>
2.6049

> <Gold.Chemscore.Internal.Correction>
   9.000000E+99

> <Gold.Chemscore.Hbonds>
donor molecule, donor type, donor heavy atom, donor atom, acceptor molecule, acceptor atom, score
      L1  H     9    38       P1  7948  0.71
      L1  H     9    56       P1  7957  0.93
      L1  H    12    42       P1  7957  0.97
      P1  H  7989  7998       L1    12  0.19
      P1  H  7997  8009       L1    16  0.16

> <Gold.Chemscore.Hbond.Weighted>
-12.7600

> <Gold.Chemscore.Metal.Weighted>
-0.0000

> <Gold.Chemscore.Lipo.Weighted>
-14.8570

> <Gold.Chemscore.Internal_Hbond.Weighted>
0.0000

> <Gold.Chemscore.DEClash.Weighted>
2.1271

> <Gold.Chemscore.DEInternal.Weighted>
2.9309

> <Gold.Chemscore.Rot.Weighted>
6.6685

> <Gold.Chemscore.Internal.Correction.Weighted>
   9.000000E+99

> <Gold.Protein.RotatedTorsions>
[ 6907 6896 6895 6894 ] final   16.25 input  -60.11 | X-H torsion
[ 7974 7965 7964 7962 ] final -149.62 input  175.53 | X-H torsion
[ 8008 7997 7996 7995 ] final  173.14 input   59.86 | X-H torsion
[ 10167 10162 10161 10158 ] final -151.91 input  -65.29 | X-H torsion
[ 10718 10713 10712 10709 ] final   51.78 input   66.30 | X-H torsion
[ 10763 10752 10751 10750 ] final -170.49 input  -60.55 | X-H torsion
[ 11005 11000 10999 10996 ] final  -50.95 input  -57.11 | X-H torsion

> <Gold.Protein.ActiveResidues>
 VAL166  LYS551  ARG553  GLY616  TRP617  ASP618  TYR619  PRO620  LYS621  CYS622 
 ASP623  PHE694  ASN695  SER759  ASP760  ASP761  ALA762  ILE779  LEU786  VAL792 
 PHE793  MET794  SER795  GLU796  ALA797  LYS798  CYS799  TRP800  GLU811  SER814 

> <Gold.Protein.RotatedAtoms>
  151.8309  135.0622  160.0436 H   0  0  0  0  0  0  0  0  0  0  0  0  # atno 6907 bound_to 6896
  152.2881  133.5530  159.5548 H   0  0  0  0  0  0  0  0  0  0  0  0  # atno 6908 bound_to 6896
  150.7218  134.0384  159.3799 H   0  0  0  0  0  0  0  0  0  0  0  0  # atno 6909 bound_to 6896
  144.7956  140.5040  143.5742 H   0  0  0  0  0  0  0  0  0  0  0  0  # atno 7974 bound_to 7965
  156.1105  140.1468  156.9345 H   0  0  0  0  0  0  0  0  0  0  0  0  # atno 8008 bound_to 7997
  154.4764  140.0893  156.7314 H   0  0  0  0  0  0  0  0  0  0  0  0  # atno 8009 bound_to 7997
  155.4604  140.3438  155.4314 H   0  0  0  0  0  0  0  0  0  0  0  0  # atno 8010 bound_to 7997
  139.7227  143.8932  152.2509 H   0  0  0  0  0  0  0  0  0  0  0  0  # atno 10167 bound_to 10162
  157.5013  130.8439  149.8320 H   0  0  0  0  0  0  0  0  0  0  0  0  # atno 10718 bound_to 10713
  154.6409  135.2898  155.0104 H   0  0  0  0  0  0  0  0  0  0  0  0  # atno 10763 bound_to 10752
  154.1231  135.6545  153.4911 H   0  0  0  0  0  0  0  0  0  0  0  0  # atno 10764 bound_to 10752
  153.0326  135.5292  154.7276 H   0  0  0  0  0  0  0  0  0  0  0  0  # atno 10765 bound_to 10752
  141.0844  133.6646  156.3806 H   0  0  0  0  0  0  0  0  0  0  0  0  # atno 11005 bound_to 11000
  145.5681  139.1482  143.3304 LP  0  0  0  0  0  0  0  0  0  0  0  0  # atno 17320 bound_to 7965
  146.2223  140.5815  142.9011 LP  0  0  0  0  0  0  0  0  0  0  0  0  # atno 17321 bound_to 7965
  139.8832  144.7006  150.8854 LP  0  0  0  0  0  0  0  0  0  0  0  0  # atno 17342 bound_to 10162
  140.7757  143.3644  151.1766 LP  0  0  0  0  0  0  0  0  0  0  0  0  # atno 17343 bound_to 10162
  156.0231  130.3789  150.1903 LP  0  0  0  0  0  0  0  0  0  0  0  0  # atno 17370 bound_to 10713
  157.0093  130.9946  151.3370 LP  0  0  0  0  0  0  0  0  0  0  0  0  # atno 17371 bound_to 10713
  140.5396  134.6134  157.5375 LP  0  0  0  0  0  0  0  0  0  0  0  0  # atno 17394 bound_to 11000
  139.9661  134.7371  156.0136 LP  0  0  0  0  0  0  0  0  0  0  0  0  # atno 17395 bound_to 11000

$$$$
