AV-unprocessed.smi:1576|AV-procd|sdf|6347|dock9
  -GOLD-   22720 6563D 1   1.00000     0.00000
 Structure written by MMmdl.
 45 47  0  0  0  0  0  0  0  0  3 V2000
  151.6944  140.2632  155.3469 O   0  0  0  0  0  0  0  0  0  0  0  0
  151.0796  141.1829  155.8987 C   0  0  0  0  0  0  0  0  0  0  0  0
  149.7519  141.3121  155.7281 N   0  0  0  0  0  0  0  0  0  0  0  0
  148.8716  140.5254  154.9383 C   0  0  0  0  0  0  0  0  0  0  0  0
  147.5321  140.9531  154.8212 C   0  0  0  0  0  0  0  0  0  0  0  0
  146.6274  140.2104  154.0352 C   0  0  0  0  0  0  0  0  0  0  0  0
  147.0829  139.0522  153.3647 C   0  0  0  0  0  0  0  0  0  0  0  0
  146.2576  138.2495  152.5666 N   0  0  0  0  0  0  0  0  0  0  0  0
  146.7852  138.0621  151.2173 C   0  0  0  0  0  0  0  0  0  0  0  0
  145.7651  137.3330  150.3260 C   0  0  0  0  0  0  0  0  0  0  0  0
  145.3198  136.0101  150.9697 C   0  0  0  0  0  0  0  0  0  0  0  0
  144.8019  136.2605  152.3953 C   0  0  0  0  0  0  0  0  0  0  0  0
  145.8451  137.0180  153.2353 C   0  0  0  0  0  0  0  0  0  0  0  0
  148.3773  138.6859  153.4844 N   0  3  0  0  0  0  0  0  0  0  0  0
  149.2748  139.3682  154.2288 C   0  0  0  0  0  0  0  0  0  0  0  0
  151.5828  142.1351  156.7296 N   0  5  0  0  0  0  0  0  0  0  0  0
  150.8453  142.7656  157.8313 C   0  0  2  0  0  0  0  0  0  0  0  0
  151.3048  144.2330  158.0002 C   0  0  0  0  0  0  0  0  0  0  0  0
  152.6238  144.2714  158.7829 C   0  0  0  0  0  0  0  0  0  0  0  0
  152.5054  142.9031  159.9919 S   0  0  0  0  0  0  0  0  0  0  0  0
  153.7370  142.0998  159.9403 O   0  0  0  0  0  0  0  0  0  0  0  0
  152.0059  143.4316  161.2711 O   0  0  0  0  0  0  0  0  0  0  0  0
  151.1372  142.0140  159.1450 C   0  0  0  0  0  0  0  0  0  0  0  0
  149.3149  142.0274  156.2906 H   0  0  0  0  0  0  0  0  0  0  0  0
  147.1952  141.8405  155.3370 H   0  0  0  0  0  0  0  0  0  0  0  0
  145.5990  140.5297  153.9519 H   0  0  0  0  0  0  0  0  0  0  0  0
  147.0312  139.0313  150.7814 H   0  0  0  0  0  0  0  0  0  0  0  0
  147.7113  137.4877  151.2630 H   0  0  0  0  0  0  0  0  0  0  0  0
  144.8959  137.9727  150.1672 H   0  0  0  0  0  0  0  0  0  0  0  0
  146.1956  137.1453  149.3420 H   0  0  0  0  0  0  0  0  0  0  0  0
  144.5459  135.5375  150.3642 H   0  0  0  0  0  0  0  0  0  0  0  0
  146.1604  135.3158  151.0009 H   0  0  0  0  0  0  0  0  0  0  0  0
  143.8785  136.8395  152.3514 H   0  0  0  0  0  0  0  0  0  0  0  0
  144.5514  135.3140  152.8750 H   0  0  0  0  0  0  0  0  0  0  0  0
  146.7164  136.3829  153.4018 H   0  0  0  0  0  0  0  0  0  0  0  0
  145.4295  137.2540  154.2160 H   0  0  0  0  0  0  0  0  0  0  0  0
  150.2775  138.9674  154.2167 H   0  0  0  0  0  0  0  0  0  0  0  0
  149.7702  142.7417  157.6468 H   0  0  0  0  0  0  0  0  0  0  0  0
  151.3851  144.7603  157.0487 H   0  0  0  0  0  0  0  0  0  0  0  0
  150.5484  144.7623  158.5805 H   0  0  0  0  0  0  0  0  0  0  0  0
  153.4755  144.0769  158.1290 H   0  0  0  0  0  0  0  0  0  0  0  0
  152.7894  145.2178  159.2972 H   0  0  0  0  0  0  0  0  0  0  0  0
  150.2683  142.0491  159.8020 H   0  0  0  0  0  0  0  0  0  0  0  0
  151.4044  140.9667  158.9997 H   0  0  0  0  0  0  0  0  0  0  0  0
  148.6946  137.8531  152.9878 H   0  0  0  0  0  0  0  0  0  0  0  0
  1  2  2  0  0  0  0
  2  3  1  0  0  0  0
  2 16  1  0  0  0  0
  3  4  1  0  0  0  0
  3 24  1  0  0  0  0
  4 15  1  0  0  0  0
  4  5  2  0  0  0  0
  5  6  1  0  0  0  0
  5 25  1  0  0  0  0
  6  7  2  0  0  0  0
  6 26  1  0  0  0  0
  7  8  1  0  0  0  0
  7 14  1  0  0  0  0
  8 13  1  0  0  0  0
  8  9  1  0  0  0  0
  9 10  1  0  0  0  0
  9 27  1  0  0  0  0
  9 28  1  0  0  0  0
 10 11  1  0  0  0  0
 10 29  1  0  0  0  0
 10 30  1  0  0  0  0
 11 12  1  0  0  0  0
 11 31  1  0  0  0  0
 11 32  1  0  0  0  0
 12 13  1  0  0  0  0
 12 33  1  0  0  0  0
 12 34  1  0  0  0  0
 13 35  1  0  0  0  0
 13 36  1  0  0  0  0
 14 15  2  0  0  0  0
 14 45  1  0  0  0  0
 15 37  1  0  0  0  0
 16 17  1  0  0  0  0
 17 23  1  0  0  0  0
 17 18  1  0  0  0  0
 17 38  1  0  0  0  0
 18 19  1  0  0  0  0
 18 39  1  0  0  0  0
 18 40  1  0  0  0  0
 19 20  1  0  0  0  0
 19 41  1  0  0  0  0
 19 42  1  0  0  0  0
 20 21  2  0  0  0  0
 20 22  2  0  0  0  0
 20 23  1  0  0  0  0
 23 43  1  0  0  0  0
 23 44  1  0  0  0  0
M  CHG  1  14   1
M  CHG  1  16  -1
M  END
> <s_m_source_file>
AV-unprocessed.smi

> <i_m_source_file_index>
1576

> <i_lp_mmshare_version>
43012

> <i_f3d_flags>
0

> <s_epik_input>
Tz1TMSg9TylbQ0gyXVtDSDJdW0NASF0oW0NIMl0xKVtOSF1DKD1PKVtOSF1jMltjSF1bY0hdYyhuW2NIXTIpTjNbQ0gyXVtDSDJdW0NIMl1bQ0gyXVtDSDJdMw==

> <s_epik_cmdline>
J2VwaWtfcHl0aG9uJywgJy1waCcsICc3LjAnLCAnLXRuJywgJzgnLCAnLW1hJywgJzIwMCcsICctbWV0YWxfYmluZGluZycsICctaW1hZScsICc8aW5maWxlLm1hZT4nLCAnLW9tYWUnLCAnPG91dGZpbGUubWFlPic=

> <r_lp_tautomer_probability>
0.999994

> <r_epik_Ionization_Penalty>
8.26491

> <r_epik_Ionization_Penalty_Charging>
8.26491

> <r_epik_Ionization_Penalty_Neutral>
3.15169e-06

> <r_epik_State_Penalty>
7.8977

> <r_epik_Charging_Adjusted_Penalty>
16.1626

> <i_epik_Tot_Q>
0

> <i_epik_Tot_abs_Q>
2

> <r_epik_Metal_State_Penalty>
3.88896

> <b_epik_Metal_Only>
1

> <s_lp_Force_Field>
OPLS_2005

> <r_lp_Energy>
29.9243

> <b_lp_Chiralities_Consistent>
1

> <s_lp_Variant>
AV-unprocessed.smi:1576-5

> <Gold.Version>
5.8.1

> <Gold.Id.Protein>
6NUR|6NUR_protein|mol2

> <Gold.PLP.Fitness>
41.8498

> <Gold.PLP.PLP>
-34.7588

> <Gold.PLP.part.hbond>
-3.0000

> <Gold.PLP.part.metal>
0.0000

> <Gold.PLP.part.buried>
7.1863

> <Gold.PLP.part.nonpolar>
-40.9471

> <Gold.PLP.part.repulsive>
0.6417

> <Gold.PLP.ligand.clash>
0.0000

> <Gold.PLP.ligand.torsion>
0.8249

> <Gold.PLP.Chemscore.Hbond>
2.8640

> <Gold.PLP.Chemscore.CHOScore>
0.0000

> <Gold.PLP.Chemscore.Metal>
0.0000

> <Gold.Chemscore.Hbonds>
donor molecule, donor type, donor heavy atom, donor atom, acceptor molecule, acceptor atom, score
      L1  H    14    45       P1  7948  2.00
      P1  H  7989  7998       L1     1  0.86

> <Gold.PLP.Chemscore.Internal.Correction>
0.1487

> <Gold.Rescore>
     Score         DG    S(hbond)    S(metal)    S(lipo)     H(rot)  DE(clash)    DE(int)     intcor
     15.17     -20.99       2.32        0.00      93.38       1.24       3.58       2.24       ----

> <Gold.Chemscore.Fitness>
15.1743

> <Gold.Chemscore.DG>
-20.9923

> <Gold.Chemscore.ZeroCoef>
-5.4800

> <Gold.Chemscore.Hbond>
2.3209

> <Gold.Chemscore.Metal>
0.0000

> <Gold.Chemscore.Lipo>
93.3849

> <Gold.Chemscore.Internal_Hbond>
0.0000

> <Gold.Chemscore.DEClash>
3.5818

> <Gold.Chemscore.DEInternal>
2.2361

> <Gold.Chemscore.Rot>
1.2366

> <Gold.Chemscore.Internal.Correction>
   9.000000E+99

> <Gold.Chemscore.Hbonds>
donor molecule, donor type, donor heavy atom, donor atom, acceptor molecule, acceptor atom, score
      L1  H    14    45       P1  7948  0.98
      P1  H  7989  7998       L1     1  0.22

> <Gold.Chemscore.Hbond.Weighted>
-7.7520

> <Gold.Chemscore.Metal.Weighted>
-0.0000

> <Gold.Chemscore.Lipo.Weighted>
-10.9260

> <Gold.Chemscore.Internal_Hbond.Weighted>
0.0000

> <Gold.Chemscore.DEClash.Weighted>
3.5818

> <Gold.Chemscore.DEInternal.Weighted>
2.2361

> <Gold.Chemscore.Rot.Weighted>
3.1657

> <Gold.Chemscore.Internal.Correction.Weighted>
   9.000000E+99

> <Gold.Protein.RotatedTorsions>
[ 6907 6896 6895 6894 ] final  -54.60 input  -60.11 | X-H torsion
[ 7974 7965 7964 7962 ] final   61.68 input  175.53 | X-H torsion
[ 8008 7997 7996 7995 ] final -107.01 input   59.86 | X-H torsion
[ 10167 10162 10161 10158 ] final -150.46 input  -65.29 | X-H torsion
[ 10718 10713 10712 10709 ] final  160.39 input   66.30 | X-H torsion
[ 10763 10752 10751 10750 ] final   -5.68 input  -60.55 | X-H torsion
[ 11005 11000 10999 10996 ] final   42.22 input  -57.11 | X-H torsion

> <Gold.Protein.ActiveResidues>
 VAL166  LYS551  ARG553  GLY616  TRP617  ASP618  TYR619  PRO620  LYS621  CYS622 
 ASP623  PHE694  ASN695  SER759  ASP760  ASP761  ALA762  ILE779  LEU786  VAL792 
 PHE793  MET794  SER795  GLU796  ALA797  LYS798  CYS799  TRP800  GLU811  SER814 

> <Gold.Protein.RotatedAtoms>
  150.8324  134.7583  159.6864 H   0  0  0  0  0  0  0  0  0  0  0  0  # atno 6907 bound_to 6896
  152.4426  134.5556  159.9889 H   0  0  0  0  0  0  0  0  0  0  0  0  # atno 6908 bound_to 6896
  151.5713  133.3352  159.3026 H   0  0  0  0  0  0  0  0  0  0  0  0  # atno 6909 bound_to 6896
  145.8820  139.3450  143.0700 H   0  0  0  0  0  0  0  0  0  0  0  0  # atno 7974 bound_to 7965
  154.9231  140.0407  157.2008 H   0  0  0  0  0  0  0  0  0  0  0  0  # atno 8008 bound_to 7997
  154.8235  140.2887  155.5749 H   0  0  0  0  0  0  0  0  0  0  0  0  # atno 8009 bound_to 7997
  156.2982  140.2514  156.3146 H   0  0  0  0  0  0  0  0  0  0  0  0  # atno 8010 bound_to 7997
  139.7352  143.8746  152.2547 H   0  0  0  0  0  0  0  0  0  0  0  0  # atno 10167 bound_to 10162
  157.1511  131.0564  151.2279 H   0  0  0  0  0  0  0  0  0  0  0  0  # atno 10718 bound_to 10713
  153.4018  135.7005  153.6421 H   0  0  0  0  0  0  0  0  0  0  0  0  # atno 10763 bound_to 10752
  153.4951  135.3664  155.2512 H   0  0  0  0  0  0  0  0  0  0  0  0  # atno 10764 bound_to 10752
  154.8711  135.4098  154.3354 H   0  0  0  0  0  0  0  0  0  0  0  0  # atno 10765 bound_to 10752
  140.1760  134.4163  155.8228 H   0  0  0  0  0  0  0  0  0  0  0  0  # atno 11005 bound_to 11000
  145.9012  140.9241  143.0502 LP  0  0  0  0  0  0  0  0  0  0  0  0  # atno 17320 bound_to 7965
  144.6727  140.1035  143.7459 LP  0  0  0  0  0  0  0  0  0  0  0  0  # atno 17321 bound_to 7965
  139.8681  144.7083  150.9020 LP  0  0  0  0  0  0  0  0  0  0  0  0  # atno 17342 bound_to 10162
  140.7778  143.3761  151.1560 LP  0  0  0  0  0  0  0  0  0  0  0  0  # atno 17343 bound_to 10162
  157.4219  130.7442  149.6920 LP  0  0  0  0  0  0  0  0  0  0  0  0  # atno 17370 bound_to 10713
  155.9770  130.4068  150.3739 LP  0  0  0  0  0  0  0  0  0  0  0  0  # atno 17371 bound_to 10713
  141.2220  133.6978  156.7847 LP  0  0  0  0  0  0  0  0  0  0  0  0  # atno 17394 bound_to 11000
  140.2322  134.8677  157.3488 LP  0  0  0  0  0  0  0  0  0  0  0  0  # atno 17395 bound_to 11000

$$$$
