AV-unprocessed.smi:1834|AV-procd|sdf|7470|dock4
  -GOLD-   22720 9163D 1   1.00000     0.00000
 Structure written by MMmdl.
 46 47  0  0  0  0  0  0  0  0  2 V2000
  144.7443  143.6268  154.6967 C   0  0  0  0  0  0  0  0  0  0  0  0
  145.9648  143.0489  153.9655 C   0  0  0  0  0  0  0  0  0  0  0  0
  146.0490  141.5694  154.0648 N   0  3  2  0  0  0  0  0  0  0  0  0
  145.7739  141.0904  155.4448 C   0  0  0  0  0  0  0  0  0  0  0  0
  145.7494  139.5549  155.5149 C   0  0  0  0  0  0  0  0  0  0  0  0
  147.0487  138.9529  154.9594 C   0  0  0  0  0  0  0  0  0  0  0  0
  147.3441  139.4764  153.5414 C   0  0  1  0  0  0  0  0  0  0  0  0
  146.4154  138.8346  152.4824 C   0  0  0  0  0  0  0  0  0  0  0  0
  146.7909  137.4590  152.1676 N   0  0  0  0  0  0  0  0  0  0  0  0
  145.9314  136.4460  151.9853 C   0  0  0  0  0  0  0  0  0  0  0  0
  144.7107  136.5705  152.0842 O   0  0  0  0  0  0  0  0  0  0  0  0
  146.5771  135.3103  151.6704 N   0  0  0  0  0  0  0  0  0  0  0  0
  146.0534  134.1018  151.3332 C   0  0  0  0  0  0  0  0  0  0  0  0
  146.4547  132.8528  151.7226 C   0  0  0  0  0  0  0  0  0  0  0  0
  145.5303  132.0020  151.0495 C   0  0  0  0  0  0  0  0  0  0  0  0
  145.4596  130.5037  151.0824 C   0  0  0  0  0  0  0  0  0  0  0  0
  144.6507  132.6777  150.3192 N   0  0  0  0  0  0  0  0  0  0  0  0
  144.9686  133.9784  150.4925 N   0  0  0  0  0  0  0  0  0  0  0  0
  144.1919  135.0011  149.8186 C   0  0  0  0  0  0  0  0  0  0  0  0
  147.3335  141.0237  153.5481 C   0  0  0  0  0  0  0  0  0  0  0  0
  144.7438  144.7152  154.6359 H   0  0  0  0  0  0  0  0  0  0  0  0
  144.7561  143.3595  155.7534 H   0  0  0  0  0  0  0  0  0  0  0  0
  143.8029  143.2799  154.2715 H   0  0  0  0  0  0  0  0  0  0  0  0
  145.9649  143.3530  152.9177 H   0  0  0  0  0  0  0  0  0  0  0  0
  146.8554  143.4917  154.4135 H   0  0  0  0  0  0  0  0  0  0  0  0
  146.5326  141.4838  156.1232 H   0  0  0  0  0  0  0  0  0  0  0  0
  144.8130  141.4770  155.7865 H   0  0  0  0  0  0  0  0  0  0  0  0
  145.6073  139.2353  156.5478 H   0  0  0  0  0  0  0  0  0  0  0  0
  144.8914  139.1747  154.9602 H   0  0  0  0  0  0  0  0  0  0  0  0
  147.8751  139.2187  155.6201 H   0  0  0  0  0  0  0  0  0  0  0  0
  146.9945  137.8637  154.9641 H   0  0  0  0  0  0  0  0  0  0  0  0
  148.3589  139.1641  153.2905 H   0  0  0  0  0  0  0  0  0  0  0  0
  145.3941  138.8104  152.8635 H   0  0  0  0  0  0  0  0  0  0  0  0
  146.3788  139.4400  151.5760 H   0  0  0  0  0  0  0  0  0  0  0  0
  147.7784  137.2680  152.0743 H   0  0  0  0  0  0  0  0  0  0  0  0
  147.5845  135.3646  151.6389 H   0  0  0  0  0  0  0  0  0  0  0  0
  147.2680  132.5712  152.3741 H   0  0  0  0  0  0  0  0  0  0  0  0
  146.1693  130.0908  151.7994 H   0  0  0  0  0  0  0  0  0  0  0  0
  145.6903  130.0789  150.1052 H   0  0  0  0  0  0  0  0  0  0  0  0
  144.4642  130.1626  151.3681 H   0  0  0  0  0  0  0  0  0  0  0  0
  144.2535  135.9440  150.3622 H   0  0  0  0  0  0  0  0  0  0  0  0
  143.1451  134.7004  149.7620 H   0  0  0  0  0  0  0  0  0  0  0  0
  144.5768  135.1453  148.8089 H   0  0  0  0  0  0  0  0  0  0  0  0
  147.5439  141.4057  152.5508 H   0  0  0  0  0  0  0  0  0  0  0  0
  148.1458  141.3874  154.1797 H   0  0  0  0  0  0  0  0  0  0  0  0
  145.3121  141.1994  153.4807 H   0  0  0  0  0  0  0  0  0  0  0  0
  1  2  1  0  0  0  0
  1 21  1  0  0  0  0
  1 22  1  0  0  0  0
  1 23  1  0  0  0  0
  2  3  1  0  0  0  0
  2 24  1  0  0  0  0
  2 25  1  0  0  0  0
  3 20  1  0  0  0  0
  3  4  1  0  0  0  0
  3 46  1  0  0  0  0
  4  5  1  0  0  0  0
  4 26  1  0  0  0  0
  4 27  1  0  0  0  0
  5  6  1  0  0  0  0
  5 28  1  0  0  0  0
  5 29  1  0  0  0  0
  6  7  1  0  0  0  0
  6 30  1  0  0  0  0
  6 31  1  0  0  0  0
  7  8  1  0  0  0  0
  7 20  1  0  0  0  0
  7 32  1  0  0  0  0
  8  9  1  0  0  0  0
  8 33  1  0  0  0  0
  8 34  1  0  0  0  0
  9 10  1  0  0  0  0
  9 35  1  0  0  0  0
 10 11  2  0  0  0  0
 10 12  1  0  0  0  0
 12 13  1  0  0  0  0
 12 36  1  0  0  0  0
 13 18  1  0  0  0  0
 13 14  2  0  0  0  0
 14 15  1  0  0  0  0
 14 37  1  0  0  0  0
 15 16  1  0  0  0  0
 15 17  2  0  0  0  0
 16 38  1  0  0  0  0
 16 39  1  0  0  0  0
 16 40  1  0  0  0  0
 17 18  1  0  0  0  0
 18 19  1  0  0  0  0
 19 41  1  0  0  0  0
 19 42  1  0  0  0  0
 19 43  1  0  0  0  0
 20 44  1  0  0  0  0
 20 45  1  0  0  0  0
M  CHG  1   3   1
M  END
> <s_m_source_file>
AV-unprocessed.smi

> <i_m_source_file_index>
1834

> <i_lp_mmshare_version>
43012

> <i_f3d_flags>
0

> <s_epik_input>
W0NIM11bQ0gyXU4xW0NIMl1bQ0gyXVtDSDJdW0NASF0oW0NIMl0xKVtDSDJdW05IXUMoPU8pW05IXWMyW2NIXWMoW0NIM10pbm4yW0NIM10=

> <s_epik_cmdline>
J2VwaWtfcHl0aG9uJywgJy1waCcsICc3LjAnLCAnLXRuJywgJzgnLCAnLW1hJywgJzIwMCcsICctbWV0YWxfYmluZGluZycsICctaW1hZScsICc8aW5maWxlLm1hZT4nLCAnLW9tYWUnLCAnPG91dGZpbGUubWFlPic=

> <r_lp_tautomer_probability>
1

> <r_epik_Ionization_Penalty>
0.000466842

> <r_epik_Ionization_Penalty_Charging>
0.000378984

> <r_epik_Ionization_Penalty_Neutral>
8.78572e-05

> <r_epik_State_Penalty>
0.000231434

> <r_epik_Charging_Adjusted_Penalty>
0.000610418

> <i_epik_Tot_Q>
1

> <i_epik_Tot_abs_Q>
1

> <r_epik_Metal_State_Penalty>
-0

> <b_epik_Metal_Only>
0

> <s_lp_Force_Field>
OPLS_2005

> <r_lp_Energy>
21.1664

> <b_lp_Chiralities_Consistent>
1

> <s_lp_Variant>
AV-unprocessed.smi:1834-2

> <Gold.Version>
5.8.1

> <Gold.Id.Protein>
6NUR|6NUR_protein|mol2

> <Gold.PLP.Fitness>
42.9198

> <Gold.PLP.PLP>
-32.2888

> <Gold.PLP.part.hbond>
-2.7831

> <Gold.PLP.part.metal>
0.0000

> <Gold.PLP.part.buried>
-3.6361

> <Gold.PLP.part.nonpolar>
-27.4483

> <Gold.PLP.part.repulsive>
0.4794

> <Gold.PLP.ligand.clash>
0.0000

> <Gold.PLP.ligand.torsion>
0.7008

> <Gold.PLP.Chemscore.Hbond>
4.0000

> <Gold.PLP.Chemscore.CHOScore>
0.0000

> <Gold.PLP.Chemscore.Metal>
0.0000

> <Gold.Chemscore.Hbonds>
donor molecule, donor type, donor heavy atom, donor atom, acceptor molecule, acceptor atom, score
      L1  H     3    46       P1 10175  1.98
      L1  H     9    35       P1  7948  1.00
      L1  H    12    36       P1  7948  1.00

> <Gold.PLP.Chemscore.Internal.Correction>
0.0325

> <Gold.Rescore>
     Score         DG    S(hbond)    S(metal)    S(lipo)     H(rot)  DE(clash)    DE(int)     intcor
     16.73     -17.83       2.49        0.00      65.62       1.43       0.40       0.70       ----

> <Gold.Chemscore.Fitness>
16.7280

> <Gold.Chemscore.DG>
-17.8313

> <Gold.Chemscore.ZeroCoef>
-5.4800

> <Gold.Chemscore.Hbond>
2.4947

> <Gold.Chemscore.Metal>
0.0000

> <Gold.Chemscore.Lipo>
65.6188

> <Gold.Chemscore.Internal_Hbond>
0.0000

> <Gold.Chemscore.DEClash>
0.4002

> <Gold.Chemscore.DEInternal>
0.7031

> <Gold.Chemscore.Rot>
1.4291

> <Gold.Chemscore.Internal.Correction>
   9.000000E+99

> <Gold.Chemscore.Hbonds>
donor molecule, donor type, donor heavy atom, donor atom, acceptor molecule, acceptor atom, score
      L1  H     3    46       P1 10175  0.37
      L1  H     9    35       P1  7948  0.91
      L1  H    12    36       P1  7948  0.85

> <Gold.Chemscore.Hbond.Weighted>
-8.3323

> <Gold.Chemscore.Metal.Weighted>
-0.0000

> <Gold.Chemscore.Lipo.Weighted>
-7.6774

> <Gold.Chemscore.Internal_Hbond.Weighted>
0.0000

> <Gold.Chemscore.DEClash.Weighted>
0.4002

> <Gold.Chemscore.DEInternal.Weighted>
0.7031

> <Gold.Chemscore.Rot.Weighted>
3.6584

> <Gold.Chemscore.Internal.Correction.Weighted>
   9.000000E+99

> <Gold.Protein.RotatedTorsions>
[ 6907 6896 6895 6894 ] final  106.92 input  -60.11 | X-H torsion
[ 7974 7965 7964 7962 ] final  167.66 input  175.53 | X-H torsion
[ 8008 7997 7996 7995 ] final -116.79 input   59.86 | X-H torsion
[ 10167 10162 10161 10158 ] final   48.41 input  -65.29 | X-H torsion
[ 10718 10713 10712 10709 ] final   35.79 input   66.30 | X-H torsion
[ 10763 10752 10751 10750 ] final  -97.59 input  -60.55 | X-H torsion
[ 11005 11000 10999 10996 ] final  128.82 input  -57.11 | X-H torsion

> <Gold.Protein.ActiveResidues>
 VAL166  LYS551  ARG553  GLY616  TRP617  ASP618  TYR619  PRO620  LYS621  CYS622 
 ASP623  PHE694  ASN695  SER759  ASP760  ASP761  ALA762  ILE779  LEU786  VAL792 
 PHE793  MET794  SER795  GLU796  ALA797  LYS798  CYS799  TRP800  GLU811  SER814 

> <Gold.Protein.RotatedAtoms>
  152.5175  133.9310  159.7580 H   0  0  0  0  0  0  0  0  0  0  0  0  # atno 6907 bound_to 6896
  150.9660  133.6386  159.2753 H   0  0  0  0  0  0  0  0  0  0  0  0  # atno 6908 bound_to 6896
  151.3614  135.0910  159.9488 H   0  0  0  0  0  0  0  0  0  0  0  0  # atno 6909 bound_to 6896
  144.7416  139.8793  143.6395 H   0  0  0  0  0  0  0  0  0  0  0  0  # atno 7974 bound_to 7965
  155.0735  140.0393  157.2616 H   0  0  0  0  0  0  0  0  0  0  0  0  # atno 8008 bound_to 7997
  154.6964  140.2664  155.6738 H   0  0  0  0  0  0  0  0  0  0  0  0  # atno 8009 bound_to 7997
  156.2746  140.2749  156.1559 H   0  0  0  0  0  0  0  0  0  0  0  0  # atno 8010 bound_to 7997
  140.2936  144.3017  150.6235 H   0  0  0  0  0  0  0  0  0  0  0  0  # atno 10167 bound_to 10162
  157.3269  130.7477  149.6822 H   0  0  0  0  0  0  0  0  0  0  0  0  # atno 10718 bound_to 10713
  154.7341  135.5041  153.9013 H   0  0  0  0  0  0  0  0  0  0  0  0  # atno 10763 bound_to 10752
  153.0978  135.6677  153.9738 H   0  0  0  0  0  0  0  0  0  0  0  0  # atno 10764 bound_to 10752
  153.9532  135.3055  155.3417 H   0  0  0  0  0  0  0  0  0  0  0  0  # atno 10765 bound_to 10752
  139.9581  134.9608  156.9058 H   0  0  0  0  0  0  0  0  0  0  0  0  # atno 11005 bound_to 11000
  146.1223  139.4243  143.0220 LP  0  0  0  0  0  0  0  0  0  0  0  0  # atno 17320 bound_to 7965
  145.7286  141.0050  143.1364 LP  0  0  0  0  0  0  0  0  0  0  0  0  # atno 17321 bound_to 7965
  140.5711  143.2181  151.7597 LP  0  0  0  0  0  0  0  0  0  0  0  0  # atno 17342 bound_to 10162
  139.4932  144.4215  151.9973 LP  0  0  0  0  0  0  0  0  0  0  0  0  # atno 17343 bound_to 10162
  155.9691  130.4206  150.4432 LP  0  0  0  0  0  0  0  0  0  0  0  0  # atno 17370 bound_to 10713
  157.2457  131.0535  151.2409 LP  0  0  0  0  0  0  0  0  0  0  0  0  # atno 17371 bound_to 10713
  140.5562  134.0579  155.7384 LP  0  0  0  0  0  0  0  0  0  0  0  0  # atno 17394 bound_to 11000
  141.1255  133.9389  157.2643 LP  0  0  0  0  0  0  0  0  0  0  0  0  # atno 17395 bound_to 11000

$$$$
