AV-unprocessed.smi:47|AV-procd|sdf|438|dock10
  -GOLD-   2262016303D 1   1.00000     0.00000
 Structure written by MMmdl.
 31 33  0  0  0  0  0  0  0  0  1 V2000
  145.3879  142.1055  154.3021 O   0  0  0  0  0  0  0  0  0  0  0  0
  146.7949  141.9988  154.2575 C   0  0  2  0  0  0  0  0  0  0  0  0
  147.3037  141.5899  152.8815 C   0  0  0  0  0  0  0  0  0  0  0  0
  148.6421  141.0732  153.1285 N   0  0  0  0  0  0  0  0  0  0  0  0
  148.6434  140.4508  154.4580 C   0  0  1  0  0  0  0  0  0  0  0  0
  149.8486  140.8211  155.2674 C   0  0  0  0  0  0  0  0  0  0  0  0
  151.0401  140.3011  154.9905 N   0  0  0  0  0  0  0  0  0  0  0  0
  151.8088  140.8375  155.9604 N   0  0  0  0  0  0  0  0  0  0  0  0
  151.0707  141.6150  156.7630 C   0  0  0  0  0  0  0  0  0  0  0  0
  151.5842  142.3409  157.9267 C   0  0  0  0  0  0  0  0  0  0  0  0
  152.3088  141.6617  158.9336 C   0  0  0  0  0  0  0  0  0  0  0  0
  152.7983  142.3590  160.0553 C   0  0  0  0  0  0  0  0  0  0  0  0
  152.5694  143.7420  160.1816 C   0  0  0  0  0  0  0  0  0  0  0  0
  151.8513  144.4275  159.1843 C   0  0  0  0  0  0  0  0  0  0  0  0
  151.3612  143.7311  158.0625 C   0  0  0  0  0  0  0  0  0  0  0  0
  149.7986  141.6348  156.3652 N   0  0  0  0  0  0  0  0  0  0  0  0
  147.3353  140.8837  155.1475 C   0  0  0  0  0  0  0  0  0  0  0  0
  147.2404  142.9517  154.5474 H   0  0  0  0  0  0  0  0  0  0  0  0
  148.6297  139.3659  154.3443 H   0  0  0  0  0  0  0  0  0  0  0  0
  152.7967  140.6460  156.0433 H   0  0  0  0  0  0  0  0  0  0  0  0
  145.0227  141.5341  153.6438 H   0  0  0  0  0  0  0  0  0  0  0  0
  146.6752  140.7977  152.4719 H   0  0  0  0  0  0  0  0  0  0  0  0
  147.3093  142.4160  152.1701 H   0  0  0  0  0  0  0  0  0  0  0  0
  148.8639  140.3799  152.4214 H   0  0  0  0  0  0  0  0  0  0  0  0
  152.4953  140.6005  158.8578 H   0  0  0  0  0  0  0  0  0  0  0  0
  153.3495  141.8317  160.8200 H   0  0  0  0  0  0  0  0  0  0  0  0
  152.9444  144.2763  161.0420 H   0  0  0  0  0  0  0  0  0  0  0  0
  151.6748  145.4889  159.2792 H   0  0  0  0  0  0  0  0  0  0  0  0
  150.8119  144.2766  157.3091 H   0  0  0  0  0  0  0  0  0  0  0  0
  147.4669  141.1993  156.1836 H   0  0  0  0  0  0  0  0  0  0  0  0
  146.6414  140.0416  155.1493 H   0  0  0  0  0  0  0  0  0  0  0  0
  1  2  1  0  0  0  0
  1 21  1  0  0  0  0
  2 18  1  0  0  0  0
  2 17  1  0  0  0  0
  2  3  1  0  0  0  0
  3  4  1  0  0  0  0
  3 22  1  0  0  0  0
  3 23  1  0  0  0  0
  4  5  1  0  0  0  0
  4 24  1  0  0  0  0
  5 19  1  0  0  0  0
  5  6  1  0  0  0  0
  5 17  1  0  0  0  0
  6 16  1  0  0  0  0
  6  7  2  0  0  0  0
  7  8  1  0  0  0  0
  8 20  1  0  0  0  0
  8  9  1  0  0  0  0
  9 10  1  0  0  0  0
  9 16  2  0  0  0  0
 10 15  1  0  0  0  0
 10 11  2  0  0  0  0
 11 12  1  0  0  0  0
 11 25  1  0  0  0  0
 12 13  2  0  0  0  0
 12 26  1  0  0  0  0
 13 14  1  0  0  0  0
 13 27  1  0  0  0  0
 14 15  2  0  0  0  0
 14 28  1  0  0  0  0
 15 29  1  0  0  0  0
 17 30  1  0  0  0  0
 17 31  1  0  0  0  0
M  END
> <s_m_source_file>
AV-unprocessed.smi

> <i_m_source_file_index>
47

> <i_lp_mmshare_version>
43012

> <i_f3d_flags>
0

> <s_epik_input>
W09IXVtDQEhdMVtDSDJdW05IXVtDQEBIXShbQ0gyXTEpYzJuW25IXWMobjIpLWMzW2NIXVtjSF1bY0hdW2NIXVtjSF0z

> <s_epik_cmdline>
J2VwaWtfcHl0aG9uJywgJy1waCcsICc3LjAnLCAnLXRuJywgJzgnLCAnLW1hJywgJzIwMCcsICctbWV0YWxfYmluZGluZycsICctaW1hZScsICc8aW5maWxlLm1hZT4nLCAnLW9tYWUnLCAnPG91dGZpbGUubWFlPic=

> <r_epik_Ionization_Penalty>
1.65981

> <r_epik_Ionization_Penalty_Charging>
0

> <r_epik_Ionization_Penalty_Neutral>
1.65981

> <r_epik_State_Penalty>
2.0492

> <r_epik_Charging_Adjusted_Penalty>
2.0492

> <i_epik_Tot_Q>
0

> <i_epik_Tot_abs_Q>
0

> <r_epik_Metal_State_Penalty>
2.54641

> <b_epik_Metal_Only>
0

> <s_lp_Force_Field>
OPLS_2005

> <r_lp_Energy>
25.8544

> <b_lp_Chiralities_Consistent>
1

> <s_lp_Variant>
AV-unprocessed.smi:47-16

> <Gold.Version>
5.8.1

> <Gold.Id.Protein>
6NUR|6NUR_protein|mol2

> <Gold.PLP.Fitness>
42.6884

> <Gold.PLP.PLP>
-34.4145

> <Gold.PLP.part.hbond>
-3.6695

> <Gold.PLP.part.metal>
0.0000

> <Gold.PLP.part.buried>
-4.1059

> <Gold.PLP.part.nonpolar>
-26.9905

> <Gold.PLP.part.repulsive>
0.3228

> <Gold.PLP.ligand.clash>
0.0000

> <Gold.PLP.ligand.torsion>
1.2268

> <Gold.PLP.Chemscore.Hbond>
3.5705

> <Gold.PLP.Chemscore.CHOScore>
0.0000

> <Gold.PLP.Chemscore.Metal>
0.0000

> <Gold.Chemscore.Hbonds>
donor molecule, donor type, donor heavy atom, donor atom, acceptor molecule, acceptor atom, score
      L1  H     1    21       P1 10175  0.78
      L1  H     4    24       P1  7957  0.87
      P1  H  7989  7998       L1     7  1.00
      P1  H  8011  8017       L1     4  0.65

> <Gold.PLP.Chemscore.Internal.Correction>
0.0159

> <Gold.Rescore>
     Score         DG    S(hbond)    S(metal)    S(lipo)     H(rot)  DE(clash)    DE(int)     intcor
     17.64     -20.31       2.53        0.00      86.85       1.48       1.83       0.84       ----

> <Gold.Chemscore.Fitness>
17.6351

> <Gold.Chemscore.DG>
-20.3052

> <Gold.Chemscore.ZeroCoef>
-5.4800

> <Gold.Chemscore.Hbond>
2.5297

> <Gold.Chemscore.Metal>
0.0000

> <Gold.Chemscore.Lipo>
86.8498

> <Gold.Chemscore.Internal_Hbond>
0.0000

> <Gold.Chemscore.DEClash>
1.8299

> <Gold.Chemscore.DEInternal>
0.8402

> <Gold.Chemscore.Rot>
1.4786

> <Gold.Chemscore.Internal.Correction>
   9.000000E+99

> <Gold.Chemscore.Hbonds>
donor molecule, donor type, donor heavy atom, donor atom, acceptor molecule, acceptor atom, score
      L1  H     1    21       P1 10175  0.11
      L1  H     4    24       P1  7957  0.82
      P1  H  7989  7998       L1     7  0.47
      P1  H  8011  8017       L1     4  0.02

> <Gold.Chemscore.Hbond.Weighted>
-8.4491

> <Gold.Chemscore.Metal.Weighted>
-0.0000

> <Gold.Chemscore.Lipo.Weighted>
-10.1614

> <Gold.Chemscore.Internal_Hbond.Weighted>
0.0000

> <Gold.Chemscore.DEClash.Weighted>
1.8299

> <Gold.Chemscore.DEInternal.Weighted>
0.8402

> <Gold.Chemscore.Rot.Weighted>
3.7853

> <Gold.Chemscore.Internal.Correction.Weighted>
   9.000000E+99

> <Gold.Protein.RotatedTorsions>
[ 6907 6896 6895 6894 ] final   28.90 input  -60.11 | X-H torsion
[ 7974 7965 7964 7962 ] final   90.52 input  175.53 | X-H torsion
[ 8008 7997 7996 7995 ] final -133.64 input   59.86 | X-H torsion
[ 10167 10162 10161 10158 ] final -145.05 input  -65.29 | X-H torsion
[ 10718 10713 10712 10709 ] final  144.87 input   66.30 | X-H torsion
[ 10763 10752 10751 10750 ] final  102.56 input  -60.55 | X-H torsion
[ 11005 11000 10999 10996 ] final -106.28 input  -57.11 | X-H torsion

> <Gold.Protein.ActiveResidues>
 VAL166  LYS551  ARG553  GLY616  TRP617  ASP618  TYR619  PRO620  LYS621  CYS622 
 ASP623  PHE694  ASN695  SER759  ASP760  ASP761  ALA762  ILE779  LEU786  VAL792 
 PHE793  MET794  SER795  GLU796  ALA797  LYS798  CYS799  TRP800  GLU811  SER814 

> <Gold.Protein.RotatedAtoms>
  152.0238  134.9807  160.0570 H   0  0  0  0  0  0  0  0  0  0  0  0  # atno 6907 bound_to 6896
  152.1312  133.4404  159.4730 H   0  0  0  0  0  0  0  0  0  0  0  0  # atno 6908 bound_to 6896
  150.6856  134.2337  159.4488 H   0  0  0  0  0  0  0  0  0  0  0  0  # atno 6909 bound_to 6896
  145.5178  139.2278  143.2688 H   0  0  0  0  0  0  0  0  0  0  0  0  # atno 7974 bound_to 7965
  155.3488  140.0476  157.3046 H   0  0  0  0  0  0  0  0  0  0  0  0  # atno 8008 bound_to 7997
  154.5238  140.2234  155.8891 H   0  0  0  0  0  0  0  0  0  0  0  0  # atno 8009 bound_to 7997
  156.1718  140.3094  155.8993 H   0  0  0  0  0  0  0  0  0  0  0  0  # atno 8010 bound_to 7997
  139.7841  143.8058  152.2642 H   0  0  0  0  0  0  0  0  0  0  0  0  # atno 10167 bound_to 10162
  157.3520  131.0952  151.0991 H   0  0  0  0  0  0  0  0  0  0  0  0  # atno 10718 bound_to 10713
  153.3412  135.4006  155.1573 H   0  0  0  0  0  0  0  0  0  0  0  0  # atno 10763 bound_to 10752
  154.8644  135.3634  154.5344 H   0  0  0  0  0  0  0  0  0  0  0  0  # atno 10764 bound_to 10752
  153.5789  135.7077  153.5532 H   0  0  0  0  0  0  0  0  0  0  0  0  # atno 10765 bound_to 10752
  141.1012  133.8880  157.1837 H   0  0  0  0  0  0  0  0  0  0  0  0  # atno 11005 bound_to 11000
  146.2125  140.5989  142.9053 LP  0  0  0  0  0  0  0  0  0  0  0  0  # atno 17320 bound_to 7965
  144.7692  140.5600  143.6682 LP  0  0  0  0  0  0  0  0  0  0  0  0  # atno 17321 bound_to 7965
  139.8130  144.7328  150.9672 LP  0  0  0  0  0  0  0  0  0  0  0  0  # atno 17342 bound_to 10162
  140.7819  143.4232  151.0808 LP  0  0  0  0  0  0  0  0  0  0  0  0  # atno 17343 bound_to 10162
  157.2163  130.6461  149.5793 LP  0  0  0  0  0  0  0  0  0  0  0  0  # atno 17370 bound_to 10713
  155.9723  130.4643  150.6215 LP  0  0  0  0  0  0  0  0  0  0  0  0  # atno 17371 bound_to 10713
  139.9865  135.0080  156.9874 LP  0  0  0  0  0  0  0  0  0  0  0  0  # atno 17394 bound_to 11000
  140.5016  134.1091  155.7252 LP  0  0  0  0  0  0  0  0  0  0  0  0  # atno 17395 bound_to 11000

$$$$
