#       Name:                AV-unprocessed.smi:1831
#       Creating user name   scv26
#       Creation time:       Fri Mar 27 09:15:09 2020


#       File generated by GOLD software.
#

@<TRIPOS>MOLECULE
AV-unprocessed.smi:1831
    45    46     1
SMALL
NO_CHARGES


@<TRIPOS>ATOM
      1 ****        -3.5333   3.8162  -2.5155 C.3            1 S1                 0.0000
      2 ****        -3.4415   2.6894  -1.5448 C.2            1 S1                 0.0000
      3 ****        -4.5078   1.9908  -1.1481 N.2            1 S1                 0.0000
      4 ****        -4.1724   0.9921  -0.2452 N.2            1 S1                 0.0000
      5 ****        -2.8600   0.9445   0.0218 C.2            1 S1                 0.0000
      6 ****        -2.3283   0.0492   0.8702 N.pl3          1 S1                -1.0000
      7 ****        -1.7446  -1.0698   0.3883 C.2            1 S1                 0.0000
      8 ****        -1.6453  -1.3887  -0.7983 O.2            1 S1                 0.0000
      9 ****        -1.2040  -1.8449   1.3394 N.am           1 S1                 0.0000
     10 ****        -0.3964  -3.0460   1.1274 C.3            1 S1                 0.0000
     11 ****         1.1265  -2.7614   1.0823 C.3            1 S1                 0.0000
     12 ****         1.6458  -1.9855   2.3020 C.3            1 S1                 0.0000
     13 ****         1.8914  -0.5480   1.8179 C.3            1 S1                 0.0000
     14 ****         1.4970  -0.4983   0.3917 N.4            1 S1                 1.0000
     15 ****         2.2003   0.5185  -0.4376 C.3            1 S1                 0.0000
     16 ****         2.0356   1.9310   0.1541 C.3            1 S1                 0.0000
     17 ****         1.6926   0.5051  -1.8914 C.3            1 S1                 0.0000
     18 ****         1.5627  -1.8900  -0.1008 C.3            1 S1                 0.0000
     19 ****        -1.9239   2.1725  -0.8294 S.3            1 S1                 0.0000
     20 ****        -3.8368   3.4425  -3.4935 H              1 S1                 0.0000
     21 ****        -2.5676   4.3120  -2.6147 H              1 S1                 0.0000
     22 ****        -4.2669   4.5468  -2.1742 H              1 S1                 0.0000
     23 ****        -1.3305  -1.5497   2.2966 H              1 S1                 0.0000
     24 ****        -0.6082  -3.7266   1.9524 H              1 S1                 0.0000
     25 ****        -0.7109  -3.5703   0.2237 H              1 S1                 0.0000
     26 ****         1.6322  -3.7258   1.0186 H              1 S1                 0.0000
     27 ****         0.9500  -2.0193   3.1412 H              1 S1                 0.0000
     28 ****         2.5841  -2.4193   2.6502 H              1 S1                 0.0000
     29 ****         1.3120   0.1748   2.3933 H              1 S1                 0.0000
     30 ****         2.9477  -0.2999   1.9314 H              1 S1                 0.0000
     31 ****         3.2638   0.2750  -0.4463 H              1 S1                 0.0000
     32 ****         2.5165   2.6785  -0.4775 H              1 S1                 0.0000
     33 ****         2.4866   2.0155   1.1427 H              1 S1                 0.0000
     34 ****         0.9835   2.2028   0.2439 H              1 S1                 0.0000
     35 ****         2.1635   1.2950  -2.4774 H              1 S1                 0.0000
     36 ****         0.6138   0.6592  -1.9360 H              1 S1                 0.0000
     37 ****         1.9177  -0.4358  -2.3933 H              1 S1                 0.0000
     38 ****         2.5944  -2.1255  -0.3676 H              1 S1                 0.0000
     39 ****         0.9474  -2.0517  -0.9857 H              1 S1                 0.0000
     40 ****         0.5150  -0.2568   0.3866 H              1 S1                 0.0000
     41 ****        -5.4399   2.1669  -1.4648 LP             1 S1                 0.0000
     42 ****        -4.8413   0.3716   0.1643 LP             1 S1                 0.0000
     43 ****        -2.3645   0.2106   1.8565 LP             1 S1                 0.0000
     44 ****        -2.0182  -0.7923  -1.5092 LP             1 S1                 0.0000
     45 ****        -1.1919  -2.2437  -1.0500 LP             1 S1                 0.0000
@<TRIPOS>BOND
    1    1    2 1     
    2    1   20 1     
    3    1   21 1     
    4    1   22 1     
    5    2   19 1     
    6    2    3 2     
    7    3    4 1     
    8    4    5 2     
    9    5    6 1     
   10    5   19 1     
   11    6    7 1     
   12    7    8 2     
   13    7    9 am    
   14    9   10 1     
   15    9   23 1     
   16   10   11 1     
   17   10   24 1     
   18   10   25 1     
   19   11   18 1     
   20   11   12 1     
   21   11   26 1     
   22   12   13 1     
   23   12   27 1     
   24   12   28 1     
   25   13   14 1     
   26   13   29 1     
   27   13   30 1     
   28   14   15 1     
   29   14   18 1     
   30   14   40 1     
   31   15   16 1     
   32   15   17 1     
   33   15   31 1     
   34   16   32 1     
   35   16   33 1     
   36   16   34 1     
   37   17   35 1     
   38   17   36 1     
   39   17   37 1     
   40   18   38 1     
   41   18   39 1     
   42    3   41 1     
   43    4   42 1     
   44    6   43 1     
   45    8   44 1     
   46    8   45 1     
@<TRIPOS>SUBSTRUCTURE
      1 S1             1
@<TRIPOS>SET
LONE_PAIRS      STATIC     ATOMS    <user>   **** ""
5 41 42 43 44 45
DONOR_HYDROGENS      STATIC     ATOMS    <user>   **** ""
2 23 40
ATOM$BLUE        STATIC     ATOMS    COLORGROUP SYSTEM
5 41 42 43 44 45
ATOM$RED        STATIC     ATOMS    COLORGROUP SYSTEM
2 23 40
