AV-unprocessed.smi:164|AV-procd|sdf|1384|dock9
  -GOLD-   2262019113D 1   1.00000     0.00000
 Structure written by MMmdl.
 53 55  0  0  0  0  0  0  0  0  1 V2000
  152.2776  144.1384  158.3904 C   0  0  0  0  0  0  0  0  0  0  0  0
  152.4618  142.7033  158.8530 C   0  0  0  0  0  0  0  0  0  0  0  0
  153.6614  142.3439  159.5006 C   0  0  0  0  0  0  0  0  0  0  0  0
  153.8674  141.0236  159.9368 C   0  0  0  0  0  0  0  0  0  0  0  0
  152.8697  140.0495  159.7395 C   0  0  0  0  0  0  0  0  0  0  0  0
  153.1085  138.6260  160.2073 C   0  0  0  0  0  0  0  0  0  0  0  0
  151.6555  140.4040  159.1080 C   0  0  0  0  0  0  0  0  0  0  0  0
  150.6862  139.4496  158.9356 O   0  0  0  0  0  0  0  0  0  0  0  0
  150.9485  138.5648  157.8551 C   0  0  0  0  0  0  0  0  0  0  0  0
  150.4035  137.1721  158.2026 C   0  0  2  0  0  0  0  0  0  0  0  0
  150.7123  136.3215  157.1172 O   0  0  0  0  0  0  0  0  0  0  0  0
  148.8728  137.1879  158.4122 C   0  0  0  0  0  0  0  0  0  0  0  0
  148.3979  136.1224  159.2794 N   0  0  0  0  0  0  0  0  0  0  0  0
  148.5336  134.7869  158.8293 C   0  0  0  0  0  0  0  0  0  0  0  0
  149.0105  134.5083  157.7278 O   0  0  0  0  0  0  0  0  0  0  0  0
  148.0807  133.7811  159.7827 C   0  0  0  0  0  0  0  0  0  0  0  0
  148.1937  132.4775  159.4765 F   0  0  0  0  0  0  0  0  0  0  0  0
  147.5641  134.1347  160.9793 C   0  0  0  0  0  0  0  0  0  0  0  0
  147.4095  135.4534  161.3829 N   0  0  0  0  0  0  0  0  0  0  0  0
  146.9073  135.8357  162.7674 C   0  0  1  0  0  0  0  0  0  0  0  0
  145.7506  136.8439  162.7651 C   0  0  0  0  0  0  0  0  0  0  0  0
  144.5127  135.9587  162.8828 C   0  0  0  0  0  0  0  0  0  0  0  0
  145.0602  134.5304  162.9765 C   0  0  0  0  0  0  0  0  0  0  0  0
  146.4107  134.6930  163.3877 O   0  0  0  0  0  0  0  0  0  0  0  0
  147.8761  136.4893  160.5426 C   0  0  0  0  0  0  0  0  0  0  0  0
  147.8322  137.6677  160.9053 O   0  0  0  0  0  0  0  0  0  0  0  0
  151.4548  141.7281  158.6429 C   0  0  0  0  0  0  0  0  0  0  0  0
  150.1656  142.1005  157.9226 C   0  0  0  0  0  0  0  0  0  0  0  0
  153.0695  144.7834  158.7725 H   0  0  0  0  0  0  0  0  0  0  0  0
  151.3260  144.5387  158.7412 H   0  0  0  0  0  0  0  0  0  0  0  0
  152.2975  144.1915  157.3018 H   0  0  0  0  0  0  0  0  0  0  0  0
  154.4346  143.0807  159.6618 H   0  0  0  0  0  0  0  0  0  0  0  0
  154.7953  140.7629  160.4245 H   0  0  0  0  0  0  0  0  0  0  0  0
  152.8784  137.9187  159.4102 H   0  0  0  0  0  0  0  0  0  0  0  0
  152.4769  138.3959  161.0652 H   0  0  0  0  0  0  0  0  0  0  0  0
  154.1475  138.4735  160.4999 H   0  0  0  0  0  0  0  0  0  0  0  0
  150.4959  138.9302  156.9316 H   0  0  0  0  0  0  0  0  0  0  0  0
  152.0254  138.5143  157.6873 H   0  0  0  0  0  0  0  0  0  0  0  0
  150.9191  136.8030  159.0901 H   0  0  0  0  0  0  0  0  0  0  0  0
  151.5049  135.8491  157.3213 H   0  0  0  0  0  0  0  0  0  0  0  0
  148.5471  138.1186  158.8793 H   0  0  0  0  0  0  0  0  0  0  0  0
  148.3222  137.1583  157.4707 H   0  0  0  0  0  0  0  0  0  0  0  0
  147.2785  133.3321  161.6403 H   0  0  0  0  0  0  0  0  0  0  0  0
  147.7783  136.2319  163.2920 H   0  0  0  0  0  0  0  0  0  0  0  0
  145.8409  137.4650  163.6569 H   0  0  0  0  0  0  0  0  0  0  0  0
  145.7685  137.5066  161.8999 H   0  0  0  0  0  0  0  0  0  0  0  0
  143.9540  136.2157  163.7836 H   0  0  0  0  0  0  0  0  0  0  0  0
  143.8405  136.0714  162.0317 H   0  0  0  0  0  0  0  0  0  0  0  0
  144.5029  133.9151  163.6828 H   0  0  0  0  0  0  0  0  0  0  0  0
  145.0288  134.0361  162.0048 H   0  0  0  0  0  0  0  0  0  0  0  0
  149.6128  141.2232  157.5876 H   0  0  0  0  0  0  0  0  0  0  0  0
  150.3731  142.7012  157.0371 H   0  0  0  0  0  0  0  0  0  0  0  0
  149.5189  142.6761  158.5849 H   0  0  0  0  0  0  0  0  0  0  0  0
  1  2  1  0  0  0  0
  1 29  1  0  0  0  0
  1 30  1  0  0  0  0
  1 31  1  0  0  0  0
  2 27  1  0  0  0  0
  2  3  2  0  0  0  0
  3  4  1  0  0  0  0
  3 32  1  0  0  0  0
  4  5  2  0  0  0  0
  4 33  1  0  0  0  0
  5  6  1  0  0  0  0
  5  7  1  0  0  0  0
  6 34  1  0  0  0  0
  6 35  1  0  0  0  0
  6 36  1  0  0  0  0
  7  8  1  0  0  0  0
  7 27  2  0  0  0  0
  8  9  1  0  0  0  0
  9 10  1  0  0  0  0
  9 37  1  0  0  0  0
  9 38  1  0  0  0  0
 10 11  1  0  0  0  0
 10 12  1  0  0  0  0
 10 39  1  0  0  0  0
 11 40  1  0  0  0  0
 12 13  1  0  0  0  0
 12 41  1  0  0  0  0
 12 42  1  0  0  0  0
 13 25  1  0  0  0  0
 13 14  1  0  0  0  0
 14 15  2  0  0  0  0
 14 16  1  0  0  0  0
 16 17  1  0  0  0  0
 16 18  2  0  0  0  0
 18 19  1  0  0  0  0
 18 43  1  0  0  0  0
 19 20  1  0  0  0  0
 19 25  1  0  0  0  0
 20 24  1  0  0  0  0
 20 21  1  0  0  0  0
 20 44  1  0  0  0  0
 21 22  1  0  0  0  0
 21 45  1  0  0  0  0
 21 46  1  0  0  0  0
 22 23  1  0  0  0  0
 22 47  1  0  0  0  0
 22 48  1  0  0  0  0
 23 24  1  0  0  0  0
 23 49  1  0  0  0  0
 23 50  1  0  0  0  0
 25 26  2  0  0  0  0
 27 28  1  0  0  0  0
 28 51  1  0  0  0  0
 28 52  1  0  0  0  0
 28 53  1  0  0  0  0
M  END
> <s_m_source_file>
AV-unprocessed.smi

> <i_m_source_file_index>
164

> <i_lp_mmshare_version>
43012

> <i_f3d_flags>
0

> <s_epik_input>
W0NIM11jMVtjSF1bY0hdYyhbQ0gzXSljKGMxW0NIM10pT1tDSDJdW0NASF0oW09IXSlbQ0gyXW4yYyg9TyljKEYpW2NIXW4oYzI9TylbQ0BASF0zW0NIMl1bQ0gyXVtDSDJdTzM=

> <s_epik_cmdline>
J2VwaWtfcHl0aG9uJywgJy1waCcsICc3LjAnLCAnLXRuJywgJzgnLCAnLW1hJywgJzIwMCcsICctbWV0YWxfYmluZGluZycsICctaW1hZScsICc8aW5maWxlLm1hZT4nLCAnLW9tYWUnLCAnPG91dGZpbGUubWFlPic=

> <r_lp_tautomer_probability>
1

> <r_epik_Ionization_Penalty>
1.45842e-07

> <r_epik_Ionization_Penalty_Charging>
2.86622e-08

> <r_epik_Ionization_Penalty_Neutral>
1.1718e-07

> <r_epik_State_Penalty>
-0

> <r_epik_Charging_Adjusted_Penalty>
2.86622e-08

> <i_epik_Tot_Q>
0

> <i_epik_Tot_abs_Q>
0

> <r_epik_Metal_State_Penalty>
-0

> <b_epik_Metal_Only>
0

> <s_epik_Chemistry_Notes>
This compound contains an acetal/aminal-like group ( X-CH(R)-Y where X, Y are N, S, or O) that may be acid/base labile, releasing an aldehyde.

> <s_lp_Force_Field>
OPLS_2005

> <r_lp_Energy>
42.2677

> <b_lp_Chiralities_Consistent>
1

> <s_lp_Variant>
AV-unprocessed.smi:164-3

> <Gold.Version>
5.8.1

> <Gold.Id.Protein>
6NUR|6NUR_protein|mol2

> <Gold.PLP.Fitness>
51.9083

> <Gold.PLP.PLP>
-48.7339

> <Gold.PLP.part.hbond>
-2.6064

> <Gold.PLP.part.metal>
0.0000

> <Gold.PLP.part.buried>
-7.2091

> <Gold.PLP.part.nonpolar>
-38.8307

> <Gold.PLP.part.repulsive>
0.0077

> <Gold.PLP.ligand.clash>
0.0000

> <Gold.PLP.ligand.torsion>
0.9343

> <Gold.PLP.Chemscore.Hbond>
1.6000

> <Gold.PLP.Chemscore.CHOScore>
0.0000

> <Gold.PLP.Chemscore.Metal>
0.0000

> <Gold.Chemscore.Hbonds>
donor molecule, donor type, donor heavy atom, donor atom, acceptor molecule, acceptor atom, score
      P1  H  6931  6943       L1    26  0.62
      P1  H  6934  6947       L1    26  0.66

> <Gold.PLP.Chemscore.Internal.Correction>
0.2429

> <Gold.Rescore>
     Score         DG    S(hbond)    S(metal)    S(lipo)     H(rot)  DE(clash)    DE(int)     intcor
     12.73     -16.44       1.53        0.00     109.82       2.73       0.01       3.70       ----

> <Gold.Chemscore.Fitness>
12.7279

> <Gold.Chemscore.DG>
-16.4352

> <Gold.Chemscore.ZeroCoef>
-5.4800

> <Gold.Chemscore.Hbond>
1.5265

> <Gold.Chemscore.Metal>
0.0000

> <Gold.Chemscore.Lipo>
109.8227

> <Gold.Chemscore.Internal_Hbond>
0.0000

> <Gold.Chemscore.DEClash>
0.0073

> <Gold.Chemscore.DEInternal>
3.7000

> <Gold.Chemscore.Rot>
2.7315

> <Gold.Chemscore.Internal.Correction>
   9.000000E+99

> <Gold.Chemscore.Hbonds>
donor molecule, donor type, donor heavy atom, donor atom, acceptor molecule, acceptor atom, score
      P1  H  6931  6943       L1    26  0.62
      P1  H  6934  6947       L1    26  0.64

> <Gold.Chemscore.Hbond.Weighted>
-5.0985

> <Gold.Chemscore.Metal.Weighted>
-0.0000

> <Gold.Chemscore.Lipo.Weighted>
-12.8493

> <Gold.Chemscore.Internal_Hbond.Weighted>
0.0000

> <Gold.Chemscore.DEClash.Weighted>
0.0073

> <Gold.Chemscore.DEInternal.Weighted>
3.7000

> <Gold.Chemscore.Rot.Weighted>
6.9925

> <Gold.Chemscore.Internal.Correction.Weighted>
   9.000000E+99

> <Gold.Protein.RotatedTorsions>
[ 6907 6896 6895 6894 ] final   65.98 input  -60.11 | X-H torsion
[ 7974 7965 7964 7962 ] final  126.69 input  175.53 | X-H torsion
[ 8008 7997 7996 7995 ] final  171.79 input   59.86 | X-H torsion
[ 10167 10162 10161 10158 ] final  -87.97 input  -65.29 | X-H torsion
[ 10718 10713 10712 10709 ] final -155.31 input   66.30 | X-H torsion
[ 10763 10752 10751 10750 ] final  132.97 input  -60.55 | X-H torsion
[ 11005 11000 10999 10996 ] final  102.39 input  -57.11 | X-H torsion

> <Gold.Protein.ActiveResidues>
 VAL166  LYS551  ARG553  GLY616  TRP617  ASP618  TYR619  PRO620  LYS621  CYS622 
 ASP623  PHE694  ASN695  SER759  ASP760  ASP761  ALA762  ILE779  LEU786  VAL792 
 PHE793  MET794  SER795  GLU796  ALA797  LYS798  CYS799  TRP800  GLU811  SER814 

> <Gold.Protein.RotatedAtoms>
  152.4447  134.5518  159.9868 H   0  0  0  0  0  0  0  0  0  0  0  0  # atno 6907 bound_to 6896
  151.5607  133.3398  159.2978 H   0  0  0  0  0  0  0  0  0  0  0  0  # atno 6908 bound_to 6896
  150.8361  134.7667  159.6957 H   0  0  0  0  0  0  0  0  0  0  0  0  # atno 6909 bound_to 6896
  145.0589  139.3821  143.5016 H   0  0  0  0  0  0  0  0  0  0  0  0  # atno 7974 bound_to 7965
  156.1237  140.1502  156.9168 H   0  0  0  0  0  0  0  0  0  0  0  0  # atno 8008 bound_to 7997
  154.4855  140.0866  156.7517 H   0  0  0  0  0  0  0  0  0  0  0  0  # atno 8009 bound_to 7997
  155.4382  140.3430  155.4289 H   0  0  0  0  0  0  0  0  0  0  0  0  # atno 8010 bound_to 7997
  140.3793  143.2756  151.9404 H   0  0  0  0  0  0  0  0  0  0  0  0  # atno 10167 bound_to 10162
  156.5112  130.8435  151.2647 H   0  0  0  0  0  0  0  0  0  0  0  0  # atno 10718 bound_to 10713
  153.7994  135.3144  155.3388 H   0  0  0  0  0  0  0  0  0  0  0  0  # atno 10763 bound_to 10752
  154.8095  135.4676  154.0481 H   0  0  0  0  0  0  0  0  0  0  0  0  # atno 10764 bound_to 10752
  153.1825  135.6896  153.8547 H   0  0  0  0  0  0  0  0  0  0  0  0  # atno 10765 bound_to 10752
  139.8777  134.9222  156.5051 H   0  0  0  0  0  0  0  0  0  0  0  0  # atno 11005 bound_to 11000
  146.3523  140.0277  142.8653 LP  0  0  0  0  0  0  0  0  0  0  0  0  # atno 17320 bound_to 7965
  145.1433  140.9583  143.4476 LP  0  0  0  0  0  0  0  0  0  0  0  0  # atno 17321 bound_to 7965
  139.4797  144.5834  151.7895 LP  0  0  0  0  0  0  0  0  0  0  0  0  # atno 17342 bound_to 10162
  140.4954  144.1248  150.5959 LP  0  0  0  0  0  0  0  0  0  0  0  0  # atno 17343 bound_to 10162
  157.7450  130.9949  150.2724 LP  0  0  0  0  0  0  0  0  0  0  0  0  # atno 17370 bound_to 10713
  156.3239  130.3790  149.7551 LP  0  0  0  0  0  0  0  0  0  0  0  0  # atno 17371 bound_to 10713
  140.8561  133.8095  155.9217 LP  0  0  0  0  0  0  0  0  0  0  0  0  # atno 17394 bound_to 11000
  140.9096  134.2277  157.4994 LP  0  0  0  0  0  0  0  0  0  0  0  0  # atno 17395 bound_to 11000

$$$$
