AV-unprocessed.smi:555|AV-procd|sdf|2910|dock10
  -GOLD-   2262023403D 1   1.00000     0.00000
 Structure written by MMmdl.
 50 51  0  0  0  0  0  0  0  0  2 V2000
  151.7616  143.4681  158.4328 C   0  0  0  0  0  0  0  0  0  0  0  0
  151.2105  143.0944  157.1824 O   0  0  0  0  0  0  0  0  0  0  0  0
  150.9890  141.6965  157.0806 C   0  0  0  0  0  0  0  0  0  0  0  0
  150.3537  141.3769  155.7173 C   0  0  0  0  0  0  0  0  0  0  0  0
  150.3891  139.9396  155.4247 N   0  0  0  0  0  0  0  0  0  0  0  0
  149.1379  139.3522  155.3393 N   0  0  0  0  0  0  0  0  0  0  0  0
  149.0273  138.0960  155.0505 C   0  0  0  0  0  0  0  0  0  0  0  0
  147.6993  137.4317  154.9355 C   0  0  0  0  0  0  0  0  0  0  0  0
  147.5918  136.2151  154.7731 O   0  0  0  0  0  0  0  0  0  0  0  0
  146.6363  138.2523  155.0167 N   0  0  0  0  0  0  0  0  0  0  0  0
  145.2400  137.8387  154.9235 C   0  0  2  0  0  0  0  0  0  0  0  0
  144.8986  137.4004  153.4875 C   0  0  0  0  0  0  0  0  0  0  0  0
  143.4027  137.0739  153.3417 C   0  0  0  0  0  0  0  0  0  0  0  0
  142.5620  138.2264  153.7607 N   0  3  1  0  0  0  0  0  0  0  0  0
  141.1182  138.0636  153.4206 C   0  0  0  0  0  0  0  0  0  0  0  0
  140.3247  139.3448  153.7267 C   0  0  0  0  0  0  0  0  0  0  0  0
  140.4691  136.8242  154.0672 C   0  0  0  0  0  0  0  0  0  0  0  0
  142.8427  138.6261  155.1667 C   0  0  0  0  0  0  0  0  0  0  0  0
  144.3236  138.9998  155.3417 C   0  0  0  0  0  0  0  0  0  0  0  0
  150.2066  137.2784  154.8227 C   0  0  0  0  0  0  0  0  0  0  0  0
  151.4208  137.8635  154.9167 C   0  0  0  0  0  0  0  0  0  0  0  0
  151.5738  139.2844  155.2341 C   0  0  0  0  0  0  0  0  0  0  0  0
  152.6677  139.8422  155.3158 O   0  0  0  0  0  0  0  0  0  0  0  0
  151.9107  144.5475  158.4589 H   0  0  0  0  0  0  0  0  0  0  0  0
  152.7290  142.9912  158.5956 H   0  0  0  0  0  0  0  0  0  0  0  0
  151.0957  143.1997  159.2539 H   0  0  0  0  0  0  0  0  0  0  0  0
  151.9255  141.1507  157.2063 H   0  0  0  0  0  0  0  0  0  0  0  0
  150.3186  141.3753  157.8791 H   0  0  0  0  0  0  0  0  0  0  0  0
  149.3236  141.7367  155.6983 H   0  0  0  0  0  0  0  0  0  0  0  0
  150.8682  141.9367  154.9344 H   0  0  0  0  0  0  0  0  0  0  0  0
  146.8144  139.2377  155.1507 H   0  0  0  0  0  0  0  0  0  0  0  0
  145.0635  137.0031  155.6040 H   0  0  0  0  0  0  0  0  0  0  0  0
  145.1659  138.1920  152.7859 H   0  0  0  0  0  0  0  0  0  0  0  0
  145.4923  136.5288  153.2090 H   0  0  0  0  0  0  0  0  0  0  0  0
  143.1950  136.8194  152.3018 H   0  0  0  0  0  0  0  0  0  0  0  0
  143.1549  136.1958  153.9390 H   0  0  0  0  0  0  0  0  0  0  0  0
  141.0610  137.9318  152.3393 H   0  0  0  0  0  0  0  0  0  0  0  0
  139.3075  139.2713  153.3407 H   0  0  0  0  0  0  0  0  0  0  0  0
  140.7877  140.2160  153.2622 H   0  0  0  0  0  0  0  0  0  0  0  0
  140.2490  139.5360  154.7971 H   0  0  0  0  0  0  0  0  0  0  0  0
  139.4466  136.6970  153.7104 H   0  0  0  0  0  0  0  0  0  0  0  0
  140.4212  136.9071  155.1532 H   0  0  0  0  0  0  0  0  0  0  0  0
  141.0093  135.9100  153.8224 H   0  0  0  0  0  0  0  0  0  0  0  0
  142.2272  139.4781  155.4529 H   0  0  0  0  0  0  0  0  0  0  0  0
  142.5911  137.8097  155.8451 H   0  0  0  0  0  0  0  0  0  0  0  0
  144.5140  139.2705  156.3811 H   0  0  0  0  0  0  0  0  0  0  0  0
  144.5465  139.8856  154.7444 H   0  0  0  0  0  0  0  0  0  0  0  0
  150.1235  136.2274  154.5863 H   0  0  0  0  0  0  0  0  0  0  0  0
  152.3062  137.2673  154.7513 H   0  0  0  0  0  0  0  0  0  0  0  0
  142.8750  138.9985  153.1893 H   0  0  0  0  0  0  0  0  0  0  0  0
  1  2  1  0  0  0  0
  1 24  1  0  0  0  0
  1 25  1  0  0  0  0
  1 26  1  0  0  0  0
  2  3  1  0  0  0  0
  3  4  1  0  0  0  0
  3 27  1  0  0  0  0
  3 28  1  0  0  0  0
  4  5  1  0  0  0  0
  4 29  1  0  0  0  0
  4 30  1  0  0  0  0
  5 22  1  0  0  0  0
  5  6  1  0  0  0  0
  6  7  2  0  0  0  0
  7  8  1  0  0  0  0
  7 20  1  0  0  0  0
  8  9  2  0  0  0  0
  8 10  1  0  0  0  0
 10 11  1  0  0  0  0
 10 31  1  0  0  0  0
 11 19  1  0  0  0  0
 11 12  1  0  0  0  0
 11 32  1  0  0  0  0
 12 13  1  0  0  0  0
 12 33  1  0  0  0  0
 12 34  1  0  0  0  0
 13 14  1  0  0  0  0
 13 35  1  0  0  0  0
 13 36  1  0  0  0  0
 14 15  1  0  0  0  0
 14 18  1  0  0  0  0
 14 50  1  0  0  0  0
 15 16  1  0  0  0  0
 15 17  1  0  0  0  0
 15 37  1  0  0  0  0
 16 38  1  0  0  0  0
 16 39  1  0  0  0  0
 16 40  1  0  0  0  0
 17 41  1  0  0  0  0
 17 42  1  0  0  0  0
 17 43  1  0  0  0  0
 18 19  1  0  0  0  0
 18 44  1  0  0  0  0
 18 45  1  0  0  0  0
 19 46  1  0  0  0  0
 19 47  1  0  0  0  0
 20 21  2  0  0  0  0
 20 48  1  0  0  0  0
 21 22  1  0  0  0  0
 21 49  1  0  0  0  0
 22 23  2  0  0  0  0
M  CHG  1  14   1
M  END
> <s_m_source_file>
AV-unprocessed.smi

> <i_m_source_file_index>
555

> <i_lp_mmshare_version>
43012

> <i_f3d_flags>
0

> <s_epik_input>
W0NIM11PW0NIMl1bQ0gyXW4xbmMoW2NIXVtjSF1jMT1PKUMoPU8pW05IXVtDSF0yW0NIMl1bQ0gyXU4oW0NIXShbQ0gzXSlbQ0gzXSlbQ0gyXVtDSDJdMg==

> <s_epik_cmdline>
J2VwaWtfcHl0aG9uJywgJy1waCcsICc3LjAnLCAnLXRuJywgJzgnLCAnLW1hJywgJzIwMCcsICctbWV0YWxfYmluZGluZycsICctaW1hZScsICc8aW5maWxlLm1hZT4nLCAnLW9tYWUnLCAnPG91dGZpbGUubWFlPic=

> <r_lp_tautomer_probability>
1

> <r_epik_Ionization_Penalty>
0.00560205

> <r_epik_Ionization_Penalty_Charging>
0.00559911

> <r_epik_Ionization_Penalty_Neutral>
2.94673e-06

> <r_epik_State_Penalty>
0.00410202

> <r_epik_Charging_Adjusted_Penalty>
0.00970113

> <i_epik_Tot_Q>
1

> <i_epik_Tot_abs_Q>
1

> <r_epik_Metal_State_Penalty>
-0

> <b_epik_Metal_Only>
0

> <s_lp_Force_Field>
OPLS_2005

> <r_lp_Energy>
40.4253

> <b_lp_Chiralities_Consistent>
1

> <s_lp_Variant>
AV-unprocessed.smi:555-1

> <Gold.Version>
5.8.1

> <Gold.Id.Protein>
6NUR|6NUR_protein|mol2

> <Gold.PLP.Fitness>
41.7288

> <Gold.PLP.PLP>
-33.0762

> <Gold.PLP.part.hbond>
-3.0000

> <Gold.PLP.part.metal>
0.0000

> <Gold.PLP.part.buried>
-1.4807

> <Gold.PLP.part.nonpolar>
-27.9344

> <Gold.PLP.part.repulsive>
0.7566

> <Gold.PLP.ligand.clash>
0.0000

> <Gold.PLP.ligand.torsion>
0.2409

> <Gold.PLP.Chemscore.Hbond>
3.0000

> <Gold.PLP.Chemscore.CHOScore>
0.0000

> <Gold.PLP.Chemscore.Metal>
0.0000

> <Gold.Chemscore.Hbonds>
donor molecule, donor type, donor heavy atom, donor atom, acceptor molecule, acceptor atom, score
      L1  H    14    50       P1 10175  2.00
      P1  H  7997  8010       L1    23  1.00

> <Gold.PLP.Chemscore.Internal.Correction>
0.1345

> <Gold.Rescore>
     Score         DG    S(hbond)    S(metal)    S(lipo)     H(rot)  DE(clash)    DE(int)     intcor
     15.15     -15.45       1.98        0.00      66.82       1.74       0.10       0.21       ----

> <Gold.Chemscore.Fitness>
15.1459

> <Gold.Chemscore.DG>
-15.4528

> <Gold.Chemscore.ZeroCoef>
-5.4800

> <Gold.Chemscore.Hbond>
1.9819

> <Gold.Chemscore.Metal>
0.0000

> <Gold.Chemscore.Lipo>
66.8163

> <Gold.Chemscore.Internal_Hbond>
0.0000

> <Gold.Chemscore.DEClash>
0.0993

> <Gold.Chemscore.DEInternal>
0.2076

> <Gold.Chemscore.Rot>
1.7438

> <Gold.Chemscore.Internal.Correction>
   9.000000E+99

> <Gold.Chemscore.Hbonds>
donor molecule, donor type, donor heavy atom, donor atom, acceptor molecule, acceptor atom, score
      L1  H    14    50       P1 10175  1.00
      P1  H  7997  8010       L1    23  1.00

> <Gold.Chemscore.Hbond.Weighted>
-6.6195

> <Gold.Chemscore.Metal.Weighted>
-0.0000

> <Gold.Chemscore.Lipo.Weighted>
-7.8175

> <Gold.Chemscore.Internal_Hbond.Weighted>
0.0000

> <Gold.Chemscore.DEClash.Weighted>
0.0993

> <Gold.Chemscore.DEInternal.Weighted>
0.2076

> <Gold.Chemscore.Rot.Weighted>
4.4642

> <Gold.Chemscore.Internal.Correction.Weighted>
   9.000000E+99

> <Gold.Protein.RotatedTorsions>
[ 6907 6896 6895 6894 ] final   37.05 input  -60.11 | X-H torsion
[ 7974 7965 7964 7962 ] final  144.59 input  175.53 | X-H torsion
[ 8008 7997 7996 7995 ] final   99.68 input   59.86 | X-H torsion
[ 10167 10162 10161 10158 ] final -151.35 input  -65.29 | X-H torsion
[ 10718 10713 10712 10709 ] final  136.45 input   66.30 | X-H torsion
[ 10763 10752 10751 10750 ] final  -39.47 input  -60.55 | X-H torsion
[ 11005 11000 10999 10996 ] final -176.13 input  -57.11 | X-H torsion

> <Gold.Protein.ActiveResidues>
 VAL166  LYS551  ARG553  GLY616  TRP617  ASP618  TYR619  PRO620  LYS621  CYS622 
 ASP623  PHE694  ASN695  SER759  ASP760  ASP761  ALA762  ILE779  LEU786  VAL792 
 PHE793  MET794  SER795  GLU796  ALA797  LYS798  CYS799  TRP800  GLU811  SER814 

> <Gold.Protein.RotatedAtoms>
  152.1379  134.9085  160.0555 H   0  0  0  0  0  0  0  0  0  0  0  0  # atno 6907 bound_to 6896
  152.0164  133.3876  159.4248 H   0  0  0  0  0  0  0  0  0  0  0  0  # atno 6908 bound_to 6896
  150.6862  134.3596  159.4988 H   0  0  0  0  0  0  0  0  0  0  0  0  # atno 6909 bound_to 6896
  144.8823  139.5680  143.5837 H   0  0  0  0  0  0  0  0  0  0  0  0  # atno 7974 bound_to 7965
  156.1129  140.3225  155.8098 H   0  0  0  0  0  0  0  0  0  0  0  0  # atno 8008 bound_to 7997
  155.4641  140.0541  157.3004 H   0  0  0  0  0  0  0  0  0  0  0  0  # atno 8009 bound_to 7997
  154.4772  140.2037  155.9863 H   0  0  0  0  0  0  0  0  0  0  0  0  # atno 8010 bound_to 7997
  139.7275  143.8861  152.2524 H   0  0  0  0  0  0  0  0  0  0  0  0  # atno 10167 bound_to 10162
  157.4465  131.1062  151.0083 H   0  0  0  0  0  0  0  0  0  0  0  0  # atno 10718 bound_to 10713
  153.9300  135.6773  153.4746 H   0  0  0  0  0  0  0  0  0  0  0  0  # atno 10763 bound_to 10752
  153.0985  135.4840  154.8820 H   0  0  0  0  0  0  0  0  0  0  0  0  # atno 10764 bound_to 10752
  154.7433  135.3166  154.8647 H   0  0  0  0  0  0  0  0  0  0  0  0  # atno 10765 bound_to 10752
  140.4556  134.6303  157.4820 H   0  0  0  0  0  0  0  0  0  0  0  0  # atno 11005 bound_to 11000
  146.3002  139.7404  142.9096 LP  0  0  0  0  0  0  0  0  0  0  0  0  # atno 17320 bound_to 7965
  145.3931  141.0375  143.3112 LP  0  0  0  0  0  0  0  0  0  0  0  0  # atno 17321 bound_to 7965
  139.8774  144.7036  150.8917 LP  0  0  0  0  0  0  0  0  0  0  0  0  # atno 17342 bound_to 10162
  140.7765  143.3688  151.1687 LP  0  0  0  0  0  0  0  0  0  0  0  0  # atno 17343 bound_to 10162
  157.0928  130.5949  149.5443 LP  0  0  0  0  0  0  0  0  0  0  0  0  # atno 17370 bound_to 10713
  155.9969  130.5040  150.7515 LP  0  0  0  0  0  0  0  0  0  0  0  0  # atno 17371 bound_to 10713
  139.9979  134.6883  155.9579 LP  0  0  0  0  0  0  0  0  0  0  0  0  # atno 17394 bound_to 11000
  141.1645  133.6537  156.4430 LP  0  0  0  0  0  0  0  0  0  0  0  0  # atno 17395 bound_to 11000

$$$$
