AV-unprocessed.smi:2918|AV-procd|sdf|11191|dock2
  -GOLD-   2272016 83D 1   1.00000     0.00000
 Structure written by MMmdl.
 41 42  0  0  0  0  0  0  0  0  1 V2000
  150.7628  137.0559  155.2766 C   0  0  0  0  0  0  0  0  0  0  0  0
  151.1735  138.2322  154.3775 C   0  0  0  0  0  0  0  0  0  0  0  0
  152.5504  138.7970  154.7652 C   0  0  0  0  0  0  0  0  0  0  0  0
  150.1490  139.2724  154.3812 N   0  0  0  0  0  0  0  0  0  0  0  0
  150.4638  140.5333  154.7606 N   0  0  0  0  0  0  0  0  0  0  0  0
  149.3316  141.2179  154.6725 C   0  0  0  0  0  0  0  0  0  0  0  0
  148.2332  140.4227  154.2404 C   0  0  0  0  0  0  0  0  0  0  0  0
  148.8053  139.1910  154.0718 C   0  0  0  0  0  0  0  0  0  0  0  0
  148.2174  138.0294  153.6780 N   0  0  0  0  0  0  0  0  0  0  0  0
  146.9785  137.5786  153.9416 C   0  0  0  0  0  0  0  0  0  0  0  0
  146.1317  138.1759  154.6057 O   0  0  0  0  0  0  0  0  0  0  0  0
  146.7781  136.3772  153.3737 N   0  0  0  0  0  0  0  0  0  0  0  0
  145.5672  135.5421  153.3982 C   0  0  0  0  0  0  0  0  0  0  0  0
  144.9078  135.6119  154.7923 C   0  0  0  0  0  0  0  0  0  0  0  0
  144.5625  135.9541  152.2946 C   0  0  0  0  0  0  0  0  0  0  0  0
  145.1133  135.6840  150.8829 C   0  0  0  0  0  0  0  0  0  0  0  0
  145.4519  134.3084  150.7504 O   0  0  0  0  0  0  0  0  0  0  0  0
  146.4687  133.8973  151.6568 C   0  0  0  0  0  0  0  0  0  0  0  0
  145.9917  134.0858  153.1096 C   0  0  0  0  0  0  0  0  0  0  0  0
  151.4951  136.2498  155.2241 H   0  0  0  0  0  0  0  0  0  0  0  0
  149.7998  136.6464  154.9702 H   0  0  0  0  0  0  0  0  0  0  0  0
  150.6791  137.3601  156.3206 H   0  0  0  0  0  0  0  0  0  0  0  0
  151.2584  137.8517  153.3594 H   0  0  0  0  0  0  0  0  0  0  0  0
  153.3230  138.0323  154.6811 H   0  0  0  0  0  0  0  0  0  0  0  0
  152.5615  139.1643  155.7921 H   0  0  0  0  0  0  0  0  0  0  0  0
  152.8329  139.6229  154.1115 H   0  0  0  0  0  0  0  0  0  0  0  0
  149.3396  142.2674  154.9279 H   0  0  0  0  0  0  0  0  0  0  0  0
  147.2077  140.7249  154.0917 H   0  0  0  0  0  0  0  0  0  0  0  0
  148.7929  137.4320  153.1031 H   0  0  0  0  0  0  0  0  0  0  0  0
  147.5533  135.9916  152.8548 H   0  0  0  0  0  0  0  0  0  0  0  0
  144.0591  134.9309  154.8617 H   0  0  0  0  0  0  0  0  0  0  0  0
  144.5322  136.6099  155.0185 H   0  0  0  0  0  0  0  0  0  0  0  0
  145.6120  135.3374  155.5785 H   0  0  0  0  0  0  0  0  0  0  0  0
  143.6404  135.3840  152.4172 H   0  0  0  0  0  0  0  0  0  0  0  0
  144.2735  137.0005  152.3879 H   0  0  0  0  0  0  0  0  0  0  0  0
  144.3585  135.9301  150.1360 H   0  0  0  0  0  0  0  0  0  0  0  0
  145.9821  136.3087  150.6704 H   0  0  0  0  0  0  0  0  0  0  0  0
  146.6949  132.8468  151.4731 H   0  0  0  0  0  0  0  0  0  0  0  0
  147.3873  134.4542  151.4662 H   0  0  0  0  0  0  0  0  0  0  0  0
  146.7742  133.7706  153.8014 H   0  0  0  0  0  0  0  0  0  0  0  0
  145.1474  133.4171  153.2837 H   0  0  0  0  0  0  0  0  0  0  0  0
  1  2  1  0  0  0  0
  1 20  1  0  0  0  0
  1 21  1  0  0  0  0
  1 22  1  0  0  0  0
  2  3  1  0  0  0  0
  2  4  1  0  0  0  0
  2 23  1  0  0  0  0
  3 24  1  0  0  0  0
  3 25  1  0  0  0  0
  3 26  1  0  0  0  0
  4  8  1  0  0  0  0
  4  5  1  0  0  0  0
  5  6  2  0  0  0  0
  6  7  1  0  0  0  0
  6 27  1  0  0  0  0
  7  8  2  0  0  0  0
  7 28  1  0  0  0  0
  8  9  1  0  0  0  0
  9 10  1  0  0  0  0
  9 29  1  0  0  0  0
 10 11  2  0  0  0  0
 10 12  1  0  0  0  0
 12 13  1  0  0  0  0
 12 30  1  0  0  0  0
 13 19  1  0  0  0  0
 13 14  1  0  0  0  0
 13 15  1  0  0  0  0
 14 31  1  0  0  0  0
 14 32  1  0  0  0  0
 14 33  1  0  0  0  0
 15 16  1  0  0  0  0
 15 34  1  0  0  0  0
 15 35  1  0  0  0  0
 16 17  1  0  0  0  0
 16 36  1  0  0  0  0
 16 37  1  0  0  0  0
 17 18  1  0  0  0  0
 18 19  1  0  0  0  0
 18 38  1  0  0  0  0
 18 39  1  0  0  0  0
 19 40  1  0  0  0  0
 19 41  1  0  0  0  0
M  END
> <s_m_source_file>
AV-unprocessed.smi

> <i_m_source_file_index>
2918

> <i_lp_mmshare_version>
43012

> <i_f3d_flags>
0

> <s_epik_input>
W0NIM11bQ0hdKFtDSDNdKW4xbltjSF1bY0hdYzFbTkhdQyg9TylbTkhdQzIoW0NIM10pW0NIMl1bQ0gyXU9bQ0gyXVtDSDJdMg==

> <s_epik_cmdline>
J2VwaWtfcHl0aG9uJywgJy1waCcsICc3LjAnLCAnLXRuJywgJzgnLCAnLW1hJywgJzIwMCcsICctbWV0YWxfYmluZGluZycsICctaW1hZScsICc8aW5maWxlLm1hZT4nLCAnLW9tYWUnLCAnPG91dGZpbGUubWFlPic=

> <r_lp_tautomer_probability>
1

> <r_epik_Ionization_Penalty>
4.13243e-05

> <r_epik_Ionization_Penalty_Charging>
0

> <r_epik_Ionization_Penalty_Neutral>
4.13243e-05

> <r_epik_State_Penalty>
-0

> <r_epik_Charging_Adjusted_Penalty>
0

> <i_epik_Tot_Q>
0

> <i_epik_Tot_abs_Q>
0

> <r_epik_Metal_State_Penalty>
-0

> <b_epik_Metal_Only>
0

> <s_lp_Force_Field>
OPLS_2005

> <r_lp_Energy>
17.4718

> <b_lp_Chiralities_Consistent>
1

> <s_lp_Variant>
AV-unprocessed.smi:2918-1

> <Gold.Version>
5.8.1

> <Gold.Id.Protein>
6NUR|6NUR_protein|mol2

> <Gold.PLP.Fitness>
41.3228

> <Gold.PLP.PLP>
-31.4462

> <Gold.PLP.part.hbond>
-3.0000

> <Gold.PLP.part.metal>
0.0000

> <Gold.PLP.part.buried>
-3.8312

> <Gold.PLP.part.nonpolar>
-25.4084

> <Gold.PLP.part.repulsive>
0.3717

> <Gold.PLP.ligand.clash>
0.0000

> <Gold.PLP.ligand.torsion>
0.7397

> <Gold.PLP.Chemscore.Hbond>
2.8928

> <Gold.PLP.Chemscore.CHOScore>
0.8787

> <Gold.PLP.Chemscore.Metal>
0.0000

> <Gold.Chemscore.Hbonds>
donor molecule, donor type, donor heavy atom, donor atom, acceptor molecule, acceptor atom, score
      L1  H     9    29       P1  7948  1.00
      L1  H    12    30       P1  7948  1.00
      P1  H  7989  7998       L1     5  0.89
      L1  C     6    27       P1  8028  0.85

> <Gold.PLP.Chemscore.Internal.Correction>
0.0415

> <Gold.Rescore>
     Score         DG    S(hbond)    S(metal)    S(lipo)     H(rot)  DE(clash)    DE(int)     intcor
     14.99     -17.39       2.50        0.00      56.62       1.19       0.33       2.07       ----

> <Gold.Chemscore.Fitness>
14.9873

> <Gold.Chemscore.DG>
-17.3870

> <Gold.Chemscore.ZeroCoef>
-5.4800

> <Gold.Chemscore.Hbond>
2.4956

> <Gold.Chemscore.Metal>
0.0000

> <Gold.Chemscore.Lipo>
56.6174

> <Gold.Chemscore.Internal_Hbond>
0.0000

> <Gold.Chemscore.DEClash>
0.3274

> <Gold.Chemscore.DEInternal>
2.0723

> <Gold.Chemscore.Rot>
1.1924

> <Gold.Chemscore.Internal.Correction>
   9.000000E+99

> <Gold.Chemscore.Hbonds>
donor molecule, donor type, donor heavy atom, donor atom, acceptor molecule, acceptor atom, score
      L1  H     9    29       P1  7948  0.96
      L1  H    12    30       P1  7948  0.94
      P1  H  7989  7998       L1     5  0.15

> <Gold.Chemscore.Hbond.Weighted>
-8.3352

> <Gold.Chemscore.Metal.Weighted>
-0.0000

> <Gold.Chemscore.Lipo.Weighted>
-6.6242

> <Gold.Chemscore.Internal_Hbond.Weighted>
0.0000

> <Gold.Chemscore.DEClash.Weighted>
0.3274

> <Gold.Chemscore.DEInternal.Weighted>
2.0723

> <Gold.Chemscore.Rot.Weighted>
3.0524

> <Gold.Chemscore.Internal.Correction.Weighted>
   9.000000E+99

> <Gold.Protein.RotatedTorsions>
[ 6907 6896 6895 6894 ] final  113.13 input  -60.11 | X-H torsion
[ 7974 7965 7964 7962 ] final -166.91 input  175.53 | X-H torsion
[ 8008 7997 7996 7995 ] final -144.17 input   59.86 | X-H torsion
[ 10167 10162 10161 10158 ] final  -65.44 input  -65.29 | X-H torsion
[ 10718 10713 10712 10709 ] final  -54.62 input   66.30 | X-H torsion
[ 10763 10752 10751 10750 ] final   37.75 input  -60.55 | X-H torsion
[ 11005 11000 10999 10996 ] final   52.52 input  -57.11 | X-H torsion

> <Gold.Protein.ActiveResidues>
 VAL166  LYS551  ARG553  GLY616  TRP617  ASP618  TYR619  PRO620  LYS621  CYS622 
 ASP623  PHE694  ASN695  SER759  ASP760  ASP761  ALA762  ILE779  LEU786  VAL792 
 PHE793  MET794  SER795  GLU796  ALA797  LYS798  CYS799  TRP800  GLU811  SER814 

> <Gold.Protein.RotatedAtoms>
  152.4878  133.8419  159.7156 H   0  0  0  0  0  0  0  0  0  0  0  0  # atno 6907 bound_to 6896
  150.8980  133.7146  159.2893 H   0  0  0  0  0  0  0  0  0  0  0  0  # atno 6908 bound_to 6896
  151.4597  135.1041  159.9773 H   0  0  0  0  0  0  0  0  0  0  0  0  # atno 6909 bound_to 6896
  144.7234  140.2596  143.6267 H   0  0  0  0  0  0  0  0  0  0  0  0  # atno 7974 bound_to 7965
  155.5226  140.0593  157.2904 H   0  0  0  0  0  0  0  0  0  0  0  0  # atno 8008 bound_to 7997
  154.4512  140.1950  156.0459 H   0  0  0  0  0  0  0  0  0  0  0  0  # atno 8009 bound_to 7997
  156.0708  140.3260  155.7577 H   0  0  0  0  0  0  0  0  0  0  0  0  # atno 8010 bound_to 7997
  140.5729  143.2319  151.6501 H   0  0  0  0  0  0  0  0  0  0  0  0  # atno 10167 bound_to 10162
  156.1436  130.4153  150.0061 H   0  0  0  0  0  0  0  0  0  0  0  0  # atno 10718 bound_to 10713
  153.0026  135.6269  154.2194 H   0  0  0  0  0  0  0  0  0  0  0  0  # atno 10763 bound_to 10752
  154.1937  135.2807  155.3015 H   0  0  0  0  0  0  0  0  0  0  0  0  # atno 10764 bound_to 10752
  154.5739  135.5668  153.7180 H   0  0  0  0  0  0  0  0  0  0  0  0  # atno 10765 bound_to 10752
  140.0842  134.5296  155.8915 H   0  0  0  0  0  0  0  0  0  0  0  0  # atno 11005 bound_to 11000
  145.8149  139.2019  143.1972 LP  0  0  0  0  0  0  0  0  0  0  0  0  # atno 17320 bound_to 7965
  146.0564  140.8016  142.9756 LP  0  0  0  0  0  0  0  0  0  0  0  0  # atno 17321 bound_to 7965
  139.5127  144.3467  152.0690 LP  0  0  0  0  0  0  0  0  0  0  0  0  # atno 17342 bound_to 10162
  140.2607  144.4071  150.6187 LP  0  0  0  0  0  0  0  0  0  0  0  0  # atno 17343 bound_to 10162
  156.7940  130.9266  151.3646 LP  0  0  0  0  0  0  0  0  0  0  0  0  # atno 17370 bound_to 10713
  157.6597  130.8955  149.9804 LP  0  0  0  0  0  0  0  0  0  0  0  0  # atno 17371 bound_to 10713
  141.2057  133.6649  156.6197 LP  0  0  0  0  0  0  0  0  0  0  0  0  # atno 17394 bound_to 11000
  140.3443  134.7822  157.4421 LP  0  0  0  0  0  0  0  0  0  0  0  0  # atno 17395 bound_to 11000

$$$$
