AV-unprocessed.smi:1943|AV-procd|sdf|7852|dock9
  -GOLD-   2272010 03D 1   1.00000     0.00000
 Structure written by MMmdl.
 47 48  0  0  0  0  0  0  0  0  3 V2000
  144.7987  141.2873  156.1421 C   0  0  0  0  0  0  0  0  0  0  0  0
  145.4157  140.6773  154.9273 N   0  3  0  0  0  0  0  0  0  0  0  0
  145.4309  139.1978  155.0727 C   0  0  0  0  0  0  0  0  0  0  0  0
  146.6981  141.3153  154.4302 C   0  0  0  0  0  0  0  0  0  0  0  0
  147.2005  140.5917  153.1464 C   0  0  0  0  0  0  0  0  0  0  0  0
  146.4738  142.8149  154.0504 C   0  0  0  0  0  0  0  0  0  0  0  0
  147.7501  141.2417  155.5965 C   0  0  0  0  0  0  0  0  0  0  0  0
  149.1033  141.5381  155.1332 N   0  5  0  0  0  0  0  0  0  0  0  0
  150.0956  140.6093  155.0467 C   0  0  0  0  0  0  0  0  0  0  0  0
  150.4410  139.9040  154.0921 O   0  0  0  0  0  0  0  0  0  0  0  0
  150.9010  140.5257  156.3123 C   0  0  0  0  0  0  0  0  0  0  0  0
  151.0215  141.6715  157.0220 N   0  0  0  0  0  0  0  0  0  0  0  0
  151.7231  141.6488  158.1613 C   0  0  0  0  0  0  0  0  0  0  0  0
  151.8225  142.8452  158.8840 N   0  0  0  0  0  0  0  0  0  0  0  0
  152.7083  142.9772  160.0440 C   0  0  0  0  0  0  0  0  0  0  0  0
  152.1349  143.9787  161.0604 C   0  0  0  0  0  0  0  0  0  0  0  0
  151.8863  145.2253  160.4221 O   0  0  0  0  0  0  0  0  0  0  0  0
  150.9261  145.0957  159.3810 C   0  0  0  0  0  0  0  0  0  0  0  0
  151.4537  144.1372  158.3001 C   0  0  0  0  0  0  0  0  0  0  0  0
  152.3364  140.5680  158.6601 N   0  0  0  0  0  0  0  0  0  0  0  0
  152.2448  139.4170  157.9620 C   0  0  0  0  0  0  0  0  0  0  0  0
  151.5303  139.3314  156.7523 C   0  0  0  0  0  0  0  0  0  0  0  0
  151.4889  137.8372  155.8788 Cl  0  0  0  0  0  0  0  0  0  0  0  0
  145.3687  141.0462  157.0402 H   0  0  0  0  0  0  0  0  0  0  0  0
  143.7886  140.9020  156.2839 H   0  0  0  0  0  0  0  0  0  0  0  0
  144.7108  142.3714  156.0774 H   0  0  0  0  0  0  0  0  0  0  0  0
  146.2073  138.8796  155.7694 H   0  0  0  0  0  0  0  0  0  0  0  0
  145.5822  138.6939  154.1182 H   0  0  0  0  0  0  0  0  0  0  0  0
  144.4752  138.8375  155.4548 H   0  0  0  0  0  0  0  0  0  0  0  0
  148.0538  141.1018  152.6950 H   0  0  0  0  0  0  0  0  0  0  0  0
  146.4217  140.5694  152.3837 H   0  0  0  0  0  0  0  0  0  0  0  0
  147.5094  139.5594  153.3215 H   0  0  0  0  0  0  0  0  0  0  0  0
  147.3883  143.3092  153.7156 H   0  0  0  0  0  0  0  0  0  0  0  0
  146.0757  143.4067  154.8776 H   0  0  0  0  0  0  0  0  0  0  0  0
  145.7828  142.9208  153.2137 H   0  0  0  0  0  0  0  0  0  0  0  0
  147.4393  141.9287  156.3850 H   0  0  0  0  0  0  0  0  0  0  0  0
  147.7114  140.2514  156.0505 H   0  0  0  0  0  0  0  0  0  0  0  0
  152.8638  142.0271  160.5544 H   0  0  0  0  0  0  0  0  0  0  0  0
  153.6867  143.3128  159.6986 H   0  0  0  0  0  0  0  0  0  0  0  0
  151.2162  143.5953  161.5076 H   0  0  0  0  0  0  0  0  0  0  0  0
  152.8437  144.1324  161.8742 H   0  0  0  0  0  0  0  0  0  0  0  0
  149.9777  144.7396  159.7869 H   0  0  0  0  0  0  0  0  0  0  0  0
  150.7370  146.0787  158.9496 H   0  0  0  0  0  0  0  0  0  0  0  0
  152.3332  144.5645  157.8173 H   0  0  0  0  0  0  0  0  0  0  0  0
  150.6884  144.0371  157.5311 H   0  0  0  0  0  0  0  0  0  0  0  0
  152.7566  138.5578  158.3698 H   0  0  0  0  0  0  0  0  0  0  0  0
  144.7559  140.8495  154.1816 H   0  0  0  0  0  0  0  0  0  0  0  0
  1  2  1  0  0  0  0
  1 24  1  0  0  0  0
  1 25  1  0  0  0  0
  1 26  1  0  0  0  0
  2  3  1  0  0  0  0
  2  4  1  0  0  0  0
  2 47  1  0  0  0  0
  3 27  1  0  0  0  0
  3 28  1  0  0  0  0
  3 29  1  0  0  0  0
  4  5  1  0  0  0  0
  4  6  1  0  0  0  0
  4  7  1  0  0  0  0
  5 30  1  0  0  0  0
  5 31  1  0  0  0  0
  5 32  1  0  0  0  0
  6 33  1  0  0  0  0
  6 34  1  0  0  0  0
  6 35  1  0  0  0  0
  7  8  1  0  0  0  0
  7 36  1  0  0  0  0
  7 37  1  0  0  0  0
  8  9  1  0  0  0  0
  9 10  2  0  0  0  0
  9 11  1  0  0  0  0
 11 22  1  0  0  0  0
 11 12  2  0  0  0  0
 12 13  1  0  0  0  0
 13 14  1  0  0  0  0
 13 20  2  0  0  0  0
 14 19  1  0  0  0  0
 14 15  1  0  0  0  0
 15 16  1  0  0  0  0
 15 38  1  0  0  0  0
 15 39  1  0  0  0  0
 16 17  1  0  0  0  0
 16 40  1  0  0  0  0
 16 41  1  0  0  0  0
 17 18  1  0  0  0  0
 18 19  1  0  0  0  0
 18 42  1  0  0  0  0
 18 43  1  0  0  0  0
 19 44  1  0  0  0  0
 19 45  1  0  0  0  0
 20 21  1  0  0  0  0
 21 22  2  0  0  0  0
 21 46  1  0  0  0  0
 22 23  1  0  0  0  0
M  CHG  1   2   1
M  CHG  1   8  -1
M  END
> <s_m_source_file>
AV-unprocessed.smi

> <i_m_source_file_index>
1943

> <i_lp_mmshare_version>
43012

> <i_f3d_flags>
0

> <s_epik_input>
W0NIM11OKFtDSDNdKUMoW0NIM10pKFtDSDNdKVtDSDJdW05IXUMoPU8pYzFuYyhuW2NIXWMxQ2wpTjJbQ0gyXVtDSDJdT1tDSDJdW0NIMl0y

> <s_epik_cmdline>
J2VwaWtfcHl0aG9uJywgJy1waCcsICc3LjAnLCAnLXRuJywgJzgnLCAnLW1hJywgJzIwMCcsICctbWV0YWxfYmluZGluZycsICctaW1hZScsICc8aW5maWxlLm1hZT4nLCAnLW9tYWUnLCAnPG91dGZpbGUubWFlPic=

> <r_lp_tautomer_probability>
1

> <r_epik_Ionization_Penalty>
4.9942

> <r_epik_Ionization_Penalty_Charging>
4.9942

> <r_epik_Ionization_Penalty_Neutral>
6.27513e-06

> <r_epik_State_Penalty>
4.99795

> <r_epik_Charging_Adjusted_Penalty>
9.99215

> <i_epik_Tot_Q>
0

> <i_epik_Tot_abs_Q>
2

> <r_epik_Metal_State_Penalty>
1.11486

> <b_epik_Metal_Only>
1

> <s_lp_Force_Field>
OPLS_2005

> <r_lp_Energy>
33.8194

> <b_lp_Chiralities_Consistent>
1

> <s_lp_Variant>
AV-unprocessed.smi:1943-2

> <Gold.Version>
5.8.1

> <Gold.Id.Protein>
6NUR|6NUR_protein|mol2

> <Gold.PLP.Fitness>
48.1820

> <Gold.PLP.PLP>
-41.9326

> <Gold.PLP.part.hbond>
-2.0000

> <Gold.PLP.part.metal>
0.0000

> <Gold.PLP.part.buried>
-6.2608

> <Gold.PLP.part.nonpolar>
-35.1160

> <Gold.PLP.part.repulsive>
1.1417

> <Gold.PLP.ligand.clash>
0.0000

> <Gold.PLP.ligand.torsion>
1.5103

> <Gold.PLP.Chemscore.Hbond>
3.0000

> <Gold.PLP.Chemscore.CHOScore>
0.0000

> <Gold.PLP.Chemscore.Metal>
0.0000

> <Gold.Chemscore.Hbonds>
donor molecule, donor type, donor heavy atom, donor atom, acceptor molecule, acceptor atom, score
      L1  H     2    47       P1 10175  1.98
      P1  H  7989  7998       L1    10  0.95

> <Gold.PLP.Chemscore.Internal.Correction>
0.2700

> <Gold.Rescore>
     Score         DG    S(hbond)    S(metal)    S(lipo)     H(rot)  DE(clash)    DE(int)     intcor
     14.97     -17.81       1.51        0.00      92.88       1.41       0.06       2.77       ----

> <Gold.Chemscore.Fitness>
14.9738

> <Gold.Chemscore.DG>
-17.8072

> <Gold.Chemscore.ZeroCoef>
-5.4800

> <Gold.Chemscore.Hbond>
1.5148

> <Gold.Chemscore.Metal>
0.0000

> <Gold.Chemscore.Lipo>
92.8821

> <Gold.Chemscore.Internal_Hbond>
0.0000

> <Gold.Chemscore.DEClash>
0.0618

> <Gold.Chemscore.DEInternal>
2.7715

> <Gold.Chemscore.Rot>
1.4060

> <Gold.Chemscore.Internal.Correction>
   9.000000E+99

> <Gold.Chemscore.Hbonds>
donor molecule, donor type, donor heavy atom, donor atom, acceptor molecule, acceptor atom, score
      L1  H     2    47       P1 10175  0.89
      P1  H  7989  7998       L1    10  0.21

> <Gold.Chemscore.Hbond.Weighted>
-5.0594

> <Gold.Chemscore.Metal.Weighted>
-0.0000

> <Gold.Chemscore.Lipo.Weighted>
-10.8672

> <Gold.Chemscore.Internal_Hbond.Weighted>
0.0000

> <Gold.Chemscore.DEClash.Weighted>
0.0618

> <Gold.Chemscore.DEInternal.Weighted>
2.7715

> <Gold.Chemscore.Rot.Weighted>
3.5994

> <Gold.Chemscore.Internal.Correction.Weighted>
   9.000000E+99

> <Gold.Protein.RotatedTorsions>
[ 6907 6896 6895 6894 ] final   15.87 input  -60.11 | X-H torsion
[ 7974 7965 7964 7962 ] final -150.02 input  175.53 | X-H torsion
[ 8008 7997 7996 7995 ] final -133.50 input   59.86 | X-H torsion
[ 10167 10162 10161 10158 ] final  -82.71 input  -65.29 | X-H torsion
[ 10718 10713 10712 10709 ] final -146.98 input   66.30 | X-H torsion
[ 10763 10752 10751 10750 ] final  111.59 input  -60.55 | X-H torsion
[ 11005 11000 10999 10996 ] final  -89.76 input  -57.11 | X-H torsion

> <Gold.Protein.ActiveResidues>
 VAL166  LYS551  ARG553  GLY616  TRP617  ASP618  TYR619  PRO620  LYS621  CYS622 
 ASP623  PHE694  ASN695  SER759  ASP760  ASP761  ALA762  ILE779  LEU786  VAL792 
 PHE793  MET794  SER795  GLU796  ALA797  LYS798  CYS799  TRP800  GLU811  SER814 

> <Gold.Protein.RotatedAtoms>
  151.8250  135.0640  160.0429 H   0  0  0  0  0  0  0  0  0  0  0  0  # atno 6907 bound_to 6896
  152.2923  133.5569  159.5573 H   0  0  0  0  0  0  0  0  0  0  0  0  # atno 6908 bound_to 6896
  150.7235  134.0327  159.3781 H   0  0  0  0  0  0  0  0  0  0  0  0  # atno 6909 bound_to 6896
  144.7932  140.4987  143.5758 H   0  0  0  0  0  0  0  0  0  0  0  0  # atno 7974 bound_to 7965
  155.3465  140.0475  157.3045 H   0  0  0  0  0  0  0  0  0  0  0  0  # atno 8008 bound_to 7997
  154.5249  140.2237  155.8872 H   0  0  0  0  0  0  0  0  0  0  0  0  # atno 8009 bound_to 7997
  156.1729  140.3091  155.9012 H   0  0  0  0  0  0  0  0  0  0  0  0  # atno 8010 bound_to 7997
  140.4294  143.2554  151.8780 H   0  0  0  0  0  0  0  0  0  0  0  0  # atno 10167 bound_to 10162
  156.4018  130.7937  151.2148 H   0  0  0  0  0  0  0  0  0  0  0  0  # atno 10718 bound_to 10713
  153.4656  135.3712  155.2362 H   0  0  0  0  0  0  0  0  0  0  0  0  # atno 10763 bound_to 10752
  154.8757  135.3919  154.3873 H   0  0  0  0  0  0  0  0  0  0  0  0  # atno 10764 bound_to 10752
  153.4453  135.7085  153.6207 H   0  0  0  0  0  0  0  0  0  0  0  0  # atno 10765 bound_to 10752
  141.1579  133.7650  156.9641 H   0  0  0  0  0  0  0  0  0  0  0  0  # atno 11005 bound_to 11000
  145.5740  139.1485  143.3272 LP  0  0  0  0  0  0  0  0  0  0  0  0  # atno 17320 bound_to 7965
  146.2191  140.5872  142.9025 LP  0  0  0  0  0  0  0  0  0  0  0  0  # atno 17321 bound_to 7965
  139.4784  144.5351  151.8610 LP  0  0  0  0  0  0  0  0  0  0  0  0  # atno 17342 bound_to 10162
  140.4444  144.1942  150.5893 LP  0  0  0  0  0  0  0  0  0  0  0  0  # atno 17343 bound_to 10162
  157.7504  131.0284  150.4049 LP  0  0  0  0  0  0  0  0  0  0  0  0  # atno 17370 bound_to 10713
  156.4330  130.3976  149.6747 LP  0  0  0  0  0  0  0  0  0  0  0  0  # atno 17371 bound_to 10713
  140.1173  134.9439  157.2153 LP  0  0  0  0  0  0  0  0  0  0  0  0  # atno 17394 bound_to 11000
  140.3117  134.3016  155.7265 LP  0  0  0  0  0  0  0  0  0  0  0  0  # atno 17395 bound_to 11000

$$$$
