AV-unprocessed.smi:3266|AV-procd|sdf|12501|dock9
  -GOLD-   2272018403D 1   1.00000     0.00000
 Structure written by MMmdl.
 38 39  0  0  0  0  0  0  0  0  1 V2000
  150.1759  140.1622  154.5880 O   0  0  0  0  0  0  0  0  0  0  0  0
  149.4820  141.1726  154.7053 C   0  0  0  0  0  0  0  0  0  0  0  0
  148.2666  141.3831  153.7991 C   0  0  0  0  0  0  0  0  0  0  0  0
  146.9379  141.1643  154.5437 C   0  0  0  0  0  0  0  0  0  0  0  0
  146.4022  142.4498  155.1902 C   0  0  1  0  0  0  0  0  0  0  0  0
  145.6247  143.3451  154.2305 C   0  0  0  0  0  0  0  0  0  0  0  0
  144.7751  144.1855  155.1671 C   0  0  0  0  0  0  0  0  0  0  0  0
  144.6918  143.3441  156.4455 C   0  0  0  0  0  0  0  0  0  0  0  0
  145.4291  142.1562  156.1801 O   0  0  0  0  0  0  0  0  0  0  0  0
  149.7277  142.1323  155.6102 N   0  0  0  0  0  0  0  0  0  0  0  0
  150.8277  142.1151  156.5697 C   0  0  0  0  0  0  0  0  0  0  0  0
  150.3517  142.2300  158.0314 C   0  0  0  0  0  0  0  0  0  0  0  0
  151.4709  142.1002  159.0519 C   0  0  0  0  0  0  0  0  0  0  0  0
  152.3030  140.9603  159.0581 C   0  0  0  0  0  0  0  0  0  0  0  0
  153.3327  140.8846  160.0159 C   0  0  0  0  0  0  0  0  0  0  0  0
  153.4916  141.9473  160.9258 C   0  0  0  0  0  0  0  0  0  0  0  0
  152.6088  143.0422  160.8378 C   0  0  0  0  0  0  0  0  0  0  0  0
  151.6182  143.1240  159.9237 N   0  0  0  0  0  0  0  0  0  0  0  0
  148.3089  142.3973  153.4001 H   0  0  0  0  0  0  0  0  0  0  0  0
  148.3246  140.7089  152.9432 H   0  0  0  0  0  0  0  0  0  0  0  0
  146.1928  140.7850  153.8428 H   0  0  0  0  0  0  0  0  0  0  0  0
  147.0583  140.3967  155.3100 H   0  0  0  0  0  0  0  0  0  0  0  0
  147.2154  143.0173  155.6463 H   0  0  0  0  0  0  0  0  0  0  0  0
  146.2726  143.9441  153.5897 H   0  0  0  0  0  0  0  0  0  0  0  0
  144.9789  142.7417  153.5909 H   0  0  0  0  0  0  0  0  0  0  0  0
  145.2610  145.1393  155.3757 H   0  0  0  0  0  0  0  0  0  0  0  0
  143.7927  144.3945  154.7426 H   0  0  0  0  0  0  0  0  0  0  0  0
  145.1438  143.8742  157.2849 H   0  0  0  0  0  0  0  0  0  0  0  0
  143.6635  143.0995  156.7125 H   0  0  0  0  0  0  0  0  0  0  0  0
  149.1036  142.9254  155.6436 H   0  0  0  0  0  0  0  0  0  0  0  0
  151.4194  141.2076  156.4396 H   0  0  0  0  0  0  0  0  0  0  0  0
  151.4914  142.9475  156.3342 H   0  0  0  0  0  0  0  0  0  0  0  0
  149.8413  143.1823  158.1822 H   0  0  0  0  0  0  0  0  0  0  0  0
  149.6059  141.4592  158.2290 H   0  0  0  0  0  0  0  0  0  0  0  0
  152.1575  140.1619  158.3453 H   0  0  0  0  0  0  0  0  0  0  0  0
  153.9888  140.0276  160.0509 H   0  0  0  0  0  0  0  0  0  0  0  0
  154.2708  141.9242  161.6730 H   0  0  0  0  0  0  0  0  0  0  0  0
  152.7011  143.8746  161.5196 H   0  0  0  0  0  0  0  0  0  0  0  0
  1  2  2  0  0  0  0
  2  3  1  0  0  0  0
  2 10  1  0  0  0  0
  3  4  1  0  0  0  0
  3 19  1  0  0  0  0
  3 20  1  0  0  0  0
  4  5  1  0  0  0  0
  4 21  1  0  0  0  0
  4 22  1  0  0  0  0
  5  9  1  0  0  0  0
  5  6  1  0  0  0  0
  5 23  1  0  0  0  0
  6  7  1  0  0  0  0
  6 24  1  0  0  0  0
  6 25  1  0  0  0  0
  7  8  1  0  0  0  0
  7 26  1  0  0  0  0
  7 27  1  0  0  0  0
  8  9  1  0  0  0  0
  8 28  1  0  0  0  0
  8 29  1  0  0  0  0
 10 11  1  0  0  0  0
 10 30  1  0  0  0  0
 11 12  1  0  0  0  0
 11 31  1  0  0  0  0
 11 32  1  0  0  0  0
 12 13  1  0  0  0  0
 12 33  1  0  0  0  0
 12 34  1  0  0  0  0
 13 18  1  0  0  0  0
 13 14  2  0  0  0  0
 14 15  1  0  0  0  0
 14 35  1  0  0  0  0
 15 16  2  0  0  0  0
 15 36  1  0  0  0  0
 16 17  1  0  0  0  0
 16 37  1  0  0  0  0
 17 18  2  0  0  0  0
 17 38  1  0  0  0  0
M  END
> <s_m_source_file>
AV-unprocessed.smi

> <i_m_source_file_index>
3266

> <i_lp_mmshare_version>
43012

> <i_f3d_flags>
0

> <s_epik_input>
TzFbQ0gyXVtDSDJdW0NIMl1bQ0BIXTFbQ0gyXVtDSDJdQyg9TylbTkhdW0NIMl1bQ0gyXWMyW2NIXVtjSF1bY0hdW2NIXW4y

> <s_epik_cmdline>
J2VwaWtfcHl0aG9uJywgJy1waCcsICc3LjAnLCAnLXRuJywgJzgnLCAnLW1hJywgJzIwMCcsICctbWV0YWxfYmluZGluZycsICctaW1hZScsICc8aW5maWxlLm1hZT4nLCAnLW9tYWUnLCAnPG91dGZpbGUubWFlPic=

> <r_epik_Ionization_Penalty>
0.0267142

> <r_epik_Ionization_Penalty_Charging>
0

> <r_epik_Ionization_Penalty_Neutral>
0.0267142

> <r_epik_State_Penalty>
0.0218233

> <r_epik_Charging_Adjusted_Penalty>
0.0218233

> <i_epik_Tot_Q>
0

> <i_epik_Tot_abs_Q>
0

> <r_epik_Metal_State_Penalty>
0.0208786

> <b_epik_Metal_Only>
0

> <s_lp_Force_Field>
OPLS_2005

> <r_lp_Energy>
16.882

> <b_lp_Chiralities_Consistent>
1

> <s_lp_Variant>
AV-unprocessed.smi:3266-2

> <Gold.Version>
5.8.1

> <Gold.Id.Protein>
6NUR|6NUR_protein|mol2

> <Gold.PLP.Fitness>
44.5238

> <Gold.PLP.PLP>
-39.7170

> <Gold.PLP.part.hbond>
-2.0000

> <Gold.PLP.part.metal>
0.0000

> <Gold.PLP.part.buried>
-5.2538

> <Gold.PLP.part.nonpolar>
-32.2424

> <Gold.PLP.part.repulsive>
0.3447

> <Gold.PLP.ligand.clash>
0.0000

> <Gold.PLP.ligand.torsion>
0.5630

> <Gold.PLP.Chemscore.Hbond>
1.9600

> <Gold.PLP.Chemscore.CHOScore>
0.0000

> <Gold.PLP.Chemscore.Metal>
0.0000

> <Gold.Chemscore.Hbonds>
donor molecule, donor type, donor heavy atom, donor atom, acceptor molecule, acceptor atom, score
      L1  H    10    30       P1  8028  0.98
      P1  H  7989  7998       L1     1  1.00

> <Gold.PLP.Chemscore.Internal.Correction>
0.0529

> <Gold.Rescore>
     Score         DG    S(hbond)    S(metal)    S(lipo)     H(rot)  DE(clash)    DE(int)     intcor
     16.91     -17.58       1.64        0.00      94.13       1.71       0.07       0.59       ----

> <Gold.Chemscore.Fitness>
16.9103

> <Gold.Chemscore.DG>
-17.5757

> <Gold.Chemscore.ZeroCoef>
-5.4800

> <Gold.Chemscore.Hbond>
1.6369

> <Gold.Chemscore.Metal>
0.0000

> <Gold.Chemscore.Lipo>
94.1274

> <Gold.Chemscore.Internal_Hbond>
0.0000

> <Gold.Chemscore.DEClash>
0.0728

> <Gold.Chemscore.DEInternal>
0.5926

> <Gold.Chemscore.Rot>
1.7127

> <Gold.Chemscore.Internal.Correction>
   9.000000E+99

> <Gold.Chemscore.Hbonds>
donor molecule, donor type, donor heavy atom, donor atom, acceptor molecule, acceptor atom, score
      L1  H    10    30       P1  8028  0.93
      P1  H  7989  7998       L1     1  0.25

> <Gold.Chemscore.Hbond.Weighted>
-5.4674

> <Gold.Chemscore.Metal.Weighted>
-0.0000

> <Gold.Chemscore.Lipo.Weighted>
-11.0129

> <Gold.Chemscore.Internal_Hbond.Weighted>
0.0000

> <Gold.Chemscore.DEClash.Weighted>
0.0728

> <Gold.Chemscore.DEInternal.Weighted>
0.5926

> <Gold.Chemscore.Rot.Weighted>
4.3846

> <Gold.Chemscore.Internal.Correction.Weighted>
   9.000000E+99

> <Gold.Protein.RotatedTorsions>
[ 6907 6896 6895 6894 ] final  -81.40 input  -60.11 | X-H torsion
[ 7974 7965 7964 7962 ] final  -90.24 input  175.53 | X-H torsion
[ 8008 7997 7996 7995 ] final  -37.89 input   59.86 | X-H torsion
[ 10167 10162 10161 10158 ] final  -77.69 input  -65.29 | X-H torsion
[ 10718 10713 10712 10709 ] final  105.48 input   66.30 | X-H torsion
[ 10763 10752 10751 10750 ] final   -0.69 input  -60.55 | X-H torsion
[ 11005 11000 10999 10996 ] final  142.94 input  -57.11 | X-H torsion

> <Gold.Protein.ActiveResidues>
 VAL166  LYS551  ARG553  GLY616  TRP617  ASP618  TYR619  PRO620  LYS621  CYS622 
 ASP623  PHE694  ASN695  SER759  ASP760  ASP761  ALA762  ILE779  LEU786  VAL792 
 PHE793  MET794  SER795  GLU796  ALA797  LYS798  CYS799  TRP800  GLU811  SER814 

> <Gold.Protein.RotatedAtoms>
  150.6912  134.3823  159.5039 H   0  0  0  0  0  0  0  0  0  0  0  0  # atno 6907 bound_to 6896
  152.1623  134.8899  160.0550 H   0  0  0  0  0  0  0  0  0  0  0  0  # atno 6908 bound_to 6896
  151.9956  133.3772  159.4198 H   0  0  0  0  0  0  0  0  0  0  0  0  # atno 6909 bound_to 6896
  145.4291  140.9555  143.2138 H   0  0  0  0  0  0  0  0  0  0  0  0  # atno 7974 bound_to 7965
  154.4046  140.1592  156.2611 H   0  0  0  0  0  0  0  0  0  0  0  0  # atno 8008 bound_to 7997
  155.9036  140.3431  155.6022 H   0  0  0  0  0  0  0  0  0  0  0  0  # atno 8009 bound_to 7997
  155.7419  140.0793  157.2232 H   0  0  0  0  0  0  0  0  0  0  0  0  # atno 8010 bound_to 7997
  140.4748  143.2417  151.8149 H   0  0  0  0  0  0  0  0  0  0  0  0  # atno 10167 bound_to 10162
  157.6704  131.0828  150.5863 H   0  0  0  0  0  0  0  0  0  0  0  0  # atno 10718 bound_to 10713
  153.3352  135.6977  153.6913 H   0  0  0  0  0  0  0  0  0  0  0  0  # atno 10763 bound_to 10752
  153.5700  135.3518  155.2834 H   0  0  0  0  0  0  0  0  0  0  0  0  # atno 10764 bound_to 10752
  154.8626  135.4270  154.2551 H   0  0  0  0  0  0  0  0  0  0  0  0  # atno 10765 bound_to 10752
  140.0515  134.9253  157.1025 H   0  0  0  0  0  0  0  0  0  0  0  0  # atno 11005 bound_to 11000
  144.8194  139.5818  143.6993 LP  0  0  0  0  0  0  0  0  0  0  0  0  # atno 17320 bound_to 7965
  146.2616  139.6424  142.9358 LP  0  0  0  0  0  0  0  0  0  0  0  0  # atno 17321 bound_to 7965
  139.4824  144.4846  151.9263 LP  0  0  0  0  0  0  0  0  0  0  0  0  # atno 17342 bound_to 10162
  140.3932  144.2589  150.5898 LP  0  0  0  0  0  0  0  0  0  0  0  0  # atno 17343 bound_to 10162
  156.6163  130.4393  149.5839 LP  0  0  0  0  0  0  0  0  0  0  0  0  # atno 17370 bound_to 10713
  156.2390  130.6840  151.1538 LP  0  0  0  0  0  0  0  0  0  0  0  0  # atno 17371 bound_to 10713
  140.3910  134.2185  155.7166 LP  0  0  0  0  0  0  0  0  0  0  0  0  # atno 17394 bound_to 11000
  141.1932  133.8155  157.0806 LP  0  0  0  0  0  0  0  0  0  0  0  0  # atno 17395 bound_to 11000

$$$$
