AV-unprocessed.smi:1298|AV-procd|sdf|5417|dock4
  -GOLD-   22720 4573D 1   1.00000     0.00000
 Structure written by MMmdl.
 30 31  0  0  0  0  0  0  0  0  1 V2000
  154.3527  141.2178  160.2587 C   0  0  0  0  0  0  0  0  0  0  0  0
  153.2266  141.9311  160.1085 C   0  0  0  0  0  0  0  0  0  0  0  0
  152.5486  142.8649  161.3935 Cl  0  0  0  0  0  0  0  0  0  0  0  0
  152.4228  142.0379  158.8295 C   0  0  0  0  0  0  0  0  0  0  0  0
  151.9042  140.4075  158.2180 S   0  0  0  0  0  0  0  0  0  0  0  0
  150.5259  140.8723  157.2103 C   0  0  0  0  0  0  0  0  0  0  0  0
  149.4685  141.5659  157.6448 N   0  0  0  0  0  0  0  0  0  0  0  0
  148.6477  141.7226  156.5516 N   0  0  0  0  0  0  0  0  0  0  0  0
  149.2684  141.0942  155.5520 C   0  0  0  0  0  0  0  0  0  0  0  0
  148.7398  141.0478  154.1532 C   0  0  0  0  0  0  0  0  0  0  0  0
  147.4561  141.7552  153.7772 C   0  0  0  0  0  0  0  0  0  0  0  0
  147.5000  140.2503  153.8123 C   0  0  0  0  0  0  0  0  0  0  0  0
  150.4540  140.5521  155.9003 N   0  0  0  0  0  0  0  0  0  0  0  0
  151.4126  139.8316  155.0714 C   0  0  0  0  0  0  0  0  0  0  0  0
  150.8847  138.4453  154.6962 C   0  0  0  0  0  0  0  0  0  0  0  0
  150.3056  138.3173  153.4997 N   0  0  0  0  0  0  0  0  0  0  0  0
  151.0026  137.5003  155.4733 O   0  0  0  0  0  0  0  0  0  0  0  0
  154.8773  141.1958  161.2026 H   0  0  0  0  0  0  0  0  0  0  0  0
  154.7640  140.6458  159.4399 H   0  0  0  0  0  0  0  0  0  0  0  0
  151.5434  142.6598  159.0012 H   0  0  0  0  0  0  0  0  0  0  0  0
  153.0272  142.5342  158.0690 H   0  0  0  0  0  0  0  0  0  0  0  0
  149.5557  141.0579  153.4330 H   0  0  0  0  0  0  0  0  0  0  0  0
  146.9004  142.2576  154.5668 H   0  0  0  0  0  0  0  0  0  0  0  0
  147.4156  142.2348  152.8015 H   0  0  0  0  0  0  0  0  0  0  0  0
  147.4893  139.7232  152.8605 H   0  0  0  0  0  0  0  0  0  0  0  0
  146.9764  139.7537  154.6270 H   0  0  0  0  0  0  0  0  0  0  0  0
  151.6165  140.4004  154.1643 H   0  0  0  0  0  0  0  0  0  0  0  0
  152.3617  139.7543  155.6019 H   0  0  0  0  0  0  0  0  0  0  0  0
  149.9443  137.4218  153.2053 H   0  0  0  0  0  0  0  0  0  0  0  0
  150.2341  139.1199  152.8908 H   0  0  0  0  0  0  0  0  0  0  0  0
  1  2  2  0  0  0  0
  1 18  1  0  0  0  0
  1 19  1  0  0  0  0
  2  3  1  0  0  0  0
  2  4  1  0  0  0  0
  4  5  1  0  0  0  0
  4 20  1  0  0  0  0
  4 21  1  0  0  0  0
  5  6  1  0  0  0  0
  6 13  1  0  0  0  0
  6  7  2  0  0  0  0
  7  8  1  0  0  0  0
  8  9  2  0  0  0  0
  9 10  1  0  0  0  0
  9 13  1  0  0  0  0
 10 12  1  0  0  0  0
 10 11  1  0  0  0  0
 10 22  1  0  0  0  0
 11 12  1  0  0  0  0
 11 23  1  0  0  0  0
 11 24  1  0  0  0  0
 12 25  1  0  0  0  0
 12 26  1  0  0  0  0
 13 14  1  0  0  0  0
 14 15  1  0  0  0  0
 14 27  1  0  0  0  0
 14 28  1  0  0  0  0
 15 16  1  0  0  0  0
 15 17  2  0  0  0  0
 16 29  1  0  0  0  0
 16 30  1  0  0  0  0
M  END
> <s_m_source_file>
AV-unprocessed.smi

> <i_m_source_file_index>
1298

> <i_lp_mmshare_version>
43012

> <i_f3d_flags>
0

> <s_epik_input>
W0NIMl09QyhDbClbQ0gyXVNjMW5uYyhbQ0hdMltDSDJdW0NIMl0yKW4xW0NIMl1DKD1PKVtOSDJd

> <s_epik_cmdline>
J2VwaWtfcHl0aG9uJywgJy1waCcsICc3LjAnLCAnLXRuJywgJzgnLCAnLW1hJywgJzIwMCcsICctbWV0YWxfYmluZGluZycsICctaW1hZScsICc8aW5maWxlLm1hZT4nLCAnLW9tYWUnLCAnPG91dGZpbGUubWFlPic=

> <r_lp_tautomer_probability>
1

> <r_epik_Ionization_Penalty>
2.01117e-07

> <r_epik_Ionization_Penalty_Charging>
0

> <r_epik_Ionization_Penalty_Neutral>
2.01117e-07

> <r_epik_State_Penalty>
-0

> <r_epik_Charging_Adjusted_Penalty>
0

> <i_epik_Tot_Q>
0

> <i_epik_Tot_abs_Q>
0

> <r_epik_Metal_State_Penalty>
-0

> <b_epik_Metal_Only>
0

> <s_lp_Force_Field>
OPLS_2005

> <r_lp_Energy>
3.32617

> <b_lp_Chiralities_Consistent>
1

> <s_lp_Variant>
AV-unprocessed.smi:1298-1

> <Gold.Version>
5.8.1

> <Gold.Id.Protein>
6NUR|6NUR_protein|mol2

> <Gold.PLP.Fitness>
41.6041

> <Gold.PLP.PLP>
-36.7059

> <Gold.PLP.part.hbond>
-2.3403

> <Gold.PLP.part.metal>
0.0000

> <Gold.PLP.part.buried>
-2.1151

> <Gold.PLP.part.nonpolar>
-32.6846

> <Gold.PLP.part.repulsive>
0.4327

> <Gold.PLP.ligand.clash>
0.0000

> <Gold.PLP.ligand.torsion>
0.6496

> <Gold.PLP.Chemscore.Hbond>
1.9913

> <Gold.PLP.Chemscore.CHOScore>
0.0000

> <Gold.PLP.Chemscore.Metal>
0.0000

> <Gold.Chemscore.Hbonds>
donor molecule, donor type, donor heavy atom, donor atom, acceptor molecule, acceptor atom, score
      L1  H    16    29       P1  7948  1.00
      L1  H    16    30       P1  7957  0.98

> <Gold.PLP.Chemscore.Internal.Correction>
0.2237

> <Gold.Rescore>
     Score         DG    S(hbond)    S(metal)    S(lipo)     H(rot)  DE(clash)    DE(int)     intcor
     12.89     -13.83       1.88        0.00      74.48       2.60       0.29       0.64       ----

> <Gold.Chemscore.Fitness>
12.8867

> <Gold.Chemscore.DG>
-13.8261

> <Gold.Chemscore.ZeroCoef>
-5.4800

> <Gold.Chemscore.Hbond>
1.8819

> <Gold.Chemscore.Metal>
0.0000

> <Gold.Chemscore.Lipo>
74.4784

> <Gold.Chemscore.Internal_Hbond>
0.0000

> <Gold.Chemscore.DEClash>
0.2946

> <Gold.Chemscore.DEInternal>
0.6448

> <Gold.Chemscore.Rot>
2.5990

> <Gold.Chemscore.Internal.Correction>
   9.000000E+99

> <Gold.Chemscore.Hbonds>
donor molecule, donor type, donor heavy atom, donor atom, acceptor molecule, acceptor atom, score
      L1  H    16    29       P1  7948  0.32
      L1  H    16    30       P1  7957  0.65

> <Gold.Chemscore.Hbond.Weighted>
-6.2855

> <Gold.Chemscore.Metal.Weighted>
-0.0000

> <Gold.Chemscore.Lipo.Weighted>
-8.7140

> <Gold.Chemscore.Internal_Hbond.Weighted>
0.0000

> <Gold.Chemscore.DEClash.Weighted>
0.2946

> <Gold.Chemscore.DEInternal.Weighted>
0.6448

> <Gold.Chemscore.Rot.Weighted>
6.6534

> <Gold.Chemscore.Internal.Correction.Weighted>
   9.000000E+99

> <Gold.Protein.RotatedTorsions>
[ 6907 6896 6895 6894 ] final -114.27 input  -60.11 | X-H torsion
[ 7974 7965 7964 7962 ] final   24.68 input  175.53 | X-H torsion
[ 8008 7997 7996 7995 ] final   -1.70 input   59.86 | X-H torsion
[ 10167 10162 10161 10158 ] final   59.24 input  -65.29 | X-H torsion
[ 10718 10713 10712 10709 ] final  -88.30 input   66.30 | X-H torsion
[ 10763 10752 10751 10750 ] final -164.32 input  -60.55 | X-H torsion
[ 11005 11000 10999 10996 ] final   82.13 input  -57.11 | X-H torsion

> <Gold.Protein.ActiveResidues>
 VAL166  LYS551  ARG553  GLY616  TRP617  ASP618  TYR619  PRO620  LYS621  CYS622 
 ASP623  PHE694  ASN695  SER759  ASP760  ASP761  ALA762  ILE779  LEU786  VAL792 
 PHE793  MET794  SER795  GLU796  ALA797  LYS798  CYS799  TRP800  GLU811  SER814 

> <Gold.Protein.RotatedAtoms>
  150.7889  133.8826  159.3289 H   0  0  0  0  0  0  0  0  0  0  0  0  # atno 6907 bound_to 6896
  151.6669  135.0980  160.0200 H   0  0  0  0  0  0  0  0  0  0  0  0  # atno 6908 bound_to 6896
  152.3960  133.6708  159.6311 H   0  0  0  0  0  0  0  0  0  0  0  0  # atno 6909 bound_to 6896
  146.1926  139.7571  142.8821 H   0  0  0  0  0  0  0  0  0  0  0  0  # atno 7974 bound_to 7965
  154.6439  140.2553  155.7291 H   0  0  0  0  0  0  0  0  0  0  0  0  # atno 8008 bound_to 7997
  156.2542  140.2882  156.0764 H   0  0  0  0  0  0  0  0  0  0  0  0  # atno 8009 bound_to 7997
  155.1554  140.0383  157.2821 H   0  0  0  0  0  0  0  0  0  0  0  0  # atno 8010 bound_to 7997
  140.1786  144.4205  150.6626 H   0  0  0  0  0  0  0  0  0  0  0  0  # atno 10167 bound_to 10162
  155.9984  130.4831  150.4998 H   0  0  0  0  0  0  0  0  0  0  0  0  # atno 10718 bound_to 10713
  154.7040  135.2993  154.9299 H   0  0  0  0  0  0  0  0  0  0  0  0  # atno 10763 bound_to 10752
  154.0222  135.6681  153.4777 H   0  0  0  0  0  0  0  0  0  0  0  0  # atno 10764 bound_to 10752
  153.0703  135.5065  154.8200 H   0  0  0  0  0  0  0  0  0  0  0  0  # atno 10765 bound_to 10752
  139.9074  134.8049  156.2134 H   0  0  0  0  0  0  0  0  0  0  0  0  # atno 11005 bound_to 11000
  145.3745  141.0348  143.3212 LP  0  0  0  0  0  0  0  0  0  0  0  0  # atno 17320 bound_to 7965
  144.8516  139.5313  143.6854 LP  0  0  0  0  0  0  0  0  0  0  0  0  # atno 17321 bound_to 7965
  140.6535  143.2231  151.6023 LP  0  0  0  0  0  0  0  0  0  0  0  0  # atno 17342 bound_to 10162
  139.5306  144.2927  152.1139 LP  0  0  0  0  0  0  0  0  0  0  0  0  # atno 17343 bound_to 10162
  157.2984  131.0640  151.2085 LP  0  0  0  0  0  0  0  0  0  0  0  0  # atno 17370 bound_to 10713
  157.3073  130.6872  149.6196 LP  0  0  0  0  0  0  0  0  0  0  0  0  # atno 17371 bound_to 10713
  141.0451  133.6917  156.1669 LP  0  0  0  0  0  0  0  0  0  0  0  0  # atno 17394 bound_to 11000
  140.6896  134.4680  157.5589 LP  0  0  0  0  0  0  0  0  0  0  0  0  # atno 17395 bound_to 11000

$$$$
