#       Name:                AV-unprocessed.smi:286
#       Creating user name   scv26
#       Creation time:       Thu Mar 26 21:53:36 2020


#       File generated by GOLD software.
#

@<TRIPOS>MOLECULE
AV-unprocessed.smi:286
    54    56     1
SMALL
NO_CHARGES


@<TRIPOS>ATOM
      1 ****        -0.3848   1.5850  -3.1334 O.2            1 S1                 0.0000
      2 ****        -0.7448   1.8440  -1.9837 C.2            1 S1                 0.0000
      3 ****        -1.2749   3.1433  -1.5847 C.2            1 S1                 0.0000
      4 ****        -1.3971   4.1197  -2.4999 F              1 S1                 0.0000
      5 ****        -1.6443   3.3860  -0.3082 C.2            1 S1                 0.0000
      6 ****        -1.5504   2.4386   0.6987 N.am           1 S1                 0.0000
      7 ****        -1.9583   2.7370   2.1263 C.3            1 S1                 0.0000
      8 ****        -3.2854   2.0339   2.4695 C.3            1 S1                 0.0000
      9 ****        -4.1277   3.1618   3.0322 C.3            1 S1                 0.0000
     10 ****        -3.5683   4.3704   2.2970 C.3            1 S1                 0.0000
     11 ****        -2.1706   4.1112   2.2839 O.3            1 S1                 0.0000
     12 ****        -1.0387   1.1560   0.4047 C.2            1 S1                 0.0000
     13 ****        -0.9202   0.3058   1.2908 O.2            1 S1                 0.0000
     14 ****        -0.6653   0.8953  -0.9349 N.am           1 S1                 0.0000
     15 ****        -0.1200  -0.4172  -1.2407 C.3            1 S1                 0.0000
     16 ****         1.3879  -0.5431  -0.9216 C.3            1 S1                 0.0000
     17 ****         2.1341  -0.0654  -2.0247 O.3            1 S1                 0.0000
     18 ****         1.8132  -1.9985  -0.6072 C.3            1 S1                 0.0000
     19 ****         3.2738  -2.0808  -0.1121 C.3            1 S1                 0.0000
     20 ****         3.6653  -3.5178   0.2679 C.3            1 S1                 0.0000
     21 ****         3.4336  -4.4855  -0.9024 C.3            1 S1                 0.0000
     22 ****         1.9796  -4.4192  -1.3935 C.3            1 S1                 0.0000
     23 ****         1.5835  -2.9841  -1.7775 C.3            1 S1                 0.0000
     24 ****        -2.0238   4.3711  -0.0847 H              1 S1                 0.0000
     25 ****        -1.1146   2.4280   2.7460 H              1 S1                 0.0000
     26 ****        -3.7447   1.6303   1.5658 H              1 S1                 0.0000
     27 ****        -3.1255   1.2215   3.1788 H              1 S1                 0.0000
     28 ****        -5.1964   3.0202   2.8695 H              1 S1                 0.0000
     29 ****        -3.9534   3.2625   4.1041 H              1 S1                 0.0000
     30 ****        -3.9540   4.4166   1.2777 H              1 S1                 0.0000
     31 ****        -3.7971   5.3123   2.7960 H              1 S1                 0.0000
     32 ****        -0.7067  -1.1318  -0.6606 H              1 S1                 0.0000
     33 ****        -0.3522  -0.6643  -2.2779 H              1 S1                 0.0000
     34 ****         1.6319   0.0754  -0.0570 H              1 S1                 0.0000
     35 ****         1.9240  -0.5924  -2.7804 H              1 S1                 0.0000
     36 ****         1.1863  -2.3323   0.2213 H              1 S1                 0.0000
     37 ****         3.9516  -1.7182  -0.8855 H              1 S1                 0.0000
     38 ****         3.4133  -1.4275   0.7498 H              1 S1                 0.0000
     39 ****         4.7114  -3.5486   0.5731 H              1 S1                 0.0000
     40 ****         3.0820  -3.8398   1.1313 H              1 S1                 0.0000
     41 ****         4.1088  -4.2368  -1.7222 H              1 S1                 0.0000
     42 ****         3.6779  -5.5036  -0.5979 H              1 S1                 0.0000
     43 ****         1.8455  -5.0829  -2.2480 H              1 S1                 0.0000
     44 ****         1.3134  -4.7853  -0.6115 H              1 S1                 0.0000
     45 ****         0.5375  -2.9751  -2.0835 H              1 S1                 0.0000
     46 ****         2.1624  -2.6751  -2.6485 H              1 S1                 0.0000
     47 ****        -0.0216   0.6792  -3.3516 LP             1 S1                 0.0000
     48 ****        -0.4558   2.2806  -3.8483 LP             1 S1                 0.0000
     49 ****        -1.7461   4.6043   1.5245 LP             1 S1                 0.0000
     50 ****        -1.7660   4.4153   3.1463 LP             1 S1                 0.0000
     51 ****        -1.1879   0.5216   2.2298 LP             1 S1                 0.0000
     52 ****        -0.5564  -0.5992   1.0700 LP             1 S1                 0.0000
     53 ****         3.1117  -0.1353  -1.8262 LP             1 S1                 0.0000
     54 ****         1.8978   0.8897  -2.2035 LP             1 S1                 0.0000
@<TRIPOS>BOND
    1    1    2 2     
    2    2   14 am    
    3    2    3 1     
    4    3    4 1     
    5    3    5 2     
    6    5    6 1     
    7    5   24 1     
    8    6    7 1     
    9    6   12 am    
   10    7   11 1     
   11    7    8 1     
   12    7   25 1     
   13    8    9 1     
   14    8   26 1     
   15    8   27 1     
   16    9   10 1     
   17    9   28 1     
   18    9   29 1     
   19   10   11 1     
   20   10   30 1     
   21   10   31 1     
   22   12   13 2     
   23   12   14 am    
   24   14   15 1     
   25   15   16 1     
   26   15   32 1     
   27   15   33 1     
   28   16   17 1     
   29   16   18 1     
   30   16   34 1     
   31   17   35 1     
   32   18   23 1     
   33   18   19 1     
   34   18   36 1     
   35   19   20 1     
   36   19   37 1     
   37   19   38 1     
   38   20   21 1     
   39   20   39 1     
   40   20   40 1     
   41   21   22 1     
   42   21   41 1     
   43   21   42 1     
   44   22   23 1     
   45   22   43 1     
   46   22   44 1     
   47   23   45 1     
   48   23   46 1     
   49    1   47 1     
   50    1   48 1     
   51   11   49 1     
   52   11   50 1     
   53   13   51 1     
   54   13   52 1     
   55   17   53 1     
   56   17   54 1     
@<TRIPOS>SUBSTRUCTURE
      1 S1             1
@<TRIPOS>SET
LONE_PAIRS      STATIC     ATOMS    <user>   **** ""
8 47 48 49 50 51 52 53 54
DONOR_HYDROGENS      STATIC     ATOMS    <user>   **** ""
1 35
ATOM$BLUE        STATIC     ATOMS    COLORGROUP SYSTEM
8 47 48 49 50 51 52 53 54
ATOM$RED        STATIC     ATOMS    COLORGROUP SYSTEM
1 35
