#       Name:                AV-unprocessed.smi:573
#       Creating user name   scv26
#       Creation time:       Thu Mar 26 23:48:06 2020


#       File generated by GOLD software.
#

@<TRIPOS>MOLECULE
AV-unprocessed.smi:573
    49    51     1
SMALL
NO_CHARGES


@<TRIPOS>ATOM
      1 ****         0.0459  -0.6938  -3.7464 C.3            1 S1                 0.0000
      2 ****        -0.7499  -0.7737  -2.4376 C.3            1 S1                 0.0000
      3 ****        -1.8256  -1.6656  -2.6452 O.3            1 S1                 0.0000
      4 ****        -1.3141   0.5974  -2.0270 C.3            1 S1                 0.0000
      5 ****        -1.7348   0.6260  -0.6374 N.pl3          1 S1                 0.0000
      6 ****        -1.0178   0.6520   0.5533 C.2            1 S1                 0.0000
      7 ****        -1.5818   0.6757   1.7596 N.2            1 S1                 0.0000
      8 ****        -0.4821   0.6882   2.5972 C.ar           1 S1                 0.0000
      9 ****        -0.4039   0.7134   4.0081 C.ar           1 S1                 0.0000
     10 ****         0.8497   0.7180   4.6540 C.ar           1 S1                 0.0000
     11 ****         2.0414   0.6959   3.9007 C.ar           1 S1                 0.0000
     12 ****         1.9870   0.6726   2.4937 C.ar           1 S1                 0.0000
     13 ****         0.7334   0.6712   1.8529 C.ar           1 S1                 0.0000
     14 ****         0.3357   0.6531   0.5189 N.pl3          1 S1                 0.0000
     15 ****         1.2087   0.6324  -0.6465 C.3            1 S1                 0.0000
     16 ****         1.4691  -0.7979  -1.1474 C.3            1 S1                 0.0000
     17 ****         2.4219  -0.8200  -2.3580 C.3            1 S1                 0.0000
     18 ****         2.7208  -2.2620  -2.7846 C.3            1 S1                 0.0000
     19 ****         3.2137  -3.0670  -1.5772 C.3            1 S1                 0.0000
     20 ****         2.2261  -2.9340  -0.4072 C.3            1 S1                 0.0000
     21 ****         2.0399  -1.5598  -0.0846 O.3            1 S1                 0.0000
     22 ****         0.8993  -0.0229  -3.6433 H              1 S1                 0.0000
     23 ****        -0.5710  -0.3233  -4.5659 H              1 S1                 0.0000
     24 ****         0.4308  -1.6728  -4.0338 H              1 S1                 0.0000
     25 ****        -0.1006  -1.1717  -1.6567 H              1 S1                 0.0000
     26 ****        -2.3021  -1.7506  -1.8335 H              1 S1                 0.0000
     27 ****        -0.5443   1.3606  -2.1467 H              1 S1                 0.0000
     28 ****        -2.1448   0.8888  -2.6706 H              1 S1                 0.0000
     29 ****        -2.7375   0.6194  -0.5211 H              1 S1                 0.0000
     30 ****        -1.3107   0.7284   4.5942 H              1 S1                 0.0000
     31 ****         0.8971   0.7371   5.7330 H              1 S1                 0.0000
     32 ****         2.9975   0.6965   4.4036 H              1 S1                 0.0000
     33 ****         2.8978   0.6529   1.9138 H              1 S1                 0.0000
     34 ****         0.7666   1.2416  -1.4355 H              1 S1                 0.0000
     35 ****         2.1502   1.1141  -0.3809 H              1 S1                 0.0000
     36 ****         0.5154  -1.2477  -1.4302 H              1 S1                 0.0000
     37 ****         1.9885  -0.2672  -3.1919 H              1 S1                 0.0000
     38 ****         3.3548  -0.3169  -2.1003 H              1 S1                 0.0000
     39 ****         1.8171  -2.7207  -3.1881 H              1 S1                 0.0000
     40 ****         3.4645  -2.2772  -3.5817 H              1 S1                 0.0000
     41 ****         3.3404  -4.1155  -1.8482 H              1 S1                 0.0000
     42 ****         4.1941  -2.7022  -1.2685 H              1 S1                 0.0000
     43 ****         1.2675  -3.3944  -0.6508 H              1 S1                 0.0000
     44 ****         2.6132  -3.4516   0.4704 H              1 S1                 0.0000
     45 ****        -1.4746  -2.5588  -2.9263 LP             1 S1                 0.0000
     46 ****        -2.4302  -1.3063  -3.3561 LP             1 S1                 0.0000
     47 ****        -2.5528   0.6827   1.9984 LP             1 S1                 0.0000
     48 ****         1.4338  -1.5001   0.7085 LP             1 S1                 0.0000
     49 ****         2.9295  -1.1653   0.1453 LP             1 S1                 0.0000
@<TRIPOS>BOND
    1    1    2 1     
    2    1   22 1     
    3    1   23 1     
    4    1   24 1     
    5    2    3 1     
    6    2    4 1     
    7    2   25 1     
    8    3   26 1     
    9    4    5 1     
   10    4   27 1     
   11    4   28 1     
   12    5    6 1     
   13    5   29 1     
   14    6   14 1     
   15    6    7 2     
   16    7    8 1     
   17    8   13 ar    
   18    8    9 ar    
   19    9   10 ar    
   20    9   30 1     
   21   10   11 ar    
   22   10   31 1     
   23   11   12 ar    
   24   11   32 1     
   25   12   13 ar    
   26   12   33 1     
   27   13   14 1     
   28   14   15 1     
   29   15   16 1     
   30   15   34 1     
   31   15   35 1     
   32   16   21 1     
   33   16   17 1     
   34   16   36 1     
   35   17   18 1     
   36   17   37 1     
   37   17   38 1     
   38   18   19 1     
   39   18   39 1     
   40   18   40 1     
   41   19   20 1     
   42   19   41 1     
   43   19   42 1     
   44   20   21 1     
   45   20   43 1     
   46   20   44 1     
   47    3   45 1     
   48    3   46 1     
   49    7   47 1     
   50   21   48 1     
   51   21   49 1     
@<TRIPOS>SUBSTRUCTURE
      1 S1             1
@<TRIPOS>SET
LONE_PAIRS      STATIC     ATOMS    <user>   **** ""
5 45 46 47 48 49
DONOR_HYDROGENS      STATIC     ATOMS    <user>   **** ""
2 26 29
ATOM$BLUE        STATIC     ATOMS    COLORGROUP SYSTEM
5 45 46 47 48 49
ATOM$RED        STATIC     ATOMS    COLORGROUP SYSTEM
2 26 29
