AV-unprocessed.smi:2531|AV-procd|sdf|9967|dock5
  -GOLD-   2272014 13D 1   1.00000     0.00000
 Structure written by MMmdl.
 46 48  0  0  0  0  0  0  0  0  3 V2000
  150.1652  142.9457  157.8550 O   0  0  0  0  0  0  0  0  0  0  0  0
  151.1234  142.3426  158.3404 C   0  0  0  0  0  0  0  0  0  0  0  0
  152.3391  143.1143  158.8938 C   0  0  0  0  0  0  0  0  0  0  0  0
  152.5771  142.8483  160.3986 C   0  0  0  0  0  0  0  0  0  0  0  0
  152.3116  144.1681  161.1386 C   0  0  0  0  0  0  0  0  0  0  0  0
  151.5840  145.0668  160.1402 C   0  0  0  0  0  0  0  0  0  0  0  0
  152.1355  144.6356  158.7825 C   0  0  0  0  0  0  0  0  0  0  0  0
  151.1895  140.9461  158.3251 N   0  0  0  0  0  0  0  0  0  0  0  0
  150.4333  140.1723  157.3509 C   0  0  0  0  0  0  0  0  0  0  0  0
  151.5538  139.1328  157.4683 C   0  0  0  0  0  0  0  0  0  0  0  0
  152.1189  138.4941  155.8280 S   0  0  0  0  0  0  0  0  0  0  0  0
  151.1771  139.0445  154.8396 O   0  0  0  0  0  0  0  0  0  0  0  0
  153.5322  138.8796  155.6819 O   0  0  0  0  0  0  0  0  0  0  0  0
  151.9273  136.8980  156.0503 N   0  5  0  0  0  0  0  0  0  0  0  0
  150.5980  136.3099  156.0169 C   0  0  0  0  0  0  0  0  0  0  0  0
  150.4473  135.3433  154.8203 C   0  0  0  0  0  0  0  0  0  0  0  0
  149.2388  134.4223  154.9207 C   0  0  0  0  0  0  0  0  0  0  0  0
  149.0741  133.5139  155.9911 C   0  0  0  0  0  0  0  0  0  0  0  0
  147.9368  132.6801  156.0220 C   0  0  0  0  0  0  0  0  0  0  0  0
  146.9887  132.7662  154.9816 C   0  0  0  0  0  0  0  0  0  0  0  0
  147.2022  133.6849  153.9341 C   0  0  0  0  0  0  0  0  0  0  0  0
  148.3039  134.4668  153.9399 N   0  3  0  0  0  0  0  0  0  0  0  0
  152.4354  140.2391  158.0636 C   0  0  0  0  0  0  0  0  0  0  0  0
  153.2304  142.8210  158.3382 H   0  0  0  0  0  0  0  0  0  0  0  0
  151.9289  142.0612  160.7870 H   0  0  0  0  0  0  0  0  0  0  0  0
  153.6006  142.5160  160.5755 H   0  0  0  0  0  0  0  0  0  0  0  0
  151.7399  144.0237  162.0560 H   0  0  0  0  0  0  0  0  0  0  0  0
  153.2620  144.6273  161.4141 H   0  0  0  0  0  0  0  0  0  0  0  0
  150.5111  144.8745  160.1819 H   0  0  0  0  0  0  0  0  0  0  0  0
  151.7401  146.1274  160.3391 H   0  0  0  0  0  0  0  0  0  0  0  0
  153.0967  145.1192  158.6044 H   0  0  0  0  0  0  0  0  0  0  0  0
  151.4731  144.9283  157.9660 H   0  0  0  0  0  0  0  0  0  0  0  0
  149.4614  139.8337  157.7105 H   0  0  0  0  0  0  0  0  0  0  0  0
  150.3766  140.6451  156.3681 H   0  0  0  0  0  0  0  0  0  0  0  0
  151.3179  138.3230  158.1605 H   0  0  0  0  0  0  0  0  0  0  0  0
  150.4019  135.7529  156.9336 H   0  0  0  0  0  0  0  0  0  0  0  0
  149.8178  137.0702  155.9667 H   0  0  0  0  0  0  0  0  0  0  0  0
  150.3597  135.9023  153.8889 H   0  0  0  0  0  0  0  0  0  0  0  0
  151.3450  134.7312  154.7227 H   0  0  0  0  0  0  0  0  0  0  0  0
  149.8096  133.4592  156.7807 H   0  0  0  0  0  0  0  0  0  0  0  0
  147.7945  131.9822  156.8340 H   0  0  0  0  0  0  0  0  0  0  0  0
  146.1111  132.1362  154.9871 H   0  0  0  0  0  0  0  0  0  0  0  0
  146.5314  133.8176  153.0980 H   0  0  0  0  0  0  0  0  0  0  0  0
  153.0787  140.7435  157.3416 H   0  0  0  0  0  0  0  0  0  0  0  0
  152.9740  139.9444  158.9646 H   0  0  0  0  0  0  0  0  0  0  0  0
  148.4389  135.1254  153.1720 H   0  0  0  0  0  0  0  0  0  0  0  0
  1  2  2  0  0  0  0
  2  3  1  0  0  0  0
  2  8  1  0  0  0  0
  3  7  1  0  0  0  0
  3  4  1  0  0  0  0
  3 24  1  0  0  0  0
  4  5  1  0  0  0  0
  4 25  1  0  0  0  0
  4 26  1  0  0  0  0
  5  6  1  0  0  0  0
  5 27  1  0  0  0  0
  5 28  1  0  0  0  0
  6  7  1  0  0  0  0
  6 29  1  0  0  0  0
  6 30  1  0  0  0  0
  7 31  1  0  0  0  0
  7 32  1  0  0  0  0
  8 23  1  0  0  0  0
  8  9  1  0  0  0  0
  9 10  1  0  0  0  0
  9 33  1  0  0  0  0
  9 34  1  0  0  0  0
 10 11  1  0  0  0  0
 10 23  1  0  0  0  0
 10 35  1  0  0  0  0
 11 12  2  0  0  0  0
 11 13  2  0  0  0  0
 11 14  1  0  0  0  0
 14 15  1  0  0  0  0
 15 16  1  0  0  0  0
 15 36  1  0  0  0  0
 15 37  1  0  0  0  0
 16 17  1  0  0  0  0
 16 38  1  0  0  0  0
 16 39  1  0  0  0  0
 17 22  1  0  0  0  0
 17 18  2  0  0  0  0
 18 19  1  0  0  0  0
 18 40  1  0  0  0  0
 19 20  2  0  0  0  0
 19 41  1  0  0  0  0
 20 21  1  0  0  0  0
 20 42  1  0  0  0  0
 21 22  2  0  0  0  0
 21 43  1  0  0  0  0
 22 46  1  0  0  0  0
 23 44  1  0  0  0  0
 23 45  1  0  0  0  0
M  CHG  1  14  -1
M  CHG  1  22   1
M  END
> <s_m_source_file>
AV-unprocessed.smi

> <i_m_source_file_index>
2531

> <i_lp_mmshare_version>
43012

> <i_f3d_flags>
0

> <s_epik_input>
W0NIMl0xW0NIMl1bQ0gyXVtDSDJdW0NIXTFDKD1PKU4yW0NIMl1bQ0hdKFtDSDJdMilTKD1PKSg9TylbTkhdW0NIMl1bQ0gyXWMzW2NIXVtjSF1bY0hdW2NIXW4z

> <s_epik_cmdline>
J2VwaWtfcHl0aG9uJywgJy1waCcsICc3LjAnLCAnLXRuJywgJzgnLCAnLW1hJywgJzIwMCcsICctbWV0YWxfYmluZGluZycsICctaW1hZScsICc8aW5maWxlLm1hZT4nLCAnLW9tYWUnLCAnPG91dGZpbGUubWFlPic=

> <r_epik_Ionization_Penalty>
6.66855

> <r_epik_Ionization_Penalty_Charging>
6.66855

> <r_epik_Ionization_Penalty_Neutral>
2.37876e-07

> <r_epik_State_Penalty>
7.51815

> <r_epik_Charging_Adjusted_Penalty>
14.1867

> <i_epik_Tot_Q>
0

> <i_epik_Tot_abs_Q>
2

> <r_epik_Metal_State_Penalty>
3.5378

> <b_epik_Metal_Only>
1

> <s_lp_Force_Field>
OPLS_2005

> <r_lp_Energy>
33.2094

> <b_lp_Chiralities_Consistent>
1

> <s_lp_Variant>
AV-unprocessed.smi:2531-4

> <Gold.Version>
5.8.1

> <Gold.Id.Protein>
6NUR|6NUR_protein|mol2

> <Gold.PLP.Fitness>
57.7927

> <Gold.PLP.PLP>
-41.8442

> <Gold.PLP.part.hbond>
-2.9845

> <Gold.PLP.part.metal>
0.0000

> <Gold.PLP.part.buried>
-5.4242

> <Gold.PLP.part.nonpolar>
-33.9145

> <Gold.PLP.part.repulsive>
0.6679

> <Gold.PLP.ligand.clash>
0.0000

> <Gold.PLP.ligand.torsion>
1.3582

> <Gold.PLP.Chemscore.Hbond>
5.3673

> <Gold.PLP.Chemscore.CHOScore>
0.0000

> <Gold.PLP.Chemscore.Metal>
0.0000

> <Gold.Chemscore.Hbonds>
donor molecule, donor type, donor heavy atom, donor atom, acceptor molecule, acceptor atom, score
      L1  H    22    46       P1  7948  2.00
      P1  H  7989  7998       L1    12  0.31
      P1  H  7997  8008       L1    13  0.86
      P1  H 10752 10765       L1    14  1.62

> <Gold.PLP.Chemscore.Internal.Correction>
2.5629

> <Gold.Rescore>
     Score         DG    S(hbond)    S(metal)    S(lipo)     H(rot)  DE(clash)    DE(int)     intcor
     21.96     -23.60       3.14        0.00     102.74       1.72       0.24       1.40       ----

> <Gold.Chemscore.Fitness>
21.9565

> <Gold.Chemscore.DG>
-23.6010

> <Gold.Chemscore.ZeroCoef>
-5.4800

> <Gold.Chemscore.Hbond>
3.1416

> <Gold.Chemscore.Metal>
0.0000

> <Gold.Chemscore.Lipo>
102.7396

> <Gold.Chemscore.Internal_Hbond>
0.0000

> <Gold.Chemscore.DEClash>
0.2400

> <Gold.Chemscore.DEInternal>
1.4044

> <Gold.Chemscore.Rot>
1.7158

> <Gold.Chemscore.Internal.Correction>
   9.000000E+99

> <Gold.Chemscore.Hbonds>
donor molecule, donor type, donor heavy atom, donor atom, acceptor molecule, acceptor atom, score
      L1  H    22    46       P1  7948  0.88
      P1  H  7989  7998       L1    12  0.31
      P1  H  7997  8008       L1    13  0.83
      P1  H 10752 10765       L1    14  0.34

> <Gold.Chemscore.Hbond.Weighted>
-10.4928

> <Gold.Chemscore.Metal.Weighted>
-0.0000

> <Gold.Chemscore.Lipo.Weighted>
-12.0205

> <Gold.Chemscore.Internal_Hbond.Weighted>
0.0000

> <Gold.Chemscore.DEClash.Weighted>
0.2400

> <Gold.Chemscore.DEInternal.Weighted>
1.4044

> <Gold.Chemscore.Rot.Weighted>
4.3924

> <Gold.Chemscore.Internal.Correction.Weighted>
   9.000000E+99

> <Gold.Protein.RotatedTorsions>
[ 6907 6896 6895 6894 ] final  -50.46 input  -60.11 | X-H torsion
[ 7974 7965 7964 7962 ] final    9.79 input  175.53 | X-H torsion
[ 8008 7997 7996 7995 ] final  -41.59 input   59.86 | X-H torsion
[ 10167 10162 10161 10158 ] final   85.99 input  -65.29 | X-H torsion
[ 10718 10713 10712 10709 ] final -168.56 input   66.30 | X-H torsion
[ 10763 10752 10751 10750 ] final -152.31 input  -60.55 | X-H torsion
[ 11005 11000 10999 10996 ] final -123.19 input  -57.11 | X-H torsion

> <Gold.Protein.ActiveResidues>
 VAL166  LYS551  ARG553  GLY616  TRP617  ASP618  TYR619  PRO620  LYS621  CYS622 
 ASP623  PHE694  ASN695  SER759  ASP760  ASP761  ALA762  ILE779  LEU786  VAL792 
 PHE793  MET794  SER795  GLU796  ALA797  LYS798  CYS799  TRP800  GLU811  SER814 

> <Gold.Protein.RotatedAtoms>
  150.8705  134.8077  159.7150 H   0  0  0  0  0  0  0  0  0  0  0  0  # atno 6907 bound_to 6896
  152.4711  134.4955  159.9718 H   0  0  0  0  0  0  0  0  0  0  0  0  # atno 6908 bound_to 6896
  151.5044  133.3459  159.2910 H   0  0  0  0  0  0  0  0  0  0  0  0  # atno 6909 bound_to 6896
  146.2398  139.9730  142.8445 H   0  0  0  0  0  0  0  0  0  0  0  0  # atno 7974 bound_to 7965
  154.4003  140.1495  156.3215 H   0  0  0  0  0  0  0  0  0  0  0  0  # atno 8008 bound_to 7997
  155.8525  140.3457  155.5681 H   0  0  0  0  0  0  0  0  0  0  0  0  # atno 8009 bound_to 7997
  155.7968  140.0864  157.1969 H   0  0  0  0  0  0  0  0  0  0  0  0  # atno 8010 bound_to 7997
  139.8921  144.6379  150.8728 H   0  0  0  0  0  0  0  0  0  0  0  0  # atno 10167 bound_to 10162
  156.6988  130.9188  151.3077 H   0  0  0  0  0  0  0  0  0  0  0  0  # atno 10718 bound_to 10713
  154.8002  135.3239  154.7569 H   0  0  0  0  0  0  0  0  0  0  0  0  # atno 10763 bound_to 10752
  153.8238  135.6885  153.4828 H   0  0  0  0  0  0  0  0  0  0  0  0  # atno 10764 bound_to 10752
  153.1714  135.4621  154.9851 H   0  0  0  0  0  0  0  0  0  0  0  0  # atno 10765 bound_to 10752
  140.9938  134.0501  157.3622 H   0  0  0  0  0  0  0  0  0  0  0  0  # atno 11005 bound_to 11000
  145.1663  140.9698  143.4348 LP  0  0  0  0  0  0  0  0  0  0  0  0  # atno 17320 bound_to 7965
  145.0070  139.3545  143.6139 LP  0  0  0  0  0  0  0  0  0  0  0  0  # atno 17321 bound_to 7965
  140.7724  143.3502  151.2030 LP  0  0  0  0  0  0  0  0  0  0  0  0  # atno 17342 bound_to 10162
  139.7100  143.9392  152.2943 LP  0  0  0  0  0  0  0  0  0  0  0  0  # atno 17343 bound_to 10162
  157.6981  130.9303  150.0703 LP  0  0  0  0  0  0  0  0  0  0  0  0  # atno 17370 bound_to 10713
  156.1744  130.3647  149.9121 LP  0  0  0  0  0  0  0  0  0  0  0  0  # atno 17371 bound_to 10713
  139.9005  135.0162  156.7244 LP  0  0  0  0  0  0  0  0  0  0  0  0  # atno 17394 bound_to 11000
  140.6998  133.9316  155.8017 LP  0  0  0  0  0  0  0  0  0  0  0  0  # atno 17395 bound_to 11000

$$$$
