AV-unprocessed.smi:2393|AV-procd|sdf|9488|dock3
  -GOLD-   2272013113D 1   1.00000     0.00000
 Structure written by MMmdl.
 43 44  0  0  0  0  0  0  0  0  1 V2000
  152.5853  140.4237  157.6881 C   0  0  0  0  0  0  0  0  0  0  0  0
  152.6166  141.5100  158.7427 C   0  0  0  0  0  0  0  0  0  0  0  0
  151.9799  142.7472  158.5259 C   0  0  0  0  0  0  0  0  0  0  0  0
  152.0429  143.7150  159.5476 C   0  0  0  0  0  0  0  0  0  0  0  0
  151.3817  145.0675  159.3818 C   0  0  0  0  0  0  0  0  0  0  0  0
  152.6801  143.5081  160.7198 N   0  0  0  0  0  0  0  0  0  0  0  0
  153.2962  142.3202  160.9398 C   0  0  0  0  0  0  0  0  0  0  0  0
  154.0003  142.0076  162.1329 N   0  0  0  0  0  0  0  0  0  0  0  0
  153.7743  142.4710  163.3749 C   0  0  0  0  0  0  0  0  0  0  0  0
  152.8504  143.2179  163.6990 O   0  0  0  0  0  0  0  0  0  0  0  0
  154.6866  142.0054  164.2410 N   0  0  0  0  0  0  0  0  0  0  0  0
  154.7218  142.3140  165.6679 C   0  0  2  0  0  0  0  0  0  0  0  0
  154.8126  143.8302  165.8746 C   0  0  0  0  0  0  0  0  0  0  0  0
  154.9588  144.1600  167.3667 C   0  0  0  0  0  0  0  0  0  0  0  0
  156.0934  143.4926  167.9161 O   0  0  0  0  0  0  0  0  0  0  0  0
  156.0968  142.0639  167.8216 C   0  0  0  0  0  0  0  0  0  0  0  0
  157.4808  141.6325  168.3339 C   0  0  0  0  0  0  0  0  0  0  0  0
  155.0115  141.4503  168.7329 C   0  0  0  0  0  0  0  0  0  0  0  0
  155.9305  141.6404  166.3419 C   0  0  0  0  0  0  0  0  0  0  0  0
  153.2849  141.2973  159.9651 C   0  0  0  0  0  0  0  0  0  0  0  0
  152.1259  140.7797  156.7653 H   0  0  0  0  0  0  0  0  0  0  0  0
  152.0132  139.5678  158.0471 H   0  0  0  0  0  0  0  0  0  0  0  0
  153.5969  140.0891  157.4576 H   0  0  0  0  0  0  0  0  0  0  0  0
  151.4576  142.9492  157.6020 H   0  0  0  0  0  0  0  0  0  0  0  0
  151.0244  145.2101  158.3615 H   0  0  0  0  0  0  0  0  0  0  0  0
  152.0864  145.8680  159.6088 H   0  0  0  0  0  0  0  0  0  0  0  0
  150.5308  145.1566  160.0575 H   0  0  0  0  0  0  0  0  0  0  0  0
  154.7734  141.3680  162.0255 H   0  0  0  0  0  0  0  0  0  0  0  0
  155.4104  141.3958  163.8896 H   0  0  0  0  0  0  0  0  0  0  0  0
  153.7993  141.9601  166.1306 H   0  0  0  0  0  0  0  0  0  0  0  0
  155.6705  144.2307  165.3323 H   0  0  0  0  0  0  0  0  0  0  0  0
  153.9279  144.3225  165.4694 H   0  0  0  0  0  0  0  0  0  0  0  0
  155.0969  145.2334  167.4952 H   0  0  0  0  0  0  0  0  0  0  0  0
  154.0529  143.9006  167.9144 H   0  0  0  0  0  0  0  0  0  0  0  0
  157.6009  140.5496  168.2893 H   0  0  0  0  0  0  0  0  0  0  0  0
  157.6323  141.9404  169.3691 H   0  0  0  0  0  0  0  0  0  0  0  0
  158.2801  142.0786  167.7412 H   0  0  0  0  0  0  0  0  0  0  0  0
  155.0774  140.3618  168.7379 H   0  0  0  0  0  0  0  0  0  0  0  0
  154.0007  141.7045  168.4173 H   0  0  0  0  0  0  0  0  0  0  0  0
  155.1266  141.7907  169.7625 H   0  0  0  0  0  0  0  0  0  0  0  0
  155.8488  140.5549  166.2698 H   0  0  0  0  0  0  0  0  0  0  0  0
  156.8318  141.9124  165.7900 H   0  0  0  0  0  0  0  0  0  0  0  0
  153.7809  140.3556  160.1522 H   0  0  0  0  0  0  0  0  0  0  0  0
  1  2  1  0  0  0  0
  1 21  1  0  0  0  0
  1 22  1  0  0  0  0
  1 23  1  0  0  0  0
  2 20  1  0  0  0  0
  2  3  2  0  0  0  0
  3  4  1  0  0  0  0
  3 24  1  0  0  0  0
  4  5  1  0  0  0  0
  4  6  2  0  0  0  0
  5 25  1  0  0  0  0
  5 26  1  0  0  0  0
  5 27  1  0  0  0  0
  6  7  1  0  0  0  0
  7  8  1  0  0  0  0
  7 20  2  0  0  0  0
  8  9  1  0  0  0  0
  8 28  1  0  0  0  0
  9 10  2  0  0  0  0
  9 11  1  0  0  0  0
 11 12  1  0  0  0  0
 11 29  1  0  0  0  0
 12 19  1  0  0  0  0
 12 13  1  0  0  0  0
 12 30  1  0  0  0  0
 13 14  1  0  0  0  0
 13 31  1  0  0  0  0
 13 32  1  0  0  0  0
 14 15  1  0  0  0  0
 14 33  1  0  0  0  0
 14 34  1  0  0  0  0
 15 16  1  0  0  0  0
 16 17  1  0  0  0  0
 16 18  1  0  0  0  0
 16 19  1  0  0  0  0
 17 35  1  0  0  0  0
 17 36  1  0  0  0  0
 17 37  1  0  0  0  0
 18 38  1  0  0  0  0
 18 39  1  0  0  0  0
 18 40  1  0  0  0  0
 19 41  1  0  0  0  0
 19 42  1  0  0  0  0
 20 43  1  0  0  0  0
M  END
> <s_m_source_file>
AV-unprocessed.smi

> <i_m_source_file_index>
2393

> <i_lp_mmshare_version>
43012

> <i_f3d_flags>
0

> <s_epik_input>
W0NIM11jMVtjSF1jKFtDSDNdKW5jKFtjSF0xKVtOSF1DKD1PKVtOSF1bQ0BASF0oW0NIMl0yKVtDSDJdW0NIMl1PQzIoW0NIM10pW0NIM10=

> <s_epik_cmdline>
J2VwaWtfcHl0aG9uJywgJy1waCcsICc3LjAnLCAnLXRuJywgJzgnLCAnLW1hJywgJzIwMCcsICctbWV0YWxfYmluZGluZycsICctaW1hZScsICc8aW5maWxlLm1hZT4nLCAnLW9tYWUnLCAnPG91dGZpbGUubWFlPic=

> <r_lp_tautomer_probability>
1

> <r_epik_Ionization_Penalty>
0.000261351

> <r_epik_Ionization_Penalty_Charging>
0

> <r_epik_Ionization_Penalty_Neutral>
0.000261351

> <r_epik_State_Penalty>
-0

> <r_epik_Charging_Adjusted_Penalty>
0

> <i_epik_Tot_Q>
0

> <i_epik_Tot_abs_Q>
0

> <r_epik_Metal_State_Penalty>
-0

> <b_epik_Metal_Only>
0

> <s_lp_Force_Field>
OPLS_2005

> <r_lp_Energy>
12.7135

> <b_lp_Chiralities_Consistent>
1

> <s_lp_Variant>
AV-unprocessed.smi:2393-1

> <Gold.Version>
5.8.1

> <Gold.Id.Protein>
6NUR|6NUR_protein|mol2

> <Gold.PLP.Fitness>
41.9667

> <Gold.PLP.PLP>
-42.3332

> <Gold.PLP.part.hbond>
-1.9407

> <Gold.PLP.part.metal>
0.0000

> <Gold.PLP.part.buried>
-4.7362

> <Gold.PLP.part.nonpolar>
-35.5672

> <Gold.PLP.part.repulsive>
0.4966

> <Gold.PLP.ligand.clash>
0.0000

> <Gold.PLP.ligand.torsion>
0.1835

> <Gold.PLP.Chemscore.Hbond>
0.0000

> <Gold.PLP.Chemscore.CHOScore>
0.0000

> <Gold.PLP.Chemscore.Metal>
0.0000

> <Gold.PLP.Chemscore.Internal.Correction>
0.0004

> <Gold.Rescore>
     Score         DG    S(hbond)    S(metal)    S(lipo)     H(rot)  DE(clash)    DE(int)     intcor
     13.41     -14.93       0.00        0.00     102.67       1.00       0.18       1.35       ----

> <Gold.Chemscore.Fitness>
13.4062

> <Gold.Chemscore.DG>
-14.9323

> <Gold.Chemscore.ZeroCoef>
-5.4800

> <Gold.Chemscore.Hbond>
0.0000

> <Gold.Chemscore.Metal>
0.0000

> <Gold.Chemscore.Lipo>
102.6689

> <Gold.Chemscore.Internal_Hbond>
0.0000

> <Gold.Chemscore.DEClash>
0.1752

> <Gold.Chemscore.DEInternal>
1.3508

> <Gold.Chemscore.Rot>
1.0000

> <Gold.Chemscore.Internal.Correction>
   9.000000E+99

> <Gold.Chemscore.Hbond.Weighted>
-0.0000

> <Gold.Chemscore.Metal.Weighted>
-0.0000

> <Gold.Chemscore.Lipo.Weighted>
-12.0123

> <Gold.Chemscore.Internal_Hbond.Weighted>
0.0000

> <Gold.Chemscore.DEClash.Weighted>
0.1752

> <Gold.Chemscore.DEInternal.Weighted>
1.3508

> <Gold.Chemscore.Rot.Weighted>
2.5600

> <Gold.Chemscore.Internal.Correction.Weighted>
   9.000000E+99

> <Gold.Protein.RotatedTorsions>
[ 6907 6896 6895 6894 ] final   79.22 input  -60.11 | X-H torsion
[ 7974 7965 7964 7962 ] final   33.67 input  175.53 | X-H torsion
[ 8008 7997 7996 7995 ] final   23.39 input   59.86 | X-H torsion
[ 10167 10162 10161 10158 ] final  150.14 input  -65.29 | X-H torsion
[ 10718 10713 10712 10709 ] final  -35.23 input   66.30 | X-H torsion
[ 10763 10752 10751 10750 ] final   80.20 input  -60.55 | X-H torsion
[ 11005 11000 10999 10996 ] final -156.70 input  -57.11 | X-H torsion

> <Gold.Protein.ActiveResidues>
 VAL166  LYS551  ARG553  GLY616  TRP617  ASP618  TYR619  PRO620  LYS621  CYS622 
 ASP623  PHE694  ASN695  SER759  ASP760  ASP761  ALA762  ILE779  LEU786  VAL792 
 PHE793  MET794  SER795  GLU796  ALA797  LYS798  CYS799  TRP800  GLU811  SER814 

> <Gold.Protein.RotatedAtoms>
  152.5190  134.3544  159.9262 H   0  0  0  0  0  0  0  0  0  0  0  0  # atno 6907 bound_to 6896
  151.3495  133.3924  159.2686 H   0  0  0  0  0  0  0  0  0  0  0  0  # atno 6908 bound_to 6896
  150.9738  134.9125  159.7862 H   0  0  0  0  0  0  0  0  0  0  0  0  # atno 6909 bound_to 6896
  146.1405  139.6367  142.9166 H   0  0  0  0  0  0  0  0  0  0  0  0  # atno 7974 bound_to 7965
  154.9802  140.3101  155.4950 H   0  0  0  0  0  0  0  0  0  0  0  0  # atno 8008 bound_to 7997
  156.2954  140.2268  156.4840 H   0  0  0  0  0  0  0  0  0  0  0  0  # atno 8009 bound_to 7997
  154.7796  140.0447  157.1105 H   0  0  0  0  0  0  0  0  0  0  0  0  # atno 8010 bound_to 7997
  139.4853  144.5546  151.7341 H   0  0  0  0  0  0  0  0  0  0  0  0  # atno 10167 bound_to 10162
  156.3411  130.4294  149.7786 H   0  0  0  0  0  0  0  0  0  0  0  0  # atno 10718 bound_to 10713
  153.1014  135.4811  154.8874 H   0  0  0  0  0  0  0  0  0  0  0  0  # atno 10763 bound_to 10752
  154.7383  135.3076  154.8775 H   0  0  0  0  0  0  0  0  0  0  0  0  # atno 10764 bound_to 10752
  153.9391  135.6836  153.4798 H   0  0  0  0  0  0  0  0  0  0  0  0  # atno 10765 bound_to 10752
  140.6727  134.4230  157.5231 H   0  0  0  0  0  0  0  0  0  0  0  0  # atno 11005 bound_to 11000
  145.5057  141.0436  143.2515 LP  0  0  0  0  0  0  0  0  0  0  0  0  # atno 17320 bound_to 7965
  144.7787  139.6573  143.7163 LP  0  0  0  0  0  0  0  0  0  0  0  0  # atno 17321 bound_to 7965
  140.5105  144.1032  150.5994 LP  0  0  0  0  0  0  0  0  0  0  0  0  # atno 17342 bound_to 10162
  140.3956  143.2730  152.0008 LP  0  0  0  0  0  0  0  0  0  0  0  0  # atno 17343 bound_to 10162
  156.5022  130.8134  151.3137 LP  0  0  0  0  0  0  0  0  0  0  0  0  # atno 17370 bound_to 10713
  157.7447  130.9941  150.2695 LP  0  0  0  0  0  0  0  0  0  0  0  0  # atno 17371 bound_to 10713
  139.8976  134.8632  156.2035 LP  0  0  0  0  0  0  0  0  0  0  0  0  # atno 17394 bound_to 11000
  141.0379  133.6953  156.1546 LP  0  0  0  0  0  0  0  0  0  0  0  0  # atno 17395 bound_to 11000

$$$$
