AV-unprocessed.smi:1705|AV-procd|sdf|6882|dock10
  -GOLD-   22720 8 93D 1   1.00000     0.00000
 Structure written by MMmdl.
 38 39  0  0  0  0  0  0  0  0  1 V2000
  149.4020  141.4835  157.4191 C   0  0  0  0  0  0  0  0  0  0  0  0
  150.6378  140.6320  157.7488 C   0  0  2  0  0  0  0  0  0  0  0  0
  150.2206  139.3088  158.1882 N   0  0  0  0  0  0  0  0  0  0  0  0
  150.2525  138.1371  157.4386 C   0  0  0  0  0  0  0  0  0  0  0  0
  150.7002  138.1181  156.1514 C   0  0  0  0  0  0  0  0  0  0  0  0
  151.1297  139.2838  155.4451 C   0  0  0  0  0  0  0  0  0  0  0  0
  151.4577  140.2209  154.8488 N   0  0  0  0  0  0  0  0  0  0  0  0
  150.7455  136.8871  155.3652 C   0  0  0  0  0  0  0  0  0  0  0  0
  151.1493  136.8299  154.2011 O   0  0  0  0  0  0  0  0  0  0  0  0
  150.2922  135.7364  156.0408 N   0  0  0  0  0  0  0  0  0  0  0  0
  150.3378  134.4937  155.2954 C   0  0  0  0  0  0  0  0  0  0  0  0
  149.8276  135.7269  157.3725 C   0  0  0  0  0  0  0  0  0  0  0  0
  149.4615  134.6852  157.9251 O   0  0  0  0  0  0  0  0  0  0  0  0
  149.8024  136.9668  158.0574 N   0  0  0  0  0  0  0  0  0  0  0  0
  149.3228  136.8905  159.4230 C   0  0  0  0  0  0  0  0  0  0  0  0
  151.5189  141.2781  158.8338 C   0  0  2  0  0  0  0  0  0  0  0  0
  151.9663  142.7076  158.5324 C   0  0  0  0  0  0  0  0  0  0  0  0
  153.2195  142.8647  159.3766 C   0  0  0  0  0  0  0  0  0  0  0  0
  153.6652  141.4249  159.6486 C   0  0  0  0  0  0  0  0  0  0  0  0
  152.7657  140.6036  158.9160 O   0  0  0  0  0  0  0  0  0  0  0  0
  149.6848  142.4520  157.0069 H   0  0  0  0  0  0  0  0  0  0  0  0
  148.7972  141.6629  158.3086 H   0  0  0  0  0  0  0  0  0  0  0  0
  148.7660  140.9919  156.6831 H   0  0  0  0  0  0  0  0  0  0  0  0
  151.2424  140.5347  156.8475 H   0  0  0  0  0  0  0  0  0  0  0  0
  150.4010  139.1681  159.1719 H   0  0  0  0  0  0  0  0  0  0  0  0
  149.8797  133.6761  155.8504 H   0  0  0  0  0  0  0  0  0  0  0  0
  151.3894  134.2753  155.1020 H   0  0  0  0  0  0  0  0  0  0  0  0
  149.7856  134.6471  154.3663 H   0  0  0  0  0  0  0  0  0  0  0  0
  150.0509  136.3063  159.9884 H   0  0  0  0  0  0  0  0  0  0  0  0
  148.3409  136.4134  159.4079 H   0  0  0  0  0  0  0  0  0  0  0  0
  149.2256  137.8844  159.8538 H   0  0  0  0  0  0  0  0  0  0  0  0
  151.0261  141.2384  159.8075 H   0  0  0  0  0  0  0  0  0  0  0  0
  152.2213  142.8062  157.4763 H   0  0  0  0  0  0  0  0  0  0  0  0
  151.2034  143.4502  158.7673 H   0  0  0  0  0  0  0  0  0  0  0  0
  153.9832  143.4412  158.8537 H   0  0  0  0  0  0  0  0  0  0  0  0
  152.9962  143.3747  160.3144 H   0  0  0  0  0  0  0  0  0  0  0  0
  154.6933  141.2412  159.3359 H   0  0  0  0  0  0  0  0  0  0  0  0
  153.5855  141.1916  160.7112 H   0  0  0  0  0  0  0  0  0  0  0  0
  1  2  1  0  0  0  0
  1 21  1  0  0  0  0
  1 22  1  0  0  0  0
  1 23  1  0  0  0  0
  2  3  1  0  0  0  0
  2 16  1  0  0  0  0
  2 24  1  0  0  0  0
  3  4  1  0  0  0  0
  3 25  1  0  0  0  0
  4 14  1  0  0  0  0
  4  5  2  0  0  0  0
  5  6  1  0  0  0  0
  5  8  1  0  0  0  0
  6  7  3  0  0  0  0
  8  9  2  0  0  0  0
  8 10  1  0  0  0  0
 10 11  1  0  0  0  0
 10 12  1  0  0  0  0
 11 26  1  0  0  0  0
 11 27  1  0  0  0  0
 11 28  1  0  0  0  0
 12 13  2  0  0  0  0
 12 14  1  0  0  0  0
 14 15  1  0  0  0  0
 15 29  1  0  0  0  0
 15 30  1  0  0  0  0
 15 31  1  0  0  0  0
 16 20  1  0  0  0  0
 16 17  1  0  0  0  0
 16 32  1  0  0  0  0
 17 18  1  0  0  0  0
 17 33  1  0  0  0  0
 17 34  1  0  0  0  0
 18 19  1  0  0  0  0
 18 35  1  0  0  0  0
 18 36  1  0  0  0  0
 19 20  1  0  0  0  0
 19 37  1  0  0  0  0
 19 38  1  0  0  0  0
M  END
> <s_m_source_file>
AV-unprocessed.smi

> <i_m_source_file_index>
1705

> <i_lp_mmshare_version>
43012

> <i_f3d_flags>
0

> <s_epik_input>
TzFbQ0gyXVtDSDJdW0NIMl1bQ0BIXTFbQ0BIXShbQ0gzXSlbTkhdYzJjKEMjTiljKD1PKW4oW0NIM10pYyg9TyluMltDSDNd

> <s_epik_cmdline>
J2VwaWtfcHl0aG9uJywgJy1waCcsICc3LjAnLCAnLXRuJywgJzgnLCAnLW1hJywgJzIwMCcsICctbWV0YWxfYmluZGluZycsICctaW1hZScsICc8aW5maWxlLm1hZT4nLCAnLW9tYWUnLCAnPG91dGZpbGUubWFlPic=

> <r_epik_Ionization_Penalty>
0.000446268

> <r_epik_Ionization_Penalty_Charging>
9.41922e-10

> <r_epik_Ionization_Penalty_Neutral>
0.000446267

> <r_epik_State_Penalty>
0.000275531

> <r_epik_Charging_Adjusted_Penalty>
0.000275532

> <i_epik_Tot_Q>
0

> <i_epik_Tot_abs_Q>
0

> <r_epik_Metal_State_Penalty>
-0

> <b_epik_Metal_Only>
0

> <s_lp_Force_Field>
OPLS_2005

> <r_lp_Energy>
37.8394

> <b_lp_Chiralities_Consistent>
1

> <s_lp_Variant>
AV-unprocessed.smi:1705-1

> <Gold.Version>
5.8.1

> <Gold.Id.Protein>
6NUR|6NUR_protein|mol2

> <Gold.PLP.Fitness>
38.5781

> <Gold.PLP.PLP>
-30.4239

> <Gold.PLP.part.hbond>
-2.9849

> <Gold.PLP.part.metal>
0.0000

> <Gold.PLP.part.buried>
-5.9533

> <Gold.PLP.part.nonpolar>
-22.5112

> <Gold.PLP.part.repulsive>
0.4980

> <Gold.PLP.ligand.clash>
9.0766

> <Gold.PLP.ligand.torsion>
0.2576

> <Gold.PLP.Chemscore.Hbond>
2.8800

> <Gold.PLP.Chemscore.CHOScore>
0.0000

> <Gold.PLP.Chemscore.Metal>
0.0000

> <Gold.Chemscore.Hbonds>
donor molecule, donor type, donor heavy atom, donor atom, acceptor molecule, acceptor atom, score
      P1  H  6896  6908       L1    13  1.00
      P1  H  7989  7998       L1     7  0.93
      P1  H 10752 10764       L1     9  0.73

> <Gold.PLP.Chemscore.Internal.Correction>
9.1059

> <Gold.Rescore>
     Score         DG    S(hbond)    S(metal)    S(lipo)     H(rot)  DE(clash)    DE(int)     intcor
     16.00     -18.47       2.85        0.00      57.62       1.28       0.01       2.46       ----

> <Gold.Chemscore.Fitness>
15.9999

> <Gold.Chemscore.DG>
-18.4701

> <Gold.Chemscore.ZeroCoef>
-5.4800

> <Gold.Chemscore.Hbond>
2.8505

> <Gold.Chemscore.Metal>
0.0000

> <Gold.Chemscore.Lipo>
57.6165

> <Gold.Chemscore.Internal_Hbond>
0.0000

> <Gold.Chemscore.DEClash>
0.0110

> <Gold.Chemscore.DEInternal>
2.4592

> <Gold.Chemscore.Rot>
1.2780

> <Gold.Chemscore.Internal.Correction>
   9.000000E+99

> <Gold.Chemscore.Hbonds>
donor molecule, donor type, donor heavy atom, donor atom, acceptor molecule, acceptor atom, score
      P1  H  6896  6908       L1    13  0.84
      P1  H  7989  7998       L1     7  0.87
      P1  H 10752 10764       L1     9  0.33

> <Gold.Chemscore.Hbond.Weighted>
-9.5206

> <Gold.Chemscore.Metal.Weighted>
-0.0000

> <Gold.Chemscore.Lipo.Weighted>
-6.7411

> <Gold.Chemscore.Internal_Hbond.Weighted>
0.0000

> <Gold.Chemscore.DEClash.Weighted>
0.0110

> <Gold.Chemscore.DEInternal.Weighted>
2.4592

> <Gold.Chemscore.Rot.Weighted>
3.2717

> <Gold.Chemscore.Internal.Correction.Weighted>
   9.000000E+99

> <Gold.Protein.RotatedTorsions>
[ 6907 6896 6895 6894 ] final  134.52 input  -60.11 | X-H torsion
[ 7974 7965 7964 7962 ] final   46.04 input  175.53 | X-H torsion
[ 8008 7997 7996 7995 ] final -156.34 input   59.86 | X-H torsion
[ 10167 10162 10161 10158 ] final  174.89 input  -65.29 | X-H torsion
[ 10718 10713 10712 10709 ] final   95.27 input   66.30 | X-H torsion
[ 10763 10752 10751 10750 ] final  -74.77 input  -60.55 | X-H torsion
[ 11005 11000 10999 10996 ] final  -12.05 input  -57.11 | X-H torsion

> <Gold.Protein.ActiveResidues>
 VAL166  LYS551  ARG553  GLY616  TRP617  ASP618  TYR619  PRO620  LYS621  CYS622 
 ASP623  PHE694  ASN695  SER759  ASP760  ASP761  ALA762  ILE779  LEU786  VAL792 
 PHE793  MET794  SER795  GLU796  ALA797  LYS798  CYS799  TRP800  GLU811  SER814 

> <Gold.Protein.RotatedAtoms>
  152.3103  133.5746  159.5676 H   0  0  0  0  0  0  0  0  0  0  0  0  # atno 6907 bound_to 6896
  150.7320  134.0161  159.3695 H   0  0  0  0  0  0  0  0  0  0  0  0  # atno 6908 bound_to 6896
  151.8054  135.0697  160.0457 H   0  0  0  0  0  0  0  0  0  0  0  0  # atno 6909 bound_to 6896
  146.0426  139.4899  142.9769 H   0  0  0  0  0  0  0  0  0  0  0  0  # atno 7974 bound_to 7965
  155.7157  140.0784  157.2352 H   0  0  0  0  0  0  0  0  0  0  0  0  # atno 8008 bound_to 7997
  154.4052  140.1622  156.2399 H   0  0  0  0  0  0  0  0  0  0  0  0  # atno 8009 bound_to 7997
  155.9242  140.3395  155.6200 H   0  0  0  0  0  0  0  0  0  0  0  0  # atno 8010 bound_to 7997
  139.5158  144.3094  152.0305 H   0  0  0  0  0  0  0  0  0  0  0  0  # atno 10167 bound_to 10162
  157.6940  131.0540  150.4314 H   0  0  0  0  0  0  0  0  0  0  0  0  # atno 10718 bound_to 10713
  154.4776  135.5853  153.6366 H   0  0  0  0  0  0  0  0  0  0  0  0  # atno 10763 bound_to 10752
  152.9843  135.6082  154.3287 H   0  0  0  0  0  0  0  0  0  0  0  0  # atno 10764 bound_to 10752
  154.3175  135.2844  155.2515 H   0  0  0  0  0  0  0  0  0  0  0  0  # atno 10765 bound_to 10752
  140.7617  133.8510  155.9130 H   0  0  0  0  0  0  0  0  0  0  0  0  # atno 11005 bound_to 11000
  145.6859  141.0178  143.1581 LP  0  0  0  0  0  0  0  0  0  0  0  0  # atno 17320 bound_to 7965
  144.7082  139.8476  143.7423 LP  0  0  0  0  0  0  0  0  0  0  0  0  # atno 17321 bound_to 7965
  140.2539  144.4139  150.6211 LP  0  0  0  0  0  0  0  0  0  0  0  0  # atno 17342 bound_to 10162
  140.6205  143.2176  151.6704 LP  0  0  0  0  0  0  0  0  0  0  0  0  # atno 17343 bound_to 10162
  156.4680  130.4046  149.6535 LP  0  0  0  0  0  0  0  0  0  0  0  0  # atno 17370 bound_to 10713
  156.3626  130.7489  151.2463 LP  0  0  0  0  0  0  0  0  0  0  0  0  # atno 17371 bound_to 10713
  140.9657  134.1597  157.4618 LP  0  0  0  0  0  0  0  0  0  0  0  0  # atno 17394 bound_to 11000
  139.8770  134.9961  156.5776 LP  0  0  0  0  0  0  0  0  0  0  0  0  # atno 17395 bound_to 11000

$$$$
