AV-unprocessed.smi:707|AV-procd|sdf|3456|dock5
  -GOLD-   22720 0443D 1   1.00000     0.00000
 Structure written by MMmdl.
 44 45  0  0  0  0  0  0  0  0  1 V2000
  152.9574  138.8359  154.6491 C   0  0  0  0  0  0  0  0  0  0  0  0
  151.8887  137.8477  154.9878 C   0  0  0  0  0  0  0  0  0  0  0  0
  152.1155  136.6975  155.6336 N   0  0  0  0  0  0  0  0  0  0  0  0
  150.8825  136.0851  155.7443 N   0  0  0  0  0  0  0  0  0  0  0  0
  150.0351  136.9276  155.1544 C   0  0  0  0  0  0  0  0  0  0  0  0
  150.5948  138.0434  154.6626 N   0  0  0  0  0  0  0  0  0  0  0  0
  149.9545  139.1441  153.9675 C   0  0  0  0  0  0  0  0  0  0  0  0
  148.8172  139.7531  154.8044 C   0  0  0  0  0  0  0  0  0  0  0  0
  149.2674  140.1106  156.1442 N   0  0  0  0  0  0  0  0  0  0  0  0
  150.4488  140.6765  156.4347 C   0  0  0  0  0  0  0  0  0  0  0  0
  151.2921  140.9632  155.5852 O   0  0  0  0  0  0  0  0  0  0  0  0
  150.7150  140.9713  157.9083 C   0  0  0  0  0  0  0  0  0  0  0  0
  150.8543  142.3759  158.0668 O   0  0  0  0  0  0  0  0  0  0  0  0
  152.1975  142.8400  158.1551 C   0  0  1  0  0  0  0  0  0  0  0  0
  152.1648  144.3758  158.0635 C   0  0  0  0  0  0  0  0  0  0  0  0
  151.5018  145.0071  159.2994 C   0  0  0  0  0  0  0  0  0  0  0  0
  152.1822  144.5456  160.5982 C   0  0  0  0  0  0  0  0  0  0  0  0
  152.2069  143.0091  160.7096 C   0  0  2  0  0  0  0  0  0  0  0  0
  152.8934  142.5505  162.0040 C   0  0  0  0  0  0  0  0  0  0  0  0
  152.8793  142.3923  159.4670 C   0  0  0  0  0  0  0  0  0  0  0  0
  153.9347  138.4612  154.9547 H   0  0  0  0  0  0  0  0  0  0  0  0
  152.7732  139.7791  155.1634 H   0  0  0  0  0  0  0  0  0  0  0  0
  152.9771  139.0170  153.5744 H   0  0  0  0  0  0  0  0  0  0  0  0
  148.9768  136.7245  155.0775 H   0  0  0  0  0  0  0  0  0  0  0  0
  150.7146  139.8945  153.7465 H   0  0  0  0  0  0  0  0  0  0  0  0
  149.5784  138.7878  153.0081 H   0  0  0  0  0  0  0  0  0  0  0  0
  148.4415  140.6565  154.3227 H   0  0  0  0  0  0  0  0  0  0  0  0
  147.9744  139.0626  154.8675 H   0  0  0  0  0  0  0  0  0  0  0  0
  148.6397  139.9071  156.9086 H   0  0  0  0  0  0  0  0  0  0  0  0
  149.8901  140.5846  158.5063 H   0  0  0  0  0  0  0  0  0  0  0  0
  151.6245  140.4556  158.2197 H   0  0  0  0  0  0  0  0  0  0  0  0
  152.7616  142.4604  157.3015 H   0  0  0  0  0  0  0  0  0  0  0  0
  153.1839  144.7535  157.9709 H   0  0  0  0  0  0  0  0  0  0  0  0
  151.6400  144.6858  157.1594 H   0  0  0  0  0  0  0  0  0  0  0  0
  151.5410  146.0941  159.2262 H   0  0  0  0  0  0  0  0  0  0  0  0
  150.4449  144.7394  159.3259 H   0  0  0  0  0  0  0  0  0  0  0  0
  153.2012  144.9340  160.6314 H   0  0  0  0  0  0  0  0  0  0  0  0
  151.6611  144.9740  161.4551 H   0  0  0  0  0  0  0  0  0  0  0  0
  151.1750  142.6566  160.7453 H   0  0  0  0  0  0  0  0  0  0  0  0
  153.9354  142.8699  162.0354 H   0  0  0  0  0  0  0  0  0  0  0  0
  152.8749  141.4639  162.0933 H   0  0  0  0  0  0  0  0  0  0  0  0
  152.3922  142.9610  162.8811 H   0  0  0  0  0  0  0  0  0  0  0  0
  152.8933  141.3059  159.5461 H   0  0  0  0  0  0  0  0  0  0  0  0
  153.9266  142.6965  159.4399 H   0  0  0  0  0  0  0  0  0  0  0  0
  1  2  1  0  0  0  0
  1 21  1  0  0  0  0
  1 22  1  0  0  0  0
  1 23  1  0  0  0  0
  2  6  1  0  0  0  0
  2  3  2  0  0  0  0
  3  4  1  0  0  0  0
  4  5  2  0  0  0  0
  5  6  1  0  0  0  0
  5 24  1  0  0  0  0
  6  7  1  0  0  0  0
  7  8  1  0  0  0  0
  7 25  1  0  0  0  0
  7 26  1  0  0  0  0
  8  9  1  0  0  0  0
  8 27  1  0  0  0  0
  8 28  1  0  0  0  0
  9 10  1  0  0  0  0
  9 29  1  0  0  0  0
 10 11  2  0  0  0  0
 10 12  1  0  0  0  0
 12 13  1  0  0  0  0
 12 30  1  0  0  0  0
 12 31  1  0  0  0  0
 13 14  1  0  0  0  0
 14 20  1  0  0  0  0
 14 15  1  0  0  0  0
 14 32  1  0  0  0  0
 15 16  1  0  0  0  0
 15 33  1  0  0  0  0
 15 34  1  0  0  0  0
 16 17  1  0  0  0  0
 16 35  1  0  0  0  0
 16 36  1  0  0  0  0
 17 18  1  0  0  0  0
 17 37  1  0  0  0  0
 17 38  1  0  0  0  0
 18 19  1  0  0  0  0
 18 20  1  0  0  0  0
 18 39  1  0  0  0  0
 19 40  1  0  0  0  0
 19 41  1  0  0  0  0
 19 42  1  0  0  0  0
 20 43  1  0  0  0  0
 20 44  1  0  0  0  0
M  END
> <s_m_source_file>
AV-unprocessed.smi

> <i_m_source_file_index>
707

> <i_lp_mmshare_version>
43012

> <i_f3d_flags>
0

> <s_epik_input>
W0NIM11jMW5uW2NIXW4xW0NIMl1bQ0gyXVtOSF1DKD1PKVtDSDJdT1tDQEBIXTJbQ0gyXVtDSDJdW0NIMl1bQ0BASF0oW0NIM10pW0NIMl0y

> <s_epik_cmdline>
J2VwaWtfcHl0aG9uJywgJy1waCcsICc3LjAnLCAnLXRuJywgJzgnLCAnLW1hJywgJzIwMCcsICctbWV0YWxfYmluZGluZycsICctaW1hZScsICc8aW5maWxlLm1hZT4nLCAnLW9tYWUnLCAnPG91dGZpbGUubWFlPic=

> <r_lp_tautomer_probability>
1

> <r_epik_Ionization_Penalty>
0.000271783

> <r_epik_Ionization_Penalty_Charging>
0

> <r_epik_Ionization_Penalty_Neutral>
0.000271783

> <r_epik_State_Penalty>
-0

> <r_epik_Charging_Adjusted_Penalty>
0

> <i_epik_Tot_Q>
0

> <i_epik_Tot_abs_Q>
0

> <r_epik_Metal_State_Penalty>
-0

> <b_epik_Metal_Only>
0

> <s_lp_Force_Field>
OPLS_2005

> <r_lp_Energy>
13.3948

> <b_lp_Chiralities_Consistent>
1

> <s_lp_Variant>
AV-unprocessed.smi:707-4

> <Gold.Version>
5.8.1

> <Gold.Id.Protein>
6NUR|6NUR_protein|mol2

> <Gold.PLP.Fitness>
49.1137

> <Gold.PLP.PLP>
-45.4402

> <Gold.PLP.part.hbond>
-2.0000

> <Gold.PLP.part.metal>
0.0000

> <Gold.PLP.part.buried>
-4.4088

> <Gold.PLP.part.nonpolar>
-38.5134

> <Gold.PLP.part.repulsive>
0.2181

> <Gold.PLP.ligand.clash>
0.0000

> <Gold.PLP.ligand.torsion>
0.5026

> <Gold.PLP.Chemscore.Hbond>
1.5460

> <Gold.PLP.Chemscore.CHOScore>
0.0000

> <Gold.PLP.Chemscore.Metal>
0.0000

> <Gold.Chemscore.Hbonds>
donor molecule, donor type, donor heavy atom, donor atom, acceptor molecule, acceptor atom, score
      P1  H  7989  7998       L1    11  0.54
      P1  H 10752 10763       L1     3  1.00

> <Gold.PLP.Chemscore.Internal.Correction>
0.0407

> <Gold.Rescore>
     Score         DG    S(hbond)    S(metal)    S(lipo)     H(rot)  DE(clash)    DE(int)     intcor
     14.52     -17.25       1.55        0.00     109.28       2.42       0.86       1.88       ----

> <Gold.Chemscore.Fitness>
14.5156

> <Gold.Chemscore.DG>
-17.2526

> <Gold.Chemscore.ZeroCoef>
-5.4800

> <Gold.Chemscore.Hbond>
1.5509

> <Gold.Chemscore.Metal>
0.0000

> <Gold.Chemscore.Lipo>
109.2785

> <Gold.Chemscore.Internal_Hbond>
0.0000

> <Gold.Chemscore.DEClash>
0.8576

> <Gold.Chemscore.DEInternal>
1.8794

> <Gold.Chemscore.Rot>
2.4191

> <Gold.Chemscore.Internal.Correction>
   9.000000E+99

> <Gold.Chemscore.Hbonds>
donor molecule, donor type, donor heavy atom, donor atom, acceptor molecule, acceptor atom, score
      P1  H  7989  7998       L1    11  0.51
      P1  H 10752 10763       L1     3  0.42

> <Gold.Chemscore.Hbond.Weighted>
-5.1799

> <Gold.Chemscore.Metal.Weighted>
-0.0000

> <Gold.Chemscore.Lipo.Weighted>
-12.7856

> <Gold.Chemscore.Internal_Hbond.Weighted>
0.0000

> <Gold.Chemscore.DEClash.Weighted>
0.8576

> <Gold.Chemscore.DEInternal.Weighted>
1.8794

> <Gold.Chemscore.Rot.Weighted>
6.1929

> <Gold.Chemscore.Internal.Correction.Weighted>
   9.000000E+99

> <Gold.Protein.RotatedTorsions>
[ 6907 6896 6895 6894 ] final  106.18 input  -60.11 | X-H torsion
[ 7974 7965 7964 7962 ] final   63.95 input  175.53 | X-H torsion
[ 8008 7997 7996 7995 ] final -168.66 input   59.86 | X-H torsion
[ 10167 10162 10161 10158 ] final  -75.86 input  -65.29 | X-H torsion
[ 10718 10713 10712 10709 ] final  -53.20 input   66.30 | X-H torsion
[ 10763 10752 10751 10750 ] final   82.48 input  -60.55 | X-H torsion
[ 11005 11000 10999 10996 ] final -105.96 input  -57.11 | X-H torsion

> <Gold.Protein.ActiveResidues>
 VAL166  LYS551  ARG553  GLY616  TRP617  ASP618  TYR619  PRO620  LYS621  CYS622 
 ASP623  PHE694  ASN695  SER759  ASP760  ASP761  ALA762  ILE779  LEU786  VAL792 
 PHE793  MET794  SER795  GLU796  ALA797  LYS798  CYS799  TRP800  GLU811  SER814 

> <Gold.Protein.RotatedAtoms>
  152.5203  133.9418  159.7629 H   0  0  0  0  0  0  0  0  0  0  0  0  # atno 6907 bound_to 6896
  150.9747  133.6299  159.2739 H   0  0  0  0  0  0  0  0  0  0  0  0  # atno 6908 bound_to 6896
  151.3498  135.0887  159.9452 H   0  0  0  0  0  0  0  0  0  0  0  0  # atno 6909 bound_to 6896
  145.8559  139.3283  143.0848 H   0  0  0  0  0  0  0  0  0  0  0  0  # atno 7974 bound_to 7965
  155.8945  140.1030  157.1395 H   0  0  0  0  0  0  0  0  0  0  0  0  # atno 8008 bound_to 7997
  154.4018  140.1304  156.4421 H   0  0  0  0  0  0  0  0  0  0  0  0  # atno 8009 bound_to 7997
  155.7495  140.3465  155.5146 H   0  0  0  0  0  0  0  0  0  0  0  0  # atno 8010 bound_to 7997
  140.4907  143.2381  151.7912 H   0  0  0  0  0  0  0  0  0  0  0  0  # atno 10167 bound_to 10162
  156.1555  130.4150  149.9876 H   0  0  0  0  0  0  0  0  0  0  0  0  # atno 10718 bound_to 10713
  153.1206  135.4727  154.9189 H   0  0  0  0  0  0  0  0  0  0  0  0  # atno 10763 bound_to 10752
  154.7572  135.3121  154.8450 H   0  0  0  0  0  0  0  0  0  0  0  0  # atno 10764 bound_to 10752
  153.9016  135.6874  153.4809 H   0  0  0  0  0  0  0  0  0  0  0  0  # atno 10765 bound_to 10752
  141.1028  133.8853  157.1798 H   0  0  0  0  0  0  0  0  0  0  0  0  # atno 11005 bound_to 11000
  145.9304  140.9052  143.0359 LP  0  0  0  0  0  0  0  0  0  0  0  0  # atno 17320 bound_to 7965
  144.6727  140.1411  143.7437 LP  0  0  0  0  0  0  0  0  0  0  0  0  # atno 17321 bound_to 7965
  139.4850  144.4653  151.9491 LP  0  0  0  0  0  0  0  0  0  0  0  0  # atno 17342 bound_to 10162
  140.3740  144.2820  150.5916 LP  0  0  0  0  0  0  0  0  0  0  0  0  # atno 17343 bound_to 10162
  156.7720  130.9190  151.3644 LP  0  0  0  0  0  0  0  0  0  0  0  0  # atno 17370 bound_to 10713
  157.6692  130.9035  150.0000 LP  0  0  0  0  0  0  0  0  0  0  0  0  # atno 17371 bound_to 10713
  139.9886  135.0073  156.9921 LP  0  0  0  0  0  0  0  0  0  0  0  0  # atno 17394 bound_to 11000
  140.4979  134.1127  155.7245 LP  0  0  0  0  0  0  0  0  0  0  0  0  # atno 17395 bound_to 11000

$$$$
