AV-unprocessed.smi:177|AV-procd|sdf|1440|dock4
  -GOLD-   2262019223D 1   1.00000     0.00000
 Structure written by MMmdl.
 61 65  0  0  0  0  0  0  0  0  1 V2000
  153.2483  136.8864  156.9895 C   0  0  0  0  0  0  0  0  0  0  0  0
  152.5394  137.0386  155.7694 O   0  0  0  0  0  0  0  0  0  0  0  0
  151.5859  138.0928  155.7793 C   0  0  1  0  0  0  0  0  0  0  0  0
  152.2811  139.4658  155.8539 C   0  0  0  0  0  0  0  0  0  0  0  0
  151.2531  140.6028  155.7704 C   0  0  0  0  0  0  0  0  0  0  0  0
  150.3918  140.4922  154.4920 C   0  0  2  0  0  0  0  0  0  0  0  0
  149.4310  141.5456  154.3946 O   0  0  0  0  0  0  0  0  0  0  0  0
  148.3526  141.4521  155.3226 C   0  0  0  0  0  0  0  0  0  0  0  0
  147.6389  140.1030  155.1617 C   0  0  0  0  0  0  0  0  0  0  0  0
  148.5890  139.0047  155.2970 N   0  0  0  0  0  0  0  0  0  0  0  0
  147.9658  137.8054  155.3311 C   0  0  0  0  0  0  0  0  0  0  0  0
  148.3453  136.8649  156.2360 N   0  0  0  0  0  0  0  0  0  0  0  0
  147.7082  135.6910  156.2818 C   0  0  0  0  0  0  0  0  0  0  0  0
  146.6880  135.2649  155.5334 N   0  0  0  0  0  0  0  0  0  0  0  0
  146.3120  136.2065  154.6202 C   0  0  0  0  0  0  0  0  0  0  0  0
  146.8941  137.4937  154.4548 C   0  0  0  0  0  0  0  0  0  0  0  0
  146.2453  138.1861  153.4414 N   0  0  0  0  0  0  0  0  0  0  0  0
  145.3225  137.3573  153.0360 C   0  0  0  0  0  0  0  0  0  0  0  0
  145.3008  136.1375  153.6763 N   0  0  0  0  0  0  0  0  0  0  0  0
  144.3722  135.0429  153.4311 C   0  0  0  0  0  0  0  0  0  0  0  0
  144.8351  133.9752  152.3933 C   0  0  0  0  0  0  0  0  0  0  0  0
  145.2832  134.6499  151.0621 C   0  0  0  0  0  0  0  0  0  0  0  0
  144.2355  135.2975  150.3692 O   0  0  0  0  0  0  0  0  0  0  0  0
  145.9454  133.0677  152.9829 C   0  0  0  0  0  0  0  0  0  0  0  0
  146.2020  131.8152  152.1280 C   0  0  0  0  0  0  0  0  0  0  0  0
  145.0009  131.0650  152.0038 O   0  0  0  0  0  0  0  0  0  0  0  0
  143.9715  131.7796  151.3331 C   0  0  0  0  0  0  0  0  0  0  0  0
  143.6148  133.0601  152.1139 C   0  0  0  0  0  0  0  0  0  0  0  0
  149.7051  139.1104  154.3499 C   0  0  2  0  0  0  0  0  0  0  0  0
  150.7594  137.9820  154.4857 C   0  0  0  0  0  0  0  0  0  0  0  0
  153.9403  136.0487  156.9048 H   0  0  0  0  0  0  0  0  0  0  0  0
  152.5689  136.6748  157.8163 H   0  0  0  0  0  0  0  0  0  0  0  0
  153.8310  137.7742  157.2341 H   0  0  0  0  0  0  0  0  0  0  0  0
  150.9150  137.9740  156.6309 H   0  0  0  0  0  0  0  0  0  0  0  0
  152.8463  139.5619  156.7807 H   0  0  0  0  0  0  0  0  0  0  0  0
  153.0013  139.5604  155.0401 H   0  0  0  0  0  0  0  0  0  0  0  0
  150.6312  140.5637  156.6641 H   0  0  0  0  0  0  0  0  0  0  0  0
  151.7631  141.5661  155.7906 H   0  0  0  0  0  0  0  0  0  0  0  0
  151.0622  140.6192  153.6409 H   0  0  0  0  0  0  0  0  0  0  0  0
  148.7035  141.5885  156.3454 H   0  0  0  0  0  0  0  0  0  0  0  0
  147.6543  142.2659  155.1278 H   0  0  0  0  0  0  0  0  0  0  0  0
  146.8494  140.0092  155.9087 H   0  0  0  0  0  0  0  0  0  0  0  0
  147.1613  140.0576  154.1817 H   0  0  0  0  0  0  0  0  0  0  0  0
  148.0645  134.9950  157.0267 H   0  0  0  0  0  0  0  0  0  0  0  0
  144.6326  137.6108  152.2444 H   0  0  0  0  0  0  0  0  0  0  0  0
  144.1739  134.5680  154.3930 H   0  0  0  0  0  0  0  0  0  0  0  0
  143.4212  135.4755  153.1175 H   0  0  0  0  0  0  0  0  0  0  0  0
  146.0468  135.4061  151.2348 H   0  0  0  0  0  0  0  0  0  0  0  0
  145.7347  133.9124  150.3978 H   0  0  0  0  0  0  0  0  0  0  0  0
  144.2644  136.2197  150.5745 H   0  0  0  0  0  0  0  0  0  0  0  0
  146.8769  133.6179  153.1169 H   0  0  0  0  0  0  0  0  0  0  0  0
  145.6485  132.7383  153.9793 H   0  0  0  0  0  0  0  0  0  0  0  0
  146.5918  132.0760  151.1435 H   0  0  0  0  0  0  0  0  0  0  0  0
  146.9544  131.1884  152.6071 H   0  0  0  0  0  0  0  0  0  0  0  0
  144.2715  131.9965  150.3078 H   0  0  0  0  0  0  0  0  0  0  0  0
  143.0949  131.1355  151.2642 H   0  0  0  0  0  0  0  0  0  0  0  0
  143.1658  132.7529  153.0597 H   0  0  0  0  0  0  0  0  0  0  0  0
  142.8399  133.6129  151.5813 H   0  0  0  0  0  0  0  0  0  0  0  0
  149.2794  139.0509  153.3469 H   0  0  0  0  0  0  0  0  0  0  0  0
  151.4372  138.0383  153.6331 H   0  0  0  0  0  0  0  0  0  0  0  0
  150.2972  136.9969  154.4194 H   0  0  0  0  0  0  0  0  0  0  0  0
  1  2  1  0  0  0  0
  1 31  1  0  0  0  0
  1 32  1  0  0  0  0
  1 33  1  0  0  0  0
  2  3  1  0  0  0  0
  3 30  1  0  0  0  0
  3  4  1  0  0  0  0
  3 34  1  0  0  0  0
  4  5  1  0  0  0  0
  4 35  1  0  0  0  0
  4 36  1  0  0  0  0
  5  6  1  0  0  0  0
  5 37  1  0  0  0  0
  5 38  1  0  0  0  0
  6 29  1  0  0  0  0
  6  7  1  0  0  0  0
  6 39  1  0  0  0  0
  7  8  1  0  0  0  0
  8  9  1  0  0  0  0
  8 40  1  0  0  0  0
  8 41  1  0  0  0  0
  9 10  1  0  0  0  0
  9 42  1  0  0  0  0
  9 43  1  0  0  0  0
 10 11  1  0  0  0  0
 10 29  1  0  0  0  0
 11 16  1  0  0  0  0
 11 12  2  0  0  0  0
 12 13  1  0  0  0  0
 13 14  2  0  0  0  0
 13 44  1  0  0  0  0
 14 15  1  0  0  0  0
 15 19  1  0  0  0  0
 15 16  2  0  0  0  0
 16 17  1  0  0  0  0
 17 18  2  0  0  0  0
 18 19  1  0  0  0  0
 18 45  1  0  0  0  0
 19 20  1  0  0  0  0
 20 21  1  0  0  0  0
 20 46  1  0  0  0  0
 20 47  1  0  0  0  0
 21 28  1  0  0  0  0
 21 22  1  0  0  0  0
 21 24  1  0  0  0  0
 22 23  1  0  0  0  0
 22 48  1  0  0  0  0
 22 49  1  0  0  0  0
 23 50  1  0  0  0  0
 24 25  1  0  0  0  0
 24 51  1  0  0  0  0
 24 52  1  0  0  0  0
 25 26  1  0  0  0  0
 25 53  1  0  0  0  0
 25 54  1  0  0  0  0
 26 27  1  0  0  0  0
 27 28  1  0  0  0  0
 27 55  1  0  0  0  0
 27 56  1  0  0  0  0
 28 57  1  0  0  0  0
 28 58  1  0  0  0  0
 29 30  1  0  0  0  0
 29 59  1  0  0  0  0
 30 60  1  0  0  0  0
 30 61  1  0  0  0  0
M  END
> <s_m_source_file>
AV-unprocessed.smi

> <i_m_source_file_index>
177

> <i_lp_mmshare_version>
43012

> <i_f3d_flags>
0

> <s_epik_input>
W0NIM11PW0NASF0oW0NIMl1bQ0gyXTEpW0NIMl1bQ0BIXShbQ0BASF0xMilOKFtDSDJdW0NIMl1PMiljKG5bY0hdbjMpYyhjMzQpbltjSF1uNFtDSDJdQzUoW0NIMl1bT0hdKVtDSDJdW0NIMl1PW0NIMl1bQ0gyXTU=

> <s_epik_cmdline>
J2VwaWtfcHl0aG9uJywgJy1waCcsICc3LjAnLCAnLXRuJywgJzgnLCAnLW1hJywgJzIwMCcsICctbWV0YWxfYmluZGluZycsICctaW1hZScsICc8aW5maWxlLm1hZT4nLCAnLW9tYWUnLCAnPG91dGZpbGUubWFlPic=

> <r_lp_tautomer_probability>
1

> <r_epik_Ionization_Penalty>
0.0065899

> <r_epik_Ionization_Penalty_Charging>
0

> <r_epik_Ionization_Penalty_Neutral>
0.0065899

> <r_epik_State_Penalty>
0.00470042

> <r_epik_Charging_Adjusted_Penalty>
0.00470042

> <i_epik_Tot_Q>
0

> <i_epik_Tot_abs_Q>
0

> <r_epik_Metal_State_Penalty>
-0

> <b_epik_Metal_Only>
0

> <s_lp_Force_Field>
OPLS_2005

> <r_lp_Energy>
50.2721

> <b_lp_Chiralities_Consistent>
1

> <s_lp_Variant>
AV-unprocessed.smi:177-4

> <Gold.Version>
5.8.1

> <Gold.Id.Protein>
6NUR|6NUR_protein|mol2

> <Gold.PLP.Fitness>
44.6121

> <Gold.PLP.PLP>
-36.3003

> <Gold.PLP.part.hbond>
-5.0000

> <Gold.PLP.part.metal>
0.0000

> <Gold.PLP.part.buried>
0.6382

> <Gold.PLP.part.nonpolar>
-32.4338

> <Gold.PLP.part.repulsive>
0.7516

> <Gold.PLP.ligand.clash>
0.0000

> <Gold.PLP.ligand.torsion>
1.1274

> <Gold.PLP.Chemscore.Hbond>
2.3003

> <Gold.PLP.Chemscore.CHOScore>
1.1614

> <Gold.PLP.Chemscore.Metal>
0.0000

> <Gold.Chemscore.Hbonds>
donor molecule, donor type, donor heavy atom, donor atom, acceptor molecule, acceptor atom, score
      P1  H  8011  8017       L1     7  0.24
      P1  H 10752 10765       L1     2  0.77
      L1  C    18    45       P1 10171  0.51

> <Gold.PLP.Chemscore.Internal.Correction>
0.1815

> <Gold.Rescore>
     Score         DG    S(hbond)    S(metal)    S(lipo)     H(rot)  DE(clash)    DE(int)     intcor
     10.81     -15.18       1.73        0.00      90.00       2.58       1.65       2.73       ----

> <Gold.Chemscore.Fitness>
10.8075

> <Gold.Chemscore.DG>
-15.1844

> <Gold.Chemscore.ZeroCoef>
-5.4800

> <Gold.Chemscore.Hbond>
1.7307

> <Gold.Chemscore.Metal>
0.0000

> <Gold.Chemscore.Lipo>
90.0016

> <Gold.Chemscore.Internal_Hbond>
0.0000

> <Gold.Chemscore.DEClash>
1.6492

> <Gold.Chemscore.DEInternal>
2.7277

> <Gold.Chemscore.Rot>
2.5806

> <Gold.Chemscore.Internal.Correction>
   9.000000E+99

> <Gold.Chemscore.Hbonds>
donor molecule, donor type, donor heavy atom, donor atom, acceptor molecule, acceptor atom, score
      L1  H    23    50       P1 10171  0.01
      P1  H  8011  8017       L1     7  0.10
      P1  H 10752 10765       L1     2  0.23

> <Gold.Chemscore.Hbond.Weighted>
-5.7805

> <Gold.Chemscore.Metal.Weighted>
-0.0000

> <Gold.Chemscore.Lipo.Weighted>
-10.5302

> <Gold.Chemscore.Internal_Hbond.Weighted>
0.0000

> <Gold.Chemscore.DEClash.Weighted>
1.6492

> <Gold.Chemscore.DEInternal.Weighted>
2.7277

> <Gold.Chemscore.Rot.Weighted>
6.6062

> <Gold.Chemscore.Internal.Correction.Weighted>
   9.000000E+99

> <Gold.Protein.RotatedTorsions>
[ 6907 6896 6895 6894 ] final  -84.15 input  -60.11 | X-H torsion
[ 7974 7965 7964 7962 ] final  115.82 input  175.53 | X-H torsion
[ 8008 7997 7996 7995 ] final -104.81 input   59.86 | X-H torsion
[ 10167 10162 10161 10158 ] final  130.94 input  -65.29 | X-H torsion
[ 10718 10713 10712 10709 ] final  -52.91 input   66.30 | X-H torsion
[ 10763 10752 10751 10750 ] final -162.76 input  -60.55 | X-H torsion
[ 11005 11000 10999 10996 ] final -177.14 input  -57.11 | X-H torsion

> <Gold.Protein.ActiveResidues>
 VAL166  LYS551  ARG553  GLY616  TRP617  ASP618  TYR619  PRO620  LYS621  CYS622 
 ASP623  PHE694  ASN695  SER759  ASP760  ASP761  ALA762  ILE779  LEU786  VAL792 
 PHE793  MET794  SER795  GLU796  ALA797  LYS798  CYS799  TRP800  GLU811  SER814 

> <Gold.Protein.RotatedAtoms>
  150.6879  134.3402  159.4864 H   0  0  0  0  0  0  0  0  0  0  0  0  # atno 6907 bound_to 6896
  152.1256  134.9170  160.0570 H   0  0  0  0  0  0  0  0  0  0  0  0  # atno 6908 bound_to 6896
  152.0360  133.3922  159.4354 H   0  0  0  0  0  0  0  0  0  0  0  0  # atno 6909 bound_to 6896
  145.1872  139.3019  143.4387 H   0  0  0  0  0  0  0  0  0  0  0  0  # atno 7974 bound_to 7965
  154.8908  140.0416  157.1837 H   0  0  0  0  0  0  0  0  0  0  0  0  # atno 8008 bound_to 7997
  154.8543  140.2934  155.5557 H   0  0  0  0  0  0  0  0  0  0  0  0  # atno 8009 bound_to 7997
  156.2997  140.2459  156.3507 H   0  0  0  0  0  0  0  0  0  0  0  0  # atno 8010 bound_to 7997
  139.5407  144.6727  151.4636 H   0  0  0  0  0  0  0  0  0  0  0  0  # atno 10167 bound_to 10162
  156.1580  130.4150  149.9838 H   0  0  0  0  0  0  0  0  0  0  0  0  # atno 10718 bound_to 10713
  154.7185  135.3021  154.9085 H   0  0  0  0  0  0  0  0  0  0  0  0  # atno 10763 bound_to 10752
  153.9964  135.6712  153.4761 H   0  0  0  0  0  0  0  0  0  0  0  0  # atno 10764 bound_to 10752
  153.0814  135.5007  154.8426 H   0  0  0  0  0  0  0  0  0  0  0  0  # atno 10765 bound_to 10752
  140.4442  134.6403  157.4771 H   0  0  0  0  0  0  0  0  0  0  0  0  # atno 11005 bound_to 11000
  146.3442  140.2073  142.8589 LP  0  0  0  0  0  0  0  0  0  0  0  0  # atno 17320 bound_to 7965
  145.0077  140.8687  143.5243 LP  0  0  0  0  0  0  0  0  0  0  0  0  # atno 17321 bound_to 7965
  140.6635  143.8448  150.6915 LP  0  0  0  0  0  0  0  0  0  0  0  0  # atno 17342 bound_to 10162
  140.1850  143.4083  152.1905 LP  0  0  0  0  0  0  0  0  0  0  0  0  # atno 17343 bound_to 10162
  156.7676  130.9174  151.3643 LP  0  0  0  0  0  0  0  0  0  0  0  0  # atno 17370 bound_to 10713
  157.6710  130.9051  150.0041 LP  0  0  0  0  0  0  0  0  0  0  0  0  # atno 17371 bound_to 10713
  140.0049  134.6778  155.9470 LP  0  0  0  0  0  0  0  0  0  0  0  0  # atno 17394 bound_to 11000
  141.1692  133.6537  156.4591 LP  0  0  0  0  0  0  0  0  0  0  0  0  # atno 17395 bound_to 11000

$$$$
