AV-unprocessed.smi:2553|AV-procd|sdf|10018|dock4
  -GOLD-   2272014 63D 1   1.00000     0.00000
 Structure written by MMmdl.
 28 29  0  0  0  0  0  0  0  0  2 V2000
  146.8863  141.9115  154.3870 O   0  0  0  0  0  0  0  0  0  0  0  0
  147.7741  141.3720  155.0462 C   0  0  0  0  0  0  0  0  0  0  0  0
  148.8436  140.7485  154.4702 N   0  5  0  0  0  0  0  0  0  0  0  0
  149.8418  140.1448  155.1861 C   0  0  0  0  0  0  0  0  0  0  0  0
  150.7892  139.5753  154.6437 O   0  0  0  0  0  0  0  0  0  0  0  0
  149.7815  140.1729  156.5503 N   0  0  0  0  0  0  0  0  0  0  0  0
  150.7992  139.5373  157.3985 C   0  0  0  0  0  0  0  0  0  0  0  0
  152.2186  139.9383  156.9684 C   0  0  0  0  0  0  0  0  0  0  0  0
  152.8941  140.4828  158.0939 O   0  0  0  0  0  0  0  0  0  0  0  0
  152.5443  141.7420  158.5304 C   0  0  0  0  0  0  0  0  0  0  0  0
  151.5985  142.5712  157.8757 C   0  0  0  0  0  0  0  0  0  0  0  0
  151.2918  143.8464  158.3885 C   0  0  0  0  0  0  0  0  0  0  0  0
  151.9234  144.3084  159.5576 C   0  0  0  0  0  0  0  0  0  0  0  0
  151.6270  145.5346  160.0497 F   0  0  0  0  0  0  0  0  0  0  0  0
  152.8627  143.4932  160.2148 C   0  0  0  0  0  0  0  0  0  0  0  0
  153.1714  142.2173  159.7038 C   0  0  0  0  0  0  0  0  0  0  0  0
  154.3312  141.2354  160.5258 Cl  0  0  0  0  0  0  0  0  0  0  0  0
  148.6977  140.7945  157.1932 C   0  0  0  0  0  0  0  0  0  0  0  0
  147.7018  141.3861  156.5060 C   0  0  0  0  0  0  0  0  0  0  0  0
  146.3756  142.1314  157.3247 Cl  0  0  0  0  0  0  0  0  0  0  0  0
  150.6423  139.8047  158.4446 H   0  0  0  0  0  0  0  0  0  0  0  0
  150.6971  138.4517  157.3657 H   0  0  0  0  0  0  0  0  0  0  0  0
  152.7522  139.0714  156.5752 H   0  0  0  0  0  0  0  0  0  0  0  0
  152.1589  140.6857  156.1762 H   0  0  0  0  0  0  0  0  0  0  0  0
  151.0917  142.2499  156.9786 H   0  0  0  0  0  0  0  0  0  0  0  0
  150.5694  144.4706  157.8836 H   0  0  0  0  0  0  0  0  0  0  0  0
  153.3476  143.8477  161.1124 H   0  0  0  0  0  0  0  0  0  0  0  0
  148.7208  140.7503  158.2725 H   0  0  0  0  0  0  0  0  0  0  0  0
  1  2  2  0  0  0  0
  2 19  1  0  0  0  0
  2  3  1  0  0  0  0
  3  4  1  0  0  0  0
  4  5  2  0  0  0  0
  4  6  1  0  0  0  0
  6  7  1  0  0  0  0
  6 18  1  0  0  0  0
  7  8  1  0  0  0  0
  7 21  1  0  0  0  0
  7 22  1  0  0  0  0
  8  9  1  0  0  0  0
  8 23  1  0  0  0  0
  8 24  1  0  0  0  0
  9 10  1  0  0  0  0
 10 16  1  0  0  0  0
 10 11  2  0  0  0  0
 11 12  1  0  0  0  0
 11 25  1  0  0  0  0
 12 13  2  0  0  0  0
 12 26  1  0  0  0  0
 13 14  1  0  0  0  0
 13 15  1  0  0  0  0
 15 16  2  0  0  0  0
 15 27  1  0  0  0  0
 16 17  1  0  0  0  0
 18 19  2  0  0  0  0
 18 28  1  0  0  0  0
 19 20  1  0  0  0  0
M  CHG  1   3  -1
M  END
> <s_m_source_file>
AV-unprocessed.smi

> <i_m_source_file_index>
2553

> <i_lp_mmshare_version>
43012

> <i_f3d_flags>
0

> <s_epik_input>
Tz1jMVtuSF1jKD1PKW4oW2NIXWMxQ2wpW0NIMl1bQ0gyXU9jMltjSF1bY0hdYyhGKVtjSF1jMkNs

> <s_epik_cmdline>
J2VwaWtfcHl0aG9uJywgJy1waCcsICc3LjAnLCAnLXRuJywgJzgnLCAnLW1hJywgJzIwMCcsICctbWV0YWxfYmluZGluZycsICctaW1hZScsICc8aW5maWxlLm1hZT4nLCAnLW9tYWUnLCAnPG91dGZpbGUubWFlPic=

> <r_lp_tautomer_probability>
1

> <r_epik_Ionization_Penalty>
1.51646

> <r_epik_Ionization_Penalty_Charging>
6.90068e-09

> <r_epik_Ionization_Penalty_Neutral>
1.51646

> <r_epik_State_Penalty>
1.60792

> <r_epik_Charging_Adjusted_Penalty>
1.60792

> <i_epik_Tot_Q>
-1

> <i_epik_Tot_abs_Q>
1

> <r_epik_Metal_State_Penalty>
0.00828827

> <b_epik_Metal_Only>
0

> <s_lp_Force_Field>
OPLS_2005

> <r_lp_Energy>
21.8883

> <b_lp_Chiralities_Consistent>
1

> <s_lp_Variant>
AV-unprocessed.smi:2553-2

> <Gold.Version>
5.8.1

> <Gold.Id.Protein>
6NUR|6NUR_protein|mol2

> <Gold.PLP.Fitness>
43.5835

> <Gold.PLP.PLP>
-40.8976

> <Gold.PLP.part.hbond>
-2.0000

> <Gold.PLP.part.metal>
0.0000

> <Gold.PLP.part.buried>
-5.4903

> <Gold.PLP.part.nonpolar>
-32.9896

> <Gold.PLP.part.repulsive>
0.4293

> <Gold.PLP.ligand.clash>
0.0000

> <Gold.PLP.ligand.torsion>
0.5493

> <Gold.PLP.Chemscore.Hbond>
1.2566

> <Gold.PLP.Chemscore.CHOScore>
0.0000

> <Gold.PLP.Chemscore.Metal>
0.0000

> <Gold.Chemscore.Hbonds>
donor molecule, donor type, donor heavy atom, donor atom, acceptor molecule, acceptor atom, score
      P1  H  7989  7998       L1     5  1.00
      P1  H  7997  8009       L1     9  0.21

> <Gold.PLP.Chemscore.Internal.Correction>
0.0147

> <Gold.Rescore>
     Score         DG    S(hbond)    S(metal)    S(lipo)     H(rot)  DE(clash)    DE(int)     intcor
     13.34     -15.63       1.25        0.00      92.29       1.88       0.22       2.06       ----

> <Gold.Chemscore.Fitness>
13.3433

> <Gold.Chemscore.DG>
-15.6298

> <Gold.Chemscore.ZeroCoef>
-5.4800

> <Gold.Chemscore.Hbond>
1.2478

> <Gold.Chemscore.Metal>
0.0000

> <Gold.Chemscore.Lipo>
92.2942

> <Gold.Chemscore.Internal_Hbond>
0.0000

> <Gold.Chemscore.DEClash>
0.2224

> <Gold.Chemscore.DEInternal>
2.0641

> <Gold.Chemscore.Rot>
1.8814

> <Gold.Chemscore.Internal.Correction>
   9.000000E+99

> <Gold.Chemscore.Hbonds>
donor molecule, donor type, donor heavy atom, donor atom, acceptor molecule, acceptor atom, score
      P1  H  7989  7998       L1     5  0.60

> <Gold.Chemscore.Hbond.Weighted>
-4.1676

> <Gold.Chemscore.Metal.Weighted>
-0.0000

> <Gold.Chemscore.Lipo.Weighted>
-10.7984

> <Gold.Chemscore.Internal_Hbond.Weighted>
0.0000

> <Gold.Chemscore.DEClash.Weighted>
0.2224

> <Gold.Chemscore.DEInternal.Weighted>
2.0641

> <Gold.Chemscore.Rot.Weighted>
4.8163

> <Gold.Chemscore.Internal.Correction.Weighted>
   9.000000E+99

> <Gold.Protein.RotatedTorsions>
[ 6907 6896 6895 6894 ] final  -53.80 input  -60.11 | X-H torsion
[ 7974 7965 7964 7962 ] final -117.88 input  175.53 | X-H torsion
[ 8008 7997 7996 7995 ] final  149.48 input   59.86 | X-H torsion
[ 10167 10162 10161 10158 ] final -118.60 input  -65.29 | X-H torsion
[ 10718 10713 10712 10709 ] final -159.01 input   66.30 | X-H torsion
[ 10763 10752 10751 10750 ] final   42.31 input  -60.55 | X-H torsion
[ 11005 11000 10999 10996 ] final   -8.41 input  -57.11 | X-H torsion

> <Gold.Protein.ActiveResidues>
 VAL166  LYS551  ARG553  GLY616  TRP617  ASP618  TYR619  PRO620  LYS621  CYS622 
 ASP623  PHE694  ASN695  SER759  ASP760  ASP761  ALA762  ILE779  LEU786  VAL792 
 PHE793  MET794  SER795  GLU796  ALA797  LYS798  CYS799  TRP800  GLU811  SER814 

> <Gold.Protein.RotatedAtoms>
  150.8394  134.7680  159.6919 H   0  0  0  0  0  0  0  0  0  0  0  0  # atno 6907 bound_to 6896
  152.4485  134.5441  159.9857 H   0  0  0  0  0  0  0  0  0  0  0  0  # atno 6908 bound_to 6896
  151.5584  133.3369  159.3002 H   0  0  0  0  0  0  0  0  0  0  0  0  # atno 6909 bound_to 6896
  145.0802  140.8420  143.4043 H   0  0  0  0  0  0  0  0  0  0  0  0  # atno 7974 bound_to 7965
  156.2753  140.2101  156.5864 H   0  0  0  0  0  0  0  0  0  0  0  0  # atno 8008 bound_to 7997
  154.7017  140.0520  157.0488 H   0  0  0  0  0  0  0  0  0  0  0  0  # atno 8009 bound_to 7997
  155.0725  140.3178  155.4629 H   0  0  0  0  0  0  0  0  0  0  0  0  # atno 8010 bound_to 7997
  140.0557  143.5016  152.2058 H   0  0  0  0  0  0  0  0  0  0  0  0  # atno 10167 bound_to 10162
  156.5622  130.8652  151.2813 H   0  0  0  0  0  0  0  0  0  0  0  0  # atno 10718 bound_to 10713
  152.9886  135.6135  154.2929 H   0  0  0  0  0  0  0  0  0  0  0  0  # atno 10763 bound_to 10752
  154.2653  135.2781  155.2763 H   0  0  0  0  0  0  0  0  0  0  0  0  # atno 10764 bound_to 10752
  154.5170  135.5825  153.6707 H   0  0  0  0  0  0  0  0  0  0  0  0  # atno 10765 bound_to 10752
  140.7232  133.8811  155.8836 H   0  0  0  0  0  0  0  0  0  0  0  0  # atno 11005 bound_to 11000
  145.1187  139.2708  143.5599 LP  0  0  0  0  0  0  0  0  0  0  0  0  # atno 17320 bound_to 7965
  146.3531  140.0805  142.8618 LP  0  0  0  0  0  0  0  0  0  0  0  0  # atno 17321 bound_to 7965
  139.5925  144.7555  151.3367 LP  0  0  0  0  0  0  0  0  0  0  0  0  # atno 17342 bound_to 10162
  140.7195  143.7173  150.7722 LP  0  0  0  0  0  0  0  0  0  0  0  0  # atno 17343 bound_to 10162
  157.7366  130.9782  150.2146 LP  0  0  0  0  0  0  0  0  0  0  0  0  # atno 17370 bound_to 10713
  156.2789  130.3731  149.7955 LP  0  0  0  0  0  0  0  0  0  0  0  0  # atno 17371 bound_to 10713
  140.9985  134.1182  157.4340 LP  0  0  0  0  0  0  0  0  0  0  0  0  # atno 17394 bound_to 11000
  139.8843  135.0061  156.6361 LP  0  0  0  0  0  0  0  0  0  0  0  0  # atno 17395 bound_to 11000

$$$$
