AV-unprocessed.smi:2273|AV-procd|sdf|9164|dock1
  -GOLD-   2272012373D 1   1.00000     0.00000
 Structure written by MMmdl.
 53 54  0  0  0  0  0  0  0  0  1 V2000
  149.4077  141.4407  156.6610 C   0  0  0  0  0  0  0  0  0  0  0  0
  150.0640  141.6476  155.2906 C   0  0  0  0  0  0  0  0  0  0  0  0
  149.5988  140.6943  154.1564 C   0  0  0  0  0  0  0  0  0  0  0  0
  148.0627  140.8102  153.9628 C   0  0  0  0  0  0  0  0  0  0  0  0
  147.5438  142.2297  153.6839 C   0  0  0  0  0  0  0  0  0  0  0  0
  150.0439  139.2220  154.4135 C   0  0  2  0  0  0  0  0  0  0  0  0
  149.3833  138.5938  155.6668 C   0  0  0  0  0  0  0  0  0  0  0  0
  149.8320  137.1354  155.8776 C   0  0  1  0  0  0  0  0  0  0  0  0
  149.2830  136.2519  154.8434 N   0  0  0  0  0  0  0  0  0  0  0  0
  148.8311  134.9913  154.9700 C   0  0  0  0  0  0  0  0  0  0  0  0
  148.8464  134.4132  156.0555 O   0  0  0  0  0  0  0  0  0  0  0  0
  148.3849  134.4407  153.8224 N   0  0  0  0  0  0  0  0  0  0  0  0
  147.8742  133.1432  153.6559 C   0  0  0  0  0  0  0  0  0  0  0  0
  146.7636  132.9700  152.8917 C   0  0  0  0  0  0  0  0  0  0  0  0
  146.0899  134.1326  152.1810 C   0  0  0  0  0  0  0  0  0  0  0  0
  146.2229  131.6370  152.7251 C   0  0  0  0  0  0  0  0  0  0  0  0
  146.8197  130.6030  153.3324 C   0  0  0  0  0  0  0  0  0  0  0  0
  147.9486  130.7784  154.1449 N   0  0  0  0  0  0  0  0  0  0  0  0
  148.5186  129.5869  154.7791 C   0  0  0  0  0  0  0  0  0  0  0  0
  148.4925  132.0067  154.3828 C   0  0  0  0  0  0  0  0  0  0  0  0
  149.4287  132.1377  155.1747 O   0  0  0  0  0  0  0  0  0  0  0  0
  151.3661  137.0708  155.8745 C   0  0  0  0  0  0  0  0  0  0  0  0
  151.9543  137.8071  154.6604 C   0  0  0  0  0  0  0  0  0  0  0  0
  151.4557  139.1400  154.6163 O   0  0  0  0  0  0  0  0  0  0  0  0
  149.8889  142.0656  157.4136 H   0  0  0  0  0  0  0  0  0  0  0  0
  149.4958  140.4049  156.9887 H   0  0  0  0  0  0  0  0  0  0  0  0
  148.3533  141.7159  156.6480 H   0  0  0  0  0  0  0  0  0  0  0  0
  149.9164  142.6830  154.9815 H   0  0  0  0  0  0  0  0  0  0  0  0
  151.1358  141.5318  155.4438 H   0  0  0  0  0  0  0  0  0  0  0  0
  150.0544  141.0260  153.2223 H   0  0  0  0  0  0  0  0  0  0  0  0
  147.7561  140.2035  153.1107 H   0  0  0  0  0  0  0  0  0  0  0  0
  147.5464  140.3985  154.8308 H   0  0  0  0  0  0  0  0  0  0  0  0
  146.4878  142.2035  153.4147 H   0  0  0  0  0  0  0  0  0  0  0  0
  148.0834  142.6929  152.8575 H   0  0  0  0  0  0  0  0  0  0  0  0
  147.6320  142.8773  154.5557 H   0  0  0  0  0  0  0  0  0  0  0  0
  149.8035  138.6352  153.5251 H   0  0  0  0  0  0  0  0  0  0  0  0
  149.6652  139.1783  156.5437 H   0  0  0  0  0  0  0  0  0  0  0  0
  148.2982  138.6418  155.6231 H   0  0  0  0  0  0  0  0  0  0  0  0
  149.4913  136.7916  156.8553 H   0  0  0  0  0  0  0  0  0  0  0  0
  149.1961  136.6632  153.9252 H   0  0  0  0  0  0  0  0  0  0  0  0
  148.5325  134.9662  152.9734 H   0  0  0  0  0  0  0  0  0  0  0  0
  145.1775  133.8127  151.6772 H   0  0  0  0  0  0  0  0  0  0  0  0
  146.7589  134.5509  151.4299 H   0  0  0  0  0  0  0  0  0  0  0  0
  145.8232  134.9192  152.8877 H   0  0  0  0  0  0  0  0  0  0  0  0
  145.3511  131.4698  152.1095 H   0  0  0  0  0  0  0  0  0  0  0  0
  146.4647  129.5867  153.2431 H   0  0  0  0  0  0  0  0  0  0  0  0
  149.5877  129.5132  154.5731 H   0  0  0  0  0  0  0  0  0  0  0  0
  148.0603  128.6623  154.4262 H   0  0  0  0  0  0  0  0  0  0  0  0
  148.3827  129.6298  155.8606 H   0  0  0  0  0  0  0  0  0  0  0  0
  151.7434  137.5394  156.7844 H   0  0  0  0  0  0  0  0  0  0  0  0
  151.7097  136.0358  155.8976 H   0  0  0  0  0  0  0  0  0  0  0  0
  153.0410  137.8414  154.7367 H   0  0  0  0  0  0  0  0  0  0  0  0
  151.7203  137.2852  153.7314 H   0  0  0  0  0  0  0  0  0  0  0  0
  1  2  1  0  0  0  0
  1 25  1  0  0  0  0
  1 26  1  0  0  0  0
  1 27  1  0  0  0  0
  2  3  1  0  0  0  0
  2 28  1  0  0  0  0
  2 29  1  0  0  0  0
  3  4  1  0  0  0  0
  3  6  1  0  0  0  0
  3 30  1  0  0  0  0
  4  5  1  0  0  0  0
  4 31  1  0  0  0  0
  4 32  1  0  0  0  0
  5 33  1  0  0  0  0
  5 34  1  0  0  0  0
  5 35  1  0  0  0  0
  6 24  1  0  0  0  0
  6  7  1  0  0  0  0
  6 36  1  0  0  0  0
  7  8  1  0  0  0  0
  7 37  1  0  0  0  0
  7 38  1  0  0  0  0
  8  9  1  0  0  0  0
  8 22  1  0  0  0  0
  8 39  1  0  0  0  0
  9 10  1  0  0  0  0
  9 40  1  0  0  0  0
 10 11  2  0  0  0  0
 10 12  1  0  0  0  0
 12 13  1  0  0  0  0
 12 41  1  0  0  0  0
 13 20  1  0  0  0  0
 13 14  2  0  0  0  0
 14 15  1  0  0  0  0
 14 16  1  0  0  0  0
 15 42  1  0  0  0  0
 15 43  1  0  0  0  0
 15 44  1  0  0  0  0
 16 17  2  0  0  0  0
 16 45  1  0  0  0  0
 17 18  1  0  0  0  0
 17 46  1  0  0  0  0
 18 19  1  0  0  0  0
 18 20  1  0  0  0  0
 19 47  1  0  0  0  0
 19 48  1  0  0  0  0
 19 49  1  0  0  0  0
 20 21  2  0  0  0  0
 22 23  1  0  0  0  0
 22 50  1  0  0  0  0
 22 51  1  0  0  0  0
 23 24  1  0  0  0  0
 23 52  1  0  0  0  0
 23 53  1  0  0  0  0
M  END
> <s_m_source_file>
AV-unprocessed.smi

> <i_m_source_file_index>
2273

> <i_lp_mmshare_version>
43012

> <i_f3d_flags>
0

> <s_epik_input>
W0NIM11bQ0gyXVtDSF0oW0NIMl1bQ0gzXSlbQ0BASF0xW0NIMl1bQ0BIXShbQ0gyXVtDSDJdTzEpW05IXUMoPU8pW05IXWMyYyhbQ0gzXSlbY0hdW2NIXW4oW0NIM10pYzI9Tw==

> <s_epik_cmdline>
J2VwaWtfcHl0aG9uJywgJy1waCcsICc3LjAnLCAnLXRuJywgJzgnLCAnLW1hJywgJzIwMCcsICctbWV0YWxfYmluZGluZycsICctaW1hZScsICc8aW5maWxlLm1hZT4nLCAnLW9tYWUnLCAnPG91dGZpbGUubWFlPic=

> <r_lp_tautomer_probability>
1

> <r_epik_Ionization_Penalty>
2.66245e-05

> <r_epik_Ionization_Penalty_Charging>
6.91055e-06

> <r_epik_Ionization_Penalty_Neutral>
1.97139e-05

> <r_epik_State_Penalty>
-0

> <r_epik_Charging_Adjusted_Penalty>
6.91055e-06

> <i_epik_Tot_Q>
0

> <i_epik_Tot_abs_Q>
0

> <r_epik_Metal_State_Penalty>
-0

> <b_epik_Metal_Only>
0

> <s_lp_Force_Field>
OPLS_2005

> <r_lp_Energy>
42.8548

> <b_lp_Chiralities_Consistent>
1

> <s_lp_Variant>
AV-unprocessed.smi:2273-1

> <Gold.Version>
5.8.1

> <Gold.Id.Protein>
6NUR|6NUR_protein|mol2

> <Gold.PLP.Fitness>
49.1019

> <Gold.PLP.PLP>
-41.0166

> <Gold.PLP.part.hbond>
-3.0000

> <Gold.PLP.part.metal>
0.0000

> <Gold.PLP.part.buried>
-2.0842

> <Gold.PLP.part.nonpolar>
-35.3390

> <Gold.PLP.part.repulsive>
0.1736

> <Gold.PLP.ligand.clash>
0.0000

> <Gold.PLP.ligand.torsion>
0.6854

> <Gold.PLP.Chemscore.Hbond>
2.8406

> <Gold.PLP.Chemscore.CHOScore>
0.0000

> <Gold.PLP.Chemscore.Metal>
0.0000

> <Gold.Chemscore.Hbonds>
donor molecule, donor type, donor heavy atom, donor atom, acceptor molecule, acceptor atom, score
      L1  H     9    40       P1  7948  0.71
      L1  H    12    41       P1  7948  1.00
      P1  H  7989  7998       L1    24  0.37

> <Gold.PLP.Chemscore.Internal.Correction>
0.9343

> <Gold.Rescore>
     Score         DG    S(hbond)    S(metal)    S(lipo)     H(rot)  DE(clash)    DE(int)     intcor
     17.87     -18.72       2.13        0.00      83.40       1.42       0.08       0.77       ----

> <Gold.Chemscore.Fitness>
17.8696

> <Gold.Chemscore.DG>
-18.7188

> <Gold.Chemscore.ZeroCoef>
-5.4800

> <Gold.Chemscore.Hbond>
2.1335

> <Gold.Chemscore.Metal>
0.0000

> <Gold.Chemscore.Lipo>
83.3958

> <Gold.Chemscore.Internal_Hbond>
0.0000

> <Gold.Chemscore.DEClash>
0.0835

> <Gold.Chemscore.DEInternal>
0.7657

> <Gold.Chemscore.Rot>
1.4236

> <Gold.Chemscore.Internal.Correction>
   9.000000E+99

> <Gold.Chemscore.Hbonds>
donor molecule, donor type, donor heavy atom, donor atom, acceptor molecule, acceptor atom, score
      L1  H     9    40       P1  7948  0.68
      L1  H    12    41       P1  7948  0.60
      P1  H  7989  7998       L1    24  0.01

> <Gold.Chemscore.Hbond.Weighted>
-7.1260

> <Gold.Chemscore.Metal.Weighted>
-0.0000

> <Gold.Chemscore.Lipo.Weighted>
-9.7573

> <Gold.Chemscore.Internal_Hbond.Weighted>
0.0000

> <Gold.Chemscore.DEClash.Weighted>
0.0835

> <Gold.Chemscore.DEInternal.Weighted>
0.7657

> <Gold.Chemscore.Rot.Weighted>
3.6445

> <Gold.Chemscore.Internal.Correction.Weighted>
   9.000000E+99

> <Gold.Protein.RotatedTorsions>
[ 6907 6896 6895 6894 ] final -151.00 input  -60.11 | X-H torsion
[ 7974 7965 7964 7962 ] final -174.67 input  175.53 | X-H torsion
[ 8008 7997 7996 7995 ] final -149.76 input   59.86 | X-H torsion
[ 10167 10162 10161 10158 ] final  171.76 input  -65.29 | X-H torsion
[ 10718 10713 10712 10709 ] final  138.16 input   66.30 | X-H torsion
[ 10763 10752 10751 10750 ] final  161.60 input  -60.55 | X-H torsion
[ 11005 11000 10999 10996 ] final  -99.18 input  -57.11 | X-H torsion

> <Gold.Protein.ActiveResidues>
 VAL166  LYS551  ARG553  GLY616  TRP617  ASP618  TYR619  PRO620  LYS621  CYS622 
 ASP623  PHE694  ASN695  SER759  ASP760  ASP761  ALA762  ILE779  LEU786  VAL792 
 PHE793  MET794  SER795  GLU796  ALA797  LYS798  CYS799  TRP800  GLU811  SER814 

> <Gold.Protein.RotatedAtoms>
  151.2068  133.4579  159.2597 H   0  0  0  0  0  0  0  0  0  0  0  0  # atno 6907 bound_to 6896
  151.1016  134.9975  159.8461 H   0  0  0  0  0  0  0  0  0  0  0  0  # atno 6908 bound_to 6896
  152.5444  134.1994  159.8759 H   0  0  0  0  0  0  0  0  0  0  0  0  # atno 6909 bound_to 6896
  144.7131  140.1437  143.6390 H   0  0  0  0  0  0  0  0  0  0  0  0  # atno 7974 bound_to 7965
  155.6128  140.0673  157.2701 H   0  0  0  0  0  0  0  0  0  0  0  0  # atno 8008 bound_to 7997
  154.4249  140.1798  156.1338 H   0  0  0  0  0  0  0  0  0  0  0  0  # atno 8009 bound_to 7997
  156.0071  140.3330  155.6907 H   0  0  0  0  0  0  0  0  0  0  0  0  # atno 8010 bound_to 7997
  139.5056  144.3450  151.9980 H   0  0  0  0  0  0  0  0  0  0  0  0  # atno 10167 bound_to 10162
  157.4283  131.1046  151.0278 H   0  0  0  0  0  0  0  0  0  0  0  0  # atno 10718 bound_to 10713
  154.2655  135.2767  155.2760 H   0  0  0  0  0  0  0  0  0  0  0  0  # atno 10763 bound_to 10752
  154.5347  135.5719  153.6792 H   0  0  0  0  0  0  0  0  0  0  0  0  # atno 10764 bound_to 10752
  152.9954  135.6236  154.2807 H   0  0  0  0  0  0  0  0  0  0  0  0  # atno 10765 bound_to 10752
  141.1318  133.8301  157.0937 H   0  0  0  0  0  0  0  0  0  0  0  0  # atno 11005 bound_to 11000
  145.9179  139.2527  143.1399 LP  0  0  0  0  0  0  0  0  0  0  0  0  # atno 17320 bound_to 7965
  145.9650  140.8805  143.0191 LP  0  0  0  0  0  0  0  0  0  0  0  0  # atno 17321 bound_to 7965
  140.2887  144.3778  150.6095 LP  0  0  0  0  0  0  0  0  0  0  0  0  # atno 17342 bound_to 10162
  140.5963  143.2167  151.7158 LP  0  0  0  0  0  0  0  0  0  0  0  0  # atno 17343 bound_to 10162
  157.1184  130.6051  149.5499 LP  0  0  0  0  0  0  0  0  0  0  0  0  # atno 17370 bound_to 10713
  155.9904  130.4955  150.7256 LP  0  0  0  0  0  0  0  0  0  0  0  0  # atno 17371 bound_to 10713
  140.0376  134.9870  157.0901 LP  0  0  0  0  0  0  0  0  0  0  0  0  # atno 17394 bound_to 11000
  140.4186  134.1905  155.7164 LP  0  0  0  0  0  0  0  0  0  0  0  0  # atno 17395 bound_to 11000

$$$$
