#       Name:                AV-unprocessed.smi:2451
#       Creating user name   scv26
#       Creation time:       Fri Mar 27 13:31:54 2020


#       File generated by GOLD software.
#

@<TRIPOS>MOLECULE
AV-unprocessed.smi:2451
    41    42     1
SMALL
NO_CHARGES


@<TRIPOS>ATOM
      1 ****        -3.0557  -1.6182   2.3460 C.3            1 S1                 0.0000
      2 ****        -2.5865  -0.7118   1.1917 C.3            1 S1                 0.0000
      3 ****        -2.9103  -1.4103  -0.1521 C.3            1 S1                 0.0000
      4 ****        -2.4506  -0.5366  -1.3313 C.3            1 S1                 0.0000
      5 ****        -0.9515  -0.1842  -1.2343 C.3            1 S1                 0.0000
      6 ****        -0.5752   0.5331   0.0848 C.3            1 S1                 0.0000
      7 ****         0.8710   0.7029   0.1369 N.pl3          1 S1                -1.0000
      8 ****         1.5405   2.0784  -0.4036 S.o2           1 S1                 0.0000
      9 ****         1.3117   2.3005  -1.8412 O.2            1 S1                 0.0000
     10 ****         1.2770   3.2095   0.5007 O.2            1 S1                 0.0000
     11 ****         3.3359   1.6894  -0.2105 C.3            1 S1                 0.0000
     12 ****         3.8263   0.8504  -1.3597 C.2            1 S1                 0.0000
     13 ****         3.5238  -0.5075  -1.6589 C.2            1 S1                 0.0000
     14 ****         4.2367  -0.7513  -2.7968 C.2            1 S1                 0.0000
     15 ****         4.9310   0.3534  -3.1682 O.3            1 S1                 0.0000
     16 ****         4.6658   1.3696  -2.2433 N.2            1 S1                 0.0000
     17 ****        -1.0761  -0.2970   1.3153 C.3            1 S1                 0.0000
     18 ****        -0.8115   0.4454   2.6525 C.3            1 S1                 0.0000
     19 ****        -2.4253  -2.5032   2.4364 H              1 S1                 0.0000
     20 ****        -4.0795  -1.9572   2.1860 H              1 S1                 0.0000
     21 ****        -3.0482  -1.0983   3.3030 H              1 S1                 0.0000
     22 ****        -3.1963   0.1932   1.2381 H              1 S1                 0.0000
     23 ****        -2.4099  -2.3785  -0.1985 H              1 S1                 0.0000
     24 ****        -3.9799  -1.6058  -0.2342 H              1 S1                 0.0000
     25 ****        -2.6387  -1.0634  -2.2672 H              1 S1                 0.0000
     26 ****        -3.0542   0.3724  -1.3746 H              1 S1                 0.0000
     27 ****        -0.3705  -1.1030  -1.3299 H              1 S1                 0.0000
     28 ****        -0.6766   0.4372  -2.0872 H              1 S1                 0.0000
     29 ****        -1.0926   1.4935   0.1051 H              1 S1                 0.0000
     30 ****         3.8716   2.6378  -0.1708 H              1 S1                 0.0000
     31 ****         3.4867   1.1908   0.7464 H              1 S1                 0.0000
     32 ****         2.8785  -1.1898  -1.1255 H              1 S1                 0.0000
     33 ****         4.3508  -1.6191  -3.4291 H              1 S1                 0.0000
     34 ****        -0.4946  -1.2205   1.3395 H              1 S1                 0.0000
     35 ****        -1.4270   1.3415   2.7495 H              1 S1                 0.0000
     36 ****         0.2305   0.7469   2.7755 H              1 S1                 0.0000
     37 ****        -1.0276  -0.1903   3.5098 H              1 S1                 0.0000
     38 ****         1.4489  -0.0258   0.5045 LP             1 S1                 0.0000
     39 ****         4.6429   0.6431  -4.0809 LP             1 S1                 0.0000
     40 ****         5.9102   0.1506  -3.1765 LP             1 S1                 0.0000
     41 ****         5.0350   2.2989  -2.2483 LP             1 S1                 0.0000
@<TRIPOS>BOND
    1    1    2 1     
    2    1   19 1     
    3    1   20 1     
    4    1   21 1     
    5    2   17 1     
    6    2    3 1     
    7    2   22 1     
    8    3    4 1     
    9    3   23 1     
   10    3   24 1     
   11    4    5 1     
   12    4   25 1     
   13    4   26 1     
   14    5    6 1     
   15    5   27 1     
   16    5   28 1     
   17    6    7 1     
   18    6   17 1     
   19    6   29 1     
   20    7    8 1     
   21    8    9 2     
   22    8   10 2     
   23    8   11 1     
   24   11   12 1     
   25   11   30 1     
   26   11   31 1     
   27   12   16 2     
   28   12   13 1     
   29   13   14 2     
   30   13   32 1     
   31   14   15 1     
   32   14   33 1     
   33   15   16 1     
   34   17   18 1     
   35   17   34 1     
   36   18   35 1     
   37   18   36 1     
   38   18   37 1     
   39    7   38 1     
   40   15   39 1     
   41   15   40 1     
   42   16   41 1     
@<TRIPOS>SUBSTRUCTURE
      1 S1             1
@<TRIPOS>SET
LONE_PAIRS      STATIC     ATOMS    <user>   **** ""
6 38 9 10 39 40 41
ATOM$BLUE        STATIC     ATOMS    COLORGROUP SYSTEM
6 38 9 10 39 40 41
