AV-unprocessed.smi:690|AV-procd|sdf|3361|dock8
  -GOLD-   22720 0343D 1   1.00000     0.00000
 Structure written by MMmdl.
 46 48  0  0  0  0  0  0  0  0  1 V2000
  147.1313  141.0324  154.6035 C   0  0  0  0  0  0  0  0  0  0  0  0
  148.5722  140.5463  154.7715 C   0  0  0  0  0  0  0  0  0  0  0  0
  148.8148  140.3101  156.1480 O   0  0  0  0  0  0  0  0  0  0  0  0
  150.1957  140.3357  156.4858 C   0  0  1  0  0  0  0  0  0  0  0  0
  150.3519  140.3792  158.0094 C   0  0  0  0  0  0  0  0  0  0  0  0
  150.4815  138.8529  157.9947 C   0  0  1  0  0  0  0  0  0  0  0  0
  149.1836  138.2124  158.2072 N   0  0  0  0  0  0  0  0  0  0  0  0
  148.9702  137.1569  159.0049 C   0  0  0  0  0  0  0  0  0  0  0  0
  149.8651  136.6020  159.6437 O   0  0  0  0  0  0  0  0  0  0  0  0
  147.5280  136.6352  159.0618 C   0  0  0  0  0  0  0  0  0  0  0  0
  147.3233  135.6316  160.1191 N   0  0  0  0  0  0  0  0  0  0  0  0
  147.4980  134.2785  159.7653 C   0  0  0  0  0  0  0  0  0  0  0  0
  147.3408  133.2861  160.6557 C   0  0  0  0  0  0  0  0  0  0  0  0
  146.9829  133.6348  162.0102 C   0  0  0  0  0  0  0  0  0  0  0  0
  146.8154  134.9257  162.3596 C   0  0  0  0  0  0  0  0  0  0  0  0
  146.9858  136.0136  161.3897 C   0  0  0  0  0  0  0  0  0  0  0  0
  146.8346  137.1957  161.7003 O   0  0  0  0  0  0  0  0  0  0  0  0
  150.8848  138.9437  156.5008 C   0  0  0  0  0  0  0  0  0  0  0  0
  152.3833  138.9621  156.2000 C   0  0  0  0  0  0  0  0  0  0  0  0
  152.5387  138.7351  154.6956 C   0  0  0  0  0  0  0  0  0  0  0  0
  151.2965  137.9486  154.2716 C   0  0  0  0  0  0  0  0  0  0  0  0
  150.4113  137.8653  155.5198 C   0  0  0  0  0  0  0  0  0  0  0  0
  146.9060  141.2313  153.5556 H   0  0  0  0  0  0  0  0  0  0  0  0
  146.9606  141.9521  155.1636 H   0  0  0  0  0  0  0  0  0  0  0  0
  146.4236  140.2844  154.9622 H   0  0  0  0  0  0  0  0  0  0  0  0
  148.7267  139.6373  154.1905 H   0  0  0  0  0  0  0  0  0  0  0  0
  149.2686  141.2974  154.3963 H   0  0  0  0  0  0  0  0  0  0  0  0
  150.7583  141.1264  155.9857 H   0  0  0  0  0  0  0  0  0  0  0  0
  151.2731  140.8735  158.3212 H   0  0  0  0  0  0  0  0  0  0  0  0
  149.4901  140.7707  158.5518 H   0  0  0  0  0  0  0  0  0  0  0  0
  151.2761  138.4894  158.6487 H   0  0  0  0  0  0  0  0  0  0  0  0
  148.3973  138.5989  157.7045 H   0  0  0  0  0  0  0  0  0  0  0  0
  146.8379  137.4702  159.1998 H   0  0  0  0  0  0  0  0  0  0  0  0
  147.2809  136.2205  158.0837 H   0  0  0  0  0  0  0  0  0  0  0  0
  147.7730  134.1032  158.7354 H   0  0  0  0  0  0  0  0  0  0  0  0
  147.4827  132.2547  160.3682 H   0  0  0  0  0  0  0  0  0  0  0  0
  146.8507  132.8569  162.7478 H   0  0  0  0  0  0  0  0  0  0  0  0
  146.5496  135.1677  163.3783 H   0  0  0  0  0  0  0  0  0  0  0  0
  152.8652  139.8893  156.5118 H   0  0  0  0  0  0  0  0  0  0  0  0
  152.8796  138.1540  156.7393 H   0  0  0  0  0  0  0  0  0  0  0  0
  152.5604  139.6937  154.1760 H   0  0  0  0  0  0  0  0  0  0  0  0
  153.4639  138.2096  154.4572 H   0  0  0  0  0  0  0  0  0  0  0  0
  150.7822  138.4665  153.4618 H   0  0  0  0  0  0  0  0  0  0  0  0
  151.5544  136.9527  153.9099 H   0  0  0  0  0  0  0  0  0  0  0  0
  150.5365  136.8802  155.9713 H   0  0  0  0  0  0  0  0  0  0  0  0
  149.3548  137.9513  155.2668 H   0  0  0  0  0  0  0  0  0  0  0  0
  1  2  1  0  0  0  0
  1 23  1  0  0  0  0
  1 24  1  0  0  0  0
  1 25  1  0  0  0  0
  2  3  1  0  0  0  0
  2 26  1  0  0  0  0
  2 27  1  0  0  0  0
  3  4  1  0  0  0  0
  4 18  1  0  0  0  0
  4  5  1  0  0  0  0
  4 28  1  0  0  0  0
  5  6  1  0  0  0  0
  5 29  1  0  0  0  0
  5 30  1  0  0  0  0
  6  7  1  0  0  0  0
  6 18  1  0  0  0  0
  6 31  1  0  0  0  0
  7  8  1  0  0  0  0
  7 32  1  0  0  0  0
  8  9  2  0  0  0  0
  8 10  1  0  0  0  0
 10 11  1  0  0  0  0
 10 33  1  0  0  0  0
 10 34  1  0  0  0  0
 11 16  1  0  0  0  0
 11 12  1  0  0  0  0
 12 13  2  0  0  0  0
 12 35  1  0  0  0  0
 13 14  1  0  0  0  0
 13 36  1  0  0  0  0
 14 15  2  0  0  0  0
 14 37  1  0  0  0  0
 15 16  1  0  0  0  0
 15 38  1  0  0  0  0
 16 17  2  0  0  0  0
 18 22  1  0  0  0  0
 18 19  1  0  0  0  0
 19 20  1  0  0  0  0
 19 39  1  0  0  0  0
 19 40  1  0  0  0  0
 20 21  1  0  0  0  0
 20 41  1  0  0  0  0
 20 42  1  0  0  0  0
 21 22  1  0  0  0  0
 21 43  1  0  0  0  0
 21 44  1  0  0  0  0
 22 45  1  0  0  0  0
 22 46  1  0  0  0  0
M  END
> <s_m_source_file>
AV-unprocessed.smi

> <i_m_source_file_index>
690

> <i_lp_mmshare_version>
43012

> <i_f3d_flags>
0

> <s_epik_input>
W0NIMl0xW0NIMl1bQ0gyXVtDSDJdQzEyW0NASF0oT1tDSDJdW0NIM10pW0NIMl1bQ0BIXTJbTkhdQyg9TylbQ0gyXW4zW2NIXVtjSF1bY0hdW2NIXWMzPU8=

> <s_epik_cmdline>
J2VwaWtfcHl0aG9uJywgJy1waCcsICc3LjAnLCAnLXRuJywgJzgnLCAnLW1hJywgJzIwMCcsICctbWV0YWxfYmluZGluZycsICctaW1hZScsICc8aW5maWxlLm1hZT4nLCAnLW9tYWUnLCAnPG91dGZpbGUubWFlPic=

> <r_lp_tautomer_probability>
1

> <r_epik_Ionization_Penalty>
4.11691e-07

> <r_epik_Ionization_Penalty_Charging>
3.92797e-07

> <r_epik_Ionization_Penalty_Neutral>
1.88943e-08

> <r_epik_State_Penalty>
-0

> <r_epik_Charging_Adjusted_Penalty>
3.92797e-07

> <i_epik_Tot_Q>
0

> <i_epik_Tot_abs_Q>
0

> <r_epik_Metal_State_Penalty>
-0

> <b_epik_Metal_Only>
0

> <s_lp_Force_Field>
OPLS_2005

> <r_lp_Energy>
47.4249

> <b_lp_Chiralities_Consistent>
1

> <s_lp_Variant>
AV-unprocessed.smi:690-2

> <Gold.Version>
5.8.1

> <Gold.Id.Protein>
6NUR|6NUR_protein|mol2

> <Gold.PLP.Fitness>
45.6296

> <Gold.PLP.PLP>
-39.8861

> <Gold.PLP.part.hbond>
-3.2387

> <Gold.PLP.part.metal>
0.0000

> <Gold.PLP.part.buried>
-5.0160

> <Gold.PLP.part.nonpolar>
-32.7957

> <Gold.PLP.part.repulsive>
0.1682

> <Gold.PLP.ligand.clash>
0.0000

> <Gold.PLP.ligand.torsion>
0.9800

> <Gold.PLP.Chemscore.Hbond>
2.4340

> <Gold.PLP.Chemscore.CHOScore>
0.0000

> <Gold.PLP.Chemscore.Metal>
0.0000

> <Gold.Chemscore.Hbonds>
donor molecule, donor type, donor heavy atom, donor atom, acceptor molecule, acceptor atom, score
      P1  H  6896  6909       L1     9  1.00
      P1  H  6934  6947       L1    17  0.99

> <Gold.PLP.Chemscore.Internal.Correction>
0.4015

> <Gold.Rescore>
     Score         DG    S(hbond)    S(metal)    S(lipo)     H(rot)  DE(clash)    DE(int)     intcor
     19.02     -20.17       2.58        0.00      88.81       1.69       0.01       1.14       ----

> <Gold.Chemscore.Fitness>
19.0218

> <Gold.Chemscore.DG>
-20.1739

> <Gold.Chemscore.ZeroCoef>
-5.4800

> <Gold.Chemscore.Hbond>
2.5838

> <Gold.Chemscore.Metal>
0.0000

> <Gold.Chemscore.Lipo>
88.8081

> <Gold.Chemscore.Internal_Hbond>
0.0000

> <Gold.Chemscore.DEClash>
0.0089

> <Gold.Chemscore.DEInternal>
1.1432

> <Gold.Chemscore.Rot>
1.6900

> <Gold.Chemscore.Internal.Correction>
   9.000000E+99

> <Gold.Chemscore.Hbonds>
donor molecule, donor type, donor heavy atom, donor atom, acceptor molecule, acceptor atom, score
      P1  H  6896  6909       L1     9  0.99
      P1  H  6931  6943       L1    17  0.04
      P1  H  6934  6947       L1    17  0.90

> <Gold.Chemscore.Hbond.Weighted>
-8.6298

> <Gold.Chemscore.Metal.Weighted>
-0.0000

> <Gold.Chemscore.Lipo.Weighted>
-10.3905

> <Gold.Chemscore.Internal_Hbond.Weighted>
0.0000

> <Gold.Chemscore.DEClash.Weighted>
0.0089

> <Gold.Chemscore.DEInternal.Weighted>
1.1432

> <Gold.Chemscore.Rot.Weighted>
4.3265

> <Gold.Chemscore.Internal.Correction.Weighted>
   9.000000E+99

> <Gold.Protein.RotatedTorsions>
[ 6907 6896 6895 6894 ] final   88.39 input  -60.11 | X-H torsion
[ 7974 7965 7964 7962 ] final  153.87 input  175.53 | X-H torsion
[ 8008 7997 7996 7995 ] final   14.07 input   59.86 | X-H torsion
[ 10167 10162 10161 10158 ] final    7.97 input  -65.29 | X-H torsion
[ 10718 10713 10712 10709 ] final -151.94 input   66.30 | X-H torsion
[ 10763 10752 10751 10750 ] final  135.47 input  -60.55 | X-H torsion
[ 11005 11000 10999 10996 ] final   10.70 input  -57.11 | X-H torsion

> <Gold.Protein.ActiveResidues>
 VAL166  LYS551  ARG553  GLY616  TRP617  ASP618  TYR619  PRO620  LYS621  CYS622 
 ASP623  PHE694  ASN695  SER759  ASP760  ASP761  ALA762  ILE779  LEU786  VAL792 
 PHE793  MET794  SER795  GLU796  ALA797  LYS798  CYS799  TRP800  GLU811  SER814 

> <Gold.Protein.RotatedAtoms>
  152.5424  134.2128  159.8756 H   0  0  0  0  0  0  0  0  0  0  0  0  # atno 6907 bound_to 6896
  151.2110  133.4549  159.2606 H   0  0  0  0  0  0  0  0  0  0  0  0  # atno 6908 bound_to 6896
  151.0897  134.9921  159.8452 H   0  0  0  0  0  0  0  0  0  0  0  0  # atno 6909 bound_to 6896
  144.8126  139.6858  143.6135 H   0  0  0  0  0  0  0  0  0  0  0  0  # atno 7974 bound_to 7965
  154.8433  140.2918  155.5645 H   0  0  0  0  0  0  0  0  0  0  0  0  # atno 8008 bound_to 7997
  156.3013  140.2510  156.3310 H   0  0  0  0  0  0  0  0  0  0  0  0  # atno 8009 bound_to 7997
  154.9102  140.0389  157.1931 H   0  0  0  0  0  0  0  0  0  0  0  0  # atno 8010 bound_to 7997
  140.6341  143.7926  150.7335 H   0  0  0  0  0  0  0  0  0  0  0  0  # atno 10167 bound_to 10162
  156.4659  130.8235  151.2466 H   0  0  0  0  0  0  0  0  0  0  0  0  # atno 10718 bound_to 10713
  153.8405  135.3092  155.3426 H   0  0  0  0  0  0  0  0  0  0  0  0  # atno 10763 bound_to 10752
  154.7934  135.4769  154.0109 H   0  0  0  0  0  0  0  0  0  0  0  0  # atno 10764 bound_to 10752
  153.1578  135.6855  153.8878 H   0  0  0  0  0  0  0  0  0  0  0  0  # atno 10765 bound_to 10752
  140.5115  134.0647  155.7819 H   0  0  0  0  0  0  0  0  0  0  0  0  # atno 11005 bound_to 11000
  146.2426  139.6032  142.9481 LP  0  0  0  0  0  0  0  0  0  0  0  0  # atno 17320 bound_to 7965
  145.5289  141.0428  143.2394 LP  0  0  0  0  0  0  0  0  0  0  0  0  # atno 17321 bound_to 7965
  140.1544  143.4330  152.2110 LP  0  0  0  0  0  0  0  0  0  0  0  0  # atno 17342 bound_to 10162
  139.5553  144.7368  151.4313 LP  0  0  0  0  0  0  0  0  0  0  0  0  # atno 17343 bound_to 10162
  157.7495  131.0092  150.3257 LP  0  0  0  0  0  0  0  0  0  0  0  0  # atno 17370 bound_to 10713
  156.3668  130.3856  149.7207 LP  0  0  0  0  0  0  0  0  0  0  0  0  # atno 17371 bound_to 10713
  141.1383  133.9183  157.2385 LP  0  0  0  0  0  0  0  0  0  0  0  0  # atno 17394 bound_to 11000
  139.9656  135.0143  156.9377 LP  0  0  0  0  0  0  0  0  0  0  0  0  # atno 17395 bound_to 11000

$$$$
