AV-unprocessed.smi:1990|AV-procd|sdf|8062|dock6
  -GOLD-   2272010263D 1   1.00000     0.00000
 Structure written by MMmdl.
 46 47  0  0  0  0  0  0  0  0  1 V2000
  151.8162  144.9681  158.7004 C   0  0  0  0  0  0  0  0  0  0  0  0
  152.2873  143.5662  158.3012 C   0  0  2  0  0  0  0  0  0  0  0  0
  151.2531  142.8341  157.4244 C   0  0  0  0  0  0  0  0  0  0  0  0
  151.7011  141.4743  157.1534 N   0  0  0  0  0  0  0  0  0  0  0  0
  150.8740  140.7793  156.2597 C   0  0  0  0  0  0  0  0  0  0  0  0
  149.4898  140.7146  156.5189 C   0  0  0  0  0  0  0  0  0  0  0  0
  148.6608  140.0180  155.6188 C   0  0  0  0  0  0  0  0  0  0  0  0
  149.2441  139.4133  154.4798 C   0  0  0  0  0  0  0  0  0  0  0  0
  148.5209  138.6672  153.5110 N   0  0  0  0  0  0  0  0  0  0  0  0
  147.2348  138.8016  153.1363 C   0  0  0  0  0  0  0  0  0  0  0  0
  146.4740  139.6705  153.5620 O   0  0  0  0  0  0  0  0  0  0  0  0
  146.7402  137.8015  152.0820 C   0  0  2  0  0  0  0  0  0  0  0  0
  146.2475  138.5073  150.8079 C   0  0  0  0  0  0  0  0  0  0  0  0
  145.3836  136.7542  152.7898 S   0  0  0  0  0  0  0  0  0  0  0  0
  144.9490  135.6349  151.3923 C   0  0  0  0  0  0  0  0  0  0  0  0
  145.9320  135.9309  153.8787 O   0  0  0  0  0  0  0  0  0  0  0  0
  144.2284  137.6246  153.0569 O   0  0  0  0  0  0  0  0  0  0  0  0
  150.6412  139.5230  154.3221 C   0  0  0  0  0  0  0  0  0  0  0  0
  151.4414  140.1899  155.1804 N   0  0  0  0  0  0  0  0  0  0  0  0
  151.9929  140.7325  158.3735 C   0  0  0  0  0  0  0  0  0  0  0  0
  153.0129  141.5058  159.2313 C   0  0  2  0  0  0  0  0  0  0  0  0
  153.2767  140.8166  160.5741 C   0  0  0  0  0  0  0  0  0  0  0  0
  152.5057  142.8129  159.4921 O   0  0  0  0  0  0  0  0  0  0  0  0
  151.6404  145.5886  157.8215 H   0  0  0  0  0  0  0  0  0  0  0  0
  152.5637  145.4685  159.3166 H   0  0  0  0  0  0  0  0  0  0  0  0
  150.8883  144.9246  159.2717 H   0  0  0  0  0  0  0  0  0  0  0  0
  153.2301  143.6574  157.7586 H   0  0  0  0  0  0  0  0  0  0  0  0
  150.2859  142.8091  157.9290 H   0  0  0  0  0  0  0  0  0  0  0  0
  151.1126  143.3681  156.4836 H   0  0  0  0  0  0  0  0  0  0  0  0
  149.0681  141.1861  157.3947 H   0  0  0  0  0  0  0  0  0  0  0  0
  147.6047  139.9503  155.8280 H   0  0  0  0  0  0  0  0  0  0  0  0
  149.0597  137.9771  153.0080 H   0  0  0  0  0  0  0  0  0  0  0  0
  147.5554  137.1295  151.8111 H   0  0  0  0  0  0  0  0  0  0  0  0
  147.0122  139.1687  150.3989 H   0  0  0  0  0  0  0  0  0  0  0  0
  145.3544  139.1034  150.9990 H   0  0  0  0  0  0  0  0  0  0  0  0
  145.9971  137.7802  150.0354 H   0  0  0  0  0  0  0  0  0  0  0  0
  144.0913  135.0249  151.6747 H   0  0  0  0  0  0  0  0  0  0  0  0
  145.7896  134.9801  151.1638 H   0  0  0  0  0  0  0  0  0  0  0  0
  144.6957  136.2272  150.5135 H   0  0  0  0  0  0  0  0  0  0  0  0
  151.1344  139.0649  153.4771 H   0  0  0  0  0  0  0  0  0  0  0  0
  151.0725  140.5772  158.9385 H   0  0  0  0  0  0  0  0  0  0  0  0
  152.3860  139.7475  158.1186 H   0  0  0  0  0  0  0  0  0  0  0  0
  153.9582  141.5909  158.6923 H   0  0  0  0  0  0  0  0  0  0  0  0
  153.6731  139.8114  160.4283 H   0  0  0  0  0  0  0  0  0  0  0  0
  152.3616  140.7344  161.1614 H   0  0  0  0  0  0  0  0  0  0  0  0
  154.0019  141.3778  161.1638 H   0  0  0  0  0  0  0  0  0  0  0  0
  1  2  1  0  0  0  0
  1 24  1  0  0  0  0
  1 25  1  0  0  0  0
  1 26  1  0  0  0  0
  2 23  1  0  0  0  0
  2  3  1  0  0  0  0
  2 27  1  0  0  0  0
  3  4  1  0  0  0  0
  3 28  1  0  0  0  0
  3 29  1  0  0  0  0
  4  5  1  0  0  0  0
  4 20  1  0  0  0  0
  5 19  1  0  0  0  0
  5  6  2  0  0  0  0
  6  7  1  0  0  0  0
  6 30  1  0  0  0  0
  7  8  2  0  0  0  0
  7 31  1  0  0  0  0
  8  9  1  0  0  0  0
  8 18  1  0  0  0  0
  9 10  1  0  0  0  0
  9 32  1  0  0  0  0
 10 11  2  0  0  0  0
 10 12  1  0  0  0  0
 12 13  1  0  0  0  0
 12 14  1  0  0  0  0
 12 33  1  0  0  0  0
 13 34  1  0  0  0  0
 13 35  1  0  0  0  0
 13 36  1  0  0  0  0
 14 15  1  0  0  0  0
 14 16  2  0  0  0  0
 14 17  2  0  0  0  0
 15 37  1  0  0  0  0
 15 38  1  0  0  0  0
 15 39  1  0  0  0  0
 18 19  2  0  0  0  0
 18 40  1  0  0  0  0
 20 21  1  0  0  0  0
 20 41  1  0  0  0  0
 20 42  1  0  0  0  0
 21 22  1  0  0  0  0
 21 23  1  0  0  0  0
 21 43  1  0  0  0  0
 22 44  1  0  0  0  0
 22 45  1  0  0  0  0
 22 46  1  0  0  0  0
M  END
> <s_m_source_file>
AV-unprocessed.smi

> <i_m_source_file_index>
1990

> <i_lp_mmshare_version>
43012

> <i_f3d_flags>
0

> <s_epik_input>
W0NIM11bQ0BASF0xW0NIMl1OKFtDSDJdW0NASF0oTzEpW0NIM10pYzJbY0hdW2NIXWMoW2NIXW4yKVtOSF1DKD1PKVtDQEhdKFtDSDNdKVMoPU8pKD1PKVtDSDNd

> <s_epik_cmdline>
J2VwaWtfcHl0aG9uJywgJy1waCcsICc3LjAnLCAnLXRuJywgJzgnLCAnLW1hJywgJzIwMCcsICctbWV0YWxfYmluZGluZycsICctaW1hZScsICc8aW5maWxlLm1hZT4nLCAnLW9tYWUnLCAnPG91dGZpbGUubWFlPic=

> <r_lp_tautomer_probability>
1

> <r_epik_Ionization_Penalty>
0.000334888

> <r_epik_Ionization_Penalty_Charging>
0

> <r_epik_Ionization_Penalty_Neutral>
0.000334888

> <r_epik_State_Penalty>
0.000200905

> <r_epik_Charging_Adjusted_Penalty>
0.000200905

> <i_epik_Tot_Q>
0

> <i_epik_Tot_abs_Q>
0

> <r_epik_Metal_State_Penalty>
-0

> <b_epik_Metal_Only>
0

> <s_lp_Force_Field>
OPLS_2005

> <r_lp_Energy>
20.1561

> <b_lp_Chiralities_Consistent>
1

> <s_lp_Variant>
AV-unprocessed.smi:1990-2

> <Gold.Version>
5.8.1

> <Gold.Id.Protein>
6NUR|6NUR_protein|mol2

> <Gold.PLP.Fitness>
36.5411

> <Gold.PLP.PLP>
-34.6452

> <Gold.PLP.part.hbond>
-3.0000

> <Gold.PLP.part.metal>
0.0000

> <Gold.PLP.part.buried>
4.9507

> <Gold.PLP.part.nonpolar>
-38.4599

> <Gold.PLP.part.repulsive>
1.1952

> <Gold.PLP.ligand.clash>
0.0000

> <Gold.PLP.ligand.torsion>
0.5525

> <Gold.PLP.Chemscore.Hbond>
0.8744

> <Gold.PLP.Chemscore.CHOScore>
0.0392

> <Gold.PLP.Chemscore.Metal>
0.0000

> <Gold.Chemscore.Hbonds>
donor molecule, donor type, donor heavy atom, donor atom, acceptor molecule, acceptor atom, score
      L1  H     9    32       P1  7948  0.84
      L1  C    18    40       P1  7957  0.02

> <Gold.PLP.Chemscore.Internal.Correction>
0.2604

> <Gold.Rescore>
     Score         DG    S(hbond)    S(metal)    S(lipo)     H(rot)  DE(clash)    DE(int)     intcor
     11.77     -16.83       0.83        0.00     106.56       1.52       3.76       1.30       ----

> <Gold.Chemscore.Fitness>
11.7729

> <Gold.Chemscore.DG>
-16.8317

> <Gold.Chemscore.ZeroCoef>
-5.4800

> <Gold.Chemscore.Hbond>
0.8291

> <Gold.Chemscore.Metal>
0.0000

> <Gold.Chemscore.Lipo>
106.5624

> <Gold.Chemscore.Internal_Hbond>
0.0000

> <Gold.Chemscore.DEClash>
3.7550

> <Gold.Chemscore.DEInternal>
1.3038

> <Gold.Chemscore.Rot>
1.5177

> <Gold.Chemscore.Internal.Correction>
   9.000000E+99

> <Gold.Chemscore.Hbonds>
donor molecule, donor type, donor heavy atom, donor atom, acceptor molecule, acceptor atom, score
      L1  H     9    32       P1  7948  0.79

> <Gold.Chemscore.Hbond.Weighted>
-2.7692

> <Gold.Chemscore.Metal.Weighted>
-0.0000

> <Gold.Chemscore.Lipo.Weighted>
-12.4678

> <Gold.Chemscore.Internal_Hbond.Weighted>
0.0000

> <Gold.Chemscore.DEClash.Weighted>
3.7550

> <Gold.Chemscore.DEInternal.Weighted>
1.3038

> <Gold.Chemscore.Rot.Weighted>
3.8853

> <Gold.Chemscore.Internal.Correction.Weighted>
   9.000000E+99

> <Gold.Protein.RotatedTorsions>
[ 6907 6896 6895 6894 ] final -150.28 input  -60.11 | X-H torsion
[ 7974 7965 7964 7962 ] final  172.23 input  175.53 | X-H torsion
[ 8008 7997 7996 7995 ] final -127.55 input   59.86 | X-H torsion
[ 10167 10162 10161 10158 ] final -141.12 input  -65.29 | X-H torsion
[ 10718 10713 10712 10709 ] final  -16.77 input   66.30 | X-H torsion
[ 10763 10752 10751 10750 ] final  -67.49 input  -60.55 | X-H torsion
[ 11005 11000 10999 10996 ] final  144.21 input  -57.11 | X-H torsion

> <Gold.Protein.ActiveResidues>
 VAL166  LYS551  ARG553  GLY616  TRP617  ASP618  TYR619  PRO620  LYS621  CYS622 
 ASP623  PHE694  ASN695  SER759  ASP760  ASP761  ALA762  ILE779  LEU786  VAL792 
 PHE793  MET794  SER795  GLU796  ALA797  LYS798  CYS799  TRP800  GLU811  SER814 

> <Gold.Protein.RotatedAtoms>
  151.1962  133.4638  159.2595 H   0  0  0  0  0  0  0  0  0  0  0  0  # atno 6907 bound_to 6896
  151.1114  135.0029  159.8506 H   0  0  0  0  0  0  0  0  0  0  0  0  # atno 6908 bound_to 6896
  152.5450  134.1881  159.8716 H   0  0  0  0  0  0  0  0  0  0  0  0  # atno 6909 bound_to 6896
  144.7273  139.9467  143.6430 H   0  0  0  0  0  0  0  0  0  0  0  0  # atno 7974 bound_to 7965
  155.2480  140.0431  157.2983 H   0  0  0  0  0  0  0  0  0  0  0  0  # atno 8008 bound_to 7997
  154.5787  140.2394  155.8055 H   0  0  0  0  0  0  0  0  0  0  0  0  # atno 8009 bound_to 7997
  156.2177  140.2979  155.9885 H   0  0  0  0  0  0  0  0  0  0  0  0  # atno 8010 bound_to 7997
  139.8215  143.7567  152.2666 H   0  0  0  0  0  0  0  0  0  0  0  0  # atno 10167 bound_to 10162
  156.5829  130.4778  149.6313 H   0  0  0  0  0  0  0  0  0  0  0  0  # atno 10718 bound_to 10713
  154.3752  135.6086  153.5761 H   0  0  0  0  0  0  0  0  0  0  0  0  # atno 10763 bound_to 10752
  152.9789  135.5847  154.4475 H   0  0  0  0  0  0  0  0  0  0  0  0  # atno 10764 bound_to 10752
  154.4236  135.2846  155.1937 H   0  0  0  0  0  0  0  0  0  0  0  0  # atno 10765 bound_to 10752
  140.0614  134.9202  157.1191 H   0  0  0  0  0  0  0  0  0  0  0  0  # atno 11005 bound_to 11000
  146.0743  139.3731  143.0504 LP  0  0  0  0  0  0  0  0  0  0  0  0  # atno 17320 bound_to 7965
  145.7926  140.9807  143.1041 LP  0  0  0  0  0  0  0  0  0  0  0  0  # atno 17321 bound_to 7965
  139.7747  144.7465  151.0174 LP  0  0  0  0  0  0  0  0  0  0  0  0  # atno 17342 bound_to 10162
  140.7813  143.4607  151.0282 LP  0  0  0  0  0  0  0  0  0  0  0  0  # atno 17343 bound_to 10162
  156.2616  130.6966  151.1736 LP  0  0  0  0  0  0  0  0  0  0  0  0  # atno 17370 bound_to 10713
  157.7322  131.0601  150.5639 LP  0  0  0  0  0  0  0  0  0  0  0  0  # atno 17371 bound_to 10713
  140.3764  134.2334  155.7174 LP  0  0  0  0  0  0  0  0  0  0  0  0  # atno 17394 bound_to 11000
  141.1975  133.8058  157.0626 LP  0  0  0  0  0  0  0  0  0  0  0  0  # atno 17395 bound_to 11000

$$$$
