#       Name:                AV-unprocessed.smi:2351
#       Creating user name   scv26
#       Creation time:       Fri Mar 27 13:00:10 2020


#       File generated by GOLD software.
#

@<TRIPOS>MOLECULE
AV-unprocessed.smi:2351
    52    54     1
SMALL
NO_CHARGES


@<TRIPOS>ATOM
      1 ****        -2.3062   2.3330  -1.3590 O.2            1 S1                 0.0000
      2 ****        -2.7783   1.2384  -1.0531 C.2            1 S1                 0.0000
      3 ****        -4.0862   0.9626  -0.9120 N.am           1 S1                 0.0000
      4 ****        -5.2050   1.8219  -1.0917 C.ar           1 S1                 0.0000
      5 ****        -5.1399   3.2359  -1.0501 C.ar           1 S1                 0.0000
      6 ****        -6.3288   3.9715  -1.2297 C.ar           1 S1                 0.0000
      7 ****        -7.5347   3.3998  -1.4328 N.ar           1 S1                 0.0000
      8 ****        -7.5950   2.0517  -1.4584 C.ar           1 S1                 0.0000
      9 ****        -6.4674   1.2233  -1.2893 C.ar           1 S1                 0.0000
     10 ****        -6.5987  -0.1250  -1.3219 F              1 S1                 0.0000
     11 ****        -2.0273   0.1494  -0.8326 N.am           1 S1                 0.0000
     12 ****        -0.5724   0.0971  -0.9444 C.3            1 S1                 0.0000
     13 ****        -0.1199  -1.3433  -1.2288 C.3            1 S1                 0.0000
     14 ****         1.4140  -1.4431  -1.2789 C.3            1 S1                 0.0000
     15 ****         2.0279  -0.9444  -0.0205 N.4            1 S1                 1.0000
     16 ****         3.4992  -1.1520   0.0221 C.3            1 S1                 0.0000
     17 ****         3.9740  -1.6719   1.3925 C.3            1 S1                 0.0000
     18 ****         5.4251  -2.1109   1.3979 C.3            1 S1                 0.0000
     19 ****         5.7498  -2.1298   2.8880 C.3            1 S1                 0.0000
     20 ****         4.9367  -1.1173   3.4727 O.3            1 S1                 0.0000
     21 ****         3.9908  -0.6399   2.5218 C.3            1 S1                 0.0000
     22 ****         1.6295   0.4607   0.2593 C.3            1 S1                 0.0000
     23 ****         0.1005   0.6002   0.3451 C.3            1 S1                 0.0000
     24 ****        -4.3172  -0.0015  -0.7219 H              1 S1                 0.0000
     25 ****        -4.2177   3.7676  -0.8751 H              1 S1                 0.0000
     26 ****        -6.3105   5.0509  -1.2033 H              1 S1                 0.0000
     27 ****        -8.5719   1.6194  -1.6168 H              1 S1                 0.0000
     28 ****        -2.4979  -0.7096  -0.5876 H              1 S1                 0.0000
     29 ****        -0.2557   0.7249  -1.7799 H              1 S1                 0.0000
     30 ****        -0.5014  -2.0131  -0.4563 H              1 S1                 0.0000
     31 ****        -0.5415  -1.6885  -2.1737 H              1 S1                 0.0000
     32 ****         1.6953  -2.4849  -1.4385 H              1 S1                 0.0000
     33 ****         1.8020  -0.8746  -2.1255 H              1 S1                 0.0000
     34 ****         3.7790  -1.8994  -0.7222 H              1 S1                 0.0000
     35 ****         4.0296  -0.2422  -0.2640 H              1 S1                 0.0000
     36 ****         3.3602  -2.5224   1.6947 H              1 S1                 0.0000
     37 ****         5.5838  -3.0776   0.9189 H              1 S1                 0.0000
     38 ****         6.0486  -1.3728   0.8908 H              1 S1                 0.0000
     39 ****         5.4755  -3.0902   3.3259 H              1 S1                 0.0000
     40 ****         6.8079  -1.9568   3.0858 H              1 S1                 0.0000
     41 ****         4.3327   0.3297   2.1569 H              1 S1                 0.0000
     42 ****         3.0110  -0.5050   2.9801 H              1 S1                 0.0000
     43 ****         2.0713   0.8002   1.1949 H              1 S1                 0.0000
     44 ****         2.0183   1.1126  -0.5247 H              1 S1                 0.0000
     45 ****        -0.1611   1.6438   0.5251 H              1 S1                 0.0000
     46 ****        -0.2687   0.0363   1.2030 H              1 S1                 0.0000
     47 ****         1.6415  -1.5133   0.7193 H              1 S1                 0.0000
     48 ****        -2.9129   3.1103  -1.5255 LP             1 S1                 0.0000
     49 ****        -1.3159   2.4451  -1.4411 LP             1 S1                 0.0000
     50 ****        -8.3557   3.9563  -1.5600 LP             1 S1                 0.0000
     51 ****         5.5163  -0.3594   3.7718 LP             1 S1                 0.0000
     52 ****         4.4512  -1.4968   4.2603 LP             1 S1                 0.0000
@<TRIPOS>BOND
    1    1    2 2     
    2    2    3 am    
    3    2   11 am    
    4    3    4 1     
    5    3   24 1     
    6    4    9 ar    
    7    4    5 ar    
    8    5    6 ar    
    9    5   25 1     
   10    6    7 ar    
   11    6   26 1     
   12    7    8 ar    
   13    8    9 ar    
   14    8   27 1     
   15    9   10 1     
   16   11   12 1     
   17   11   28 1     
   18   12   23 1     
   19   12   13 1     
   20   12   29 1     
   21   13   14 1     
   22   13   30 1     
   23   13   31 1     
   24   14   15 1     
   25   14   32 1     
   26   14   33 1     
   27   15   16 1     
   28   15   22 1     
   29   15   47 1     
   30   16   17 1     
   31   16   34 1     
   32   16   35 1     
   33   17   21 1     
   34   17   18 1     
   35   17   36 1     
   36   18   19 1     
   37   18   37 1     
   38   18   38 1     
   39   19   20 1     
   40   19   39 1     
   41   19   40 1     
   42   20   21 1     
   43   21   41 1     
   44   21   42 1     
   45   22   23 1     
   46   22   43 1     
   47   22   44 1     
   48   23   45 1     
   49   23   46 1     
   50    1   48 1     
   51    1   49 1     
   52    7   50 1     
   53   20   51 1     
   54   20   52 1     
@<TRIPOS>SUBSTRUCTURE
      1 S1             1
@<TRIPOS>SET
LONE_PAIRS      STATIC     ATOMS    <user>   **** ""
5 48 49 50 51 52
DONOR_HYDROGENS      STATIC     ATOMS    <user>   **** ""
3 24 28 47
ATOM$BLUE        STATIC     ATOMS    COLORGROUP SYSTEM
5 48 49 50 51 52
ATOM$RED        STATIC     ATOMS    COLORGROUP SYSTEM
3 24 28 47
