AV-unprocessed.smi:2024|AV-procd|sdf|8191|dock10
  -GOLD-   2272010443D 1   1.00000     0.00000
 Structure written by MMmdl.
 44 45  0  0  0  0  0  0  0  0  2 V2000
  145.9471  142.3278  154.7192 C   0  0  0  0  0  0  0  0  0  0  0  0
  146.1607  141.0088  154.0801 N   0  3  0  0  0  0  0  0  0  0  0  0
  146.1022  139.8676  155.0216 C   0  0  0  0  0  0  0  0  0  0  0  0
  147.3912  139.7613  155.8610 C   0  0  0  0  0  0  0  0  0  0  0  0
  148.5646  139.5979  154.9862 N   0  0  0  0  0  0  0  0  0  0  0  0
  149.8230  139.2428  155.6980 C   0  0  0  0  0  0  0  0  0  0  0  0
  150.9933  139.1648  154.6844 C   0  0  0  0  0  0  0  0  0  0  0  0
  150.1843  140.2872  156.7816 C   0  0  0  0  0  0  0  0  0  0  0  0
  149.6884  137.8471  156.3786 C   0  0  0  0  0  0  0  0  0  0  0  0
  148.9428  137.8868  157.6374 N   0  0  0  0  0  0  0  0  0  0  0  0
  148.9698  136.9470  158.5936 C   0  0  0  0  0  0  0  0  0  0  0  0
  149.6503  135.9235  158.5232 O   0  0  0  0  0  0  0  0  0  0  0  0
  148.1568  137.2705  159.6145 N   0  0  0  0  0  0  0  0  0  0  0  0
  147.9070  136.5372  160.8041 C   0  0  0  0  0  0  0  0  0  0  0  0
  147.8077  137.0837  162.0215 N   0  0  0  0  0  0  0  0  0  0  0  0
  147.5569  136.1260  163.0073 C   0  0  0  0  0  0  0  0  0  0  0  0
  147.4688  134.8459  162.5194 C   0  0  0  0  0  0  0  0  0  0  0  0
  147.6960  134.7923  160.7917 S   0  0  0  0  0  0  0  0  0  0  0  0
  148.6507  140.7986  154.1378 C   0  0  0  0  0  0  0  0  0  0  0  0
  147.3903  140.9307  153.2592 C   0  0  0  0  0  0  0  0  0  0  0  0
  146.7299  142.5656  155.4395 H   0  0  0  0  0  0  0  0  0  0  0  0
  144.9897  142.3473  155.2405 H   0  0  0  0  0  0  0  0  0  0  0  0
  145.9286  143.1168  153.9668 H   0  0  0  0  0  0  0  0  0  0  0  0
  145.2307  139.9636  155.6702 H   0  0  0  0  0  0  0  0  0  0  0  0
  145.9611  138.9487  154.4506 H   0  0  0  0  0  0  0  0  0  0  0  0
  147.5021  140.6388  156.4980 H   0  0  0  0  0  0  0  0  0  0  0  0
  147.2714  138.9068  156.5227 H   0  0  0  0  0  0  0  0  0  0  0  0
  151.8694  138.6944  155.1325 H   0  0  0  0  0  0  0  0  0  0  0  0
  151.3227  140.1478  154.3486 H   0  0  0  0  0  0  0  0  0  0  0  0
  150.7298  138.5813  153.8015 H   0  0  0  0  0  0  0  0  0  0  0  0
  151.1187  140.0189  157.2760 H   0  0  0  0  0  0  0  0  0  0  0  0
  149.4274  140.3539  157.5627 H   0  0  0  0  0  0  0  0  0  0  0  0
  150.3264  141.2847  156.3664 H   0  0  0  0  0  0  0  0  0  0  0  0
  149.2219  137.1435  155.6866 H   0  0  0  0  0  0  0  0  0  0  0  0
  150.6640  137.4063  156.5799 H   0  0  0  0  0  0  0  0  0  0  0  0
  148.3495  138.6901  157.7828 H   0  0  0  0  0  0  0  0  0  0  0  0
  147.6540  138.1413  159.5301 H   0  0  0  0  0  0  0  0  0  0  0  0
  147.4549  136.4443  164.0342 H   0  0  0  0  0  0  0  0  0  0  0  0
  147.2844  133.9350  163.0694 H   0  0  0  0  0  0  0  0  0  0  0  0
  148.7874  141.6933  154.7451 H   0  0  0  0  0  0  0  0  0  0  0  0
  149.5016  140.7438  153.4622 H   0  0  0  0  0  0  0  0  0  0  0  0
  147.3143  140.0676  152.5963 H   0  0  0  0  0  0  0  0  0  0  0  0
  147.4635  141.8074  152.6145 H   0  0  0  0  0  0  0  0  0  0  0  0
  145.3852  140.8932  153.4434 H   0  0  0  0  0  0  0  0  0  0  0  0
  1  2  1  0  0  0  0
  1 21  1  0  0  0  0
  1 22  1  0  0  0  0
  1 23  1  0  0  0  0
  2 20  1  0  0  0  0
  2  3  1  0  0  0  0
  2 44  1  0  0  0  0
  3  4  1  0  0  0  0
  3 24  1  0  0  0  0
  3 25  1  0  0  0  0
  4  5  1  0  0  0  0
  4 26  1  0  0  0  0
  4 27  1  0  0  0  0
  5  6  1  0  0  0  0
  5 19  1  0  0  0  0
  6  7  1  0  0  0  0
  6  8  1  0  0  0  0
  6  9  1  0  0  0  0
  7 28  1  0  0  0  0
  7 29  1  0  0  0  0
  7 30  1  0  0  0  0
  8 31  1  0  0  0  0
  8 32  1  0  0  0  0
  8 33  1  0  0  0  0
  9 10  1  0  0  0  0
  9 34  1  0  0  0  0
  9 35  1  0  0  0  0
 10 11  1  0  0  0  0
 10 36  1  0  0  0  0
 11 12  2  0  0  0  0
 11 13  1  0  0  0  0
 13 14  1  0  0  0  0
 13 37  1  0  0  0  0
 14 18  1  0  0  0  0
 14 15  2  0  0  0  0
 15 16  1  0  0  0  0
 16 17  2  0  0  0  0
 16 38  1  0  0  0  0
 17 18  1  0  0  0  0
 17 39  1  0  0  0  0
 19 20  1  0  0  0  0
 19 40  1  0  0  0  0
 19 41  1  0  0  0  0
 20 42  1  0  0  0  0
 20 43  1  0  0  0  0
M  CHG  1   2   1
M  END
> <s_m_source_file>
AV-unprocessed.smi

> <i_m_source_file_index>
2024

> <i_lp_mmshare_version>
43012

> <i_f3d_flags>
0

> <s_epik_input>
W0NIM11OMVtDSDJdW0NIMl1OKFtDSDJdW0NIMl0xKUMoW0NIM10pKFtDSDNdKVtDSDJdW05IXUMoPU8pW05IXWMybltjSF1bY0hdczI=

> <s_epik_cmdline>
J2VwaWtfcHl0aG9uJywgJy1waCcsICc3LjAnLCAnLXRuJywgJzgnLCAnLW1hJywgJzIwMCcsICctbWV0YWxfYmluZGluZycsICctaW1hZScsICc8aW5maWxlLm1hZT4nLCAnLW9tYWUnLCAnPG91dGZpbGUubWFlPic=

> <r_lp_tautomer_probability>
0.999

> <r_epik_Ionization_Penalty>
0.025257

> <r_epik_Ionization_Penalty_Charging>
0.0242302

> <r_epik_Ionization_Penalty_Neutral>
0.00102675

> <r_epik_State_Penalty>
0.128805

> <r_epik_Charging_Adjusted_Penalty>
0.153036

> <i_epik_Tot_Q>
1

> <i_epik_Tot_abs_Q>
1

> <r_epik_Metal_State_Penalty>
0.161314

> <b_epik_Metal_Only>
0

> <s_lp_Force_Field>
OPLS_2005

> <r_lp_Energy>
25.0383

> <b_lp_Chiralities_Consistent>
1

> <s_lp_Variant>
AV-unprocessed.smi:2024-1

> <Gold.Version>
5.8.1

> <Gold.Id.Protein>
6NUR|6NUR_protein|mol2

> <Gold.PLP.Fitness>
42.8106

> <Gold.PLP.PLP>
-32.0285

> <Gold.PLP.part.hbond>
-3.8858

> <Gold.PLP.part.metal>
0.0000

> <Gold.PLP.part.buried>
-3.4405

> <Gold.PLP.part.nonpolar>
-25.6486

> <Gold.PLP.part.repulsive>
0.3411

> <Gold.PLP.ligand.clash>
0.0000

> <Gold.PLP.ligand.torsion>
0.7536

> <Gold.PLP.Chemscore.Hbond>
4.0874

> <Gold.PLP.Chemscore.CHOScore>
0.0000

> <Gold.PLP.Chemscore.Metal>
0.0000

> <Gold.Chemscore.Hbonds>
donor molecule, donor type, donor heavy atom, donor atom, acceptor molecule, acceptor atom, score
      L1  H     2    44       P1 10175  2.00
      P1  H  6896  6908       L1    12  1.00
      P1  H  6931  6943       L1    15  1.00
      P1  H  6934  6947       L1    15  0.07

> <Gold.PLP.Chemscore.Internal.Correction>
0.0273

> <Gold.Rescore>
     Score         DG    S(hbond)    S(metal)    S(lipo)     H(rot)  DE(clash)    DE(int)     intcor
     15.99     -18.31       2.63        0.00      69.51       1.60       0.67       1.65       ----

> <Gold.Chemscore.Fitness>
15.9925

> <Gold.Chemscore.DG>
-18.3142

> <Gold.Chemscore.ZeroCoef>
-5.4800

> <Gold.Chemscore.Hbond>
2.6334

> <Gold.Chemscore.Metal>
0.0000

> <Gold.Chemscore.Lipo>
69.5059

> <Gold.Chemscore.Internal_Hbond>
0.0000

> <Gold.Chemscore.DEClash>
0.6675

> <Gold.Chemscore.DEInternal>
1.6542

> <Gold.Chemscore.Rot>
1.5991

> <Gold.Chemscore.Internal.Correction>
   9.000000E+99

> <Gold.Chemscore.Hbonds>
donor molecule, donor type, donor heavy atom, donor atom, acceptor molecule, acceptor atom, score
      L1  H     2    44       P1 10175  0.72
      P1  H  6896  6908       L1    12  0.91
      P1  H  6931  6943       L1    15  0.25

> <Gold.Chemscore.Hbond.Weighted>
-8.7956

> <Gold.Chemscore.Metal.Weighted>
-0.0000

> <Gold.Chemscore.Lipo.Weighted>
-8.1322

> <Gold.Chemscore.Internal_Hbond.Weighted>
0.0000

> <Gold.Chemscore.DEClash.Weighted>
0.6675

> <Gold.Chemscore.DEInternal.Weighted>
1.6542

> <Gold.Chemscore.Rot.Weighted>
4.0936

> <Gold.Chemscore.Internal.Correction.Weighted>
   9.000000E+99

> <Gold.Protein.RotatedTorsions>
[ 6907 6896 6895 6894 ] final  161.75 input  -60.11 | X-H torsion
[ 7974 7965 7964 7962 ] final  167.90 input  175.53 | X-H torsion
[ 8008 7997 7996 7995 ] final  -35.07 input   59.86 | X-H torsion
[ 10167 10162 10161 10158 ] final -123.77 input  -65.29 | X-H torsion
[ 10718 10713 10712 10709 ] final  -74.12 input   66.30 | X-H torsion
[ 10763 10752 10751 10750 ] final   -5.60 input  -60.55 | X-H torsion
[ 11005 11000 10999 10996 ] final  -77.21 input  -57.11 | X-H torsion

> <Gold.Protein.ActiveResidues>
 VAL166  LYS551  ARG553  GLY616  TRP617  ASP618  TYR619  PRO620  LYS621  CYS622 
 ASP623  PHE694  ASN695  SER759  ASP760  ASP761  ALA762  ILE779  LEU786  VAL792 
 PHE793  MET794  SER795  GLU796  ALA797  LYS798  CYS799  TRP800  GLU811  SER814 

> <Gold.Protein.RotatedAtoms>
  151.9508  133.3665  159.3999 H   0  0  0  0  0  0  0  0  0  0  0  0  # atno 6907 bound_to 6896
  150.6981  134.4342  159.5272 H   0  0  0  0  0  0  0  0  0  0  0  0  # atno 6908 bound_to 6896
  152.2015  134.8584  160.0558 H   0  0  0  0  0  0  0  0  0  0  0  0  # atno 6909 bound_to 6896
  144.7407  139.8829  143.6397 H   0  0  0  0  0  0  0  0  0  0  0  0  # atno 7974 bound_to 7965
  154.4104  140.1667  156.2152 H   0  0  0  0  0  0  0  0  0  0  0  0  # atno 8008 bound_to 7997
  155.9410  140.3408  155.6304 H   0  0  0  0  0  0  0  0  0  0  0  0  # atno 8009 bound_to 7997
  155.6989  140.0742  157.2409 H   0  0  0  0  0  0  0  0  0  0  0  0  # atno 8010 bound_to 7997
  139.9999  143.5551  152.2307 H   0  0  0  0  0  0  0  0  0  0  0  0  # atno 10167 bound_to 10162
  156.0254  130.4410  150.2845 H   0  0  0  0  0  0  0  0  0  0  0  0  # atno 10718 bound_to 10713
  153.4007  135.7005  153.6428 H   0  0  0  0  0  0  0  0  0  0  0  0  # atno 10763 bound_to 10752
  153.4962  135.3662  155.2517 H   0  0  0  0  0  0  0  0  0  0  0  0  # atno 10764 bound_to 10752
  154.8710  135.4101  154.3342 H   0  0  0  0  0  0  0  0  0  0  0  0  # atno 10765 bound_to 10752
  141.1659  133.7013  156.7785 H   0  0  0  0  0  0  0  0  0  0  0  0  # atno 11005 bound_to 11000
  146.1198  139.4214  143.0235 LP  0  0  0  0  0  0  0  0  0  0  0  0  # atno 17320 bound_to 7965
  145.7321  141.0038  143.1346 LP  0  0  0  0  0  0  0  0  0  0  0  0  # atno 17321 bound_to 7965
  139.6279  144.7640  151.2599 LP  0  0  0  0  0  0  0  0  0  0  0  0  # atno 17342 bound_to 10162
  140.7423  143.6531  150.8230 LP  0  0  0  0  0  0  0  0  0  0  0  0  # atno 17343 bound_to 10162
  157.0948  131.0179  151.3108 LP  0  0  0  0  0  0  0  0  0  0  0  0  # atno 17370 bound_to 10713
  157.4826  130.7774  149.7428 LP  0  0  0  0  0  0  0  0  0  0  0  0  # atno 17371 bound_to 10713
  140.2412  134.8612  157.3575 LP  0  0  0  0  0  0  0  0  0  0  0  0  # atno 17394 bound_to 11000
  140.1794  134.4508  155.7781 LP  0  0  0  0  0  0  0  0  0  0  0  0  # atno 17395 bound_to 11000

$$$$
