AV-unprocessed.smi:3345|AV-procd|sdf|12905|dock5
  -GOLD-   2272019313D 1   1.00000     0.00000
 Structure written by MMmdl.
 41 42  0  0  0  0  0  0  0  0  2 V2000
  147.4007  140.5711  153.7977 C   0  0  0  0  0  0  0  0  0  0  0  0
  147.4400  139.2450  153.0262 C   0  0  2  0  0  0  0  0  0  0  0  0
  146.2984  138.3014  153.4711 C   0  0  0  0  0  0  0  0  0  0  0  0
  146.3193  136.9936  152.7684 N   0  3  0  0  0  0  0  0  0  0  0  0
  145.7978  135.8780  153.5916 C   0  0  0  0  0  0  0  0  0  0  0  0
  145.9368  134.5487  152.8296 C   0  0  0  0  0  0  0  0  0  0  0  0
  145.2558  134.6371  151.5838 O   0  0  0  0  0  0  0  0  0  0  0  0
  145.7941  135.6574  150.7512 C   0  0  0  0  0  0  0  0  0  0  0  0
  145.6455  137.0201  151.4477 C   0  0  0  0  0  0  0  0  0  0  0  0
  148.7512  138.6230  153.2165 N   0  0  0  0  0  0  0  0  0  0  0  0
  149.4017  138.4891  154.3843 C   0  0  0  0  0  0  0  0  0  0  0  0
  148.9607  138.9143  155.4524 O   0  0  0  0  0  0  0  0  0  0  0  0
  150.7602  137.7751  154.3304 C   0  0  1  0  0  0  0  0  0  0  0  0
  151.8895  138.6234  154.9491 C   0  0  0  0  0  0  0  0  0  0  0  0
  150.6573  136.4555  154.9407 N   0  0  0  0  0  0  0  0  0  0  0  0
  149.7516  135.4930  154.7520 C   0  0  0  0  0  0  0  0  0  0  0  0
  149.9327  134.4251  155.5158 N   0  0  0  0  0  0  0  0  0  0  0  0
  151.0390  134.8258  156.2097 C   0  0  0  0  0  0  0  0  0  0  0  0
  151.5061  136.0386  155.9133 N   0  0  0  0  0  0  0  0  0  0  0  0
  146.4440  141.0761  153.6608 H   0  0  0  0  0  0  0  0  0  0  0  0
  148.1815  141.2497  153.4525 H   0  0  0  0  0  0  0  0  0  0  0  0
  147.5438  140.4150  154.8675 H   0  0  0  0  0  0  0  0  0  0  0  0
  147.3109  139.4916  151.9714 H   0  0  0  0  0  0  0  0  0  0  0  0
  146.3991  138.1320  154.5444 H   0  0  0  0  0  0  0  0  0  0  0  0
  145.3263  138.7765  153.3302 H   0  0  0  0  0  0  0  0  0  0  0  0
  146.3489  135.8187  154.5309 H   0  0  0  0  0  0  0  0  0  0  0  0
  144.7517  136.0631  153.8413 H   0  0  0  0  0  0  0  0  0  0  0  0
  146.9874  134.3018  152.6661 H   0  0  0  0  0  0  0  0  0  0  0  0
  145.5050  133.7346  153.4119 H   0  0  0  0  0  0  0  0  0  0  0  0
  146.8411  135.4473  150.5258 H   0  0  0  0  0  0  0  0  0  0  0  0
  145.2573  135.6598  149.8025 H   0  0  0  0  0  0  0  0  0  0  0  0
  144.5888  137.2586  151.5780 H   0  0  0  0  0  0  0  0  0  0  0  0
  146.0729  137.7990  150.8169 H   0  0  0  0  0  0  0  0  0  0  0  0
  149.1921  138.2433  152.3908 H   0  0  0  0  0  0  0  0  0  0  0  0
  151.0141  137.6206  153.2802 H   0  0  0  0  0  0  0  0  0  0  0  0
  151.9812  139.5838  154.4407 H   0  0  0  0  0  0  0  0  0  0  0  0
  152.8500  138.1151  154.8600 H   0  0  0  0  0  0  0  0  0  0  0  0
  151.7212  138.8263  156.0076 H   0  0  0  0  0  0  0  0  0  0  0  0
  148.9403  135.5766  154.0436 H   0  0  0  0  0  0  0  0  0  0  0  0
  151.5100  134.2085  156.9604 H   0  0  0  0  0  0  0  0  0  0  0  0
  147.2923  136.7829  152.5954 H   0  0  0  0  0  0  0  0  0  0  0  0
  1  2  1  0  0  0  0
  1 20  1  0  0  0  0
  1 21  1  0  0  0  0
  1 22  1  0  0  0  0
  2  3  1  0  0  0  0
  2 10  1  0  0  0  0
  2 23  1  0  0  0  0
  3  4  1  0  0  0  0
  3 24  1  0  0  0  0
  3 25  1  0  0  0  0
  4  9  1  0  0  0  0
  4  5  1  0  0  0  0
  4 41  1  0  0  0  0
  5  6  1  0  0  0  0
  5 26  1  0  0  0  0
  5 27  1  0  0  0  0
  6  7  1  0  0  0  0
  6 28  1  0  0  0  0
  6 29  1  0  0  0  0
  7  8  1  0  0  0  0
  8  9  1  0  0  0  0
  8 30  1  0  0  0  0
  8 31  1  0  0  0  0
  9 32  1  0  0  0  0
  9 33  1  0  0  0  0
 10 11  1  0  0  0  0
 10 34  1  0  0  0  0
 11 12  2  0  0  0  0
 11 13  1  0  0  0  0
 13 14  1  0  0  0  0
 13 15  1  0  0  0  0
 13 35  1  0  0  0  0
 14 36  1  0  0  0  0
 14 37  1  0  0  0  0
 14 38  1  0  0  0  0
 15 19  1  0  0  0  0
 15 16  1  0  0  0  0
 16 17  2  0  0  0  0
 16 39  1  0  0  0  0
 17 18  1  0  0  0  0
 18 19  2  0  0  0  0
 18 40  1  0  0  0  0
M  CHG  1   4   1
M  END
> <s_m_source_file>
AV-unprocessed.smi

> <i_m_source_file_index>
3345

> <i_lp_mmshare_version>
43012

> <i_f3d_flags>
0

> <s_epik_input>
W0NIMl0xW0NIMl1PW0NIMl1bQ0gyXU4xW0NIMl1bQ0BASF0oW0NIM10pW05IXUMoPU8pW0NASF0oW0NIM10pbjJbY0hdbltjSF1uMg==

> <s_epik_cmdline>
J2VwaWtfcHl0aG9uJywgJy1waCcsICc3LjAnLCAnLXRuJywgJzgnLCAnLW1hJywgJzIwMCcsICctbWV0YWxfYmluZGluZycsICctaW1hZScsICc8aW5maWxlLm1hZT4nLCAnLW9tYWUnLCAnPG91dGZpbGUubWFlPic=

> <r_lp_tautomer_probability>
1

> <r_epik_Ionization_Penalty>
0.71326

> <r_epik_Ionization_Penalty_Charging>
0.713252

> <r_epik_Ionization_Penalty_Neutral>
8.27671e-06

> <r_epik_State_Penalty>
0.737017

> <r_epik_Charging_Adjusted_Penalty>
1.45027

> <i_epik_Tot_Q>
1

> <i_epik_Tot_abs_Q>
1

> <r_epik_Metal_State_Penalty>
0.73702

> <b_epik_Metal_Only>
0

> <s_lp_Force_Field>
OPLS_2005

> <r_lp_Energy>
28.0971

> <b_lp_Chiralities_Consistent>
1

> <s_lp_Variant>
AV-unprocessed.smi:3345-7

> <Gold.Version>
5.8.1

> <Gold.Id.Protein>
6NUR|6NUR_protein|mol2

> <Gold.PLP.Fitness>
39.5034

> <Gold.PLP.PLP>
-27.2295

> <Gold.PLP.part.hbond>
-4.0000

> <Gold.PLP.part.metal>
0.0000

> <Gold.PLP.part.buried>
-2.3356

> <Gold.PLP.part.nonpolar>
-22.9401

> <Gold.PLP.part.repulsive>
0.2872

> <Gold.PLP.ligand.clash>
0.0000

> <Gold.PLP.ligand.torsion>
0.7959

> <Gold.PLP.Chemscore.Hbond>
3.6080

> <Gold.PLP.Chemscore.CHOScore>
0.9480

> <Gold.PLP.Chemscore.Metal>
0.0000

> <Gold.Chemscore.Hbonds>
donor molecule, donor type, donor heavy atom, donor atom, acceptor molecule, acceptor atom, score
      L1  H     4    41       P1  7948  2.00
      L1  H    10    34       P1  7948  0.44
      P1  H 10752 10764       L1    19  0.85
      L1  C    16    39       P1  7948  0.99

> <Gold.PLP.Chemscore.Internal.Correction>
0.1978

> <Gold.Rescore>
     Score         DG    S(hbond)    S(metal)    S(lipo)     H(rot)  DE(clash)    DE(int)     intcor
      8.03     -10.32       1.89        0.00      44.55       2.61       0.02       2.27       ----

> <Gold.Chemscore.Fitness>
8.0280

> <Gold.Chemscore.DG>
-10.3178

> <Gold.Chemscore.ZeroCoef>
-5.4800

> <Gold.Chemscore.Hbond>
1.8913

> <Gold.Chemscore.Metal>
0.0000

> <Gold.Chemscore.Lipo>
44.5496

> <Gold.Chemscore.Internal_Hbond>
0.0000

> <Gold.Chemscore.DEClash>
0.0202

> <Gold.Chemscore.DEInternal>
2.2696

> <Gold.Chemscore.Rot>
2.6138

> <Gold.Chemscore.Internal.Correction>
   9.000000E+99

> <Gold.Chemscore.Hbonds>
donor molecule, donor type, donor heavy atom, donor atom, acceptor molecule, acceptor atom, score
      L1  H     4    41       P1  7948  1.00
      L1  H    10    34       P1  7948  0.37
      P1  H 10752 10764       L1    19  0.11

> <Gold.Chemscore.Hbond.Weighted>
-6.3168

> <Gold.Chemscore.Metal.Weighted>
-0.0000

> <Gold.Chemscore.Lipo.Weighted>
-5.2123

> <Gold.Chemscore.Internal_Hbond.Weighted>
0.0000

> <Gold.Chemscore.DEClash.Weighted>
0.0202

> <Gold.Chemscore.DEInternal.Weighted>
2.2696

> <Gold.Chemscore.Rot.Weighted>
6.6912

> <Gold.Chemscore.Internal.Correction.Weighted>
   9.000000E+99

> <Gold.Protein.RotatedTorsions>
[ 6907 6896 6895 6894 ] final  -81.54 input  -60.11 | X-H torsion
[ 7974 7965 7964 7962 ] final -112.25 input  175.53 | X-H torsion
[ 8008 7997 7996 7995 ] final   15.11 input   59.86 | X-H torsion
[ 10167 10162 10161 10158 ] final  -51.34 input  -65.29 | X-H torsion
[ 10718 10713 10712 10709 ] final  -67.44 input   66.30 | X-H torsion
[ 10763 10752 10751 10750 ] final  -19.67 input  -60.55 | X-H torsion
[ 11005 11000 10999 10996 ] final  117.13 input  -57.11 | X-H torsion

> <Gold.Protein.ActiveResidues>
 VAL166  LYS551  ARG553  GLY616  TRP617  ASP618  TYR619  PRO620  LYS621  CYS622 
 ASP623  PHE694  ASN695  SER759  ASP760  ASP761  ALA762  ILE779  LEU786  VAL792 
 PHE793  MET794  SER795  GLU796  ALA797  LYS798  CYS799  TRP800  GLU811  SER814 

> <Gold.Protein.RotatedAtoms>
  150.6910  134.3802  159.5030 H   0  0  0  0  0  0  0  0  0  0  0  0  # atno 6907 bound_to 6896
  152.1605  134.8913  160.0551 H   0  0  0  0  0  0  0  0  0  0  0  0  # atno 6908 bound_to 6896
  151.9977  133.3779  159.4206 H   0  0  0  0  0  0  0  0  0  0  0  0  # atno 6909 bound_to 6896
  145.1462  140.8805  143.3673 H   0  0  0  0  0  0  0  0  0  0  0  0  # atno 7974 bound_to 7965
  154.8579  140.2940  155.5557 H   0  0  0  0  0  0  0  0  0  0  0  0  # atno 8008 bound_to 7997
  156.3019  140.2483  156.3481 H   0  0  0  0  0  0  0  0  0  0  0  0  # atno 8009 bound_to 7997
  154.8950  140.0393  157.1849 H   0  0  0  0  0  0  0  0  0  0  0  0  # atno 8010 bound_to 7997
  140.6593  143.2623  151.4490 H   0  0  0  0  0  0  0  0  0  0  0  0  # atno 10167 bound_to 10162
  156.0558  130.4278  150.1854 H   0  0  0  0  0  0  0  0  0  0  0  0  # atno 10718 bound_to 10713
  153.6085  135.6997  153.5356 H   0  0  0  0  0  0  0  0  0  0  0  0  # atno 10763 bound_to 10752
  153.3037  135.4121  155.1274 H   0  0  0  0  0  0  0  0  0  0  0  0  # atno 10764 bound_to 10752
  154.8568  135.3655  154.5623 H   0  0  0  0  0  0  0  0  0  0  0  0  # atno 10765 bound_to 10752
  139.9064  134.9606  156.7303 H   0  0  0  0  0  0  0  0  0  0  0  0  # atno 11005 bound_to 11000
  145.0479  139.3206  143.5943 LP  0  0  0  0  0  0  0  0  0  0  0  0  # atno 17320 bound_to 7965
  146.3500  139.9876  142.8689 LP  0  0  0  0  0  0  0  0  0  0  0  0  # atno 17321 bound_to 7965
  139.5823  144.1683  152.1983 LP  0  0  0  0  0  0  0  0  0  0  0  0  # atno 17342 bound_to 10162
  140.1012  144.5538  150.6988 LP  0  0  0  0  0  0  0  0  0  0  0  0  # atno 17343 bound_to 10162
  156.9931  130.9899  151.3410 LP  0  0  0  0  0  0  0  0  0  0  0  0  # atno 17370 bound_to 10713
  157.5525  130.8192  149.8163 LP  0  0  0  0  0  0  0  0  0  0  0  0  # atno 17371 bound_to 10713
  140.6930  133.9373  155.7978 LP  0  0  0  0  0  0  0  0  0  0  0  0  # atno 17394 bound_to 11000
  141.0427  134.0598  157.3881 LP  0  0  0  0  0  0  0  0  0  0  0  0  # atno 17395 bound_to 11000

$$$$
