AV-unprocessed.smi:527|AV-procd|sdf|2821|dock1
  -GOLD-   2262023303D 1   1.00000     0.00000
 Structure written by MMmdl.
 42 43  0  0  0  0  0  0  0  0  1 V2000
  153.4870  140.9067  160.0105 C   0  0  0  0  0  0  0  0  0  0  0  0
  152.9439  142.1371  159.2648 C   0  0  2  0  0  0  0  0  0  0  0  0
  152.4615  143.2310  160.2391 C   0  0  0  0  0  0  0  0  0  0  0  0
  152.0158  144.4961  159.4889 C   0  0  0  0  0  0  0  0  0  0  0  0
  150.9544  144.1793  158.4244 C   0  0  0  0  0  0  0  0  0  0  0  0
  151.4448  143.0880  157.4532 C   0  0  2  0  0  0  0  0  0  0  0  0
  150.4252  142.8355  156.4373 N   0  0  0  0  0  0  0  0  0  0  0  0
  150.2861  141.6976  155.7408 C   0  0  0  0  0  0  0  0  0  0  0  0
  151.1189  140.7885  155.7525 O   0  0  0  0  0  0  0  0  0  0  0  0
  149.1289  141.6950  155.0530 N   0  0  0  0  0  0  0  0  0  0  0  0
  148.5460  140.6537  154.4232 C   0  0  0  0  0  0  0  0  0  0  0  0
  149.0067  139.5124  154.3617 O   0  0  0  0  0  0  0  0  0  0  0  0
  147.2113  140.9568  153.7375 C   0  0  0  0  0  0  0  0  0  0  0  0
  146.4699  141.9852  154.4457 N   0  0  0  0  0  0  0  0  0  0  0  0
  145.8614  143.1082  153.8989 C   0  0  0  0  0  0  0  0  0  0  0  0
  145.2900  143.7949  154.9464 C   0  0  0  0  0  0  0  0  0  0  0  0
  145.5312  143.1165  156.1387 N   0  0  0  0  0  0  0  0  0  0  0  0
  146.2331  142.0551  155.7636 C   0  0  0  0  0  0  0  0  0  0  0  0
  151.8601  141.7946  158.2077 C   0  0  2  0  0  0  0  0  0  0  0  0
  150.6568  141.0143  158.7863 C   0  0  0  0  0  0  0  0  0  0  0  0
  152.7404  140.4720  160.6751 H   0  0  0  0  0  0  0  0  0  0  0  0
  154.3484  141.1742  160.6232 H   0  0  0  0  0  0  0  0  0  0  0  0
  153.8091  140.1332  159.3130 H   0  0  0  0  0  0  0  0  0  0  0  0
  153.7917  142.5533  158.7181 H   0  0  0  0  0  0  0  0  0  0  0  0
  151.6400  142.8561  160.8503 H   0  0  0  0  0  0  0  0  0  0  0  0
  153.2626  143.4886  160.9330 H   0  0  0  0  0  0  0  0  0  0  0  0
  151.6269  145.2299  160.1954 H   0  0  0  0  0  0  0  0  0  0  0  0
  152.8809  144.9577  159.0111 H   0  0  0  0  0  0  0  0  0  0  0  0
  150.0299  143.8664  158.9109 H   0  0  0  0  0  0  0  0  0  0  0  0
  150.7147  145.0889  157.8720 H   0  0  0  0  0  0  0  0  0  0  0  0
  152.3273  143.4840  156.9464 H   0  0  0  0  0  0  0  0  0  0  0  0
  149.7666  143.5807  156.2647 H   0  0  0  0  0  0  0  0  0  0  0  0
  148.6292  142.5712  155.0157 H   0  0  0  0  0  0  0  0  0  0  0  0
  147.3905  141.2844  152.7127 H   0  0  0  0  0  0  0  0  0  0  0  0
  146.5990  140.0552  153.6865 H   0  0  0  0  0  0  0  0  0  0  0  0
  145.8863  143.3217  152.8405 H   0  0  0  0  0  0  0  0  0  0  0  0
  144.7293  144.7178  154.9338 H   0  0  0  0  0  0  0  0  0  0  0  0
  146.5882  141.3134  156.4641 H   0  0  0  0  0  0  0  0  0  0  0  0
  152.3287  141.1324  157.4781 H   0  0  0  0  0  0  0  0  0  0  0  0
  150.1278  141.5829  159.5501 H   0  0  0  0  0  0  0  0  0  0  0  0
  150.9705  140.0726  159.2353 H   0  0  0  0  0  0  0  0  0  0  0  0
  149.9353  140.7570  158.0109 H   0  0  0  0  0  0  0  0  0  0  0  0
  1  2  1  0  0  0  0
  1 21  1  0  0  0  0
  1 22  1  0  0  0  0
  1 23  1  0  0  0  0
  2 19  1  0  0  0  0
  2  3  1  0  0  0  0
  2 24  1  0  0  0  0
  3  4  1  0  0  0  0
  3 25  1  0  0  0  0
  3 26  1  0  0  0  0
  4  5  1  0  0  0  0
  4 27  1  0  0  0  0
  4 28  1  0  0  0  0
  5  6  1  0  0  0  0
  5 29  1  0  0  0  0
  5 30  1  0  0  0  0
  6  7  1  0  0  0  0
  6 19  1  0  0  0  0
  6 31  1  0  0  0  0
  7  8  1  0  0  0  0
  7 32  1  0  0  0  0
  8  9  2  0  0  0  0
  8 10  1  0  0  0  0
 10 11  1  0  0  0  0
 10 33  1  0  0  0  0
 11 12  2  0  0  0  0
 11 13  1  0  0  0  0
 13 14  1  0  0  0  0
 13 34  1  0  0  0  0
 13 35  1  0  0  0  0
 14 18  1  0  0  0  0
 14 15  1  0  0  0  0
 15 16  2  0  0  0  0
 15 36  1  0  0  0  0
 16 17  1  0  0  0  0
 16 37  1  0  0  0  0
 17 18  2  0  0  0  0
 18 38  1  0  0  0  0
 19 20  1  0  0  0  0
 19 39  1  0  0  0  0
 20 40  1  0  0  0  0
 20 41  1  0  0  0  0
 20 42  1  0  0  0  0
M  END
> <s_m_source_file>
AV-unprocessed.smi

> <i_m_source_file_index>
527

> <i_lp_mmshare_version>
43012

> <i_f3d_flags>
0

> <s_epik_input>
W0NIM11bQ0BASF0xW0NIMl1bQ0gyXVtDSDJdW0NASF0oW0NASF0xW0NIM10pW05IXUMoPU8pW05IXUMoPU8pW0NIMl1uMltjSF1bY0hdbltjSF0y

> <s_epik_cmdline>
J2VwaWtfcHl0aG9uJywgJy1waCcsICc3LjAnLCAnLXRuJywgJzgnLCAnLW1hJywgJzIwMCcsICctbWV0YWxfYmluZGluZycsICctaW1hZScsICc8aW5maWxlLm1hZT4nLCAnLW9tYWUnLCAnPG91dGZpbGUubWFlPic=

> <r_lp_tautomer_probability>
1

> <r_epik_Ionization_Penalty>
0.172132

> <r_epik_Ionization_Penalty_Charging>
0.172105

> <r_epik_Ionization_Penalty_Neutral>
2.71747e-05

> <r_epik_State_Penalty>
0.161503

> <r_epik_Charging_Adjusted_Penalty>
0.333607

> <i_epik_Tot_Q>
0

> <i_epik_Tot_abs_Q>
0

> <r_epik_Metal_State_Penalty>
0.124763

> <b_epik_Metal_Only>
0

> <s_lp_Force_Field>
OPLS_2005

> <r_lp_Energy>
16.867

> <b_lp_Chiralities_Consistent>
1

> <s_lp_Variant>
AV-unprocessed.smi:527-7

> <Gold.Version>
5.8.1

> <Gold.Id.Protein>
6NUR|6NUR_protein|mol2

> <Gold.PLP.Fitness>
49.4661

> <Gold.PLP.PLP>
-45.1462

> <Gold.PLP.part.hbond>
-2.9674

> <Gold.PLP.part.metal>
0.0000

> <Gold.PLP.part.buried>
-7.0847

> <Gold.PLP.part.nonpolar>
-34.6412

> <Gold.PLP.part.repulsive>
1.4757

> <Gold.PLP.ligand.clash>
0.0000

> <Gold.PLP.ligand.torsion>
0.9168

> <Gold.PLP.Chemscore.Hbond>
2.0315

> <Gold.PLP.Chemscore.CHOScore>
0.0000

> <Gold.PLP.Chemscore.Metal>
0.0000

> <Gold.Chemscore.Hbonds>
donor molecule, donor type, donor heavy atom, donor atom, acceptor molecule, acceptor atom, score
      L1  H     7    32       P1  8028  1.00
      L1  H    10    33       P1  8028  0.38
      P1  H  7989  7998       L1     9  0.20

> <Gold.PLP.Chemscore.Internal.Correction>
0.0591

> <Gold.Rescore>
     Score         DG    S(hbond)    S(metal)    S(lipo)     H(rot)  DE(clash)    DE(int)     intcor
     15.37     -19.01       1.88        0.00      98.37       1.66       0.15       3.49       ----

> <Gold.Chemscore.Fitness>
15.3659

> <Gold.Chemscore.DG>
-19.0050

> <Gold.Chemscore.ZeroCoef>
-5.4800

> <Gold.Chemscore.Hbond>
1.8779

> <Gold.Chemscore.Metal>
0.0000

> <Gold.Chemscore.Lipo>
98.3735

> <Gold.Chemscore.Internal_Hbond>
0.0000

> <Gold.Chemscore.DEClash>
0.1523

> <Gold.Chemscore.DEInternal>
3.4869

> <Gold.Chemscore.Rot>
1.6629

> <Gold.Chemscore.Internal.Correction>
   9.000000E+99

> <Gold.Chemscore.Hbonds>
donor molecule, donor type, donor heavy atom, donor atom, acceptor molecule, acceptor atom, score
      L1  H     7    32       P1  8028  0.96
      L1  H    10    33       P1  8028  0.38
      P1  H  7989  7998       L1     9  0.03

> <Gold.Chemscore.Hbond.Weighted>
-6.2723

> <Gold.Chemscore.Metal.Weighted>
-0.0000

> <Gold.Chemscore.Lipo.Weighted>
-11.5097

> <Gold.Chemscore.Internal_Hbond.Weighted>
0.0000

> <Gold.Chemscore.DEClash.Weighted>
0.1523

> <Gold.Chemscore.DEInternal.Weighted>
3.4869

> <Gold.Chemscore.Rot.Weighted>
4.2569

> <Gold.Chemscore.Internal.Correction.Weighted>
   9.000000E+99

> <Gold.Protein.RotatedTorsions>
[ 6907 6896 6895 6894 ] final   79.66 input  -60.11 | X-H torsion
[ 7974 7965 7964 7962 ] final  161.01 input  175.53 | X-H torsion
[ 8008 7997 7996 7995 ] final   12.98 input   59.86 | X-H torsion
[ 10167 10162 10161 10158 ] final -147.60 input  -65.29 | X-H torsion
[ 10718 10713 10712 10709 ] final  101.35 input   66.30 | X-H torsion
[ 10763 10752 10751 10750 ] final  -38.34 input  -60.55 | X-H torsion
[ 11005 11000 10999 10996 ] final   34.37 input  -57.11 | X-H torsion

> <Gold.Protein.ActiveResidues>
 VAL166  LYS551  ARG553  GLY616  TRP617  ASP618  TYR619  PRO620  LYS621  CYS622 
 ASP623  PHE694  ASN695  SER759  ASP760  ASP761  ALA762  ILE779  LEU786  VAL792 
 PHE793  MET794  SER795  GLU796  ALA797  LYS798  CYS799  TRP800  GLU811  SER814 

> <Gold.Protein.RotatedAtoms>
  152.5206  134.3477  159.9239 H   0  0  0  0  0  0  0  0  0  0  0  0  # atno 6907 bound_to 6896
  151.3428  133.3949  159.2680 H   0  0  0  0  0  0  0  0  0  0  0  0  # atno 6908 bound_to 6896
  150.9790  134.9167  159.7891 H   0  0  0  0  0  0  0  0  0  0  0  0  # atno 6909 bound_to 6896
  144.7707  139.7838  143.6298 H   0  0  0  0  0  0  0  0  0  0  0  0  # atno 7974 bound_to 7965
  154.8281  140.2895  155.5740 H   0  0  0  0  0  0  0  0  0  0  0  0  # atno 8008 bound_to 7997
  156.3003  140.2537  156.3132 H   0  0  0  0  0  0  0  0  0  0  0  0  # atno 8009 bound_to 7997
  154.9262  140.0384  157.2013 H   0  0  0  0  0  0  0  0  0  0  0  0  # atno 8010 bound_to 7997
  139.7607  143.8381  152.2606 H   0  0  0  0  0  0  0  0  0  0  0  0  # atno 10167 bound_to 10162
  157.6831  131.0723  150.5239 H   0  0  0  0  0  0  0  0  0  0  0  0  # atno 10718 bound_to 10713
  153.9113  135.6792  153.4751 H   0  0  0  0  0  0  0  0  0  0  0  0  # atno 10763 bound_to 10752
  153.1077  135.4798  154.8978 H   0  0  0  0  0  0  0  0  0  0  0  0  # atno 10764 bound_to 10752
  154.7526  135.3189  154.8485 H   0  0  0  0  0  0  0  0  0  0  0  0  # atno 10765 bound_to 10752
  140.2535  134.3275  155.7882 H   0  0  0  0  0  0  0  0  0  0  0  0  # atno 11005 bound_to 11000
  146.1852  139.5063  142.9841 LP  0  0  0  0  0  0  0  0  0  0  0  0  # atno 17320 bound_to 7965
  145.6332  141.0300  143.1852 LP  0  0  0  0  0  0  0  0  0  0  0  0  # atno 17321 bound_to 7965
  139.8386  144.7220  150.9359 LP  0  0  0  0  0  0  0  0  0  0  0  0  # atno 17342 bound_to 10162
  140.7807  143.4004  151.1159 LP  0  0  0  0  0  0  0  0  0  0  0  0  # atno 17343 bound_to 10162
  156.5551  130.4241  149.6089 LP  0  0  0  0  0  0  0  0  0  0  0  0  # atno 17370 bound_to 10713
  156.2869  130.7102  151.1941 LP  0  0  0  0  0  0  0  0  0  0  0  0  # atno 17371 bound_to 10713
  141.2199  133.7367  156.9075 LP  0  0  0  0  0  0  0  0  0  0  0  0  # atno 17394 bound_to 11000
  140.1534  134.9214  157.2622 LP  0  0  0  0  0  0  0  0  0  0  0  0  # atno 17395 bound_to 11000

$$$$
