#       Name:                AV-unprocessed.smi:1362
#       Creating user name   scv26
#       Creation time:       Fri Mar 27 05:15:06 2020


#       File generated by GOLD software.
#

@<TRIPOS>MOLECULE
AV-unprocessed.smi:1362
    44    44     1
SMALL
NO_CHARGES


@<TRIPOS>ATOM
      1 ****        -4.4652   3.9027   1.8131 C.3            1 S1                 0.0000
      2 ****        -3.6223   2.7887   1.2295 C.2            1 S1                 0.0000
      3 ****        -2.9528   1.9428   1.9414 N.2            1 S1                 0.0000
      4 ****        -2.2054   0.9541   1.2864 C.2            1 S1                 0.0000
      5 ****        -1.4432   0.0004   2.1907 C.3            1 S1                 0.0000
      6 ****        -2.1725   0.8663  -0.0758 C.2            1 S1                 0.0000
      7 ****        -1.3640  -0.1977  -0.8169 C.3            1 S1                 0.0000
      8 ****         0.1372   0.0727  -0.9441 C.2            1 S1                 0.0000
      9 ****         0.5655   1.2270  -0.9469 O.2            1 S1                 0.0000
     10 ****         0.9254  -1.0091  -1.0372 N.am           1 S1                 0.0000
     11 ****         2.3861  -0.9976  -1.1025 C.3            1 S1                 0.0000
     12 ****         2.8185  -0.8596  -2.5745 C.3            1 S1                 0.0000
     13 ****         2.9585  -2.2619  -0.4084 C.3            1 S1                 0.0000
     14 ****         2.4430  -2.4182   1.0362 C.3            1 S1                 0.0000
     15 ****         4.4978  -2.2872  -0.4085 C.3            1 S1                 0.0000
     16 ****        -2.9414   1.8370  -0.8786 C.2            1 S1                 0.0000
     17 ****        -2.9795   1.8521  -2.1080 O.2            1 S1                 0.0000
     18 ****        -3.6317   2.7535  -0.1639 N.am           1 S1                 0.0000
     19 ****        -4.1731   3.4408  -0.6679 H              1 S1                 0.0000
     20 ****        -3.8408   4.5763   2.4006 H              1 S1                 0.0000
     21 ****        -5.2336   3.4890   2.4666 H              1 S1                 0.0000
     22 ****        -4.9574   4.4863   1.0337 H              1 S1                 0.0000
     23 ****        -1.8111  -1.0182   2.0684 H              1 S1                 0.0000
     24 ****        -1.5577   0.2730   3.2405 H              1 S1                 0.0000
     25 ****        -0.3780   0.0162   1.9593 H              1 S1                 0.0000
     26 ****        -1.5041  -1.1504  -0.3049 H              1 S1                 0.0000
     27 ****        -1.7654  -0.3598  -1.8177 H              1 S1                 0.0000
     28 ****         0.4811  -1.9158  -1.0322 H              1 S1                 0.0000
     29 ****         2.7531  -0.1254  -0.5579 H              1 S1                 0.0000
     30 ****         3.8949  -0.7187  -2.6678 H              1 S1                 0.0000
     31 ****         2.3483   0.0050  -3.0439 H              1 S1                 0.0000
     32 ****         2.5429  -1.7412  -3.1541 H              1 S1                 0.0000
     33 ****         2.6201  -3.1361  -0.9668 H              1 S1                 0.0000
     34 ****         2.7075  -1.5535   1.6457 H              1 S1                 0.0000
     35 ****         2.8707  -3.3015   1.5117 H              1 S1                 0.0000
     36 ****         1.3596  -2.5327   1.0741 H              1 S1                 0.0000
     37 ****         4.9092  -1.4023   0.0780 H              1 S1                 0.0000
     38 ****         4.9032  -2.3349  -1.4187 H              1 S1                 0.0000
     39 ****         4.8754  -3.1616   0.1222 H              1 S1                 0.0000
     40 ****        -2.9677   1.9926   2.9400 LP             1 S1                 0.0000
     41 ****        -0.0687   1.9958  -0.8657 LP             1 S1                 0.0000
     42 ****         1.5477   1.3957  -1.0304 LP             1 S1                 0.0000
     43 ****        -2.4653   1.1735  -2.6326 LP             1 S1                 0.0000
     44 ****        -3.5246   2.5429  -2.5829 LP             1 S1                 0.0000
@<TRIPOS>BOND
    1    1    2 1     
    2    1   20 1     
    3    1   21 1     
    4    1   22 1     
    5    2   18 1     
    6    2    3 2     
    7    3    4 1     
    8    4    5 1     
    9    4    6 2     
   10    5   23 1     
   11    5   24 1     
   12    5   25 1     
   13    6    7 1     
   14    6   16 1     
   15    7    8 1     
   16    7   26 1     
   17    7   27 1     
   18    8    9 2     
   19    8   10 am    
   20   10   11 1     
   21   10   28 1     
   22   11   12 1     
   23   11   13 1     
   24   11   29 1     
   25   12   30 1     
   26   12   31 1     
   27   12   32 1     
   28   13   14 1     
   29   13   15 1     
   30   13   33 1     
   31   14   34 1     
   32   14   35 1     
   33   14   36 1     
   34   15   37 1     
   35   15   38 1     
   36   15   39 1     
   37   16   17 2     
   38   16   18 am    
   39   18   19 1     
   40    3   40 1     
   41    9   41 1     
   42    9   42 1     
   43   17   43 1     
   44   17   44 1     
@<TRIPOS>SUBSTRUCTURE
      1 S1             1
@<TRIPOS>SET
LONE_PAIRS      STATIC     ATOMS    <user>   **** ""
5 40 41 42 43 44
DONOR_HYDROGENS      STATIC     ATOMS    <user>   **** ""
2 28 19
ATOM$BLUE        STATIC     ATOMS    COLORGROUP SYSTEM
5 40 41 42 43 44
ATOM$RED        STATIC     ATOMS    COLORGROUP SYSTEM
2 28 19
