#       Name:                AV-unprocessed.smi:3158
#       Creating user name   scv26
#       Creation time:       Fri Mar 27 17:46:56 2020


#       File generated by GOLD software.
#

@<TRIPOS>MOLECULE
AV-unprocessed.smi:3158
    43    43     1
SMALL
NO_CHARGES


@<TRIPOS>ATOM
      1 ****        -3.2062   1.8403   3.4390 C.3            1 S1                 0.0000
      2 ****        -3.1565   2.5082   2.0570 C.3            1 S1                 0.0000
      3 ****        -2.6401   1.5800   0.9420 C.3            1 S1                 0.0000
      4 ****        -2.7095   2.2515  -0.4374 C.3            1 S1                 0.0000
      5 ****        -1.2639   1.1750   1.2203 N.am           1 S1                 0.0000
      6 ****        -0.7563  -0.0537   1.0359 C.2            1 S1                 0.0000
      7 ****        -1.4140  -1.0028   0.6070 O.2            1 S1                 0.0000
      8 ****         0.7228  -0.2390   1.4046 C.3            1 S1                 0.0000
      9 ****         0.8553  -0.5462   2.9043 C.3            1 S1                 0.0000
     10 ****         1.3605  -1.3178   0.6145 N.4            1 S1                 1.0000
     11 ****         1.6572  -0.9748  -0.7928 C.3            1 S1                 0.0000
     12 ****         2.2990  -2.1626  -1.5228 C.3            1 S1                 0.0000
     13 ****         2.5756  -1.8522  -2.9116 N.pl3          1 S1                 0.0000
     14 ****         1.9095  -2.2874  -4.0381 C.2            1 S1                 0.0000
     15 ****         2.5345  -1.7332  -5.1181 C.2            1 S1                 0.0000
     16 ****         3.5864  -0.9662  -4.5438 C.2            1 S1                 0.0000
     17 ****         3.6081  -1.0393  -3.2223 N.2            1 S1                 0.0000
     18 ****        -3.6212   2.5211   4.1826 H              1 S1                 0.0000
     19 ****        -2.2132   1.5467   3.7804 H              1 S1                 0.0000
     20 ****        -3.8322   0.9478   3.4212 H              1 S1                 0.0000
     21 ****        -4.1601   2.8501   1.8012 H              1 S1                 0.0000
     22 ****        -2.5366   3.4042   2.1111 H              1 S1                 0.0000
     23 ****        -3.2875   0.7014   0.9195 H              1 S1                 0.0000
     24 ****        -3.7312   2.5457  -0.6790 H              1 S1                 0.0000
     25 ****        -2.3693   1.5755  -1.2226 H              1 S1                 0.0000
     26 ****        -2.0880   3.1469  -0.4759 H              1 S1                 0.0000
     27 ****        -0.6506   1.8899   1.5843 H              1 S1                 0.0000
     28 ****         1.2561   0.6912   1.2012 H              1 S1                 0.0000
     29 ****         0.4211   0.2478   3.5134 H              1 S1                 0.0000
     30 ****         1.9025  -0.6397   3.1930 H              1 S1                 0.0000
     31 ****         0.3546  -1.4790   3.1682 H              1 S1                 0.0000
     32 ****         2.2345  -1.5561   1.0607 H              1 S1                 0.0000
     33 ****         0.7392  -0.6839  -1.3049 H              1 S1                 0.0000
     34 ****         2.3256  -0.1130  -0.8166 H              1 S1                 0.0000
     35 ****         3.2330  -2.4529  -1.0393 H              1 S1                 0.0000
     36 ****         1.6395  -3.0308  -1.4873 H              1 S1                 0.0000
     37 ****         1.0559  -2.9468  -3.9795 H              1 S1                 0.0000
     38 ****         2.2798  -1.8576  -6.1602 H              1 S1                 0.0000
     39 ****         4.3290  -0.3629  -5.0446 H              1 S1                 0.0000
     40 ****         0.7556  -2.1268   0.6360 H              1 S1                 0.0000
     41 ****        -2.3790  -0.8787   0.3763 LP             1 S1                 0.0000
     42 ****        -0.9828  -1.8974   0.4895 LP             1 S1                 0.0000
     43 ****         4.2460  -0.5927  -2.5949 LP             1 S1                 0.0000
@<TRIPOS>BOND
    1    1    2 1     
    2    1   18 1     
    3    1   19 1     
    4    1   20 1     
    5    2    3 1     
    6    2   21 1     
    7    2   22 1     
    8    3    4 1     
    9    3    5 1     
   10    3   23 1     
   11    4   24 1     
   12    4   25 1     
   13    4   26 1     
   14    5    6 am    
   15    5   27 1     
   16    6    7 2     
   17    6    8 1     
   18    8    9 1     
   19    8   10 1     
   20    8   28 1     
   21    9   29 1     
   22    9   30 1     
   23    9   31 1     
   24   10   11 1     
   25   10   32 1     
   26   10   40 1     
   27   11   12 1     
   28   11   33 1     
   29   11   34 1     
   30   12   13 1     
   31   12   35 1     
   32   12   36 1     
   33   13   17 1     
   34   13   14 1     
   35   14   15 2     
   36   14   37 1     
   37   15   16 1     
   38   15   38 1     
   39   16   17 2     
   40   16   39 1     
   41    7   41 1     
   42    7   42 1     
   43   17   43 1     
@<TRIPOS>SUBSTRUCTURE
      1 S1             1
@<TRIPOS>SET
LONE_PAIRS      STATIC     ATOMS    <user>   **** ""
3 41 42 43
DONOR_HYDROGENS      STATIC     ATOMS    <user>   **** ""
3 27 32 40
ATOM$BLUE        STATIC     ATOMS    COLORGROUP SYSTEM
3 41 42 43
ATOM$RED        STATIC     ATOMS    COLORGROUP SYSTEM
3 27 32 40
