#       Name:                AV-unprocessed.smi:3162
#       Creating user name   scv26
#       Creation time:       Fri Mar 27 17:49:39 2020


#       File generated by GOLD software.
#

@<TRIPOS>MOLECULE
AV-unprocessed.smi:3162
    40    40     1
SMALL
NO_CHARGES


@<TRIPOS>ATOM
      1 ****        -3.6246   2.8301   0.9142 C.3            1 S1                 0.0000
      2 ****        -3.0294   1.4143   0.8662 C.3            1 S1                 0.0000
      3 ****        -2.1529   1.1283  -0.3732 C.3            1 S1                 0.0000
      4 ****        -1.4880  -0.1870  -0.2196 N.4            1 S1                 1.0000
      5 ****        -0.0115  -0.1644  -0.1160 C.3            1 S1                 0.0000
      6 ****         0.4420   0.4041   1.2429 C.3            1 S1                 0.0000
      7 ****         0.5365  -1.5831  -0.3743 C.3            1 S1                 0.0000
      8 ****         1.9863  -1.6496  -0.3365 N.pl3          1 S1                 0.0000
      9 ****         2.7936  -2.2940   0.5769 C.2            1 S1                 0.0000
     10 ****         4.0897  -2.0841   0.1997 C.2            1 S1                 0.0000
     11 ****         5.3489  -2.5661   0.8608 C.3            1 S1                 0.0000
     12 ****         3.9676  -1.2944  -0.9789 C.2            1 S1                 0.0000
     13 ****         2.7093  -1.0388  -1.2986 N.2            1 S1                 0.0000
     14 ****        -2.9784   1.1383  -1.6679 C.2            1 S1                 0.0000
     15 ****        -2.9902   2.2692  -2.3787 N.am           1 S1                 0.0000
     16 ****        -3.6048   0.1403  -2.0201 O.2            1 S1                 0.0000
     17 ****        -4.1693   2.9866   1.8453 H              1 S1                 0.0000
     18 ****        -4.3239   3.0039   0.0963 H              1 S1                 0.0000
     19 ****        -2.8427   3.5878   0.8567 H              1 S1                 0.0000
     20 ****        -2.4298   1.2724   1.7662 H              1 S1                 0.0000
     21 ****        -3.8364   0.6826   0.9299 H              1 S1                 0.0000
     22 ****        -1.3942   1.9094  -0.4518 H              1 S1                 0.0000
     23 ****        -1.8717  -0.6599   0.5858 H              1 S1                 0.0000
     24 ****         0.3649   0.4850  -0.9081 H              1 S1                 0.0000
     25 ****         1.5288   0.4593   1.3096 H              1 S1                 0.0000
     26 ****         0.0913  -0.2162   2.0683 H              1 S1                 0.0000
     27 ****         0.0658   1.4144   1.4029 H              1 S1                 0.0000
     28 ****         0.1407  -2.2813   0.3649 H              1 S1                 0.0000
     29 ****         0.2072  -1.9439  -1.3501 H              1 S1                 0.0000
     30 ****         2.3842  -2.8413   1.4135 H              1 S1                 0.0000
     31 ****         6.1974  -2.5505   0.1764 H              1 S1                 0.0000
     32 ****         5.2484  -3.5894   1.2230 H              1 S1                 0.0000
     33 ****         5.6152  -1.9462   1.7170 H              1 S1                 0.0000
     34 ****         4.7525  -0.9020  -1.6085 H              1 S1                 0.0000
     35 ****        -3.5134   2.3227  -3.2410 H              1 S1                 0.0000
     36 ****        -2.4676   3.0702  -2.0533 H              1 S1                 0.0000
     37 ****        -1.7249  -0.7251  -1.0414 H              1 S1                 0.0000
     38 ****         2.3703  -0.5117  -2.0778 LP             1 S1                 0.0000
     39 ****        -3.5797  -0.6888  -1.4614 LP             1 S1                 0.0000
     40 ****        -4.1392   0.1578  -2.8651 LP             1 S1                 0.0000
@<TRIPOS>BOND
    1    1    2 1     
    2    1   17 1     
    3    1   18 1     
    4    1   19 1     
    5    2    3 1     
    6    2   20 1     
    7    2   21 1     
    8    3    4 1     
    9    3   14 1     
   10    3   22 1     
   11    4    5 1     
   12    4   23 1     
   13    4   37 1     
   14    5    6 1     
   15    5    7 1     
   16    5   24 1     
   17    6   25 1     
   18    6   26 1     
   19    6   27 1     
   20    7    8 1     
   21    7   28 1     
   22    7   29 1     
   23    8   13 1     
   24    8    9 1     
   25    9   10 2     
   26    9   30 1     
   27   10   11 1     
   28   10   12 1     
   29   11   31 1     
   30   11   32 1     
   31   11   33 1     
   32   12   13 2     
   33   12   34 1     
   34   14   15 am    
   35   14   16 2     
   36   15   35 1     
   37   15   36 1     
   38   13   38 1     
   39   16   39 1     
   40   16   40 1     
@<TRIPOS>SUBSTRUCTURE
      1 S1             1
@<TRIPOS>SET
LONE_PAIRS      STATIC     ATOMS    <user>   **** ""
3 38 39 40
DONOR_HYDROGENS      STATIC     ATOMS    <user>   **** ""
4 23 37 35 36
ATOM$BLUE        STATIC     ATOMS    COLORGROUP SYSTEM
3 38 39 40
ATOM$RED        STATIC     ATOMS    COLORGROUP SYSTEM
4 23 37 35 36
