AV-unprocessed.smi:148|AV-procd|sdf|1224|dock4
  -GOLD-   2262018423D 1   1.00000     0.00000
 Structure written by MMmdl.
 63 67  0  0  0  0  0  0  0  0  1 V2000
  150.1757  132.8797  157.8520 O   0  0  0  0  0  0  0  0  0  0  0  0
  149.6041  133.6074  156.7856 C   0  0  0  0  0  0  0  0  0  0  0  0
  150.5636  133.7054  155.5708 C   0  0  2  0  0  0  0  0  0  0  0  0
  150.2225  134.9268  154.6776 C   0  0  0  0  0  0  0  0  0  0  0  0
  150.2094  136.1903  155.3946 N   0  0  0  0  0  0  0  0  0  0  0  0
  149.2698  136.6095  156.3104 C   0  0  0  0  0  0  0  0  0  0  0  0
  149.4777  137.7930  156.8201 N   0  0  0  0  0  0  0  0  0  0  0  0
  150.6437  138.2228  156.2009 C   0  0  0  0  0  0  0  0  0  0  0  0
  151.4209  139.4074  156.2778 C   0  0  0  0  0  0  0  0  0  0  0  0
  151.0833  140.4286  157.0948 N   0  0  0  0  0  0  0  0  0  0  0  0
  152.2746  140.9503  157.7685 C   0  0  0  0  0  0  0  0  0  0  0  0
  151.8989  141.8848  158.9222 C   0  0  0  0  0  0  0  0  0  0  0  0
  151.0073  143.0133  158.4025 C   0  0  0  0  0  0  0  0  0  0  0  0
  149.7769  142.4252  157.6996 C   0  0  0  0  0  0  0  0  0  0  0  0
  150.1486  141.4393  156.5581 C   0  0  2  0  0  0  0  0  0  0  0  0
  148.8520  140.8288  155.9177 C   0  0  1  0  0  0  0  0  0  0  0  0
  147.7278  141.8398  155.6200 C   0  0  0  0  0  0  0  0  0  0  0  0
  146.7785  141.1565  154.6291 C   0  0  0  0  0  0  0  0  0  0  0  0
  147.5590  139.9809  154.0315 C   0  0  0  0  0  0  0  0  0  0  0  0
  148.9935  140.1134  154.5537 C   0  0  1  0  0  0  0  0  0  0  0  0
  149.7416  140.8927  153.6390 O   0  0  0  0  0  0  0  0  0  0  0  0
  152.5362  139.4919  155.5053 N   0  0  0  0  0  0  0  0  0  0  0  0
  152.8616  138.4795  154.6951 C   0  0  0  0  0  0  0  0  0  0  0  0
  152.2281  137.3179  154.5128 N   0  0  0  0  0  0  0  0  0  0  0  0
  151.1149  137.2316  155.2965 C   0  0  0  0  0  0  0  0  0  0  0  0
  150.5709  132.4036  154.7216 C   0  0  1  0  0  0  0  0  0  0  0  0
  150.8432  131.1295  155.5049 C   0  0  0  0  0  0  0  0  0  0  0  0
  150.3521  130.0445  154.5531 C   0  0  0  0  0  0  0  0  0  0  0  0
  149.2840  130.6299  153.8188 O   0  0  0  0  0  0  0  0  0  0  0  0
  149.2351  132.0308  154.0676 C   0  0  0  0  0  0  0  0  0  0  0  0
  149.6116  132.1490  158.0547 H   0  0  0  0  0  0  0  0  0  0  0  0
  148.6578  133.1497  156.4962 H   0  0  0  0  0  0  0  0  0  0  0  0
  149.3657  134.5896  157.1906 H   0  0  0  0  0  0  0  0  0  0  0  0
  151.5715  133.8645  155.9567 H   0  0  0  0  0  0  0  0  0  0  0  0
  150.9452  135.0280  153.8680 H   0  0  0  0  0  0  0  0  0  0  0  0
  149.2483  134.7862  154.2075 H   0  0  0  0  0  0  0  0  0  0  0  0
  148.4232  136.0025  156.5961 H   0  0  0  0  0  0  0  0  0  0  0  0
  152.8788  140.1265  158.1524 H   0  0  0  0  0  0  0  0  0  0  0  0
  152.8927  141.4900  157.0494 H   0  0  0  0  0  0  0  0  0  0  0  0
  151.3761  141.3241  159.6982 H   0  0  0  0  0  0  0  0  0  0  0  0
  152.7982  142.2950  159.3819 H   0  0  0  0  0  0  0  0  0  0  0  0
  150.6989  143.6587  159.2254 H   0  0  0  0  0  0  0  0  0  0  0  0
  151.5679  143.6378  157.7058 H   0  0  0  0  0  0  0  0  0  0  0  0
  149.1548  141.9136  158.4356 H   0  0  0  0  0  0  0  0  0  0  0  0
  149.1849  143.2565  157.3185 H   0  0  0  0  0  0  0  0  0  0  0  0
  150.6826  142.0120  155.7993 H   0  0  0  0  0  0  0  0  0  0  0  0
  148.4390  140.1090  156.6271 H   0  0  0  0  0  0  0  0  0  0  0  0
  147.2021  142.1579  156.5209 H   0  0  0  0  0  0  0  0  0  0  0  0
  148.1467  142.7316  155.1516 H   0  0  0  0  0  0  0  0  0  0  0  0
  145.8832  140.7944  155.1360 H   0  0  0  0  0  0  0  0  0  0  0  0
  146.4563  141.8564  153.8576 H   0  0  0  0  0  0  0  0  0  0  0  0
  147.1291  139.0476  154.3976 H   0  0  0  0  0  0  0  0  0  0  0  0
  147.5048  139.9512  152.9420 H   0  0  0  0  0  0  0  0  0  0  0  0
  149.4501  139.1288  154.6271 H   0  0  0  0  0  0  0  0  0  0  0  0
  149.4805  140.6581  152.7617 H   0  0  0  0  0  0  0  0  0  0  0  0
  153.7572  138.6215  154.1087 H   0  0  0  0  0  0  0  0  0  0  0  0
  151.3261  132.4895  153.9383 H   0  0  0  0  0  0  0  0  0  0  0  0
  151.8929  130.9987  155.7691 H   0  0  0  0  0  0  0  0  0  0  0  0
  150.2551  131.1151  156.4239 H   0  0  0  0  0  0  0  0  0  0  0  0
  151.1413  129.7661  153.8536 H   0  0  0  0  0  0  0  0  0  0  0  0
  150.0305  129.1446  155.0778 H   0  0  0  0  0  0  0  0  0  0  0  0
  148.4040  132.2266  154.7469 H   0  0  0  0  0  0  0  0  0  0  0  0
  149.0540  132.5791  153.1430 H   0  0  0  0  0  0  0  0  0  0  0  0
  1  2  1  0  0  0  0
  1 31  1  0  0  0  0
  2  3  1  0  0  0  0
  2 32  1  0  0  0  0
  2 33  1  0  0  0  0
  3  4  1  0  0  0  0
  3 26  1  0  0  0  0
  3 34  1  0  0  0  0
  4  5  1  0  0  0  0
  4 35  1  0  0  0  0
  4 36  1  0  0  0  0
  5 25  1  0  0  0  0
  5  6  1  0  0  0  0
  6  7  2  0  0  0  0
  6 37  1  0  0  0  0
  7  8  1  0  0  0  0
  8 25  2  0  0  0  0
  8  9  1  0  0  0  0
  9 10  1  0  0  0  0
  9 22  2  0  0  0  0
 10 15  1  0  0  0  0
 10 11  1  0  0  0  0
 11 12  1  0  0  0  0
 11 38  1  0  0  0  0
 11 39  1  0  0  0  0
 12 13  1  0  0  0  0
 12 40  1  0  0  0  0
 12 41  1  0  0  0  0
 13 14  1  0  0  0  0
 13 42  1  0  0  0  0
 13 43  1  0  0  0  0
 14 15  1  0  0  0  0
 14 44  1  0  0  0  0
 14 45  1  0  0  0  0
 15 16  1  0  0  0  0
 15 46  1  0  0  0  0
 16 20  1  0  0  0  0
 16 17  1  0  0  0  0
 16 47  1  0  0  0  0
 17 18  1  0  0  0  0
 17 48  1  0  0  0  0
 17 49  1  0  0  0  0
 18 19  1  0  0  0  0
 18 50  1  0  0  0  0
 18 51  1  0  0  0  0
 19 20  1  0  0  0  0
 19 52  1  0  0  0  0
 19 53  1  0  0  0  0
 20 21  1  0  0  0  0
 20 54  1  0  0  0  0
 21 55  1  0  0  0  0
 22 23  1  0  0  0  0
 23 24  2  0  0  0  0
 23 56  1  0  0  0  0
 24 25  1  0  0  0  0
 26 30  1  0  0  0  0
 26 27  1  0  0  0  0
 26 57  1  0  0  0  0
 27 28  1  0  0  0  0
 27 58  1  0  0  0  0
 27 59  1  0  0  0  0
 28 29  1  0  0  0  0
 28 60  1  0  0  0  0
 28 61  1  0  0  0  0
 29 30  1  0  0  0  0
 30 62  1  0  0  0  0
 30 63  1  0  0  0  0
M  END
> <s_m_source_file>
AV-unprocessed.smi

> <i_m_source_file_index>
148

> <i_lp_mmshare_version>
43012

> <i_f3d_flags>
0

> <s_epik_input>
W0NIMl0xT1tDSDJdW0NIMl1bQ0BIXTFbQ0BIXShbQ0gyXVtPSF0pW0NIMl1uKFtjSF1uMiljKGMyMyluW2NIXW5jM040W0NIMl1bQ0gyXVtDSDJdW0NIMl1bQ0BIXTRbQ0BASF01W0NIMl1bQ0gyXVtDSDJdW0NASF01W09IXQ==

> <s_epik_cmdline>
J2VwaWtfcHl0aG9uJywgJy1waCcsICc3LjAnLCAnLXRuJywgJzgnLCAnLW1hJywgJzIwMCcsICctbWV0YWxfYmluZGluZycsICctaW1hZScsICc8aW5maWxlLm1hZT4nLCAnLW9tYWUnLCAnPG91dGZpbGUubWFlPic=

> <r_lp_tautomer_probability>
1

> <r_epik_Ionization_Penalty>
0.00556303

> <r_epik_Ionization_Penalty_Charging>
0

> <r_epik_Ionization_Penalty_Neutral>
0.00556303

> <r_epik_State_Penalty>
0.00401767

> <r_epik_Charging_Adjusted_Penalty>
0.00401767

> <i_epik_Tot_Q>
0

> <i_epik_Tot_abs_Q>
0

> <r_epik_Metal_State_Penalty>
-0

> <b_epik_Metal_Only>
0

> <s_lp_Force_Field>
OPLS_2005

> <r_lp_Energy>
70.7604

> <b_lp_Chiralities_Consistent>
1

> <s_lp_Variant>
AV-unprocessed.smi:148-23

> <Gold.Version>
5.8.1

> <Gold.Id.Protein>
6NUR|6NUR_protein|mol2

> <Gold.PLP.Fitness>
54.0141

> <Gold.PLP.PLP>
-43.4948

> <Gold.PLP.part.hbond>
-5.4341

> <Gold.PLP.part.metal>
0.0000

> <Gold.PLP.part.buried>
-4.2477

> <Gold.PLP.part.nonpolar>
-33.5708

> <Gold.PLP.part.repulsive>
0.2058

> <Gold.PLP.ligand.clash>
0.0000

> <Gold.PLP.ligand.torsion>
1.1301

> <Gold.PLP.Chemscore.Hbond>
4.0133

> <Gold.PLP.Chemscore.CHOScore>
0.0000

> <Gold.PLP.Chemscore.Metal>
0.0000

> <Gold.Chemscore.Hbonds>
donor molecule, donor type, donor heavy atom, donor atom, acceptor molecule, acceptor atom, score
      L1  H    21    55       P1  7957  1.00
      P1  H  6896  6908       L1     1  1.00
      P1  H  7989  7998       L1    21  0.37
      P1  H  7997  8009       L1    22  0.96
      P1  H 10752 10764       L1    24  0.77

> <Gold.PLP.Chemscore.Internal.Correction>
0.7397

> <Gold.Rescore>
     Score         DG    S(hbond)    S(metal)    S(lipo)     H(rot)  DE(clash)    DE(int)     intcor
     18.80     -20.50       3.53        0.00     100.36       3.32       0.20       1.50       ----

> <Gold.Chemscore.Fitness>
18.8045

> <Gold.Chemscore.DG>
-20.5039

> <Gold.Chemscore.ZeroCoef>
-5.4800

> <Gold.Chemscore.Hbond>
3.5275

> <Gold.Chemscore.Metal>
0.0000

> <Gold.Chemscore.Lipo>
100.3598

> <Gold.Chemscore.Internal_Hbond>
0.0000

> <Gold.Chemscore.DEClash>
0.2019

> <Gold.Chemscore.DEInternal>
1.4975

> <Gold.Chemscore.Rot>
3.3203

> <Gold.Chemscore.Internal.Correction>
   9.000000E+99

> <Gold.Chemscore.Hbonds>
donor molecule, donor type, donor heavy atom, donor atom, acceptor molecule, acceptor atom, score
      L1  H    21    55       P1  7957  0.99
      P1  H  6896  6908       L1     1  0.88
      P1  H  7989  7998       L1    21  0.11
      P1  H  7997  8009       L1    22  0.40
      P1  H 10752 10764       L1    24  0.65

> <Gold.Chemscore.Hbond.Weighted>
-11.7818

> <Gold.Chemscore.Metal.Weighted>
-0.0000

> <Gold.Chemscore.Lipo.Weighted>
-11.7421

> <Gold.Chemscore.Internal_Hbond.Weighted>
0.0000

> <Gold.Chemscore.DEClash.Weighted>
0.2019

> <Gold.Chemscore.DEInternal.Weighted>
1.4975

> <Gold.Chemscore.Rot.Weighted>
8.5000

> <Gold.Chemscore.Internal.Correction.Weighted>
   9.000000E+99

> <Gold.Protein.RotatedTorsions>
[ 6907 6896 6895 6894 ] final   90.56 input  -60.11 | X-H torsion
[ 7974 7965 7964 7962 ] final -112.10 input  175.53 | X-H torsion
[ 8008 7997 7996 7995 ] final -156.85 input   59.86 | X-H torsion
[ 10167 10162 10161 10158 ] final  -59.26 input  -65.29 | X-H torsion
[ 10718 10713 10712 10709 ] final -165.10 input   66.30 | X-H torsion
[ 10763 10752 10751 10750 ] final  -84.39 input  -60.55 | X-H torsion
[ 11005 11000 10999 10996 ] final  -57.61 input  -57.11 | X-H torsion

> <Gold.Protein.ActiveResidues>
 VAL166  LYS551  ARG553  GLY616  TRP617  ASP618  TYR619  PRO620  LYS621  CYS622 
 ASP623  PHE694  ASN695  SER759  ASP760  ASP761  ALA762  ILE779  LEU786  VAL792 
 PHE793  MET794  SER795  GLU796  ALA797  LYS798  CYS799  TRP800  GLU811  SER814 

> <Gold.Protein.RotatedAtoms>
  152.5445  134.1793  159.8628 H   0  0  0  0  0  0  0  0  0  0  0  0  # atno 6907 bound_to 6896
  151.1797  133.4726  159.2601 H   0  0  0  0  0  0  0  0  0  0  0  0  # atno 6908 bound_to 6896
  151.1191  135.0081  159.8585 H   0  0  0  0  0  0  0  0  0  0  0  0  # atno 6909 bound_to 6896
  145.1481  140.8814  143.3662 H   0  0  0  0  0  0  0  0  0  0  0  0  # atno 7974 bound_to 7965
  155.7235  140.0793  157.2320 H   0  0  0  0  0  0  0  0  0  0  0  0  # atno 8008 bound_to 7997
  154.4042  140.1608  156.2483 H   0  0  0  0  0  0  0  0  0  0  0  0  # atno 8009 bound_to 7997
  155.9174  140.3400  155.6149 H   0  0  0  0  0  0  0  0  0  0  0  0  # atno 8010 bound_to 7997
  140.6146  143.2398  151.5628 H   0  0  0  0  0  0  0  0  0  0  0  0  # atno 10167 bound_to 10162
  156.6486  130.8998  151.3009 H   0  0  0  0  0  0  0  0  0  0  0  0  # atno 10718 bound_to 10713
  154.5989  135.5522  153.7354 H   0  0  0  0  0  0  0  0  0  0  0  0  # atno 10763 bound_to 10752
  153.0147  135.6361  154.1742 H   0  0  0  0  0  0  0  0  0  0  0  0  # atno 10764 bound_to 10752
  154.1682  135.2893  155.3069 H   0  0  0  0  0  0  0  0  0  0  0  0  # atno 10765 bound_to 10752
  141.1172  133.6610  156.4796 H   0  0  0  0  0  0  0  0  0  0  0  0  # atno 11005 bound_to 11000
  145.0460  139.3220  143.5952 LP  0  0  0  0  0  0  0  0  0  0  0  0  # atno 17320 bound_to 7965
  146.3498  139.9851  142.8691 LP  0  0  0  0  0  0  0  0  0  0  0  0  # atno 17321 bound_to 7965
  139.5388  144.2705  152.1308 LP  0  0  0  0  0  0  0  0  0  0  0  0  # atno 17342 bound_to 10162
  140.1911  144.4750  150.6478 LP  0  0  0  0  0  0  0  0  0  0  0  0  # atno 17343 bound_to 10162
  157.7148  130.9484  150.1217 LP  0  0  0  0  0  0  0  0  0  0  0  0  # atno 17370 bound_to 10713
  156.2102  130.3666  149.8679 LP  0  0  0  0  0  0  0  0  0  0  0  0  # atno 17371 bound_to 10713
  140.4612  134.6840  157.5086 LP  0  0  0  0  0  0  0  0  0  0  0  0  # atno 17394 bound_to 11000
  140.0102  134.6701  155.9392 LP  0  0  0  0  0  0  0  0  0  0  0  0  # atno 17395 bound_to 11000

$$$$
