#       Name:                AV-unprocessed.smi:2750
#       Creating user name   scv26
#       Creation time:       Fri Mar 27 15:04:20 2020


#       File generated by GOLD software.
#

@<TRIPOS>MOLECULE
AV-unprocessed.smi:2750
    35    36     1
SMALL
NO_CHARGES


@<TRIPOS>ATOM
      1 ****        -4.1025   2.2671  -0.4020 O.co2          1 S1                 0.0000
      2 ****        -3.9288   1.9777   0.8024 C.2            1 S1                 0.0000
      3 ****        -4.2529   2.6909   1.7772 O.co2          1 S1                -1.0000
      4 ****        -3.2670   0.6343   1.1097 C.3            1 S1                 0.0000
      5 ****        -1.8226   0.6974   0.9832 N.pl3          1 S1                 0.0000
      6 ****        -1.0487   0.4933  -0.1405 C.2            1 S1                 0.0000
      7 ****         0.2256   0.6775   0.3146 C.2            1 S1                 0.0000
      8 ****         1.5214   0.5826  -0.4334 C.3            1 S1                 0.0000
      9 ****         2.2698  -0.7367  -0.1582 C.3            1 S1                 0.0000
     10 ****         1.5553  -1.8691  -0.7085 N.am           1 S1                 0.0000
     11 ****         2.3039  -2.5379  -1.5828 C.2            1 S1                 0.0000
     12 ****         1.8883  -3.5442  -2.1527 O.2            1 S1                 0.0000
     13 ****         3.5055  -1.9435  -1.7151 N.pl3          1 S1                -1.0000
     14 ****         3.5902  -0.8562  -0.9182 C.2            1 S1                 0.0000
     15 ****         4.5116  -0.0573  -0.7590 O.2            1 S1                 0.0000
     16 ****         0.1762   0.9822   1.6745 N.2            1 S1                 0.0000
     17 ****        -1.0601   0.9934   2.0637 N.2            1 S1                 0.0000
     18 ****        -3.5276   0.3082   2.1179 H              1 S1                 0.0000
     19 ****        -3.6454  -0.1248   0.4238 H              1 S1                 0.0000
     20 ****        -1.4535   0.2491  -1.1114 H              1 S1                 0.0000
     21 ****         1.3438   0.6952  -1.5042 H              1 S1                 0.0000
     22 ****         2.1588   1.4217  -0.1518 H              1 S1                 0.0000
     23 ****         2.4431  -0.8828   0.9090 H              1 S1                 0.0000
     24 ****         0.6152  -2.1188  -0.4391 H              1 S1                 0.0000
     25 ****        -4.5343   3.1341  -0.6506 LP             1 S1                 0.0000
     26 ****        -3.8096   1.6315  -1.1162 LP             1 S1                 0.0000
     27 ****        -4.6913   3.5767   1.6249 LP             1 S1                 0.0000
     28 ****        -4.0736   2.3755   2.7091 LP             1 S1                 0.0000
     29 ****         0.9656  -3.8805  -1.9641 LP             1 S1                 0.0000
     30 ****         2.4728  -4.0267  -2.8050 LP             1 S1                 0.0000
     31 ****         4.2346  -2.2633  -2.3201 LP             1 S1                 0.0000
     32 ****         4.4102   0.7011  -0.1151 LP             1 S1                 0.0000
     33 ****         5.3622  -0.1661  -1.2734 LP             1 S1                 0.0000
     34 ****         0.9687   1.1633   2.2569 LP             1 S1                 0.0000
     35 ****        -1.3896   1.1847   2.9883 LP             1 S1                 0.0000
@<TRIPOS>BOND
    1    1    2 ar    
    2    2    3 ar    
    3    2    4 1     
    4    4    5 1     
    5    4   18 1     
    6    4   19 1     
    7    5   17 1     
    8    5    6 1     
    9    6    7 2     
   10    6   20 1     
   11    7    8 1     
   12    7   16 1     
   13    8    9 1     
   14    8   21 1     
   15    8   22 1     
   16    9   14 1     
   17    9   10 1     
   18    9   23 1     
   19   10   11 am    
   20   10   24 1     
   21   11   12 2     
   22   11   13 1     
   23   13   14 1     
   24   14   15 2     
   25   16   17 2     
   26    1   25 1     
   27    1   26 1     
   28    3   27 1     
   29    3   28 1     
   30   12   29 1     
   31   12   30 1     
   32   13   31 1     
   33   15   32 1     
   34   15   33 1     
   35   16   34 1     
   36   17   35 1     
@<TRIPOS>SUBSTRUCTURE
      1 S1             1
@<TRIPOS>SET
LONE_PAIRS      STATIC     ATOMS    <user>   **** ""
11 25 26 27 28 29 30 31 32 33 34 35
DONOR_HYDROGENS      STATIC     ATOMS    <user>   **** ""
1 24
ATOM$BLUE        STATIC     ATOMS    COLORGROUP SYSTEM
11 25 26 27 28 29 30 31 32 33 34 35
ATOM$RED        STATIC     ATOMS    COLORGROUP SYSTEM
1 24
