AV-unprocessed.smi:2085|AV-procd|sdf|8516|dock10
  -GOLD-   2272011233D 1   1.00000     0.00000
 Structure written by MMmdl.
 30 31  0  0  0  0  0  0  0  0  1 V2000
  151.4277  145.4918  160.1660 C   0  0  0  0  0  0  0  0  0  0  0  0
  151.4070  144.2452  159.4785 O   0  0  0  0  0  0  0  0  0  0  0  0
  152.0985  143.1796  160.0230 C   0  0  0  0  0  0  0  0  0  0  0  0
  152.6995  143.3493  161.2276 N   0  0  0  0  0  0  0  0  0  0  0  0
  153.3799  142.3129  161.7584 C   0  0  0  0  0  0  0  0  0  0  0  0
  153.5023  141.0650  161.1210 C   0  0  0  0  0  0  0  0  0  0  0  0
  152.8801  140.8861  159.8716 C   0  0  0  0  0  0  0  0  0  0  0  0
  152.1498  141.9603  159.3073 C   0  0  0  0  0  0  0  0  0  0  0  0
  151.5005  141.8972  158.0428 N   0  0  0  0  0  0  0  0  0  0  0  0
  151.7237  141.0577  157.0145 C   0  0  0  0  0  0  0  0  0  0  0  0
  152.5347  140.1321  157.0354 O   0  0  0  0  0  0  0  0  0  0  0  0
  150.8516  141.2679  155.7677 C   0  0  2  0  0  0  0  0  0  0  0  0
  149.3428  141.2084  156.0429 C   0  0  0  0  0  0  0  0  0  0  0  0
  148.8033  140.6397  154.7498 C   0  0  0  0  0  0  0  0  0  0  0  0
  149.8935  139.6444  154.3750 C   0  0  0  0  0  0  0  0  0  0  0  0
  151.1111  140.2455  154.8014 O   0  0  0  0  0  0  0  0  0  0  0  0
  150.8383  146.2198  159.6090 H   0  0  0  0  0  0  0  0  0  0  0  0
  152.4419  145.8840  160.2516 H   0  0  0  0  0  0  0  0  0  0  0  0
  150.9911  145.4056  161.1621 H   0  0  0  0  0  0  0  0  0  0  0  0
  153.8468  142.4856  162.7167 H   0  0  0  0  0  0  0  0  0  0  0  0
  154.0658  140.2645  161.5771 H   0  0  0  0  0  0  0  0  0  0  0  0
  152.9899  139.9382  159.3688 H   0  0  0  0  0  0  0  0  0  0  0  0
  150.7357  142.5455  157.9184 H   0  0  0  0  0  0  0  0  0  0  0  0
  151.1071  142.2259  155.3131 H   0  0  0  0  0  0  0  0  0  0  0  0
  149.1137  140.5307  156.8675 H   0  0  0  0  0  0  0  0  0  0  0  0
  148.9189  142.1851  156.2783 H   0  0  0  0  0  0  0  0  0  0  0  0
  147.8215  140.1781  154.8590 H   0  0  0  0  0  0  0  0  0  0  0  0
  148.7333  141.4239  153.9947 H   0  0  0  0  0  0  0  0  0  0  0  0
  149.7564  138.7083  154.9178 H   0  0  0  0  0  0  0  0  0  0  0  0
  149.9099  139.4201  153.3084 H   0  0  0  0  0  0  0  0  0  0  0  0
  1  2  1  0  0  0  0
  1 17  1  0  0  0  0
  1 18  1  0  0  0  0
  1 19  1  0  0  0  0
  2  3  1  0  0  0  0
  3  8  1  0  0  0  0
  3  4  2  0  0  0  0
  4  5  1  0  0  0  0
  5  6  2  0  0  0  0
  5 20  1  0  0  0  0
  6  7  1  0  0  0  0
  6 21  1  0  0  0  0
  7  8  2  0  0  0  0
  7 22  1  0  0  0  0
  8  9  1  0  0  0  0
  9 10  1  0  0  0  0
  9 23  1  0  0  0  0
 10 11  2  0  0  0  0
 10 12  1  0  0  0  0
 12 16  1  0  0  0  0
 12 13  1  0  0  0  0
 12 24  1  0  0  0  0
 13 14  1  0  0  0  0
 13 25  1  0  0  0  0
 13 26  1  0  0  0  0
 14 15  1  0  0  0  0
 14 27  1  0  0  0  0
 14 28  1  0  0  0  0
 15 16  1  0  0  0  0
 15 29  1  0  0  0  0
 15 30  1  0  0  0  0
M  END
> <s_m_source_file>
AV-unprocessed.smi

> <i_m_source_file_index>
2085

> <i_lp_mmshare_version>
43012

> <i_f3d_flags>
0

> <s_epik_input>
W0NIM11PYzFuW2NIXVtjSF1bY0hdYzFbTkhdQyg9TylbQ0BASF0yW0NIMl1bQ0gyXVtDSDJdTzI=

> <s_epik_cmdline>
J2VwaWtfcHl0aG9uJywgJy1waCcsICc3LjAnLCAnLXRuJywgJzgnLCAnLW1hJywgJzIwMCcsICctbWV0YWxfYmluZGluZycsICctaW1hZScsICc8aW5maWxlLm1hZT4nLCAnLW9tYWUnLCAnPG91dGZpbGUubWFlPic=

> <r_lp_tautomer_probability>
1

> <r_epik_Ionization_Penalty>
2.59253e-05

> <r_epik_Ionization_Penalty_Charging>
0

> <r_epik_Ionization_Penalty_Neutral>
2.59253e-05

> <r_epik_State_Penalty>
-0

> <r_epik_Charging_Adjusted_Penalty>
0

> <i_epik_Tot_Q>
0

> <i_epik_Tot_abs_Q>
0

> <r_epik_Metal_State_Penalty>
-0

> <b_epik_Metal_Only>
0

> <s_lp_Force_Field>
OPLS_2005

> <r_lp_Energy>
24.0215

> <b_lp_Chiralities_Consistent>
1

> <s_lp_Variant>
AV-unprocessed.smi:2085-1

> <Gold.Version>
5.8.1

> <Gold.Id.Protein>
6NUR|6NUR_protein|mol2

> <Gold.PLP.Fitness>
40.0721

> <Gold.PLP.PLP>
-34.3404

> <Gold.PLP.part.hbond>
-2.0000

> <Gold.PLP.part.metal>
0.0000

> <Gold.PLP.part.buried>
-4.3401

> <Gold.PLP.part.nonpolar>
-26.9356

> <Gold.PLP.part.repulsive>
0.2682

> <Gold.PLP.ligand.clash>
0.0000

> <Gold.PLP.ligand.torsion>
0.1378

> <Gold.PLP.Chemscore.Hbond>
2.0000

> <Gold.PLP.Chemscore.CHOScore>
0.0000

> <Gold.PLP.Chemscore.Metal>
0.0000

> <Gold.Chemscore.Hbonds>
donor molecule, donor type, donor heavy atom, donor atom, acceptor molecule, acceptor atom, score
      P1  H  7989  7998       L1    16  1.00
      P1  H  7997  8009       L1    11  1.00

> <Gold.PLP.Chemscore.Internal.Correction>
0.0072

> <Gold.Rescore>
     Score         DG    S(hbond)    S(metal)    S(lipo)     H(rot)  DE(clash)    DE(int)     intcor
     15.48     -16.83       1.73        0.00      74.80       1.24       0.06       1.28       ----

> <Gold.Chemscore.Fitness>
15.4838

> <Gold.Chemscore.DG>
-16.8300

> <Gold.Chemscore.ZeroCoef>
-5.4800

> <Gold.Chemscore.Hbond>
1.7270

> <Gold.Chemscore.Metal>
0.0000

> <Gold.Chemscore.Lipo>
74.7977

> <Gold.Chemscore.Internal_Hbond>
0.0000

> <Gold.Chemscore.DEClash>
0.0640

> <Gold.Chemscore.DEInternal>
1.2822

> <Gold.Chemscore.Rot>
1.2381

> <Gold.Chemscore.Internal.Correction>
   9.000000E+99

> <Gold.Chemscore.Hbonds>
donor molecule, donor type, donor heavy atom, donor atom, acceptor molecule, acceptor atom, score
      P1  H  7989  7998       L1    16  0.24
      P1  H  7997  8009       L1    11  0.97

> <Gold.Chemscore.Hbond.Weighted>
-5.7681

> <Gold.Chemscore.Metal.Weighted>
-0.0000

> <Gold.Chemscore.Lipo.Weighted>
-8.7513

> <Gold.Chemscore.Internal_Hbond.Weighted>
0.0000

> <Gold.Chemscore.DEClash.Weighted>
0.0640

> <Gold.Chemscore.DEInternal.Weighted>
1.2822

> <Gold.Chemscore.Rot.Weighted>
3.1694

> <Gold.Chemscore.Internal.Correction.Weighted>
   9.000000E+99

> <Gold.Protein.RotatedTorsions>
[ 6907 6896 6895 6894 ] final  -18.17 input  -60.11 | X-H torsion
[ 7974 7965 7964 7962 ] final  121.24 input  175.53 | X-H torsion
[ 8008 7997 7996 7995 ] final  177.79 input   59.86 | X-H torsion
[ 10167 10162 10161 10158 ] final  -32.13 input  -65.29 | X-H torsion
[ 10718 10713 10712 10709 ] final   65.68 input   66.30 | X-H torsion
[ 10763 10752 10751 10750 ] final -110.84 input  -60.55 | X-H torsion
[ 11005 11000 10999 10996 ] final -153.20 input  -57.11 | X-H torsion

> <Gold.Protein.ActiveResidues>
 VAL166  LYS551  ARG553  GLY616  TRP617  ASP618  TYR619  PRO620  LYS621  CYS622 
 ASP623  PHE694  ASN695  SER759  ASP760  ASP761  ALA762  ILE779  LEU786  VAL792 
 PHE793  MET794  SER795  GLU796  ALA797  LYS798  CYS799  TRP800  GLU811  SER814 

> <Gold.Protein.RotatedAtoms>
  151.2822  135.0717  159.9173 H   0  0  0  0  0  0  0  0  0  0  0  0  # atno 6907 bound_to 6896
  152.5332  134.0019  159.7909 H   0  0  0  0  0  0  0  0  0  0  0  0  # atno 6908 bound_to 6896
  151.0275  133.5770  159.2695 H   0  0  0  0  0  0  0  0  0  0  0  0  # atno 6909 bound_to 6896
  145.1216  139.3385  143.4711 H   0  0  0  0  0  0  0  0  0  0  0  0  # atno 7974 bound_to 7965
  156.0618  140.1349  156.9932 H   0  0  0  0  0  0  0  0  0  0  0  0  # atno 8008 bound_to 7997
  154.4485  140.0990  156.6599 H   0  0  0  0  0  0  0  0  0  0  0  0  # atno 8009 bound_to 7997
  155.5366  140.3460  155.4440 H   0  0  0  0  0  0  0  0  0  0  0  0  # atno 8010 bound_to 7997
  140.7226  143.3718  151.1764 H   0  0  0  0  0  0  0  0  0  0  0  0  # atno 10167 bound_to 10162
  157.6121  130.9227  150.0008 H   0  0  0  0  0  0  0  0  0  0  0  0  # atno 10718 bound_to 10713
  154.8269  135.4549  154.0946 H   0  0  0  0  0  0  0  0  0  0  0  0  # atno 10763 bound_to 10752
  153.2253  135.6899  153.7959 H   0  0  0  0  0  0  0  0  0  0  0  0  # atno 10764 bound_to 10752
  153.7361  135.3319  155.3272 H   0  0  0  0  0  0  0  0  0  0  0  0  # atno 10765 bound_to 10752
  140.7107  134.3836  157.5198 H   0  0  0  0  0  0  0  0  0  0  0  0  # atno 11005 bound_to 11000
  146.3520  140.1178  142.8601 LP  0  0  0  0  0  0  0  0  0  0  0  0  # atno 17320 bound_to 7965
  145.0734  140.9171  143.4868 LP  0  0  0  0  0  0  0  0  0  0  0  0  # atno 17321 bound_to 7965
  139.7291  143.9101  152.3013 LP  0  0  0  0  0  0  0  0  0  0  0  0  # atno 17342 bound_to 10162
  139.8884  144.6979  150.8798 LP  0  0  0  0  0  0  0  0  0  0  0  0  # atno 17343 bound_to 10162
  156.1228  130.3645  149.9859 LP  0  0  0  0  0  0  0  0  0  0  0  0  # atno 17370 bound_to 10713
  156.7936  130.9265  151.3646 LP  0  0  0  0  0  0  0  0  0  0  0  0  # atno 17371 bound_to 10713
  139.8872  134.8888  156.2539 LP  0  0  0  0  0  0  0  0  0  0  0  0  # atno 17394 bound_to 11000
  141.0087  133.7108  156.1076 LP  0  0  0  0  0  0  0  0  0  0  0  0  # atno 17395 bound_to 11000

$$$$
