#       Name:                AV-unprocessed.smi:69
#       Creating user name   scv26
#       Creation time:       Thu Mar 26 16:54:24 2020


#       File generated by GOLD software.
#

@<TRIPOS>MOLECULE
AV-unprocessed.smi:69
    43    45     1
SMALL
NO_CHARGES


@<TRIPOS>ATOM
      1 ****        -4.8673   0.6509  -0.4978 N.pl3          1 S1                 0.0000
      2 ****        -3.6045   1.0980  -0.5364 C.ar           1 S1                 0.0000
      3 ****        -3.3891   2.4286  -0.4109 N.ar           1 S1                 0.0000
      4 ****        -2.1385   2.9002  -0.4516 C.ar           1 S1                 0.0000
      5 ****        -0.9951   2.2255  -0.6019 N.ar           1 S1                 0.0000
      6 ****        -1.2157   0.8829  -0.7215 C.ar           1 S1                 0.0000
      7 ****        -2.4856   0.2438  -0.7060 C.ar           1 S1                 0.0000
      8 ****        -2.3273  -1.1247  -0.8748 N.2            1 S1                 0.0000
      9 ****        -1.0353  -1.2795  -0.9913 C.2            1 S1                 0.0000
     10 ****        -0.2870  -0.1251  -0.8783 N.pl3          1 S1                 0.0000
     11 ****         1.1974   0.0525  -0.9873 C.3            1 S1                 0.0000
     12 ****         1.7941  -1.2128  -1.0036 O.3            1 S1                 0.0000
     13 ****         2.4364  -1.5003   0.2374 C.3            1 S1                 0.0000
     14 ****         1.4525  -2.2005   1.2030 C.3            1 S1                 0.0000
     15 ****         1.2593  -3.5400   0.8022 O.3            1 S1                 0.0000
     16 ****         2.9007  -0.1047   0.6748 C.3            1 S1                 0.0000
     17 ****         3.1405  -0.0084   2.0652 O.3            1 S1                 0.0000
     18 ****         1.7605   0.8034   0.2357 C.3            1 S1                 0.0000
     19 ****         2.2728   2.0736  -0.1136 O.3            1 S1                 0.0000
     20 ****         1.3423   0.5579  -1.9433 H              1 S1                 0.0000
     21 ****         3.3013  -2.1444   0.0717 H              1 S1                 0.0000
     22 ****         3.8149   0.1447   0.1328 H              1 S1                 0.0000
     23 ****         1.0002   0.8850   1.0146 H              1 S1                 0.0000
     24 ****        -5.0527  -0.3374  -0.5921 H              1 S1                 0.0000
     25 ****        -5.6292   1.3016  -0.3741 H              1 S1                 0.0000
     26 ****        -2.0397   3.9707  -0.3476 H              1 S1                 0.0000
     27 ****        -0.5935  -2.2516  -1.1562 H              1 S1                 0.0000
     28 ****         1.8666  -2.2383   2.2103 H              1 S1                 0.0000
     29 ****         0.4975  -1.6828   1.2774 H              1 S1                 0.0000
     30 ****         0.6840  -3.9593   1.4237 H              1 S1                 0.0000
     31 ****         3.3833   0.8835   2.2632 H              1 S1                 0.0000
     32 ****         1.5561   2.6077  -0.4224 H              1 S1                 0.0000
     33 ****        -4.1596   3.0542  -0.2887 LP             1 S1                 0.0000
     34 ****        -0.0903   2.6506  -0.6241 LP             1 S1                 0.0000
     35 ****        -3.0371  -1.8286  -0.9012 LP             1 S1                 0.0000
     36 ****         2.4737  -1.2428  -1.7366 LP             1 S1                 0.0000
     37 ****         1.0902  -1.9025  -1.1734 LP             1 S1                 0.0000
     38 ****         2.1385  -4.0161   0.7820 LP             1 S1                 0.0000
     39 ****         0.8466  -3.5634  -0.1084 LP             1 S1                 0.0000
     40 ****         3.8829  -0.6264   2.3239 LP             1 S1                 0.0000
     41 ****         2.3121  -0.2532   2.5690 LP             1 S1                 0.0000
     42 ****         2.9572   1.9753  -0.8361 LP             1 S1                 0.0000
     43 ****         2.6925   2.5009   0.6871 LP             1 S1                 0.0000
@<TRIPOS>BOND
    1    1    2 1     
    2    1   24 1     
    3    1   25 1     
    4    2    7 ar    
    5    2    3 ar    
    6    3    4 ar    
    7    4    5 ar    
    8    4   26 1     
    9    5    6 ar    
   10    6   10 1     
   11    6    7 ar    
   12    7    8 1     
   13    8    9 2     
   14    9   10 1     
   15    9   27 1     
   16   10   11 1     
   17   11   20 1     
   18   11   18 1     
   19   11   12 1     
   20   12   13 1     
   21   13   21 1     
   22   13   14 1     
   23   13   16 1     
   24   14   15 1     
   25   14   28 1     
   26   14   29 1     
   27   15   30 1     
   28   16   22 1     
   29   16   17 1     
   30   16   18 1     
   31   17   31 1     
   32   18   23 1     
   33   18   19 1     
   34   19   32 1     
   35    3   33 1     
   36    5   34 1     
   37    8   35 1     
   38   12   36 1     
   39   12   37 1     
   40   15   38 1     
   41   15   39 1     
   42   17   40 1     
   43   17   41 1     
   44   19   42 1     
   45   19   43 1     
@<TRIPOS>SUBSTRUCTURE
      1 S1             1
@<TRIPOS>SET
LONE_PAIRS      STATIC     ATOMS    <user>   **** ""
11 33 34 35 36 37 38 39 40 41 42 43
DONOR_HYDROGENS      STATIC     ATOMS    <user>   **** ""
5 24 25 30 31 32
ATOM$BLUE        STATIC     ATOMS    COLORGROUP SYSTEM
11 33 34 35 36 37 38 39 40 41 42 43
ATOM$RED        STATIC     ATOMS    COLORGROUP SYSTEM
5 24 25 30 31 32
