#       Name:                AV-unprocessed.smi:1703
#       Creating user name   scv26
#       Creation time:       Fri Mar 27 08:03:48 2020


#       File generated by GOLD software.
#

@<TRIPOS>MOLECULE
AV-unprocessed.smi:1703
    56    58     1
SMALL
NO_CHARGES


@<TRIPOS>ATOM
      1 ****        -1.8248   3.7385   2.6920 C.3            1 S1                 0.0000
      2 ****        -2.4133   2.8197   1.6075 C.3            1 S1                 0.0000
      3 ****        -1.7627   1.4226   1.5703 C.3            1 S1                 0.0000
      4 ****        -0.4164   1.4384   1.0076 N.3            1 S1                 0.0000
      5 ****         0.1529   0.0901   0.9913 C.3            1 S1                 0.0000
      6 ****         1.6646   0.0104   0.6840 C.3            1 S1                 0.0000
      7 ****         2.3664   0.6376   1.7370 O.3            1 S1                 0.0000
      8 ****         2.1967  -1.4331   0.5688 C.3            1 S1                 0.0000
      9 ****         1.5554  -2.1954  -0.4944 N.pl3          1 S1                 0.0000
     10 ****         1.8856  -2.2399  -1.8100 C.2            1 S1                 0.0000
     11 ****         3.0408  -1.4702  -2.3733 C.3            1 S1                 0.0000
     12 ****         4.2827  -2.0920  -2.1218 O.3            1 S1                 0.0000
     13 ****         1.1226  -3.0225  -2.5739 N.2            1 S1                 0.0000
     14 ****         0.2192  -3.5436  -1.6686 C.ar           1 S1                 0.0000
     15 ****        -0.8521  -4.4459  -1.8568 C.ar           1 S1                 0.0000
     16 ****        -1.6519  -4.8422  -0.7649 C.ar           1 S1                 0.0000
     17 ****        -1.3921  -4.3438   0.5282 C.ar           1 S1                 0.0000
     18 ****        -0.3297  -3.4438   0.7375 C.ar           1 S1                 0.0000
     19 ****         0.4652  -3.0500  -0.3560 C.ar           1 S1                 0.0000
     20 ****        -0.4690   2.0440  -0.3204 C.3            1 S1                 0.0000
     21 ****        -1.0643   3.4635  -0.2831 C.3            1 S1                 0.0000
     22 ****        -1.2053   4.0658  -1.6850 C.3            1 S1                 0.0000
     23 ****        -2.3591   3.4227   0.3138 O.3            1 S1                 0.0000
     24 ****        -1.9769   3.3131   3.6842 H              1 S1                 0.0000
     25 ****        -2.3058   4.7166   2.6751 H              1 S1                 0.0000
     26 ****        -0.7532   3.8908   2.5646 H              1 S1                 0.0000
     27 ****        -3.4707   2.6903   1.8401 H              1 S1                 0.0000
     28 ****        -1.7420   1.0052   2.5778 H              1 S1                 0.0000
     29 ****        -2.3934   0.7580   0.9776 H              1 S1                 0.0000
     30 ****        -0.0164  -0.3847   1.9590 H              1 S1                 0.0000
     31 ****        -0.4014  -0.5088   0.2685 H              1 S1                 0.0000
     32 ****         1.8969   0.5398  -0.2379 H              1 S1                 0.0000
     33 ****         2.0371   1.5190   1.8284 H              1 S1                 0.0000
     34 ****         3.2734  -1.4283   0.3963 H              1 S1                 0.0000
     35 ****         2.0478  -1.9641   1.5099 H              1 S1                 0.0000
     36 ****         2.9143  -1.3698  -3.4519 H              1 S1                 0.0000
     37 ****         3.0526  -0.4602  -1.9657 H              1 S1                 0.0000
     38 ****         4.9650  -1.5700  -2.5150 H              1 S1                 0.0000
     39 ****        -1.0584  -4.8341  -2.8432 H              1 S1                 0.0000
     40 ****        -2.4683  -5.5323  -0.9199 H              1 S1                 0.0000
     41 ****        -2.0093  -4.6526   1.3593 H              1 S1                 0.0000
     42 ****        -0.1305  -3.0589   1.7266 H              1 S1                 0.0000
     43 ****         0.5289   2.1030  -0.7523 H              1 S1                 0.0000
     44 ****        -1.0615   1.4168  -0.9886 H              1 S1                 0.0000
     45 ****        -0.4159   4.1141   0.3047 H              1 S1                 0.0000
     46 ****        -0.2370   4.1359  -2.1811 H              1 S1                 0.0000
     47 ****        -1.6273   5.0700  -1.6369 H              1 S1                 0.0000
     48 ****        -1.8597   3.4589  -2.3113 H              1 S1                 0.0000
     49 ****         0.1915   1.9905   1.5783 LP             1 S1                 0.0000
     50 ****         3.3435   0.6617   1.5254 LP             1 S1                 0.0000
     51 ****         2.2220   0.1325   2.5879 LP             1 S1                 0.0000
     52 ****         4.2876  -3.0090  -2.5206 LP             1 S1                 0.0000
     53 ****         4.4338  -2.1567  -1.1354 LP             1 S1                 0.0000
     54 ****         1.1882  -3.1903  -3.5575 LP             1 S1                 0.0000
     55 ****        -2.6916   4.3622   0.3962 LP             1 S1                 0.0000
     56 ****        -2.9637   2.9072  -0.2934 LP             1 S1                 0.0000
@<TRIPOS>BOND
    1    1    2 1     
    2    1   24 1     
    3    1   25 1     
    4    1   26 1     
    5    2   23 1     
    6    2    3 1     
    7    2   27 1     
    8    3    4 1     
    9    3   28 1     
   10    3   29 1     
   11    4    5 1     
   12    4   20 1     
   13    5    6 1     
   14    5   30 1     
   15    5   31 1     
   16    6    7 1     
   17    6    8 1     
   18    6   32 1     
   19    7   33 1     
   20    8    9 1     
   21    8   34 1     
   22    8   35 1     
   23    9   19 1     
   24    9   10 1     
   25   10   11 1     
   26   10   13 2     
   27   11   12 1     
   28   11   36 1     
   29   11   37 1     
   30   12   38 1     
   31   13   14 1     
   32   14   19 ar    
   33   14   15 ar    
   34   15   16 ar    
   35   15   39 1     
   36   16   17 ar    
   37   16   40 1     
   38   17   18 ar    
   39   17   41 1     
   40   18   19 ar    
   41   18   42 1     
   42   20   21 1     
   43   20   43 1     
   44   20   44 1     
   45   21   22 1     
   46   21   23 1     
   47   21   45 1     
   48   22   46 1     
   49   22   47 1     
   50   22   48 1     
   51    4   49 1     
   52    7   50 1     
   53    7   51 1     
   54   12   52 1     
   55   12   53 1     
   56   13   54 1     
   57   23   55 1     
   58   23   56 1     
@<TRIPOS>SUBSTRUCTURE
      1 S1             1
@<TRIPOS>SET
LONE_PAIRS      STATIC     ATOMS    <user>   **** ""
8 49 50 51 52 53 54 55 56
DONOR_HYDROGENS      STATIC     ATOMS    <user>   **** ""
2 33 38
ATOM$BLUE        STATIC     ATOMS    COLORGROUP SYSTEM
8 49 50 51 52 53 54 55 56
ATOM$RED        STATIC     ATOMS    COLORGROUP SYSTEM
2 33 38
