AV-unprocessed.smi:2214|AV-procd|sdf|8958|dock6
  -GOLD-   2272012173D 1   1.00000     0.00000
 Structure written by MMmdl.
 41 42  0  0  0  0  0  0  0  0  1 V2000
  154.0900  140.3447  160.7523 C   0  0  0  0  0  0  0  0  0  0  0  0
  153.3581  141.6609  160.5889 C   0  0  0  0  0  0  0  0  0  0  0  0
  153.2825  142.5704  161.6619 C   0  0  0  0  0  0  0  0  0  0  0  0
  152.6000  143.7899  161.5014 C   0  0  0  0  0  0  0  0  0  0  0  0
  151.9917  144.1043  160.2708 C   0  0  0  0  0  0  0  0  0  0  0  0
  151.1584  145.6081  160.1007 Cl  0  0  0  0  0  0  0  0  0  0  0  0
  152.0576  143.2025  159.1856 C   0  0  0  0  0  0  0  0  0  0  0  0
  151.4387  143.5792  158.0126 O   0  0  0  0  0  0  0  0  0  0  0  0
  151.3050  142.6176  156.9734 C   0  0  0  0  0  0  0  0  0  0  0  0
  149.8813  142.0355  156.9833 C   0  0  2  0  0  0  0  0  0  0  0  0
  149.0345  142.9760  157.6129 O   0  0  0  0  0  0  0  0  0  0  0  0
  149.7939  140.6673  157.6964 C   0  0  0  0  0  0  0  0  0  0  0  0
  150.9506  139.8073  157.3968 N   0  0  0  0  0  0  0  0  0  0  0  0
  151.5451  139.1602  158.4922 C   0  0  0  0  0  0  0  0  0  0  0  0
  152.5666  138.3810  158.3479 N   0  0  0  0  0  0  0  0  0  0  0  0
  153.1068  138.1675  157.0765 C   0  0  0  0  0  0  0  0  0  0  0  0
  154.3074  137.2394  157.0208 C   0  0  0  0  0  0  0  0  0  0  0  0
  152.5752  138.7620  155.9735 C   0  0  0  0  0  0  0  0  0  0  0  0
  153.1216  138.5682  154.5647 C   0  0  0  0  0  0  0  0  0  0  0  0
  151.4062  139.6442  156.1210 C   0  0  0  0  0  0  0  0  0  0  0  0
  150.8639  140.2013  155.1646 O   0  0  0  0  0  0  0  0  0  0  0  0
  152.7473  141.9753  159.3576 C   0  0  0  0  0  0  0  0  0  0  0  0
  154.6828  140.3308  161.6674 H   0  0  0  0  0  0  0  0  0  0  0  0
  154.7626  140.1760  159.9107 H   0  0  0  0  0  0  0  0  0  0  0  0
  153.3776  139.5205  160.7932 H   0  0  0  0  0  0  0  0  0  0  0  0
  153.7456  142.3377  162.6096 H   0  0  0  0  0  0  0  0  0  0  0  0
  152.5432  144.4856  162.3255 H   0  0  0  0  0  0  0  0  0  0  0  0
  151.5338  143.0534  155.9991 H   0  0  0  0  0  0  0  0  0  0  0  0
  152.0139  141.8066  157.1483 H   0  0  0  0  0  0  0  0  0  0  0  0
  149.5526  141.9464  155.9471 H   0  0  0  0  0  0  0  0  0  0  0  0
  149.0907  143.7939  157.1433 H   0  0  0  0  0  0  0  0  0  0  0  0
  149.7556  140.8263  158.7758 H   0  0  0  0  0  0  0  0  0  0  0  0
  148.8457  140.1763  157.4660 H   0  0  0  0  0  0  0  0  0  0  0  0
  151.0844  139.3577  159.4617 H   0  0  0  0  0  0  0  0  0  0  0  0
  155.1797  137.7658  156.6326 H   0  0  0  0  0  0  0  0  0  0  0  0
  154.0998  136.3845  156.3769 H   0  0  0  0  0  0  0  0  0  0  0  0
  154.5606  136.8576  158.0107 H   0  0  0  0  0  0  0  0  0  0  0  0
  152.3643  138.1115  153.9267 H   0  0  0  0  0  0  0  0  0  0  0  0
  154.0062  137.9350  154.5302 H   0  0  0  0  0  0  0  0  0  0  0  0
  153.3932  139.5311  154.1312 H   0  0  0  0  0  0  0  0  0  0  0  0
  152.8220  141.2566  158.5559 H   0  0  0  0  0  0  0  0  0  0  0  0
  1  2  1  0  0  0  0
  1 23  1  0  0  0  0
  1 24  1  0  0  0  0
  1 25  1  0  0  0  0
  2 22  1  0  0  0  0
  2  3  2  0  0  0  0
  3  4  1  0  0  0  0
  3 26  1  0  0  0  0
  4  5  2  0  0  0  0
  4 27  1  0  0  0  0
  5  6  1  0  0  0  0
  5  7  1  0  0  0  0
  7  8  1  0  0  0  0
  7 22  2  0  0  0  0
  8  9  1  0  0  0  0
  9 10  1  0  0  0  0
  9 28  1  0  0  0  0
  9 29  1  0  0  0  0
 10 11  1  0  0  0  0
 10 12  1  0  0  0  0
 10 30  1  0  0  0  0
 11 31  1  0  0  0  0
 12 13  1  0  0  0  0
 12 32  1  0  0  0  0
 12 33  1  0  0  0  0
 13 20  1  0  0  0  0
 13 14  1  0  0  0  0
 14 15  2  0  0  0  0
 14 34  1  0  0  0  0
 15 16  1  0  0  0  0
 16 17  1  0  0  0  0
 16 18  2  0  0  0  0
 17 35  1  0  0  0  0
 17 36  1  0  0  0  0
 17 37  1  0  0  0  0
 18 19  1  0  0  0  0
 18 20  1  0  0  0  0
 19 38  1  0  0  0  0
 19 39  1  0  0  0  0
 19 40  1  0  0  0  0
 20 21  2  0  0  0  0
 22 41  1  0  0  0  0
M  END
> <s_m_source_file>
AV-unprocessed.smi

> <i_m_source_file_index>
2214

> <i_lp_mmshare_version>
43012

> <i_f3d_flags>
0

> <s_epik_input>
W0NIM11jMVtjSF1bY0hdYyhDbCljKFtjSF0xKU9bQ0gyXVtDQEhdKFtPSF0pW0NIMl1uMltjSF1uYyhbQ0gzXSljKFtDSDNdKWMyPU8=

> <s_epik_cmdline>
J2VwaWtfcHl0aG9uJywgJy1waCcsICc3LjAnLCAnLXRuJywgJzgnLCAnLW1hJywgJzIwMCcsICctbWV0YWxfYmluZGluZycsICctaW1hZScsICc8aW5maWxlLm1hZT4nLCAnLW9tYWUnLCAnPG91dGZpbGUubWFlPic=

> <r_lp_tautomer_probability>
1

> <r_epik_Ionization_Penalty>
3.50205e-05

> <r_epik_Ionization_Penalty_Charging>
7.87908e-08

> <r_epik_Ionization_Penalty_Neutral>
3.49418e-05

> <r_epik_State_Penalty>
-0

> <r_epik_Charging_Adjusted_Penalty>
7.87908e-08

> <i_epik_Tot_Q>
0

> <i_epik_Tot_abs_Q>
0

> <r_epik_Metal_State_Penalty>
-0

> <b_epik_Metal_Only>
0

> <s_lp_Force_Field>
OPLS_2005

> <r_lp_Energy>
24.1684

> <b_lp_Chiralities_Consistent>
1

> <s_lp_Variant>
AV-unprocessed.smi:2214-1

> <Gold.Version>
5.8.1

> <Gold.Id.Protein>
6NUR|6NUR_protein|mol2

> <Gold.PLP.Fitness>
49.7240

> <Gold.PLP.PLP>
-46.1928

> <Gold.PLP.part.hbond>
-2.5299

> <Gold.PLP.part.metal>
0.0000

> <Gold.PLP.part.buried>
-3.7831

> <Gold.PLP.part.nonpolar>
-39.2435

> <Gold.PLP.part.repulsive>
0.1481

> <Gold.PLP.ligand.clash>
0.0000

> <Gold.PLP.ligand.torsion>
1.2410

> <Gold.PLP.Chemscore.Hbond>
2.0000

> <Gold.PLP.Chemscore.CHOScore>
0.0000

> <Gold.PLP.Chemscore.Metal>
0.0000

> <Gold.Chemscore.Hbonds>
donor molecule, donor type, donor heavy atom, donor atom, acceptor molecule, acceptor atom, score
      L1  H    11    31       P1  8028  1.00
      P1  H  7989  7998       L1    21  1.00

> <Gold.PLP.Chemscore.Internal.Correction>
0.0132

> <Gold.Rescore>
     Score         DG    S(hbond)    S(metal)    S(lipo)     H(rot)  DE(clash)    DE(int)     intcor
     17.44     -20.55       1.65        0.00     133.05       2.35       0.57       2.54       ----

> <Gold.Chemscore.Fitness>
17.4435

> <Gold.Chemscore.DG>
-20.5503

> <Gold.Chemscore.ZeroCoef>
-5.4800

> <Gold.Chemscore.Hbond>
1.6519

> <Gold.Chemscore.Metal>
0.0000

> <Gold.Chemscore.Lipo>
133.0465

> <Gold.Chemscore.Internal_Hbond>
0.0000

> <Gold.Chemscore.DEClash>
0.5665

> <Gold.Chemscore.DEInternal>
2.5403

> <Gold.Chemscore.Rot>
2.3490

> <Gold.Chemscore.Internal.Correction>
   9.000000E+99

> <Gold.Chemscore.Hbonds>
donor molecule, donor type, donor heavy atom, donor atom, acceptor molecule, acceptor atom, score
      L1  H    11    31       P1  8028  0.33
      P1  H  7989  7998       L1    21  0.98

> <Gold.Chemscore.Hbond.Weighted>
-5.5175

> <Gold.Chemscore.Metal.Weighted>
-0.0000

> <Gold.Chemscore.Lipo.Weighted>
-15.5664

> <Gold.Chemscore.Internal_Hbond.Weighted>
0.0000

> <Gold.Chemscore.DEClash.Weighted>
0.5665

> <Gold.Chemscore.DEInternal.Weighted>
2.5403

> <Gold.Chemscore.Rot.Weighted>
6.0136

> <Gold.Chemscore.Internal.Correction.Weighted>
   9.000000E+99

> <Gold.Protein.RotatedTorsions>
[ 6907 6896 6895 6894 ] final    8.98 input  -60.11 | X-H torsion
[ 7974 7965 7964 7962 ] final  -30.50 input  175.53 | X-H torsion
[ 8008 7997 7996 7995 ] final  110.54 input   59.86 | X-H torsion
[ 10167 10162 10161 10158 ] final  -58.85 input  -65.29 | X-H torsion
[ 10718 10713 10712 10709 ] final   33.80 input   66.30 | X-H torsion
[ 10763 10752 10751 10750 ] final   53.65 input  -60.55 | X-H torsion
[ 11005 11000 10999 10996 ] final -130.36 input  -57.11 | X-H torsion

> <Gold.Protein.ActiveResidues>
 VAL166  LYS551  ARG553  GLY616  TRP617  ASP618  TYR619  PRO620  LYS621  CYS622 
 ASP623  PHE694  ASN695  SER759  ASP760  ASP761  ALA762  ILE779  LEU786  VAL792 
 PHE793  MET794  SER795  GLU796  ALA797  LYS798  CYS799  TRP800  GLU811  SER814 

> <Gold.Protein.RotatedAtoms>
  151.7148  135.0906  160.0273 H   0  0  0  0  0  0  0  0  0  0  0  0  # atno 6907 bound_to 6896
  152.3639  133.6328  159.6044 H   0  0  0  0  0  0  0  0  0  0  0  0  # atno 6908 bound_to 6896
  150.7624  133.9295  159.3464 H   0  0  0  0  0  0  0  0  0  0  0  0  # atno 6909 bound_to 6896
  146.1138  140.5548  142.8766 H   0  0  0  0  0  0  0  0  0  0  0  0  # atno 7974 bound_to 7965
  156.2060  140.3036  155.9628 H   0  0  0  0  0  0  0  0  0  0  0  0  # atno 8008 bound_to 7997
  155.2839  140.0439  157.3035 H   0  0  0  0  0  0  0  0  0  0  0  0  # atno 8009 bound_to 7997
  154.5634  140.2327  155.8309 H   0  0  0  0  0  0  0  0  0  0  0  0  # atno 8010 bound_to 7997
  140.6172  143.2406  151.5569 H   0  0  0  0  0  0  0  0  0  0  0  0  # atno 10167 bound_to 10162
  157.3024  130.7357  149.6675 H   0  0  0  0  0  0  0  0  0  0  0  0  # atno 10718 bound_to 10713
  152.9797  135.5771  154.4776 H   0  0  0  0  0  0  0  0  0  0  0  0  # atno 10763 bound_to 10752
  154.4329  135.2774  155.1902 H   0  0  0  0  0  0  0  0  0  0  0  0  # atno 10764 bound_to 10752
  154.3602  135.6190  153.5741 H   0  0  0  0  0  0  0  0  0  0  0  0  # atno 10765 bound_to 10752
  140.9352  134.1267  157.4200 H   0  0  0  0  0  0  0  0  0  0  0  0  # atno 11005 bound_to 11000
  144.7535  140.5250  143.6785 LP  0  0  0  0  0  0  0  0  0  0  0  0  # atno 17320 bound_to 7965
  145.5608  139.1479  143.3342 LP  0  0  0  0  0  0  0  0  0  0  0  0  # atno 17321 bound_to 7965
  139.5408  144.2653  152.1347 LP  0  0  0  0  0  0  0  0  0  0  0  0  # atno 17342 bound_to 10162
  140.1865  144.4794  150.6501 LP  0  0  0  0  0  0  0  0  0  0  0  0  # atno 17343 bound_to 10162
  155.9672  130.4276  150.4750 LP  0  0  0  0  0  0  0  0  0  0  0  0  # atno 17370 bound_to 10713
  157.2734  131.0592  151.2245 LP  0  0  0  0  0  0  0  0  0  0  0  0  # atno 17371 bound_to 10713
  139.8806  135.0018  156.6091 LP  0  0  0  0  0  0  0  0  0  0  0  0  # atno 17394 bound_to 11000
  140.7809  133.8661  155.8567 LP  0  0  0  0  0  0  0  0  0  0  0  0  # atno 17395 bound_to 11000

$$$$
