AV-unprocessed.smi:1056|AV-procd|sdf|4630|dock4
  -GOLD-   22720 3133D 1   1.00000     0.00000
 Structure written by MMmdl.
 45 47  0  0  0  0  0  0  0  0  2 V2000
  153.8507  142.6351  160.3288 C   0  0  0  0  0  0  0  0  0  0  0  0
  152.8316  142.3750  159.2335 C   0  0  0  0  0  0  0  0  0  0  0  0
  152.8449  141.1308  158.5637 C   0  0  0  0  0  0  0  0  0  0  0  0
  151.9130  140.8490  157.5413 C   0  0  0  0  0  0  0  0  0  0  0  0
  151.7459  139.7150  156.7648 N   0  0  0  0  0  0  0  0  0  0  0  0
  150.7158  140.0627  156.0001 C   0  0  0  0  0  0  0  0  0  0  0  0
  150.1967  141.2915  156.1860 N   0  0  0  0  0  0  0  0  0  0  0  0
  149.0783  141.8824  155.4742 C   0  0  0  0  0  0  0  0  0  0  0  0
  148.6381  141.0364  154.2620 C   0  0  2  0  0  0  0  0  0  0  0  0
  149.5001  141.2944  153.1718 O   0  0  0  0  0  0  0  0  0  0  0  0
  147.1986  141.3508  153.8078 C   0  0  0  0  0  0  0  0  0  0  0  0
  146.4709  140.1466  153.3341 N   0  3  2  0  0  0  0  0  0  0  0  0
  146.3897  139.0619  154.3411 C   0  0  0  0  0  0  0  0  0  0  0  0
  145.4369  137.9564  153.8524 C   0  0  0  0  0  0  0  0  0  0  0  0
  145.6231  137.6225  152.4421 N   0  0  0  0  0  0  0  0  0  0  0  0
  146.3109  138.3566  151.5522 C   0  0  0  0  0  0  0  0  0  0  0  0
  146.4146  138.0174  150.3765 O   0  0  0  0  0  0  0  0  0  0  0  0
  146.9831  139.6525  152.0305 C   0  0  0  0  0  0  0  0  0  0  0  0
  150.9598  141.8542  157.2039 C   0  0  0  0  0  0  0  0  0  0  0  0
  150.9379  143.0968  157.8614 C   0  0  0  0  0  0  0  0  0  0  0  0
  151.8752  143.3613  158.8819 C   0  0  0  0  0  0  0  0  0  0  0  0
  151.8405  144.7041  159.5901 C   0  0  0  0  0  0  0  0  0  0  0  0
  154.5228  141.7862  160.4580 H   0  0  0  0  0  0  0  0  0  0  0  0
  153.3497  142.8133  161.2806 H   0  0  0  0  0  0  0  0  0  0  0  0
  154.4580  143.5077  160.0874 H   0  0  0  0  0  0  0  0  0  0  0  0
  153.5730  140.3795  158.8320 H   0  0  0  0  0  0  0  0  0  0  0  0
  150.3155  139.3856  155.2596 H   0  0  0  0  0  0  0  0  0  0  0  0
  148.2551  141.9949  156.1807 H   0  0  0  0  0  0  0  0  0  0  0  0
  149.3550  142.8892  155.1588 H   0  0  0  0  0  0  0  0  0  0  0  0
  148.7369  139.9776  154.5009 H   0  0  0  0  0  0  0  0  0  0  0  0
  149.2745  140.7110  152.4627 H   0  0  0  0  0  0  0  0  0  0  0  0
  146.6615  141.7908  154.6500 H   0  0  0  0  0  0  0  0  0  0  0  0
  147.1973  142.1051  153.0188 H   0  0  0  0  0  0  0  0  0  0  0  0
  147.3875  138.6521  154.5062 H   0  0  0  0  0  0  0  0  0  0  0  0
  146.0402  139.4385  155.3018 H   0  0  0  0  0  0  0  0  0  0  0  0
  145.5565  137.0568  154.4567 H   0  0  0  0  0  0  0  0  0  0  0  0
  144.4040  138.2833  153.9780 H   0  0  0  0  0  0  0  0  0  0  0  0
  145.1911  136.7699  152.1141 H   0  0  0  0  0  0  0  0  0  0  0  0
  146.8427  140.4229  151.2711 H   0  0  0  0  0  0  0  0  0  0  0  0
  148.0559  139.4692  152.1074 H   0  0  0  0  0  0  0  0  0  0  0  0
  150.2058  143.8405  157.5836 H   0  0  0  0  0  0  0  0  0  0  0  0
  151.0511  145.3433  159.1934 H   0  0  0  0  0  0  0  0  0  0  0  0
  152.7888  145.2273  159.4655 H   0  0  0  0  0  0  0  0  0  0  0  0
  151.6568  144.5683  160.6560 H   0  0  0  0  0  0  0  0  0  0  0  0
  145.5213  140.4419  153.1577 H   0  0  0  0  0  0  0  0  0  0  0  0
  1  2  1  0  0  0  0
  1 23  1  0  0  0  0
  1 24  1  0  0  0  0
  1 25  1  0  0  0  0
  2 21  1  0  0  0  0
  2  3  2  0  0  0  0
  3  4  1  0  0  0  0
  3 26  1  0  0  0  0
  4 19  2  0  0  0  0
  4  5  1  0  0  0  0
  5  6  2  0  0  0  0
  6  7  1  0  0  0  0
  6 27  1  0  0  0  0
  7  8  1  0  0  0  0
  7 19  1  0  0  0  0
  8  9  1  0  0  0  0
  8 28  1  0  0  0  0
  8 29  1  0  0  0  0
  9 10  1  0  0  0  0
  9 11  1  0  0  0  0
  9 30  1  0  0  0  0
 10 31  1  0  0  0  0
 11 12  1  0  0  0  0
 11 32  1  0  0  0  0
 11 33  1  0  0  0  0
 12 18  1  0  0  0  0
 12 13  1  0  0  0  0
 12 45  1  0  0  0  0
 13 14  1  0  0  0  0
 13 34  1  0  0  0  0
 13 35  1  0  0  0  0
 14 15  1  0  0  0  0
 14 36  1  0  0  0  0
 14 37  1  0  0  0  0
 15 16  1  0  0  0  0
 15 38  1  0  0  0  0
 16 17  2  0  0  0  0
 16 18  1  0  0  0  0
 18 39  1  0  0  0  0
 18 40  1  0  0  0  0
 19 20  1  0  0  0  0
 20 21  2  0  0  0  0
 20 41  1  0  0  0  0
 21 22  1  0  0  0  0
 22 42  1  0  0  0  0
 22 43  1  0  0  0  0
 22 44  1  0  0  0  0
M  CHG  1  12   1
M  END
> <s_m_source_file>
AV-unprocessed.smi

> <i_m_source_file_index>
1056

> <i_lp_mmshare_version>
43012

> <i_f3d_flags>
0

> <s_epik_input>
W0NIM11jKFtjSF0xKWMoW0NIM10pW2NIXWMoYzEyKW4oW2NIXW4yKVtDSDJdW0NASF0oW09IXSlbQ0gyXU4zW0NIMl1bQ0gyXVtOSF1DKD1PKVtDSDJdMw==

> <s_epik_cmdline>
J2VwaWtfcHl0aG9uJywgJy1waCcsICc3LjAnLCAnLXRuJywgJzgnLCAnLW1hJywgJzIwMCcsICctbWV0YWxfYmluZGluZycsICctaW1hZScsICc8aW5maWxlLm1hZT4nLCAnLW9tYWUnLCAnPG91dGZpbGUubWFlPic=

> <r_epik_Ionization_Penalty>
0.153633

> <r_epik_Ionization_Penalty_Charging>
0.0674887

> <r_epik_Ionization_Penalty_Neutral>
0.0861443

> <r_epik_State_Penalty>
0.135155

> <r_epik_Charging_Adjusted_Penalty>
0.202644

> <i_epik_Tot_Q>
1

> <i_epik_Tot_abs_Q>
1

> <r_epik_Metal_State_Penalty>
0.190685

> <b_epik_Metal_Only>
0

> <s_lp_Force_Field>
OPLS_2005

> <r_lp_Energy>
23.9975

> <b_lp_Chiralities_Consistent>
1

> <s_lp_Variant>
AV-unprocessed.smi:1056-1

> <Gold.Version>
5.8.1

> <Gold.Id.Protein>
6NUR|6NUR_protein|mol2

> <Gold.PLP.Fitness>
54.2346

> <Gold.PLP.PLP>
-40.5849

> <Gold.PLP.part.hbond>
-4.2654

> <Gold.PLP.part.metal>
0.0000

> <Gold.PLP.part.buried>
-0.0762

> <Gold.PLP.part.nonpolar>
-39.3019

> <Gold.PLP.part.repulsive>
2.3486

> <Gold.PLP.ligand.clash>
0.0000

> <Gold.PLP.ligand.torsion>
0.7978

> <Gold.PLP.Chemscore.Hbond>
5.0480

> <Gold.PLP.Chemscore.CHOScore>
0.0000

> <Gold.PLP.Chemscore.Metal>
0.0000

> <Gold.Chemscore.Hbonds>
donor molecule, donor type, donor heavy atom, donor atom, acceptor molecule, acceptor atom, score
      L1  H    10    31       P1  7957  0.91
      L1  H    12    45       P1 10175  2.00
      P1  H  7954  7966       L1    17  0.83
      P1  H  7989  7998       L1    10  0.02
      P1  H  8011  8017       L1    10  0.56

> <Gold.PLP.Chemscore.Internal.Correction>
0.1012

> <Gold.Rescore>
     Score         DG    S(hbond)    S(metal)    S(lipo)     H(rot)  DE(clash)    DE(int)     intcor
     18.28     -20.97       2.71        0.00     106.97       2.38       1.86       0.83       ----

> <Gold.Chemscore.Fitness>
18.2770

> <Gold.Chemscore.DG>
-20.9694

> <Gold.Chemscore.ZeroCoef>
-5.4800

> <Gold.Chemscore.Hbond>
2.7134

> <Gold.Chemscore.Metal>
0.0000

> <Gold.Chemscore.Lipo>
106.9650

> <Gold.Chemscore.Internal_Hbond>
0.0000

> <Gold.Chemscore.DEClash>
1.8616

> <Gold.Chemscore.DEInternal>
0.8308

> <Gold.Chemscore.Rot>
2.3783

> <Gold.Chemscore.Internal.Correction>
   9.000000E+99

> <Gold.Chemscore.Hbonds>
donor molecule, donor type, donor heavy atom, donor atom, acceptor molecule, acceptor atom, score
      L1  H    10    31       P1  7957  0.82
      L1  H    12    45       P1 10175  0.93
      P1  H  7954  7966       L1    17  0.68
      P1  H  7989  7998       L1    10  0.02
      P1  H  8011  8017       L1    10  0.07

> <Gold.Chemscore.Hbond.Weighted>
-9.0629

> <Gold.Chemscore.Metal.Weighted>
-0.0000

> <Gold.Chemscore.Lipo.Weighted>
-12.5149

> <Gold.Chemscore.Internal_Hbond.Weighted>
0.0000

> <Gold.Chemscore.DEClash.Weighted>
1.8616

> <Gold.Chemscore.DEInternal.Weighted>
0.8308

> <Gold.Chemscore.Rot.Weighted>
6.0884

> <Gold.Chemscore.Internal.Correction.Weighted>
   9.000000E+99

> <Gold.Protein.RotatedTorsions>
[ 6907 6896 6895 6894 ] final  -54.37 input  -60.11 | X-H torsion
[ 7974 7965 7964 7962 ] final  -53.22 input  175.53 | X-H torsion
[ 8008 7997 7996 7995 ] final   59.37 input   59.86 | X-H torsion
[ 10167 10162 10161 10158 ] final  148.49 input  -65.29 | X-H torsion
[ 10718 10713 10712 10709 ] final  103.21 input   66.30 | X-H torsion
[ 10763 10752 10751 10750 ] final  -99.44 input  -60.55 | X-H torsion
[ 11005 11000 10999 10996 ] final -151.40 input  -57.11 | X-H torsion

> <Gold.Protein.ActiveResidues>
 VAL166  LYS551  ARG553  GLY616  TRP617  ASP618  TYR619  PRO620  LYS621  CYS622 
 ASP623  PHE694  ASN695  SER759  ASP760  ASP761  ALA762  ILE779  LEU786  VAL792 
 PHE793  MET794  SER795  GLU796  ALA797  LYS798  CYS799  TRP800  GLU811  SER814 

> <Gold.Protein.RotatedAtoms>
  150.8344  134.7611  159.6880 H   0  0  0  0  0  0  0  0  0  0  0  0  # atno 6907 bound_to 6896
  152.4443  134.5523  159.9880 H   0  0  0  0  0  0  0  0  0  0  0  0  # atno 6908 bound_to 6896
  151.5676  133.3356  159.3019 H   0  0  0  0  0  0  0  0  0  0  0  0  # atno 6909 bound_to 6896
  145.8992  140.8008  142.9752 H   0  0  0  0  0  0  0  0  0  0  0  0  # atno 7974 bound_to 7965
  155.5652  140.3489  155.4501 H   0  0  0  0  0  0  0  0  0  0  0  0  # atno 8008 bound_to 7997
  156.0485  140.1312  157.0102 H   0  0  0  0  0  0  0  0  0  0  0  0  # atno 8009 bound_to 7997
  154.4423  140.1009  156.6326 H   0  0  0  0  0  0  0  0  0  0  0  0  # atno 8010 bound_to 7997
  139.4874  144.5675  151.7117 H   0  0  0  0  0  0  0  0  0  0  0  0  # atno 10167 bound_to 10162
  157.6779  131.0773  150.5521 H   0  0  0  0  0  0  0  0  0  0  0  0  # atno 10718 bound_to 10713
  154.7498  135.4972  153.9269 H   0  0  0  0  0  0  0  0  0  0  0  0  # atno 10763 bound_to 10752
  153.1131  135.6714  153.9473 H   0  0  0  0  0  0  0  0  0  0  0  0  # atno 10764 bound_to 10752
  153.9227  135.3086  155.3426 H   0  0  0  0  0  0  0  0  0  0  0  0  # atno 10765 bound_to 10752
  140.7299  134.3632  157.5168 H   0  0  0  0  0  0  0  0  0  0  0  0  # atno 11005 bound_to 11000
  144.6735  140.1651  143.7419 LP  0  0  0  0  0  0  0  0  0  0  0  0  # atno 17320 bound_to 7965
  145.8812  139.2324  143.1604 LP  0  0  0  0  0  0  0  0  0  0  0  0  # atno 17321 bound_to 7965
  140.5256  144.0811  150.6036 LP  0  0  0  0  0  0  0  0  0  0  0  0  # atno 17342 bound_to 10162
  140.3784  143.2816  152.0199 LP  0  0  0  0  0  0  0  0  0  0  0  0  # atno 17343 bound_to 10162
  156.5826  130.4308  149.5971 LP  0  0  0  0  0  0  0  0  0  0  0  0  # atno 17370 bound_to 10713
  156.2649  130.6983  151.1763 LP  0  0  0  0  0  0  0  0  0  0  0  0  # atno 17371 bound_to 10713
  139.8828  134.9011  156.2804 LP  0  0  0  0  0  0  0  0  0  0  0  0  # atno 17394 bound_to 11000
  140.9930  133.7197  156.0842 LP  0  0  0  0  0  0  0  0  0  0  0  0  # atno 17395 bound_to 11000

$$$$
