AV-unprocessed.smi:228|AV-procd|sdf|1746|dock10
  -GOLD-   2262020263D 1   1.00000     0.00000
 Structure written by MMmdl.
 59 62  0  0  0  0  0  0  0  0  1 V2000
  144.9777  138.4462  156.9028 C   0  0  0  0  0  0  0  0  0  0  0  0
  145.6306  137.1500  157.0356 N   0  0  0  0  0  0  0  0  0  0  0  0
  146.7115  137.0203  158.0168 C   0  0  0  0  0  0  0  0  0  0  0  0
  147.8203  138.0757  157.8300 C   0  0  1  0  0  0  0  0  0  0  0  0
  148.8433  137.7723  158.7558 O   0  0  0  0  0  0  0  0  0  0  0  0
  148.4364  138.0626  156.4128 C   0  0  0  0  0  0  0  0  0  0  0  0
  149.7640  138.6658  156.2900 N   0  0  0  0  0  0  0  0  0  0  0  0
  149.7144  140.1259  156.2224 C   0  0  0  0  0  0  0  0  0  0  0  0
  151.1136  140.7422  156.0469 C   0  0  0  0  0  0  0  0  0  0  0  0
  151.7349  140.2009  154.8861 O   0  0  0  0  0  0  0  0  0  0  0  0
  151.8473  138.7827  154.9371 C   0  0  0  0  0  0  0  0  0  0  0  0
  150.4493  138.1635  155.1034 C   0  0  0  0  0  0  0  0  0  0  0  0
  145.4739  136.2075  156.0634 C   0  0  0  0  0  0  0  0  0  0  0  0
  145.7575  134.9144  156.3742 N   0  0  0  0  0  0  0  0  0  0  0  0
  145.6288  133.9460  155.4643 C   0  0  0  0  0  0  0  0  0  0  0  0
  145.2427  134.0450  154.1929 N   0  0  0  0  0  0  0  0  0  0  0  0
  144.9626  135.3373  153.8620 C   0  0  0  0  0  0  0  0  0  0  0  0
  145.0417  136.4691  154.7260 C   0  0  0  0  0  0  0  0  0  0  0  0
  144.6717  137.6106  154.0206 N   0  0  0  0  0  0  0  0  0  0  0  0
  144.3783  137.1783  152.8255 C   0  0  0  0  0  0  0  0  0  0  0  0
  144.5541  135.8279  152.6341 N   0  0  0  0  0  0  0  0  0  0  0  0
  144.2777  135.0816  151.4414 C   0  0  0  0  0  0  0  0  0  0  0  0
  143.7176  133.6585  151.5170 C   0  0  0  0  0  0  0  0  0  0  0  0
  144.5464  133.2533  150.2780 C   0  0  0  0  0  0  0  0  0  0  0  0
  145.3004  131.9202  150.4027 C   0  0  0  0  0  0  0  0  0  0  0  0
  146.3527  131.8312  149.4633 O   0  0  0  0  0  0  0  0  0  0  0  0
  143.8135  133.2341  148.9176 C   0  0  0  0  0  0  0  0  0  0  0  0
  143.4702  134.5212  148.4457 O   0  0  0  0  0  0  0  0  0  0  0  0
  145.4049  134.5027  150.5794 C   0  0  0  0  0  0  0  0  0  0  0  0
  143.9312  138.3291  156.6199 H   0  0  0  0  0  0  0  0  0  0  0  0
  145.4816  139.0564  156.1528 H   0  0  0  0  0  0  0  0  0  0  0  0
  145.0033  138.9894  157.8478 H   0  0  0  0  0  0  0  0  0  0  0  0
  146.2643  137.1475  159.0035 H   0  0  0  0  0  0  0  0  0  0  0  0
  147.1409  136.0186  158.0290 H   0  0  0  0  0  0  0  0  0  0  0  0
  147.4179  139.0554  158.0835 H   0  0  0  0  0  0  0  0  0  0  0  0
  148.4499  137.3745  159.5173 H   0  0  0  0  0  0  0  0  0  0  0  0
  148.4754  137.0270  156.0717 H   0  0  0  0  0  0  0  0  0  0  0  0
  147.7687  138.5723  155.7188 H   0  0  0  0  0  0  0  0  0  0  0  0
  149.0777  140.4373  155.3928 H   0  0  0  0  0  0  0  0  0  0  0  0
  149.2702  140.5362  157.1279 H   0  0  0  0  0  0  0  0  0  0  0  0
  151.0406  141.8247  155.9405 H   0  0  0  0  0  0  0  0  0  0  0  0
  151.7336  140.5471  156.9232 H   0  0  0  0  0  0  0  0  0  0  0  0
  152.3122  138.4284  154.0170 H   0  0  0  0  0  0  0  0  0  0  0  0
  152.5007  138.4906  155.7607 H   0  0  0  0  0  0  0  0  0  0  0  0
  150.5432  137.0786  155.1618 H   0  0  0  0  0  0  0  0  0  0  0  0
  149.8541  138.3768  154.2141 H   0  0  0  0  0  0  0  0  0  0  0  0
  145.8720  132.9497  155.8031 H   0  0  0  0  0  0  0  0  0  0  0  0
  144.0307  137.8409  152.0461 H   0  0  0  0  0  0  0  0  0  0  0  0
  143.6252  135.7184  150.8432 H   0  0  0  0  0  0  0  0  0  0  0  0
  144.0306  133.1388  152.4243 H   0  0  0  0  0  0  0  0  0  0  0  0
  142.6370  133.5937  151.3859 H   0  0  0  0  0  0  0  0  0  0  0  0
  145.7102  131.7904  151.4051 H   0  0  0  0  0  0  0  0  0  0  0  0
  144.6314  131.0762  150.2321 H   0  0  0  0  0  0  0  0  0  0  0  0
  147.1404  131.5729  149.9171 H   0  0  0  0  0  0  0  0  0  0  0  0
  144.4283  132.7562  148.1543 H   0  0  0  0  0  0  0  0  0  0  0  0
  142.8908  132.6565  148.9806 H   0  0  0  0  0  0  0  0  0  0  0  0
  144.2402  134.9174  148.0672 H   0  0  0  0  0  0  0  0  0  0  0  0
  145.6587  135.1072  149.7081 H   0  0  0  0  0  0  0  0  0  0  0  0
  146.2972  134.2715  151.1634 H   0  0  0  0  0  0  0  0  0  0  0  0
  1  2  1  0  0  0  0
  1 30  1  0  0  0  0
  1 31  1  0  0  0  0
  1 32  1  0  0  0  0
  2  3  1  0  0  0  0
  2 13  1  0  0  0  0
  3  4  1  0  0  0  0
  3 33  1  0  0  0  0
  3 34  1  0  0  0  0
  4  5  1  0  0  0  0
  4  6  1  0  0  0  0
  4 35  1  0  0  0  0
  5 36  1  0  0  0  0
  6  7  1  0  0  0  0
  6 37  1  0  0  0  0
  6 38  1  0  0  0  0
  7 12  1  0  0  0  0
  7  8  1  0  0  0  0
  8  9  1  0  0  0  0
  8 39  1  0  0  0  0
  8 40  1  0  0  0  0
  9 10  1  0  0  0  0
  9 41  1  0  0  0  0
  9 42  1  0  0  0  0
 10 11  1  0  0  0  0
 11 12  1  0  0  0  0
 11 43  1  0  0  0  0
 11 44  1  0  0  0  0
 12 45  1  0  0  0  0
 12 46  1  0  0  0  0
 13 18  1  0  0  0  0
 13 14  2  0  0  0  0
 14 15  1  0  0  0  0
 15 16  2  0  0  0  0
 15 47  1  0  0  0  0
 16 17  1  0  0  0  0
 17 21  1  0  0  0  0
 17 18  2  0  0  0  0
 18 19  1  0  0  0  0
 19 20  2  0  0  0  0
 20 21  1  0  0  0  0
 20 48  1  0  0  0  0
 21 22  1  0  0  0  0
 22 29  1  0  0  0  0
 22 23  1  0  0  0  0
 22 49  1  0  0  0  0
 23 24  1  0  0  0  0
 23 50  1  0  0  0  0
 23 51  1  0  0  0  0
 24 25  1  0  0  0  0
 24 27  1  0  0  0  0
 24 29  1  0  0  0  0
 25 26  1  0  0  0  0
 25 52  1  0  0  0  0
 25 53  1  0  0  0  0
 26 54  1  0  0  0  0
 27 28  1  0  0  0  0
 27 55  1  0  0  0  0
 27 56  1  0  0  0  0
 28 57  1  0  0  0  0
 29 58  1  0  0  0  0
 29 59  1  0  0  0  0
M  END
> <s_m_source_file>
AV-unprocessed.smi

> <i_m_source_file_index>
228

> <i_lp_mmshare_version>
43012

> <i_f3d_flags>
0

> <s_epik_input>
W0NIMl0xW0NIMl1PW0NIMl1bQ0gyXU4xW0NIMl1bQ0BASF0oW09IXSlbQ0gyXU4oW0NIM10pYyhuW2NIXW4yKWMoYzIzKW5bY0hdbjNbQ0hdKFtDSDJdNClbQ0gyXUM0KFtDSDJdW09IXSlbQ0gyXVtPSF0=

> <s_epik_cmdline>
J2VwaWtfcHl0aG9uJywgJy1waCcsICc3LjAnLCAnLXRuJywgJzgnLCAnLW1hJywgJzIwMCcsICctbWV0YWxfYmluZGluZycsICctaW1hZScsICc8aW5maWxlLm1hZT4nLCAnLW9tYWUnLCAnPG91dGZpbGUubWFlPic=

> <r_lp_tautomer_probability>
1

> <r_epik_Ionization_Penalty>
0.423559

> <r_epik_Ionization_Penalty_Charging>
0

> <r_epik_Ionization_Penalty_Neutral>
0.423559

> <r_epik_State_Penalty>
0.438466

> <r_epik_Charging_Adjusted_Penalty>
0.438466

> <i_epik_Tot_Q>
0

> <i_epik_Tot_abs_Q>
0

> <r_epik_Metal_State_Penalty>
0.436601

> <b_epik_Metal_Only>
0

> <s_lp_Force_Field>
OPLS_2005

> <r_lp_Energy>
57.656

> <b_lp_Chiralities_Consistent>
1

> <s_lp_Variant>
AV-unprocessed.smi:228-4

> <Gold.Version>
5.8.1

> <Gold.Id.Protein>
6NUR|6NUR_protein|mol2

> <Gold.PLP.Fitness>
48.5487

> <Gold.PLP.PLP>
-34.6694

> <Gold.PLP.part.hbond>
-4.8106

> <Gold.PLP.part.metal>
0.0000

> <Gold.PLP.part.buried>
-3.4344

> <Gold.PLP.part.nonpolar>
-26.0531

> <Gold.PLP.part.repulsive>
0.2816

> <Gold.PLP.ligand.clash>
0.0000

> <Gold.PLP.ligand.torsion>
1.7112

> <Gold.PLP.Chemscore.Hbond>
3.8863

> <Gold.PLP.Chemscore.CHOScore>
1.5975

> <Gold.PLP.Chemscore.Metal>
0.0000

> <Gold.Chemscore.Hbonds>
donor molecule, donor type, donor heavy atom, donor atom, acceptor molecule, acceptor atom, score
      L1  H    26    54       P1 10747  1.00
      L1  H    28    57       P1  7921  1.00
      P1  H  7989  7998       L1    10  0.94
      P1  H 10192 10197       L1    28  0.96
      L1  C    20    48       P1 10171  1.00
      L1  C    20    48       P1 10175  0.60

> <Gold.PLP.Chemscore.Internal.Correction>
0.8505

> <Gold.Rescore>
     Score         DG    S(hbond)    S(metal)    S(lipo)     H(rot)  DE(clash)    DE(int)     intcor
      9.62     -12.27       3.07        0.00      72.41       4.66       0.02       2.63       ----

> <Gold.Chemscore.Fitness>
9.6224

> <Gold.Chemscore.DG>
-12.2747

> <Gold.Chemscore.ZeroCoef>
-5.4800

> <Gold.Chemscore.Hbond>
3.0696

> <Gold.Chemscore.Metal>
0.0000

> <Gold.Chemscore.Lipo>
72.4091

> <Gold.Chemscore.Internal_Hbond>
0.0000

> <Gold.Chemscore.DEClash>
0.0208

> <Gold.Chemscore.DEInternal>
2.6314

> <Gold.Chemscore.Rot>
4.6600

> <Gold.Chemscore.Internal.Correction>
   9.000000E+99

> <Gold.Chemscore.Hbonds>
donor molecule, donor type, donor heavy atom, donor atom, acceptor molecule, acceptor atom, score
      L1  H    26    54       P1 10747  0.97
      L1  H    28    57       P1  7921  0.94
      P1  H  7989  7998       L1    10  0.81
      P1  H 10192 10197       L1    28  0.27

> <Gold.Chemscore.Hbond.Weighted>
-10.2525

> <Gold.Chemscore.Metal.Weighted>
-0.0000

> <Gold.Chemscore.Lipo.Weighted>
-8.4719

> <Gold.Chemscore.Internal_Hbond.Weighted>
0.0000

> <Gold.Chemscore.DEClash.Weighted>
0.0208

> <Gold.Chemscore.DEInternal.Weighted>
2.6314

> <Gold.Chemscore.Rot.Weighted>
11.9297

> <Gold.Chemscore.Internal.Correction.Weighted>
   9.000000E+99

> <Gold.Protein.RotatedTorsions>
[ 6907 6896 6895 6894 ] final  167.56 input  -60.11 | X-H torsion
[ 7974 7965 7964 7962 ] final  -88.78 input  175.53 | X-H torsion
[ 8008 7997 7996 7995 ] final  -28.20 input   59.86 | X-H torsion
[ 10167 10162 10161 10158 ] final -150.82 input  -65.29 | X-H torsion
[ 10718 10713 10712 10709 ] final  -72.42 input   66.30 | X-H torsion
[ 10763 10752 10751 10750 ] final  -96.78 input  -60.55 | X-H torsion
[ 11005 11000 10999 10996 ] final  135.66 input  -57.11 | X-H torsion

> <Gold.Protein.ActiveResidues>
 VAL166  LYS551  ARG553  GLY616  TRP617  ASP618  TYR619  PRO620  LYS621  CYS622 
 ASP623  PHE694  ASN695  SER759  ASP760  ASP761  ALA762  ILE779  LEU786  VAL792 
 PHE793  MET794  SER795  GLU796  ALA797  LYS798  CYS799  TRP800  GLU811  SER814 

> <Gold.Protein.RotatedAtoms>
  151.8613  133.3458  159.3704 H   0  0  0  0  0  0  0  0  0  0  0  0  # atno 6907 bound_to 6896
  150.7178  134.5203  159.5659 H   0  0  0  0  0  0  0  0  0  0  0  0  # atno 6908 bound_to 6896
  152.2717  134.7926  160.0464 H   0  0  0  0  0  0  0  0  0  0  0  0  # atno 6909 bound_to 6896
  145.4486  140.9560  143.2035 H   0  0  0  0  0  0  0  0  0  0  0  0  # atno 7974 bound_to 7965
  154.4343  140.1852  156.1052 H   0  0  0  0  0  0  0  0  0  0  0  0  # atno 8008 bound_to 7997
  156.0261  140.3335  155.7064 H   0  0  0  0  0  0  0  0  0  0  0  0  # atno 8009 bound_to 7997
  155.5906  140.0630  157.2750 H   0  0  0  0  0  0  0  0  0  0  0  0  # atno 8010 bound_to 7997
  139.7321  143.8793  152.2537 H   0  0  0  0  0  0  0  0  0  0  0  0  # atno 10167 bound_to 10162
  156.0321  130.4372  150.2590 H   0  0  0  0  0  0  0  0  0  0  0  0  # atno 10718 bound_to 10713
  154.7270  135.5071  153.8902 H   0  0  0  0  0  0  0  0  0  0  0  0  # atno 10763 bound_to 10752
  153.0914  135.6660  153.9856 H   0  0  0  0  0  0  0  0  0  0  0  0  # atno 10764 bound_to 10752
  153.9666  135.3042  155.3409 H   0  0  0  0  0  0  0  0  0  0  0  0  # atno 10765 bound_to 10752
  139.9994  134.9484  157.0038 H   0  0  0  0  0  0  0  0  0  0  0  0  # atno 11005 bound_to 11000
  144.8076  139.6022  143.7044 LP  0  0  0  0  0  0  0  0  0  0  0  0  # atno 17320 bound_to 7965
  146.2517  139.6214  142.9422 LP  0  0  0  0  0  0  0  0  0  0  0  0  # atno 17321 bound_to 7965
  139.8719  144.7064  150.8978 LP  0  0  0  0  0  0  0  0  0  0  0  0  # atno 17342 bound_to 10162
  140.7773  143.3731  151.1612 LP  0  0  0  0  0  0  0  0  0  0  0  0  # atno 17343 bound_to 10162
  157.0692  131.0112  151.3196 LP  0  0  0  0  0  0  0  0  0  0  0  0  # atno 17370 bound_to 10713
  157.5012  130.7881  149.7607 LP  0  0  0  0  0  0  0  0  0  0  0  0  # atno 17371 bound_to 10713
  140.4756  134.1341  155.7209 LP  0  0  0  0  0  0  0  0  0  0  0  0  # atno 17394 bound_to 11000
  141.1630  133.8757  157.1795 LP  0  0  0  0  0  0  0  0  0  0  0  0  # atno 17395 bound_to 11000

$$$$
