AV-unprocessed.smi:1561|AV-procd|sdf|6286|dock3
  -GOLD-   22720 6483D 1   1.00000     0.00000
 Structure written by MMmdl.
 33 34  0  0  0  0  0  0  0  0  1 V2000
  153.7891  141.5876  160.7193 C   0  0  0  0  0  0  0  0  0  0  0  0
  153.0958  142.0739  159.4301 C   0  0  1  0  0  0  0  0  0  0  0  0
  152.1730  141.0091  158.8168 C   0  0  0  0  0  0  0  0  0  0  0  0
  150.9671  141.2224  158.6862 O   0  0  0  0  0  0  0  0  0  0  0  0
  152.7596  139.8596  158.4462 N   0  0  0  0  0  0  0  0  0  0  0  0
  152.0845  138.7190  157.8351 C   0  0  0  0  0  0  0  0  0  0  0  0
  152.0714  138.8126  156.2977 C   0  0  1  0  0  0  0  0  0  0  0  0
  151.3418  137.6885  155.5865 C   0  0  0  0  0  0  0  0  0  0  0  0
  151.0726  138.2970  154.2128 C   0  0  0  0  0  0  0  0  0  0  0  0
  150.9817  139.7047  154.4152 O   0  0  0  0  0  0  0  0  0  0  0  0
  151.3135  140.0259  155.7621 C   0  0  0  0  0  0  0  0  0  0  0  0
  152.3666  143.3212  159.6292 N   0  0  0  0  0  0  0  0  0  0  0  0
  152.4826  144.4947  158.9115 C   0  0  0  0  0  0  0  0  0  0  0  0
  151.5789  145.3814  159.4231 C   0  0  0  0  0  0  0  0  0  0  0  0
  150.9363  144.6482  160.4588 C   0  0  0  0  0  0  0  0  0  0  0  0
  151.4020  143.4157  160.5740 N   0  0  0  0  0  0  0  0  0  0  0  0
  154.3772  140.6884  160.5323 H   0  0  0  0  0  0  0  0  0  0  0  0
  153.0737  141.3549  161.5092 H   0  0  0  0  0  0  0  0  0  0  0  0
  154.4696  142.3478  161.1039 H   0  0  0  0  0  0  0  0  0  0  0  0
  153.8845  142.2783  158.7040 H   0  0  0  0  0  0  0  0  0  0  0  0
  153.7549  139.7715  158.5910 H   0  0  0  0  0  0  0  0  0  0  0  0
  152.5344  137.7798  158.1620 H   0  0  0  0  0  0  0  0  0  0  0  0
  151.0593  138.7084  158.2056 H   0  0  0  0  0  0  0  0  0  0  0  0
  153.0970  138.8550  155.9267 H   0  0  0  0  0  0  0  0  0  0  0  0
  151.9188  136.7648  155.5336 H   0  0  0  0  0  0  0  0  0  0  0  0
  150.3977  137.4719  156.0889 H   0  0  0  0  0  0  0  0  0  0  0  0
  151.9054  138.0984  153.5374 H   0  0  0  0  0  0  0  0  0  0  0  0
  150.1648  137.9010  153.7568 H   0  0  0  0  0  0  0  0  0  0  0  0
  150.3873  140.1792  156.3177 H   0  0  0  0  0  0  0  0  0  0  0  0
  151.8980  140.9445  155.8199 H   0  0  0  0  0  0  0  0  0  0  0  0
  153.1920  144.6005  158.1039 H   0  0  0  0  0  0  0  0  0  0  0  0
  151.4006  146.3973  159.1034 H   0  0  0  0  0  0  0  0  0  0  0  0
  150.1479  144.9710  161.1224 H   0  0  0  0  0  0  0  0  0  0  0  0
  1  2  1  0  0  0  0
  1 17  1  0  0  0  0
  1 18  1  0  0  0  0
  1 19  1  0  0  0  0
  2  3  1  0  0  0  0
  2 12  1  0  0  0  0
  2 20  1  0  0  0  0
  3  4  2  0  0  0  0
  3  5  1  0  0  0  0
  5  6  1  0  0  0  0
  5 21  1  0  0  0  0
  6  7  1  0  0  0  0
  6 22  1  0  0  0  0
  6 23  1  0  0  0  0
  7 11  1  0  0  0  0
  7  8  1  0  0  0  0
  7 24  1  0  0  0  0
  8  9  1  0  0  0  0
  8 25  1  0  0  0  0
  8 26  1  0  0  0  0
  9 10  1  0  0  0  0
  9 27  1  0  0  0  0
  9 28  1  0  0  0  0
 10 11  1  0  0  0  0
 11 29  1  0  0  0  0
 11 30  1  0  0  0  0
 12 16  1  0  0  0  0
 12 13  1  0  0  0  0
 13 14  2  0  0  0  0
 13 31  1  0  0  0  0
 14 15  1  0  0  0  0
 14 32  1  0  0  0  0
 15 16  2  0  0  0  0
 15 33  1  0  0  0  0
M  END
> <s_m_source_file>
AV-unprocessed.smi

> <i_m_source_file_index>
1561

> <i_lp_mmshare_version>
43012

> <i_f3d_flags>
0

> <s_epik_input>
bjFbY0hdW2NIXVtjSF1uMVtDQEhdKFtDSDNdKUMoPU8pW05IXVtDSDJdW0NAQEhdMltDSDJdW0NIMl1PW0NIMl0y

> <s_epik_cmdline>
J2VwaWtfcHl0aG9uJywgJy1waCcsICc3LjAnLCAnLXRuJywgJzgnLCAnLW1hJywgJzIwMCcsICctbWV0YWxfYmluZGluZycsICctaW1hZScsICc8aW5maWxlLm1hZT4nLCAnLW9tYWUnLCAnPG91dGZpbGUubWFlPic=

> <r_lp_tautomer_probability>
1

> <r_epik_Ionization_Penalty>
3.82077e-05

> <r_epik_Ionization_Penalty_Charging>
0

> <r_epik_Ionization_Penalty_Neutral>
3.82077e-05

> <r_epik_State_Penalty>
-0

> <r_epik_Charging_Adjusted_Penalty>
0

> <i_epik_Tot_Q>
0

> <i_epik_Tot_abs_Q>
0

> <r_epik_Metal_State_Penalty>
-0

> <b_epik_Metal_Only>
0

> <s_lp_Force_Field>
OPLS_2005

> <r_lp_Energy>
22.4357

> <b_lp_Chiralities_Consistent>
1

> <s_lp_Variant>
AV-unprocessed.smi:1561-4

> <Gold.Version>
5.8.1

> <Gold.Id.Protein>
6NUR|6NUR_protein|mol2

> <Gold.PLP.Fitness>
40.9267

> <Gold.PLP.PLP>
-38.5855

> <Gold.PLP.part.hbond>
-1.5523

> <Gold.PLP.part.metal>
0.0000

> <Gold.PLP.part.buried>
-5.5411

> <Gold.PLP.part.nonpolar>
-32.1801

> <Gold.PLP.part.repulsive>
0.3075

> <Gold.PLP.ligand.clash>
0.0000

> <Gold.PLP.ligand.torsion>
0.3824

> <Gold.PLP.Chemscore.Hbond>
1.0000

> <Gold.PLP.Chemscore.CHOScore>
0.0000

> <Gold.PLP.Chemscore.Metal>
0.0000

> <Gold.Chemscore.Hbonds>
donor molecule, donor type, donor heavy atom, donor atom, acceptor molecule, acceptor atom, score
      P1  H  7989  7998       L1    10  1.00

> <Gold.PLP.Chemscore.Internal.Correction>
0.1059

> <Gold.Rescore>
     Score         DG    S(hbond)    S(metal)    S(lipo)     H(rot)  DE(clash)    DE(int)     intcor
     13.44     -15.01       0.95        0.00      89.67       1.61       0.01       1.57       ----

> <Gold.Chemscore.Fitness>
13.4362

> <Gold.Chemscore.DG>
-15.0098

> <Gold.Chemscore.ZeroCoef>
-5.4800

> <Gold.Chemscore.Hbond>
0.9456

> <Gold.Chemscore.Metal>
0.0000

> <Gold.Chemscore.Lipo>
89.6701

> <Gold.Chemscore.Internal_Hbond>
0.0000

> <Gold.Chemscore.DEClash>
0.0057

> <Gold.Chemscore.DEInternal>
1.5679

> <Gold.Chemscore.Rot>
1.6094

> <Gold.Chemscore.Internal.Correction>
   9.000000E+99

> <Gold.Chemscore.Hbonds>
donor molecule, donor type, donor heavy atom, donor atom, acceptor molecule, acceptor atom, score
      P1  H  7989  7998       L1    10  0.60

> <Gold.Chemscore.Hbond.Weighted>
-3.1585

> <Gold.Chemscore.Metal.Weighted>
-0.0000

> <Gold.Chemscore.Lipo.Weighted>
-10.4914

> <Gold.Chemscore.Internal_Hbond.Weighted>
0.0000

> <Gold.Chemscore.DEClash.Weighted>
0.0057

> <Gold.Chemscore.DEInternal.Weighted>
1.5679

> <Gold.Chemscore.Rot.Weighted>
4.1201

> <Gold.Chemscore.Internal.Correction.Weighted>
   9.000000E+99

> <Gold.Protein.RotatedTorsions>
[ 6907 6896 6895 6894 ] final -158.65 input  -60.11 | X-H torsion
[ 7974 7965 7964 7962 ] final -126.91 input  175.53 | X-H torsion
[ 8008 7997 7996 7995 ] final  -67.93 input   59.86 | X-H torsion
[ 10167 10162 10161 10158 ] final -106.72 input  -65.29 | X-H torsion
[ 10718 10713 10712 10709 ] final  -83.77 input   66.30 | X-H torsion
[ 10763 10752 10751 10750 ] final -147.04 input  -60.55 | X-H torsion
[ 11005 11000 10999 10996 ] final  119.37 input  -57.11 | X-H torsion

> <Gold.Protein.ActiveResidues>
 VAL166  LYS551  ARG553  GLY616  TRP617  ASP618  TYR619  PRO620  LYS621  CYS622 
 ASP623  PHE694  ASN695  SER759  ASP760  ASP761  ALA762  ILE779  LEU786  VAL792 
 PHE793  MET794  SER795  GLU796  ALA797  LYS798  CYS799  TRP800  GLU811  SER814 

> <Gold.Protein.RotatedAtoms>
  151.3214  133.4038  159.2654 H   0  0  0  0  0  0  0  0  0  0  0  0  # atno 6907 bound_to 6896
  151.0031  134.9339  159.7975 H   0  0  0  0  0  0  0  0  0  0  0  0  # atno 6908 bound_to 6896
  152.5280  134.3179  159.9190 H   0  0  0  0  0  0  0  0  0  0  0  0  # atno 6909 bound_to 6896
  144.9824  140.7653  143.4604 H   0  0  0  0  0  0  0  0  0  0  0  0  # atno 7974 bound_to 7965
  154.4833  140.0883  156.7428 H   0  0  0  0  0  0  0  0  0  0  0  0  # atno 8008 bound_to 7997
  155.4414  140.3454  155.4272 H   0  0  0  0  0  0  0  0  0  0  0  0  # atno 8009 bound_to 7997
  156.1224  140.1478  156.9173 H   0  0  0  0  0  0  0  0  0  0  0  0  # atno 8010 bound_to 7997
  140.1847  143.3938  152.1253 H   0  0  0  0  0  0  0  0  0  0  0  0  # atno 10167 bound_to 10162
  156.0014  130.4676  150.4308 H   0  0  0  0  0  0  0  0  0  0  0  0  # atno 10718 bound_to 10713
  154.8306  135.3371  154.6755 H   0  0  0  0  0  0  0  0  0  0  0  0  # atno 10763 bound_to 10752
  153.7375  135.6948  153.4979 H   0  0  0  0  0  0  0  0  0  0  0  0  # atno 10764 bound_to 10752
  153.2267  135.4430  155.0502 H   0  0  0  0  0  0  0  0  0  0  0  0  # atno 10765 bound_to 10752
  139.9144  134.9628  156.7645 H   0  0  0  0  0  0  0  0  0  0  0  0  # atno 11005 bound_to 11000
  145.2401  139.2076  143.4997 LP  0  0  0  0  0  0  0  0  0  0  0  0  # atno 17320 bound_to 7965
  146.3411  140.2295  142.8593 LP  0  0  0  0  0  0  0  0  0  0  0  0  # atno 17321 bound_to 7965
  139.5281  144.7127  151.5156 LP  0  0  0  0  0  0  0  0  0  0  0  0  # atno 17342 bound_to 10162
  140.6496  143.8724  150.6772 LP  0  0  0  0  0  0  0  0  0  0  0  0  # atno 17343 bound_to 10162
  157.2357  131.0514  151.2466 LP  0  0  0  0  0  0  0  0  0  0  0  0  # atno 17370 bound_to 10713
  157.3669  130.7160  149.6538 LP  0  0  0  0  0  0  0  0  0  0  0  0  # atno 17371 bound_to 10713
  140.6670  133.9593  155.7836 LP  0  0  0  0  0  0  0  0  0  0  0  0  # atno 17394 bound_to 11000
  141.0604  134.0355  157.3666 LP  0  0  0  0  0  0  0  0  0  0  0  0  # atno 17395 bound_to 11000

$$$$
