AV-unprocessed.smi:2692|AV-procd|sdf|10394|dock8
  -GOLD-   2272014433D 1   1.00000     0.00000
 Structure written by MMmdl.
 21 21  0  0  0  0  0  0  0  0  4 V2000
  146.2020  140.3733  154.0148 N   0  3  0  0  0  0  0  0  0  0  0  0
  147.1089  141.4364  153.5499 C   0  0  0  0  0  0  0  0  0  0  0  0
  148.2572  141.6670  154.5431 C   0  0  0  0  0  0  0  0  0  0  0  0
  149.2658  140.5345  154.5270 C   0  0  0  0  0  0  0  0  0  0  0  0
  149.0620  139.3960  153.7164 C   0  0  0  0  0  0  0  0  0  0  0  0
  149.9740  138.3985  153.7122 N   0  3  0  0  0  0  0  0  0  0  0  0
  151.0991  138.4316  154.4587 C   0  0  0  0  0  0  0  0  0  0  0  0
  151.3562  139.5424  155.2869 C   0  0  0  0  0  0  0  0  0  0  0  0
  152.4890  139.5905  156.0435 O   0  5  0  0  0  0  0  0  0  0  0  0
  150.4294  140.6040  155.3244 C   0  0  0  0  0  0  0  0  0  0  0  0
  146.0535  140.4685  155.0095 H   0  0  0  0  0  0  0  0  0  0  0  0
  146.6131  139.4707  153.8231 H   0  0  0  0  0  0  0  0  0  0  0  0
  147.5030  141.1581  152.5719 H   0  0  0  0  0  0  0  0  0  0  0  0
  146.5308  142.3514  153.4158 H   0  0  0  0  0  0  0  0  0  0  0  0
  148.7761  142.5974  154.3080 H   0  0  0  0  0  0  0  0  0  0  0  0
  147.8619  141.7807  155.5537 H   0  0  0  0  0  0  0  0  0  0  0  0
  148.2045  139.2513  153.0756 H   0  0  0  0  0  0  0  0  0  0  0  0
  151.7534  137.5764  154.3710 H   0  0  0  0  0  0  0  0  0  0  0  0
  149.8078  137.5844  153.1204 H   0  0  0  0  0  0  0  0  0  0  0  0
  150.6115  141.4618  155.9557 H   0  0  0  0  0  0  0  0  0  0  0  0
  145.3168  140.4485  153.5344 H   0  0  0  0  0  0  0  0  0  0  0  0
  1  2  1  0  0  0  0
  1 11  1  0  0  0  0
  1 12  1  0  0  0  0
  1 21  1  0  0  0  0
  2  3  1  0  0  0  0
  2 13  1  0  0  0  0
  2 14  1  0  0  0  0
  3 15  1  0  0  0  0
  3 16  1  0  0  0  0
  3  4  1  0  0  0  0
  4  5  1  0  0  0  0
  4 10  2  0  0  0  0
  5  6  2  0  0  0  0
  5 17  1  0  0  0  0
  6  7  1  0  0  0  0
  6 19  1  0  0  0  0
  7  8  2  0  0  0  0
  7 18  1  0  0  0  0
  8  9  1  0  0  0  0
  8 10  1  0  0  0  0
 10 20  1  0  0  0  0
M  CHG  1   1   1
M  CHG  1   6   1
M  CHG  1   9  -1
M  END
> <s_m_source_file>
AV-unprocessed.smi

> <i_m_source_file_index>
2692

> <i_lp_mmshare_version>
43012

> <i_f3d_flags>
0

> <s_epik_input>
W05IMl1bQ0gyXVtDSDJdYzFbY0hdbltjSF1jKFtPSF0pW2NIXTE=

> <s_epik_cmdline>
J2VwaWtfcHl0aG9uJywgJy1waCcsICc3LjAnLCAnLXRuJywgJzgnLCAnLW1hJywgJzIwMCcsICctbWV0YWxfYmluZGluZycsICctaW1hZScsICc8aW5maWxlLm1hZT4nLCAnLW9tYWUnLCAnPG91dGZpbGUubWFlPic=

> <r_lp_tautomer_probability>
0.56342

> <r_epik_Ionization_Penalty>
0.0470523

> <r_epik_Ionization_Penalty_Charging>
0.0470523

> <r_epik_Ionization_Penalty_Neutral>
0

> <r_epik_State_Penalty>
0.376149

> <r_epik_Charging_Adjusted_Penalty>
0.423201

> <i_epik_Tot_Q>
1

> <i_epik_Tot_abs_Q>
3

> <r_epik_Metal_State_Penalty>
2.7829

> <b_epik_Metal_Only>
0

> <s_lp_Force_Field>
OPLS_2005

> <r_lp_Energy>
5.09983

> <b_lp_Chiralities_Consistent>
1

> <s_lp_Variant>
AV-unprocessed.smi:2692-1

> <Gold.Version>
5.8.1

> <Gold.Id.Protein>
6NUR|6NUR_protein|mol2

> <Gold.PLP.Fitness>
40.3596

> <Gold.PLP.PLP>
-22.4552

> <Gold.PLP.part.hbond>
-3.9922

> <Gold.PLP.part.metal>
0.0000

> <Gold.PLP.part.buried>
1.6488

> <Gold.PLP.part.nonpolar>
-19.3771

> <Gold.PLP.part.repulsive>
0.0702

> <Gold.PLP.ligand.clash>
0.0000

> <Gold.PLP.ligand.torsion>
0.0479

> <Gold.PLP.Chemscore.Hbond>
6.0000

> <Gold.PLP.Chemscore.CHOScore>
0.0000

> <Gold.PLP.Chemscore.Metal>
0.0000

> <Gold.Chemscore.Hbonds>
donor molecule, donor type, donor heavy atom, donor atom, acceptor molecule, acceptor atom, score
      L1  H     1    21       P1 10175  2.00
      L1  H     6    19       P1  7948  2.00
      P1  H  7997  8009       L1     9  2.00

> <Gold.PLP.Chemscore.Internal.Correction>
0.0002

> <Gold.Rescore>
     Score         DG    S(hbond)    S(metal)    S(lipo)     H(rot)  DE(clash)    DE(int)     intcor
     15.69     -17.27       2.72        0.00      53.03       1.36       1.51       0.07       ----

> <Gold.Chemscore.Fitness>
15.6900

> <Gold.Chemscore.DG>
-17.2740

> <Gold.Chemscore.ZeroCoef>
-5.4800

> <Gold.Chemscore.Hbond>
2.7196

> <Gold.Chemscore.Metal>
0.0000

> <Gold.Chemscore.Lipo>
53.0257

> <Gold.Chemscore.Internal_Hbond>
0.0000

> <Gold.Chemscore.DEClash>
1.5117

> <Gold.Chemscore.DEInternal>
0.0723

> <Gold.Chemscore.Rot>
1.3646

> <Gold.Chemscore.Internal.Correction>
   9.000000E+99

> <Gold.Chemscore.Hbonds>
donor molecule, donor type, donor heavy atom, donor atom, acceptor molecule, acceptor atom, score
      L1  H     1    21       P1 10175  0.98
      L1  H     6    19       P1  7948  0.48
      P1  H  7997  8009       L1     9  0.99

> <Gold.Chemscore.Hbond.Weighted>
-9.0834

> <Gold.Chemscore.Metal.Weighted>
-0.0000

> <Gold.Chemscore.Lipo.Weighted>
-6.2040

> <Gold.Chemscore.Internal_Hbond.Weighted>
0.0000

> <Gold.Chemscore.DEClash.Weighted>
1.5117

> <Gold.Chemscore.DEInternal.Weighted>
0.0723

> <Gold.Chemscore.Rot.Weighted>
3.4934

> <Gold.Chemscore.Internal.Correction.Weighted>
   9.000000E+99

> <Gold.Protein.RotatedTorsions>
[ 6907 6896 6895 6894 ] final  129.99 input  -60.11 | X-H torsion
[ 7974 7965 7964 7962 ] final  177.01 input  175.53 | X-H torsion
[ 8008 7997 7996 7995 ] final -154.85 input   59.86 | X-H torsion
[ 10167 10162 10161 10158 ] final   91.10 input  -65.29 | X-H torsion
[ 10718 10713 10712 10709 ] final  -58.84 input   66.30 | X-H torsion
[ 10763 10752 10751 10750 ] final  171.66 input  -60.55 | X-H torsion
[ 11005 11000 10999 10996 ] final -148.53 input  -57.11 | X-H torsion

> <Gold.Protein.ActiveResidues>
 VAL166  LYS551  ARG553  GLY616  TRP617  ASP618  TYR619  PRO620  LYS621  CYS622 
 ASP623  PHE694  ASN695  SER759  ASP760  ASP761  ALA762  ILE779  LEU786  VAL792 
 PHE793  MET794  SER795  GLU796  ALA797  LYS798  CYS799  TRP800  GLU811  SER814 

> <Gold.Protein.RotatedAtoms>
  152.3570  133.6249  159.5986 H   0  0  0  0  0  0  0  0  0  0  0  0  # atno 6907 bound_to 6896
  150.7575  133.9484  159.3487 H   0  0  0  0  0  0  0  0  0  0  0  0  # atno 6908 bound_to 6896
  151.7328  135.0872  160.0354 H   0  0  0  0  0  0  0  0  0  0  0  0  # atno 6909 bound_to 6896
  144.7175  140.0182  143.6440 H   0  0  0  0  0  0  0  0  0  0  0  0  # atno 7974 bound_to 7965
  155.6928  140.0757  157.2441 H   0  0  0  0  0  0  0  0  0  0  0  0  # atno 8008 bound_to 7997
  154.4086  140.1661  156.2157 H   0  0  0  0  0  0  0  0  0  0  0  0  # atno 8009 bound_to 7997
  155.9437  140.3382  155.6352 H   0  0  0  0  0  0  0  0  0  0  0  0  # atno 8010 bound_to 7997
  139.8408  144.6642  150.9286 H   0  0  0  0  0  0  0  0  0  0  0  0  # atno 10167 bound_to 10162
  156.1105  130.4175  150.0633 H   0  0  0  0  0  0  0  0  0  0  0  0  # atno 10718 bound_to 10713
  154.4150  135.2757  155.2012 H   0  0  0  0  0  0  0  0  0  0  0  0  # atno 10763 bound_to 10752
  154.3982  135.6050  153.5885 H   0  0  0  0  0  0  0  0  0  0  0  0  # atno 10764 bound_to 10752
  152.9832  135.5920  154.4438 H   0  0  0  0  0  0  0  0  0  0  0  0  # atno 10765 bound_to 10752
  140.7602  134.3307  157.5103 H   0  0  0  0  0  0  0  0  0  0  0  0  # atno 11005 bound_to 11000
  146.0202  139.3244  143.0817 LP  0  0  0  0  0  0  0  0  0  0  0  0  # atno 17320 bound_to 7965
  145.8577  140.9493  143.0716 LP  0  0  0  0  0  0  0  0  0  0  0  0  # atno 17321 bound_to 7965
  140.7798  143.3915  151.1303 LP  0  0  0  0  0  0  0  0  0  0  0  0  # atno 17342 bound_to 10162
  139.7561  143.8705  152.3089 LP  0  0  0  0  0  0  0  0  0  0  0  0  # atno 17343 bound_to 10162
  156.8597  130.9487  151.3619 LP  0  0  0  0  0  0  0  0  0  0  0  0  # atno 17370 bound_to 10713
  157.6286  130.8711  149.9233 LP  0  0  0  0  0  0  0  0  0  0  0  0  # atno 17371 bound_to 10713
  139.8772  134.9197  156.3234 LP  0  0  0  0  0  0  0  0  0  0  0  0  # atno 17394 bound_to 11000
  140.9670  133.7352  156.0481 LP  0  0  0  0  0  0  0  0  0  0  0  0  # atno 17395 bound_to 11000

$$$$
