#       Name:                AV-unprocessed.smi:1128
#       Creating user name   scv26
#       Creation time:       Fri Mar 27 03:41:12 2020


#       File generated by GOLD software.
#

@<TRIPOS>MOLECULE
AV-unprocessed.smi:1128
    42    43     1
SMALL
NO_CHARGES


@<TRIPOS>ATOM
      1 ****         0.2110   1.2550  -0.7693 O.2            1 S1                 0.0000
      2 ****        -0.3125   0.1752  -1.0415 C.2            1 S1                 0.0000
      3 ****         0.3866  -0.9552  -1.2198 N.am           1 S1                 0.0000
      4 ****         1.8388  -1.0839  -1.1325 C.3            1 S1                 0.0000
      5 ****         2.2896  -1.7269   0.1951 C.3            1 S1                 0.0000
      6 ****         1.8998  -0.8814   1.4312 C.3            1 S1                 0.0000
      7 ****         2.5797  -1.3529   2.7042 C.2            1 S1                 0.0000
      8 ****         3.6289  -2.1915   2.7166 C.2            1 S1                 0.0000
      9 ****         4.2588  -2.7560   1.4572 C.3            1 S1                 0.0000
     10 ****         3.8056  -2.0043   0.1916 C.3            1 S1                 0.0000
     11 ****        -1.6287  -0.0517  -1.2065 N.am           1 S1                 0.0000
     12 ****        -2.7196   0.8322  -1.1219 C.2            1 S1                 0.0000
     13 ****        -2.6471   2.1387  -0.7422 C.2            1 S1                 0.0000
     14 ****        -3.8218   2.9998  -0.6787 C.2            1 S1                 0.0000
     15 ****        -3.7888   4.4355  -0.1851 C.3            1 S1                 0.0000
     16 ****        -4.9107   4.7459   0.4649 F              1 S1                 0.0000
     17 ****        -2.7582   4.6347   0.6368 F              1 S1                 0.0000
     18 ****        -3.6639   5.2675  -1.2181 F              1 S1                 0.0000
     19 ****        -4.9819   2.3306  -1.0161 C.2            1 S1                 0.0000
     20 ****        -5.1396   1.0492  -1.4128 N.pl3          1 S1                -1.0000
     21 ****        -4.0335   0.2555  -1.4777 C.2            1 S1                 0.0000
     22 ****        -4.1087  -0.9238  -1.8250 O.2            1 S1                 0.0000
     23 ****        -0.1282  -1.7952  -1.4404 H              1 S1                 0.0000
     24 ****         2.1571  -1.7084  -1.9677 H              1 S1                 0.0000
     25 ****         2.3300  -0.1196  -1.2740 H              1 S1                 0.0000
     26 ****         1.7875  -2.6922   0.2811 H              1 S1                 0.0000
     27 ****         2.1670   0.1647   1.2777 H              1 S1                 0.0000
     28 ****         0.8206  -0.9133   1.5827 H              1 S1                 0.0000
     29 ****         2.1858  -0.9724   3.6352 H              1 S1                 0.0000
     30 ****         4.0574  -2.5025   3.6583 H              1 S1                 0.0000
     31 ****         5.3445  -2.7111   1.5462 H              1 S1                 0.0000
     32 ****         3.9891  -3.8101   1.3876 H              1 S1                 0.0000
     33 ****         4.0873  -2.5801  -0.6907 H              1 S1                 0.0000
     34 ****         4.3424  -1.0571   0.1224 H              1 S1                 0.0000
     35 ****        -1.8889  -0.9976  -1.4451 H              1 S1                 0.0000
     36 ****        -1.7087   2.5894  -0.4684 H              1 S1                 0.0000
     37 ****        -5.9269   2.9115  -0.9541 H              1 S1                 0.0000
     38 ****         1.2041   1.3186  -0.6710 LP             1 S1                 0.0000
     39 ****        -0.3567   2.0691  -0.6464 LP             1 S1                 0.0000
     40 ****        -6.0427   0.6928  -1.6522 LP             1 S1                 0.0000
     41 ****        -3.2832  -1.4867  -1.8654 LP             1 S1                 0.0000
     42 ****        -4.9952  -1.3183  -2.0666 LP             1 S1                 0.0000
@<TRIPOS>BOND
    1    1    2 2     
    2    2    3 am    
    3    2   11 am    
    4    3    4 1     
    5    3   23 1     
    6    4    5 1     
    7    4   24 1     
    8    4   25 1     
    9    5   10 1     
   10    5    6 1     
   11    5   26 1     
   12    6    7 1     
   13    6   27 1     
   14    6   28 1     
   15    7    8 2     
   16    7   29 1     
   17    8    9 1     
   18    8   30 1     
   19    9   10 1     
   20    9   31 1     
   21    9   32 1     
   22   10   33 1     
   23   10   34 1     
   24   11   12 1     
   25   11   35 1     
   26   12   21 1     
   27   12   13 2     
   28   13   14 1     
   29   13   36 1     
   30   14   15 1     
   31   14   19 2     
   32   15   16 1     
   33   15   17 1     
   34   15   18 1     
   35   19   20 1     
   36   19   37 1     
   37   20   21 1     
   38   21   22 2     
   39    1   38 1     
   40    1   39 1     
   41   20   40 1     
   42   22   41 1     
   43   22   42 1     
@<TRIPOS>SUBSTRUCTURE
      1 S1             1
@<TRIPOS>SET
LONE_PAIRS      STATIC     ATOMS    <user>   **** ""
5 38 39 40 41 42
DONOR_HYDROGENS      STATIC     ATOMS    <user>   **** ""
2 23 35
ATOM$BLUE        STATIC     ATOMS    COLORGROUP SYSTEM
5 38 39 40 41 42
ATOM$RED        STATIC     ATOMS    COLORGROUP SYSTEM
2 23 35
