#       Name:                AV-unprocessed.smi:907
#       Creating user name   scv26
#       Creation time:       Fri Mar 27 02:00:56 2020


#       File generated by GOLD software.
#

@<TRIPOS>MOLECULE
AV-unprocessed.smi:907
    56    59     1
SMALL
NO_CHARGES


@<TRIPOS>ATOM
      1 ****         1.2138   1.1002  -2.4857 O.2            1 S1                 0.0000
      2 ****         0.7772   0.0921  -1.9294 C.2            1 S1                 0.0000
      3 ****         1.5598  -0.9641  -1.6539 N.am           1 S1                 0.0000
      4 ****         2.9807  -1.0412  -1.9652 C.3            1 S1                 0.0000
      5 ****         3.5946  -2.3242  -1.3882 C.3            1 S1                 0.0000
      6 ****         5.0714  -2.4484  -1.7113 C.ar           1 S1                 0.0000
      7 ****         5.5463  -3.2828  -2.7466 C.ar           1 S1                 0.0000
      8 ****         6.9328  -3.3464  -2.9990 C.ar           1 S1                 0.0000
      9 ****         7.8138  -2.5743  -2.2134 C.ar           1 S1                 0.0000
     10 ****         7.2853  -1.7575  -1.1932 C.ar           1 S1                 0.0000
     11 ****         5.9510  -1.7245  -0.9813 N.pl3          1 S1                 1.0000
     12 ****        -0.5278  -0.0635  -1.5925 N.am           1 S1                 0.0000
     13 ****        -1.0798  -1.0803  -0.6895 C.3            1 S1                 0.0000
     14 ****        -1.4528  -0.4062   0.6422 C.3            1 S1                 0.0000
     15 ****        -2.4054   0.7292   0.4545 N.4            1 S1                 1.0000
     16 ****        -2.7538   1.3754   1.7580 C.3            1 S1                 0.0000
     17 ****        -3.5528   0.4171   2.6811 C.3            1 S1                 0.0000
     18 ****        -4.8073   1.2266   3.0479 C.3            1 S1                 0.0000
     19 ****        -4.4166   2.3876   3.9771 C.3            1 S1                 0.0000
     20 ****        -3.6841   3.3451   3.0214 C.3            1 S1                 0.0000
     21 ****        -3.7216   2.5906   1.6770 C.3            1 S1                 0.0000
     22 ****        -5.0998   1.9420   1.7359 C.3            1 S1                 0.0000
     23 ****        -1.9435   1.6782  -0.6016 C.3            1 S1                 0.0000
     24 ****        -1.5374   0.9509  -1.8974 C.3            1 S1                 0.0000
     25 ****         1.1384  -1.7706  -1.2163 H              1 S1                 0.0000
     26 ****         3.1105  -1.0173  -3.0483 H              1 S1                 0.0000
     27 ****         3.4913  -0.1663  -1.5592 H              1 S1                 0.0000
     28 ****         3.4670  -2.3468  -0.3048 H              1 S1                 0.0000
     29 ****         3.0695  -3.1974  -1.7780 H              1 S1                 0.0000
     30 ****         4.8592  -3.8660  -3.3425 H              1 S1                 0.0000
     31 ****         7.3158  -3.9786  -3.7869 H              1 S1                 0.0000
     32 ****         8.8789  -2.6079  -2.3918 H              1 S1                 0.0000
     33 ****         7.8844  -1.1333  -0.5462 H              1 S1                 0.0000
     34 ****        -1.9669  -1.5226  -1.1455 H              1 S1                 0.0000
     35 ****        -0.4055  -1.9153  -0.4994 H              1 S1                 0.0000
     36 ****        -1.8745  -1.1581   1.3080 H              1 S1                 0.0000
     37 ****        -0.5468  -0.0374   1.1262 H              1 S1                 0.0000
     38 ****        -1.8231   1.6849   2.2371 H              1 S1                 0.0000
     39 ****        -3.8608  -0.4897   2.1588 H              1 S1                 0.0000
     40 ****        -2.9815   0.1142   3.5594 H              1 S1                 0.0000
     41 ****        -5.6247   0.6150   3.4318 H              1 S1                 0.0000
     42 ****        -5.3019   2.8665   4.3974 H              1 S1                 0.0000
     43 ****        -3.7863   2.0604   4.8051 H              1 S1                 0.0000
     44 ****        -4.2213   4.2917   2.9481 H              1 S1                 0.0000
     45 ****        -2.6677   3.5666   3.3495 H              1 S1                 0.0000
     46 ****        -3.5715   3.2746   0.8449 H              1 S1                 0.0000
     47 ****        -5.2954   1.2636   0.9036 H              1 S1                 0.0000
     48 ****        -5.9159   2.6635   1.8097 H              1 S1                 0.0000
     49 ****        -2.7344   2.3776  -0.8638 H              1 S1                 0.0000
     50 ****        -1.1038   2.2628  -0.2226 H              1 S1                 0.0000
     51 ****        -1.1964   1.6746  -2.6393 H              1 S1                 0.0000
     52 ****        -2.4083   0.4665  -2.3418 H              1 S1                 0.0000
     53 ****        -3.2612   0.3258   0.1005 H              1 S1                 0.0000
     54 ****         5.5915  -1.1244  -0.2386 H              1 S1                 0.0000
     55 ****         2.1779   1.1495  -2.7466 LP             1 S1                 0.0000
     56 ****         0.6042   1.8697  -2.6766 LP             1 S1                 0.0000
@<TRIPOS>BOND
    1    1    2 2     
    2    2    3 am    
    3    2   12 am    
    4    3    4 1     
    5    3   25 1     
    6    4    5 1     
    7    4   26 1     
    8    4   27 1     
    9    5    6 1     
   10    5   28 1     
   11    5   29 1     
   12    6   11 ar    
   13    6    7 ar    
   14    7    8 ar    
   15    7   30 1     
   16    8    9 ar    
   17    8   31 1     
   18    9   10 ar    
   19    9   32 1     
   20   10   11 ar    
   21   10   33 1     
   22   11   54 1     
   23   12   24 1     
   24   12   13 1     
   25   13   14 1     
   26   13   34 1     
   27   13   35 1     
   28   14   15 1     
   29   14   36 1     
   30   14   37 1     
   31   15   16 1     
   32   15   23 1     
   33   15   53 1     
   34   16   21 1     
   35   16   17 1     
   36   16   38 1     
   37   17   18 1     
   38   17   39 1     
   39   17   40 1     
   40   18   22 1     
   41   18   19 1     
   42   18   41 1     
   43   19   20 1     
   44   19   42 1     
   45   19   43 1     
   46   20   21 1     
   47   20   44 1     
   48   20   45 1     
   49   21   22 1     
   50   21   46 1     
   51   22   47 1     
   52   22   48 1     
   53   23   24 1     
   54   23   49 1     
   55   23   50 1     
   56   24   51 1     
   57   24   52 1     
   58    1   55 1     
   59    1   56 1     
@<TRIPOS>SUBSTRUCTURE
      1 S1             1
@<TRIPOS>SET
LONE_PAIRS      STATIC     ATOMS    <user>   **** ""
2 55 56
DONOR_HYDROGENS      STATIC     ATOMS    <user>   **** ""
3 25 54 53
ATOM$BLUE        STATIC     ATOMS    COLORGROUP SYSTEM
2 55 56
ATOM$RED        STATIC     ATOMS    COLORGROUP SYSTEM
3 25 54 53
