AV-unprocessed.smi:246|AV-procd|sdf|1887|dock8
  -GOLD-   2262020543D 1   1.00000     0.00000
 Structure written by MMmdl.
 57 60  0  0  0  0  0  0  0  0  1 V2000
  145.8486  131.9427  149.2340 C   0  0  0  0  0  0  0  0  0  0  0  0
  145.0405  132.2672  150.4979 C   0  0  0  0  0  0  0  0  0  0  0  0
  145.1031  133.6478  150.8279 O   0  0  0  0  0  0  0  0  0  0  0  0
  143.8713  134.1999  151.2693 C   0  0  0  0  0  0  0  0  0  0  0  0
  144.0103  135.7223  151.3556 C   0  0  0  0  0  0  0  0  0  0  0  0
  144.6579  136.0608  152.5732 O   0  0  0  0  0  0  0  0  0  0  0  0
  145.1105  137.4058  152.6182 C   0  0  2  0  0  0  0  0  0  0  0  0
  145.9575  137.7408  151.3921 C   0  0  0  0  0  0  0  0  0  0  0  0
  146.7888  138.9269  151.8773 C   0  0  0  0  0  0  0  0  0  0  0  0
  147.0311  138.6562  153.2882 N   0  0  0  0  0  0  0  0  0  0  0  0
  147.5617  139.5936  154.1147 C   0  0  0  0  0  0  0  0  0  0  0  0
  146.7808  140.6270  154.5279 N   0  0  0  0  0  0  0  0  0  0  0  0
  147.2695  141.5609  155.3487 C   0  0  0  0  0  0  0  0  0  0  0  0
  148.4948  141.6574  155.8669 N   0  0  0  0  0  0  0  0  0  0  0  0
  149.2904  140.6326  155.4471 C   0  0  0  0  0  0  0  0  0  0  0  0
  148.9117  139.5731  154.5732 C   0  0  0  0  0  0  0  0  0  0  0  0
  150.0006  138.7364  154.3533 N   0  0  0  0  0  0  0  0  0  0  0  0
  150.9600  139.2632  155.0624 C   0  0  0  0  0  0  0  0  0  0  0  0
  150.6158  140.3944  155.7667 N   0  0  0  0  0  0  0  0  0  0  0  0
  151.4813  141.1702  156.6404 C   0  0  0  0  0  0  0  0  0  0  0  0
  150.7667  142.3145  157.3965 C   0  0  1  0  0  0  0  0  0  0  0  0
  149.8895  141.8049  158.3821 O   0  0  0  0  0  0  0  0  0  0  0  0
  151.6966  143.3867  158.0102 C   0  0  1  0  0  0  0  0  0  0  0  0
  151.0020  144.6481  158.5357 C   0  0  0  0  0  0  0  0  0  0  0  0
  151.9755  145.1179  159.5935 C   0  0  0  0  0  0  0  0  0  0  0  0
  152.4396  143.7930  160.1871 C   0  0  0  0  0  0  0  0  0  0  0  0
  152.4843  142.8882  159.0904 O   0  0  0  0  0  0  0  0  0  0  0  0
  146.0616  137.6904  153.7899 C   0  0  0  0  0  0  0  0  0  0  0  0
  144.2653  138.0961  152.6514 H   0  0  0  0  0  0  0  0  0  0  0  0
  145.8693  130.8674  149.0570 H   0  0  0  0  0  0  0  0  0  0  0  0
  146.8795  132.2832  149.3317 H   0  0  0  0  0  0  0  0  0  0  0  0
  145.4223  132.4098  148.3469 H   0  0  0  0  0  0  0  0  0  0  0  0
  144.0057  131.9358  150.3988 H   0  0  0  0  0  0  0  0  0  0  0  0
  145.4633  131.7122  151.3356 H   0  0  0  0  0  0  0  0  0  0  0  0
  143.0480  133.9356  150.6056 H   0  0  0  0  0  0  0  0  0  0  0  0
  143.6349  133.8038  152.2580 H   0  0  0  0  0  0  0  0  0  0  0  0
  144.6142  136.0761  150.5186 H   0  0  0  0  0  0  0  0  0  0  0  0
  143.0319  136.1979  151.2770 H   0  0  0  0  0  0  0  0  0  0  0  0
  146.6150  136.9039  151.1521 H   0  0  0  0  0  0  0  0  0  0  0  0
  145.3617  137.9692  150.5082 H   0  0  0  0  0  0  0  0  0  0  0  0
  147.7217  139.0225  151.3211 H   0  0  0  0  0  0  0  0  0  0  0  0
  146.2234  139.8537  151.7680 H   0  0  0  0  0  0  0  0  0  0  0  0
  146.5791  142.3417  155.6317 H   0  0  0  0  0  0  0  0  0  0  0  0
  151.9483  138.8289  155.1047 H   0  0  0  0  0  0  0  0  0  0  0  0
  151.9426  140.4889  157.3561 H   0  0  0  0  0  0  0  0  0  0  0  0
  152.2966  141.5742  156.0390 H   0  0  0  0  0  0  0  0  0  0  0  0
  150.1308  142.8212  156.6697 H   0  0  0  0  0  0  0  0  0  0  0  0
  150.2397  140.9881  158.7037 H   0  0  0  0  0  0  0  0  0  0  0  0
  152.4087  143.6978  157.2445 H   0  0  0  0  0  0  0  0  0  0  0  0
  150.8257  145.3907  157.7572 H   0  0  0  0  0  0  0  0  0  0  0  0
  150.0444  144.4132  159.0018 H   0  0  0  0  0  0  0  0  0  0  0  0
  152.8144  145.6383  159.1294 H   0  0  0  0  0  0  0  0  0  0  0  0
  151.5229  145.7812  160.3308 H   0  0  0  0  0  0  0  0  0  0  0  0
  153.4065  143.8678  160.6851 H   0  0  0  0  0  0  0  0  0  0  0  0
  151.7112  143.4247  160.9107 H   0  0  0  0  0  0  0  0  0  0  0  0
  145.5121  138.0612  154.6560 H   0  0  0  0  0  0  0  0  0  0  0  0
  146.5958  136.7860  154.0832 H   0  0  0  0  0  0  0  0  0  0  0  0
  1  2  1  0  0  0  0
  1 30  1  0  0  0  0
  1 31  1  0  0  0  0
  1 32  1  0  0  0  0
  2  3  1  0  0  0  0
  2 33  1  0  0  0  0
  2 34  1  0  0  0  0
  3  4  1  0  0  0  0
  4  5  1  0  0  0  0
  4 35  1  0  0  0  0
  4 36  1  0  0  0  0
  5  6  1  0  0  0  0
  5 37  1  0  0  0  0
  5 38  1  0  0  0  0
  6  7  1  0  0  0  0
  7 29  1  0  0  0  0
  7 28  1  0  0  0  0
  7  8  1  0  0  0  0
  8  9  1  0  0  0  0
  8 39  1  0  0  0  0
  8 40  1  0  0  0  0
  9 10  1  0  0  0  0
  9 41  1  0  0  0  0
  9 42  1  0  0  0  0
 10 11  1  0  0  0  0
 10 28  1  0  0  0  0
 11 16  1  0  0  0  0
 11 12  2  0  0  0  0
 12 13  1  0  0  0  0
 13 14  2  0  0  0  0
 13 43  1  0  0  0  0
 14 15  1  0  0  0  0
 15 19  1  0  0  0  0
 15 16  2  0  0  0  0
 16 17  1  0  0  0  0
 17 18  2  0  0  0  0
 18 19  1  0  0  0  0
 18 44  1  0  0  0  0
 19 20  1  0  0  0  0
 20 21  1  0  0  0  0
 20 45  1  0  0  0  0
 20 46  1  0  0  0  0
 21 22  1  0  0  0  0
 21 23  1  0  0  0  0
 21 47  1  0  0  0  0
 22 48  1  0  0  0  0
 23 27  1  0  0  0  0
 23 24  1  0  0  0  0
 23 49  1  0  0  0  0
 24 25  1  0  0  0  0
 24 50  1  0  0  0  0
 24 51  1  0  0  0  0
 25 26  1  0  0  0  0
 25 52  1  0  0  0  0
 25 53  1  0  0  0  0
 26 27  1  0  0  0  0
 26 54  1  0  0  0  0
 26 55  1  0  0  0  0
 28 56  1  0  0  0  0
 28 57  1  0  0  0  0
M  END
> <s_m_source_file>
AV-unprocessed.smi

> <i_m_source_file_index>
246

> <i_lp_mmshare_version>
43012

> <i_f3d_flags>
0

> <s_epik_input>
W0NIM11bQ0gyXU9bQ0gyXVtDSDJdT1tDQEhdMVtDSDJdW0NIMl1OKFtDSDJdMSljKG5bY0hdbjIpYyhjMjMpbltjSF1uM1tDSDJdW0NASF0oW09IXSlbQ0BASF00W0NIMl1bQ0gyXVtDSDJdTzQ=

> <s_epik_cmdline>
J2VwaWtfcHl0aG9uJywgJy1waCcsICc3LjAnLCAnLXRuJywgJzgnLCAnLW1hJywgJzIwMCcsICctbWV0YWxfYmluZGluZycsICctaW1hZScsICc8aW5maWxlLm1hZT4nLCAnLW9tYWUnLCAnPG91dGZpbGUubWFlPic=

> <r_lp_tautomer_probability>
1

> <r_epik_Ionization_Penalty>
0.0024631

> <r_epik_Ionization_Penalty_Charging>
0

> <r_epik_Ionization_Penalty_Neutral>
0.0024631

> <r_epik_State_Penalty>
0.00162428

> <r_epik_Charging_Adjusted_Penalty>
0.00162428

> <i_epik_Tot_Q>
0

> <i_epik_Tot_abs_Q>
0

> <r_epik_Metal_State_Penalty>
-0

> <b_epik_Metal_Only>
0

> <s_lp_Force_Field>
OPLS_2005

> <r_lp_Energy>
52.7235

> <b_lp_Chiralities_Consistent>
1

> <s_lp_Variant>
AV-unprocessed.smi:246-8

> <Gold.Version>
5.8.1

> <Gold.Id.Protein>
6NUR|6NUR_protein|mol2

> <Gold.PLP.Fitness>
48.4883

> <Gold.PLP.PLP>
-52.0542

> <Gold.PLP.part.hbond>
0.0000

> <Gold.PLP.part.metal>
0.0000

> <Gold.PLP.part.buried>
-4.8713

> <Gold.PLP.part.nonpolar>
-50.0482

> <Gold.PLP.part.repulsive>
1.5589

> <Gold.PLP.ligand.clash>
0.0000

> <Gold.PLP.ligand.torsion>
2.0610

> <Gold.PLP.Chemscore.Hbond>
0.0000

> <Gold.PLP.Chemscore.CHOScore>
0.0000

> <Gold.PLP.Chemscore.Metal>
0.0000

> <Gold.PLP.Chemscore.Internal.Correction>
0.5561

> <Gold.Rescore>
     Score         DG    S(hbond)    S(metal)    S(lipo)     H(rot)  DE(clash)    DE(int)     intcor
      7.51     -12.48       0.00        0.00     127.69       3.10       1.31       3.66       ----

> <Gold.Chemscore.Fitness>
7.5125

> <Gold.Chemscore.DG>
-12.4772

> <Gold.Chemscore.ZeroCoef>
-5.4800

> <Gold.Chemscore.Hbond>
0.0000

> <Gold.Chemscore.Metal>
0.0000

> <Gold.Chemscore.Lipo>
127.6908

> <Gold.Chemscore.Internal_Hbond>
0.0000

> <Gold.Chemscore.DEClash>
1.3085

> <Gold.Chemscore.DEInternal>
3.6562

> <Gold.Chemscore.Rot>
3.1026

> <Gold.Chemscore.Internal.Correction>
   9.000000E+99

> <Gold.Chemscore.Hbond.Weighted>
-0.0000

> <Gold.Chemscore.Metal.Weighted>
-0.0000

> <Gold.Chemscore.Lipo.Weighted>
-14.9398

> <Gold.Chemscore.Internal_Hbond.Weighted>
0.0000

> <Gold.Chemscore.DEClash.Weighted>
1.3085

> <Gold.Chemscore.DEInternal.Weighted>
3.6562

> <Gold.Chemscore.Rot.Weighted>
7.9426

> <Gold.Chemscore.Internal.Correction.Weighted>
   9.000000E+99

> <Gold.Protein.RotatedTorsions>
[ 6907 6896 6895 6894 ] final   18.69 input  -60.11 | X-H torsion
[ 7974 7965 7964 7962 ] final  -42.69 input  175.53 | X-H torsion
[ 8008 7997 7996 7995 ] final  -65.75 input   59.86 | X-H torsion
[ 10167 10162 10161 10158 ] final  -58.25 input  -65.29 | X-H torsion
[ 10718 10713 10712 10709 ] final  131.39 input   66.30 | X-H torsion
[ 10763 10752 10751 10750 ] final  179.75 input  -60.55 | X-H torsion
[ 11005 11000 10999 10996 ] final -145.97 input  -57.11 | X-H torsion

> <Gold.Protein.ActiveResidues>
 VAL166  LYS551  ARG553  GLY616  TRP617  ASP618  TYR619  PRO620  LYS621  CYS622 
 ASP623  PHE694  ASN695  SER759  ASP760  ASP761  ALA762  ILE779  LEU786  VAL792 
 PHE793  MET794  SER795  GLU796  ALA797  LYS798  CYS799  TRP800  GLU811  SER814 

> <Gold.Protein.RotatedAtoms>
  151.8692  135.0496  160.0477 H   0  0  0  0  0  0  0  0  0  0  0  0  # atno 6907 bound_to 6896
  152.2602  133.5286  159.5385 H   0  0  0  0  0  0  0  0  0  0  0  0  # atno 6908 bound_to 6896
  150.7114  134.0756  159.3922 H   0  0  0  0  0  0  0  0  0  0  0  0  # atno 6909 bound_to 6896
  146.0091  140.6985  142.9233 H   0  0  0  0  0  0  0  0  0  0  0  0  # atno 7974 bound_to 7965
  154.4691  140.0926  156.7099 H   0  0  0  0  0  0  0  0  0  0  0  0  # atno 8008 bound_to 7997
  155.4773  140.3466  155.4316 H   0  0  0  0  0  0  0  0  0  0  0  0  # atno 8009 bound_to 7997
  156.1009  140.1422  156.9458 H   0  0  0  0  0  0  0  0  0  0  0  0  # atno 8010 bound_to 7997
  140.6209  143.2419  151.5483 H   0  0  0  0  0  0  0  0  0  0  0  0  # atno 10167 bound_to 10162
  157.4972  131.1093  150.9477 H   0  0  0  0  0  0  0  0  0  0  0  0  # atno 10718 bound_to 10713
  154.5247  135.2796  155.1232 H   0  0  0  0  0  0  0  0  0  0  0  0  # atno 10763 bound_to 10752
  154.2775  135.6292  153.5338 H   0  0  0  0  0  0  0  0  0  0  0  0  # atno 10764 bound_to 10752
  152.9944  135.5643  154.5745 H   0  0  0  0  0  0  0  0  0  0  0  0  # atno 10765 bound_to 10752
  140.7868  134.3015  157.5027 H   0  0  0  0  0  0  0  0  0  0  0  0  # atno 11005 bound_to 11000
  144.6946  140.3368  143.7206 LP  0  0  0  0  0  0  0  0  0  0  0  0  # atno 17320 bound_to 7965
  145.7369  139.1752  143.2398 LP  0  0  0  0  0  0  0  0  0  0  0  0  # atno 17321 bound_to 7965
  139.5438  144.2577  152.1402 LP  0  0  0  0  0  0  0  0  0  0  0  0  # atno 17342 bound_to 10162
  140.1797  144.4857  150.6535 LP  0  0  0  0  0  0  0  0  0  0  0  0  # atno 17343 bound_to 10162
  157.0160  130.5655  149.5326 LP  0  0  0  0  0  0  0  0  0  0  0  0  # atno 17370 bound_to 10713
  156.0207  130.5302  150.8267 LP  0  0  0  0  0  0  0  0  0  0  0  0  # atno 17371 bound_to 10713
  139.8736  134.9351  156.3624 LP  0  0  0  0  0  0  0  0  0  0  0  0  # atno 17394 bound_to 11000
  140.9429  133.7502  156.0170 LP  0  0  0  0  0  0  0  0  0  0  0  0  # atno 17395 bound_to 11000

$$$$
