#       Name:                AV-unprocessed.smi:273
#       Creating user name   scv26
#       Creation time:       Thu Mar 26 21:29:21 2020


#       File generated by GOLD software.
#

@<TRIPOS>MOLECULE
AV-unprocessed.smi:273
    69    72     1
SMALL
NO_CHARGES


@<TRIPOS>ATOM
      1 ****        -7.3065  -2.9752  -0.0879 C.3            1 S1                 0.0000
      2 ****        -7.4303  -1.4503  -0.0150 C.3            1 S1                 0.0000
      3 ****        -6.1769  -0.8557   0.4269 N.am           1 S1                 0.0000
      4 ****        -5.9450   0.4642   0.5066 C.2            1 S1                 0.0000
      5 ****        -6.7958   1.3028   0.2087 O.2            1 S1                 0.0000
      6 ****        -4.5626   0.9321   0.9997 C.3            1 S1                 0.0000
      7 ****        -3.8953   1.8697  -0.0288 C.3            1 S1                 0.0000
      8 ****        -2.5276   2.3663   0.4683 C.3            1 S1                 0.0000
      9 ****        -1.6661   1.2440   0.8434 N.3            1 S1                 0.0000
     10 ****        -0.3361   1.4823   0.9791 C.ar           1 S1                 0.0000
     11 ****         0.1062   2.7501   1.1968 N.ar           1 S1                 0.0000
     12 ****         1.4119   2.9963   1.3373 C.ar           1 S1                 0.0000
     13 ****         2.4318   2.1378   1.2927 N.ar           1 S1                 0.0000
     14 ****         1.9978   0.8652   1.0669 C.ar           1 S1                 0.0000
     15 ****         0.6452   0.4529   0.9004 C.ar           1 S1                 0.0000
     16 ****         0.5954  -0.9184   0.6770 N.2            1 S1                 0.0000
     17 ****         1.8435  -1.2962   0.7228 C.2            1 S1                 0.0000
     18 ****         2.7548  -0.2862   0.9325 N.pl3          1 S1                 0.0000
     19 ****         4.1983  -0.4226   1.0312 C.3            1 S1                 0.0000
     20 ****         4.8758  -1.0044  -0.2368 C.3            1 S1                 0.0000
     21 ****         6.3270  -1.4185   0.1014 C.3            1 S1                 0.0000
     22 ****         7.1339  -0.2972   0.3991 O.3            1 S1                 0.0000
     23 ****         4.8042  -0.0786  -1.4867 C.3            1 S1                 0.0000
     24 ****         3.4215   0.1348  -2.0830 C.3            1 S1                 0.0000
     25 ****         3.7297   0.6187  -3.4958 C.3            1 S1                 0.0000
     26 ****         4.9774   0.0342  -3.8470 O.3            1 S1                 0.0000
     27 ****         5.5360  -0.6262  -2.7179 C.3            1 S1                 0.0000
     28 ****        -2.2369   0.3356   1.8366 C.3            1 S1                 0.0000
     29 ****        -3.5890  -0.2157   1.3583 C.3            1 S1                 0.0000
     30 ****        -8.2454  -3.4249  -0.4111 H              1 S1                 0.0000
     31 ****        -7.0532  -3.3980   0.8849 H              1 S1                 0.0000
     32 ****        -6.5334  -3.2745  -0.7964 H              1 S1                 0.0000
     33 ****        -7.7010  -1.0535  -0.9947 H              1 S1                 0.0000
     34 ****        -8.2261  -1.1733   0.6778 H              1 S1                 0.0000
     35 ****        -5.4333  -1.4875   0.6865 H              1 S1                 0.0000
     36 ****        -4.7465   1.5070   1.9087 H              1 S1                 0.0000
     37 ****        -3.7635   1.3434  -0.9757 H              1 S1                 0.0000
     38 ****        -4.5333   2.7291  -0.2390 H              1 S1                 0.0000
     39 ****        -2.0548   2.9578  -0.3170 H              1 S1                 0.0000
     40 ****        -2.6605   3.0215   1.3304 H              1 S1                 0.0000
     41 ****         1.6769   4.0292   1.5091 H              1 S1                 0.0000
     42 ****         2.1356  -2.3281   0.5934 H              1 S1                 0.0000
     43 ****         4.6308   0.5485   1.2742 H              1 S1                 0.0000
     44 ****         4.3974  -1.0665   1.8886 H              1 S1                 0.0000
     45 ****         4.3575  -1.9303  -0.4888 H              1 S1                 0.0000
     46 ****         6.3395  -2.0915   0.9593 H              1 S1                 0.0000
     47 ****         6.7815  -1.9706  -0.7210 H              1 S1                 0.0000
     48 ****         8.0046  -0.5996   0.6086 H              1 S1                 0.0000
     49 ****         5.2265   0.8971  -1.2413 H              1 S1                 0.0000
     50 ****         2.8724  -0.8070  -2.1221 H              1 S1                 0.0000
     51 ****         2.8196   0.8611  -1.5394 H              1 S1                 0.0000
     52 ****         2.9484   0.3464  -4.2055 H              1 S1                 0.0000
     53 ****         3.8393   1.7035  -3.5120 H              1 S1                 0.0000
     54 ****         6.6133  -0.4660  -2.6712 H              1 S1                 0.0000
     55 ****         5.3579  -1.6969  -2.8276 H              1 S1                 0.0000
     56 ****        -1.5684  -0.4957   2.0555 H              1 S1                 0.0000
     57 ****        -2.3694   0.8806   2.7722 H              1 S1                 0.0000
     58 ****        -4.0129  -0.8490   2.1387 H              1 S1                 0.0000
     59 ****        -3.4222  -0.8550   0.4896 H              1 S1                 0.0000
     60 ****        -7.6984   1.0093  -0.1062 LP             1 S1                 0.0000
     61 ****        -6.5842   2.2775   0.2816 LP             1 S1                 0.0000
     62 ****        -1.6667   0.7210  -0.0090 LP             1 S1                 0.0000
     63 ****        -0.5500   3.5026   1.2520 LP             1 S1                 0.0000
     64 ****         3.3912   2.3945   1.4098 LP             1 S1                 0.0000
     65 ****        -0.2125  -1.4857   0.5176 LP             1 S1                 0.0000
     66 ****         6.7511   0.1954   1.1806 LP             1 S1                 0.0000
     67 ****         7.1703   0.3117  -0.3934 LP             1 S1                 0.0000
     68 ****         5.6037   0.7498  -4.1563 LP             1 S1                 0.0000
     69 ****         4.8381  -0.6279  -4.5834 LP             1 S1                 0.0000
@<TRIPOS>BOND
    1    1    2 1     
    2    1   30 1     
    3    1   31 1     
    4    1   32 1     
    5    2    3 1     
    6    2   33 1     
    7    2   34 1     
    8    3    4 am    
    9    3   35 1     
   10    4    5 2     
   11    4    6 1     
   12    6   29 1     
   13    6    7 1     
   14    6   36 1     
   15    7    8 1     
   16    7   37 1     
   17    7   38 1     
   18    8    9 1     
   19    8   39 1     
   20    8   40 1     
   21    9   10 1     
   22    9   28 1     
   23   10   15 ar    
   24   10   11 ar    
   25   11   12 ar    
   26   12   13 ar    
   27   12   41 1     
   28   13   14 ar    
   29   14   18 1     
   30   14   15 ar    
   31   15   16 1     
   32   16   17 2     
   33   17   18 1     
   34   17   42 1     
   35   18   19 1     
   36   19   20 1     
   37   19   43 1     
   38   19   44 1     
   39   20   21 1     
   40   20   23 1     
   41   20   45 1     
   42   21   22 1     
   43   21   46 1     
   44   21   47 1     
   45   22   48 1     
   46   23   27 1     
   47   23   24 1     
   48   23   49 1     
   49   24   25 1     
   50   24   50 1     
   51   24   51 1     
   52   25   26 1     
   53   25   52 1     
   54   25   53 1     
   55   26   27 1     
   56   27   54 1     
   57   27   55 1     
   58   28   29 1     
   59   28   56 1     
   60   28   57 1     
   61   29   58 1     
   62   29   59 1     
   63    5   60 1     
   64    5   61 1     
   65    9   62 1     
   66   11   63 1     
   67   13   64 1     
   68   16   65 1     
   69   22   66 1     
   70   22   67 1     
   71   26   68 1     
   72   26   69 1     
@<TRIPOS>SUBSTRUCTURE
      1 S1             1
@<TRIPOS>SET
LONE_PAIRS      STATIC     ATOMS    <user>   **** ""
10 60 61 62 63 64 65 66 67 68 69
DONOR_HYDROGENS      STATIC     ATOMS    <user>   **** ""
2 35 48
ATOM$BLUE        STATIC     ATOMS    COLORGROUP SYSTEM
10 60 61 62 63 64 65 66 67 68 69
ATOM$RED        STATIC     ATOMS    COLORGROUP SYSTEM
2 35 48
