#       Name:                AV-unprocessed.smi:1093
#       Creating user name   scv26
#       Creation time:       Fri Mar 27 03:27:35 2020


#       File generated by GOLD software.
#

@<TRIPOS>MOLECULE
AV-unprocessed.smi:1093
    50    51     1
SMALL
NO_CHARGES


@<TRIPOS>ATOM
      1 ****        -2.4186   1.7480  -3.2958 C.3            1 S1                 0.0000
      2 ****        -3.7846   1.3476  -2.7193 C.3            1 S1                 0.0000
      3 ****        -3.6687   0.6411  -1.4188 N.4            1 S1                 1.0000
      4 ****        -4.8798  -0.1615  -1.1054 C.3            1 S1                 0.0000
      5 ****        -4.6830  -0.9967   0.1717 C.3            1 S1                 0.0000
      6 ****        -4.2682  -0.1137   1.3601 C.3            1 S1                 0.0000
      7 ****        -3.0407   0.7437   1.0056 C.3            1 S1                 0.0000
      8 ****        -1.8569  -0.1083   0.8840 N.am           1 S1                 0.0000
      9 ****        -0.5865   0.3200   0.9065 C.2            1 S1                 0.0000
     10 ****        -0.2748   1.5068   0.9947 O.2            1 S1                 0.0000
     11 ****         0.2747  -0.7070   0.8030 N.am           1 S1                 0.0000
     12 ****         1.6965  -0.6823   0.8175 C.ar           1 S1                 0.0000
     13 ****         2.3763  -1.8422   0.3907 C.ar           1 S1                 0.0000
     14 ****         3.7857  -1.8751   0.3996 C.ar           1 S1                 0.0000
     15 ****         4.5144  -0.7453   0.8452 C.ar           1 S1                 0.0000
     16 ****         5.9249  -0.7016   0.8853 N.pl3          1 S1                 0.0000
     17 ****         6.6000   0.5009   1.3605 C.3            1 S1                 0.0000
     18 ****         6.6980  -1.8712   0.4883 C.3            1 S1                 0.0000
     19 ****         3.8170   0.3424   1.2551 N.pl3          1 S1                 1.0000
     20 ****         2.4685   0.4175   1.2621 C.ar           1 S1                 0.0000
     21 ****        -3.3140   1.5416  -0.2891 C.3            1 S1                 0.0000
     22 ****        -2.5351   2.1737  -4.2928 H              1 S1                 0.0000
     23 ****        -1.7580   0.8848  -3.3817 H              1 S1                 0.0000
     24 ****        -1.9167   2.4972  -2.6842 H              1 S1                 0.0000
     25 ****        -4.4317   2.2198  -2.6163 H              1 S1                 0.0000
     26 ****        -4.2673   0.6888  -3.4424 H              1 S1                 0.0000
     27 ****        -5.7378   0.5031  -0.9916 H              1 S1                 0.0000
     28 ****        -5.1059  -0.8305  -1.9367 H              1 S1                 0.0000
     29 ****        -5.6032  -1.5307   0.4109 H              1 S1                 0.0000
     30 ****        -3.9246  -1.7605  -0.0049 H              1 S1                 0.0000
     31 ****        -5.0992   0.5401   1.6281 H              1 S1                 0.0000
     32 ****        -4.0680  -0.7288   2.2384 H              1 S1                 0.0000
     33 ****        -2.8684   1.4456   1.8235 H              1 S1                 0.0000
     34 ****        -2.0202  -1.1022   0.8120 H              1 S1                 0.0000
     35 ****        -0.1385  -1.6189   0.6732 H              1 S1                 0.0000
     36 ****         1.8234  -2.7069   0.0528 H              1 S1                 0.0000
     37 ****         4.2851  -2.7715   0.0636 H              1 S1                 0.0000
     38 ****         6.3177   0.7178   2.3912 H              1 S1                 0.0000
     39 ****         6.3372   1.3583   0.7402 H              1 S1                 0.0000
     40 ****         7.6837   0.3870   1.3283 H              1 S1                 0.0000
     41 ****         6.4982  -2.1289  -0.5521 H              1 S1                 0.0000
     42 ****         6.4457  -2.7267   1.1152 H              1 S1                 0.0000
     43 ****         7.7686  -1.6916   0.5863 H              1 S1                 0.0000
     44 ****         2.0732   1.3500   1.6350 H              1 S1                 0.0000
     45 ****        -2.4401   2.1419  -0.5382 H              1 S1                 0.0000
     46 ****        -4.1292   2.2478  -0.1235 H              1 S1                 0.0000
     47 ****        -2.9101  -0.0178  -1.5195 H              1 S1                 0.0000
     48 ****         4.3415   1.1538   1.5826 H              1 S1                 0.0000
     49 ****        -0.9859   2.2074   1.0540 LP             1 S1                 0.0000
     50 ****         0.6896   1.7709   1.0071 LP             1 S1                 0.0000
@<TRIPOS>BOND
    1    1    2 1     
    2    1   22 1     
    3    1   23 1     
    4    1   24 1     
    5    2    3 1     
    6    2   25 1     
    7    2   26 1     
    8    3   21 1     
    9    3    4 1     
   10    3   47 1     
   11    4    5 1     
   12    4   27 1     
   13    4   28 1     
   14    5    6 1     
   15    5   29 1     
   16    5   30 1     
   17    6    7 1     
   18    6   31 1     
   19    6   32 1     
   20    7    8 1     
   21    7   21 1     
   22    7   33 1     
   23    8    9 am    
   24    8   34 1     
   25    9   10 2     
   26    9   11 am    
   27   11   12 1     
   28   11   35 1     
   29   12   20 ar    
   30   12   13 ar    
   31   13   14 ar    
   32   13   36 1     
   33   14   15 ar    
   34   14   37 1     
   35   15   16 1     
   36   15   19 ar    
   37   16   17 1     
   38   16   18 1     
   39   17   38 1     
   40   17   39 1     
   41   17   40 1     
   42   18   41 1     
   43   18   42 1     
   44   18   43 1     
   45   19   20 ar    
   46   19   48 1     
   47   20   44 1     
   48   21   45 1     
   49   21   46 1     
   50   10   49 1     
   51   10   50 1     
@<TRIPOS>SUBSTRUCTURE
      1 S1             1
@<TRIPOS>SET
LONE_PAIRS      STATIC     ATOMS    <user>   **** ""
2 49 50
DONOR_HYDROGENS      STATIC     ATOMS    <user>   **** ""
4 47 34 35 48
ATOM$BLUE        STATIC     ATOMS    COLORGROUP SYSTEM
2 49 50
ATOM$RED        STATIC     ATOMS    COLORGROUP SYSTEM
4 47 34 35 48
