AV-unprocessed.smi:885|AV-procd|sdf|4044|dock4
  -GOLD-   22720 1533D 1   1.00000     0.00000
 Structure written by MMmdl.
 40 42  0  0  0  0  0  0  0  0  2 V2000
  151.8060  144.5989  160.3488 C   0  0  0  0  0  0  0  0  0  0  0  0
  152.3962  143.5185  161.2722 C   0  0  0  0  0  0  0  0  0  0  0  0
  152.8122  142.1953  160.6053 C   0  0  0  0  0  0  0  0  0  0  0  0
  151.8709  141.6855  159.5009 C   0  0  0  0  0  0  0  0  0  0  0  0
  152.1848  142.2717  158.1067 C   0  0  0  0  0  0  0  0  0  0  0  0
  151.5619  141.4426  157.0235 C   0  0  0  0  0  0  0  0  0  0  0  0
  152.3039  140.7077  156.2029 N   0  0  0  0  0  0  0  0  0  0  0  0
  151.3584  140.0951  155.3686 O   0  0  0  0  0  0  0  0  0  0  0  0
  150.1510  140.5561  155.7762 C   0  0  0  0  0  0  0  0  0  0  0  0
  148.9112  140.0388  155.1208 C   0  0  2  0  0  0  0  0  0  0  0  0
  149.2163  139.0017  154.0237 C   0  0  0  0  0  0  0  0  0  0  0  0
  147.9656  138.5929  153.3550 N   0  3  0  0  0  0  0  0  0  0  0  0
  147.2237  139.7592  152.8357 C   0  0  0  0  0  0  0  0  0  0  0  0
  146.9890  140.7834  153.9606 C   0  0  0  0  0  0  0  0  0  0  0  0
  148.2348  141.1531  154.5439 O   0  0  0  0  0  0  0  0  0  0  0  0
  150.2162  141.3838  156.8155 N   0  0  0  0  0  0  0  0  0  0  0  0
  151.8336  143.7622  157.9274 C   0  0  0  0  0  0  0  0  0  0  0  0
  152.4620  144.7113  158.9630 C   0  0  0  0  0  0  0  0  0  0  0  0
  151.8908  145.5582  160.8606 H   0  0  0  0  0  0  0  0  0  0  0  0
  150.7346  144.4325  160.2298 H   0  0  0  0  0  0  0  0  0  0  0  0
  153.2686  143.9258  161.7846 H   0  0  0  0  0  0  0  0  0  0  0  0
  151.6687  143.3100  162.0575 H   0  0  0  0  0  0  0  0  0  0  0  0
  153.8240  142.2870  160.2089 H   0  0  0  0  0  0  0  0  0  0  0  0
  152.8819  141.4374  161.3865 H   0  0  0  0  0  0  0  0  0  0  0  0
  152.0072  140.6045  159.4447 H   0  0  0  0  0  0  0  0  0  0  0  0
  150.8250  141.8386  159.7700 H   0  0  0  0  0  0  0  0  0  0  0  0
  153.2647  142.1928  157.9701 H   0  0  0  0  0  0  0  0  0  0  0  0
  148.2803  139.5942  155.8928 H   0  0  0  0  0  0  0  0  0  0  0  0
  149.8961  139.4219  153.2809 H   0  0  0  0  0  0  0  0  0  0  0  0
  149.7041  138.1233  154.4471 H   0  0  0  0  0  0  0  0  0  0  0  0
  148.1806  137.9650  152.5935 H   0  0  0  0  0  0  0  0  0  0  0  0
  147.7935  140.2146  152.0248 H   0  0  0  0  0  0  0  0  0  0  0  0
  146.2749  139.4257  152.4146 H   0  0  0  0  0  0  0  0  0  0  0  0
  146.5064  141.6759  153.5621 H   0  0  0  0  0  0  0  0  0  0  0  0
  146.3245  140.3770  154.7247 H   0  0  0  0  0  0  0  0  0  0  0  0
  152.1651  144.0743  156.9361 H   0  0  0  0  0  0  0  0  0  0  0  0
  150.7506  143.8932  157.9293 H   0  0  0  0  0  0  0  0  0  0  0  0
  152.3153  145.7310  158.6053 H   0  0  0  0  0  0  0  0  0  0  0  0
  153.5418  144.5710  159.0253 H   0  0  0  0  0  0  0  0  0  0  0  0
  147.3833  138.1102  154.0245 H   0  0  0  0  0  0  0  0  0  0  0  0
  1 18  1  0  0  0  0
  1  2  1  0  0  0  0
  1 19  1  0  0  0  0
  1 20  1  0  0  0  0
  2  3  1  0  0  0  0
  2 21  1  0  0  0  0
  2 22  1  0  0  0  0
  3  4  1  0  0  0  0
  3 23  1  0  0  0  0
  3 24  1  0  0  0  0
  4  5  1  0  0  0  0
  4 25  1  0  0  0  0
  4 26  1  0  0  0  0
  5  6  1  0  0  0  0
  5 17  1  0  0  0  0
  5 27  1  0  0  0  0
  6 16  1  0  0  0  0
  6  7  2  0  0  0  0
  7  8  1  0  0  0  0
  8  9  1  0  0  0  0
  9 10  1  0  0  0  0
  9 16  2  0  0  0  0
 10 15  1  0  0  0  0
 10 11  1  0  0  0  0
 10 28  1  0  0  0  0
 11 12  1  0  0  0  0
 11 29  1  0  0  0  0
 11 30  1  0  0  0  0
 12 13  1  0  0  0  0
 12 31  1  0  0  0  0
 12 40  1  0  0  0  0
 13 14  1  0  0  0  0
 13 32  1  0  0  0  0
 13 33  1  0  0  0  0
 14 15  1  0  0  0  0
 14 34  1  0  0  0  0
 14 35  1  0  0  0  0
 17 18  1  0  0  0  0
 17 36  1  0  0  0  0
 17 37  1  0  0  0  0
 18 38  1  0  0  0  0
 18 39  1  0  0  0  0
M  CHG  1  12   1
M  END
> <s_m_source_file>
AV-unprocessed.smi

> <i_m_source_file_index>
885

> <i_lp_mmshare_version>
43012

> <i_f3d_flags>
0

> <s_epik_input>
W0NIMl0xW0NIMl1bQ0gyXVtDSDJdW0NIMl1bQ0gyXVtDSF0xYzJub2MobjIpW0NAQEhdM1tDSDJdW05IXVtDSDJdW0NIMl1PMw==

> <s_epik_cmdline>
J2VwaWtfcHl0aG9uJywgJy1waCcsICc3LjAnLCAnLXRuJywgJzgnLCAnLW1hJywgJzIwMCcsICctbWV0YWxfYmluZGluZycsICctaW1hZScsICc8aW5maWxlLm1hZT4nLCAnLW9tYWUnLCAnPG91dGZpbGUubWFlPic=

> <r_lp_tautomer_probability>
1

> <r_epik_Ionization_Penalty>
0.157575

> <r_epik_Ionization_Penalty_Charging>
0.157575

> <r_epik_Ionization_Penalty_Neutral>
1.7642e-13

> <r_epik_State_Penalty>
0.146877

> <r_epik_Charging_Adjusted_Penalty>
0.304452

> <i_epik_Tot_Q>
1

> <i_epik_Tot_abs_Q>
1

> <r_epik_Metal_State_Penalty>
0.146877

> <b_epik_Metal_Only>
0

> <s_lp_Force_Field>
OPLS_2005

> <r_lp_Energy>
20.1988

> <b_lp_Chiralities_Consistent>
1

> <s_lp_Variant>
AV-unprocessed.smi:885-1

> <Gold.Version>
5.8.1

> <Gold.Id.Protein>
6NUR|6NUR_protein|mol2

> <Gold.PLP.Fitness>
44.9523

> <Gold.PLP.PLP>
-33.9001

> <Gold.PLP.part.hbond>
-3.8028

> <Gold.PLP.part.metal>
0.0000

> <Gold.PLP.part.buried>
0.7795

> <Gold.PLP.part.nonpolar>
-30.0024

> <Gold.PLP.part.repulsive>
0.2418

> <Gold.PLP.ligand.clash>
0.0000

> <Gold.PLP.ligand.torsion>
0.1125

> <Gold.PLP.Chemscore.Hbond>
3.7213

> <Gold.PLP.Chemscore.CHOScore>
0.0000

> <Gold.PLP.Chemscore.Metal>
0.0000

> <Gold.Chemscore.Hbonds>
donor molecule, donor type, donor heavy atom, donor atom, acceptor molecule, acceptor atom, score
      L1  H    12    31       P1  7948  2.00
      P1  H  7989  7998       L1     8  0.98
      P1  H  7997  8009       L1     7  0.72

> <Gold.PLP.Chemscore.Internal.Correction>
0.1132

> <Gold.Rescore>
     Score         DG    S(hbond)    S(metal)    S(lipo)     H(rot)  DE(clash)    DE(int)     intcor
     17.51     -21.26       1.94        0.00     106.48       1.23       3.68       0.08       ----

> <Gold.Chemscore.Fitness>
17.5082

> <Gold.Chemscore.DG>
-21.2636

> <Gold.Chemscore.ZeroCoef>
-5.4800

> <Gold.Chemscore.Hbond>
1.9377

> <Gold.Chemscore.Metal>
0.0000

> <Gold.Chemscore.Lipo>
106.4816

> <Gold.Chemscore.Internal_Hbond>
0.0000

> <Gold.Chemscore.DEClash>
3.6800

> <Gold.Chemscore.DEInternal>
0.0754

> <Gold.Chemscore.Rot>
1.2292

> <Gold.Chemscore.Internal.Correction>
   9.000000E+99

> <Gold.Chemscore.Hbonds>
donor molecule, donor type, donor heavy atom, donor atom, acceptor molecule, acceptor atom, score
      L1  H    12    31       P1  7948  0.92
      P1  H  7989  7998       L1     8  0.27
      P1  H  7997  8009       L1     7  0.68

> <Gold.Chemscore.Hbond.Weighted>
-6.4719

> <Gold.Chemscore.Metal.Weighted>
-0.0000

> <Gold.Chemscore.Lipo.Weighted>
-12.4583

> <Gold.Chemscore.Internal_Hbond.Weighted>
0.0000

> <Gold.Chemscore.DEClash.Weighted>
3.6800

> <Gold.Chemscore.DEInternal.Weighted>
0.0754

> <Gold.Chemscore.Rot.Weighted>
3.1467

> <Gold.Chemscore.Internal.Correction.Weighted>
   9.000000E+99

> <Gold.Protein.RotatedTorsions>
[ 6907 6896 6895 6894 ] final -149.49 input  -60.11 | X-H torsion
[ 7974 7965 7964 7962 ] final  -59.64 input  175.53 | X-H torsion
[ 8008 7997 7996 7995 ] final -160.14 input   59.86 | X-H torsion
[ 10167 10162 10161 10158 ] final  -71.48 input  -65.29 | X-H torsion
[ 10718 10713 10712 10709 ] final  142.75 input   66.30 | X-H torsion
[ 10763 10752 10751 10750 ] final   74.76 input  -60.55 | X-H torsion
[ 11005 11000 10999 10996 ] final  -98.98 input  -57.11 | X-H torsion

> <Gold.Protein.ActiveResidues>
 VAL166  LYS551  ARG553  GLY616  TRP617  ASP618  TYR619  PRO620  LYS621  CYS622 
 ASP623  PHE694  ASN695  SER759  ASP760  ASP761  ALA762  ILE779  LEU786  VAL792 
 PHE793  MET794  SER795  GLU796  ALA797  LYS798  CYS799  TRP800  GLU811  SER814 

> <Gold.Protein.RotatedAtoms>
  151.1849  133.4702  159.2594 H   0  0  0  0  0  0  0  0  0  0  0  0  # atno 6907 bound_to 6896
  151.1222  135.0085  159.8554 H   0  0  0  0  0  0  0  0  0  0  0  0  # atno 6908 bound_to 6896
  152.5456  134.1759  159.8668 H   0  0  0  0  0  0  0  0  0  0  0  0  # atno 6909 bound_to 6896
  145.8251  140.8516  143.0113 H   0  0  0  0  0  0  0  0  0  0  0  0  # atno 7974 bound_to 7965
  155.7729  140.0854  157.2098 H   0  0  0  0  0  0  0  0  0  0  0  0  # atno 8008 bound_to 7997
  154.3995  140.1522  156.3020 H   0  0  0  0  0  0  0  0  0  0  0  0  # atno 8009 bound_to 7997
  155.8729  140.3424  155.5836 H   0  0  0  0  0  0  0  0  0  0  0  0  # atno 8010 bound_to 7997
  140.5270  143.2325  151.7330 H   0  0  0  0  0  0  0  0  0  0  0  0  # atno 10167 bound_to 10162
  157.3770  131.0987  151.0775 H   0  0  0  0  0  0  0  0  0  0  0  0  # atno 10718 bound_to 10713
  153.0608  135.5014  154.8089 H   0  0  0  0  0  0  0  0  0  0  0  0  # atno 10763 bound_to 10752
  154.6880  135.2979  154.9523 H   0  0  0  0  0  0  0  0  0  0  0  0  # atno 10764 bound_to 10752
  154.0287  135.6732  153.4831 H   0  0  0  0  0  0  0  0  0  0  0  0  # atno 10765 bound_to 10752
  141.1325  133.8287  157.0911 H   0  0  0  0  0  0  0  0  0  0  0  0  # atno 11005 bound_to 11000
  144.6744  140.0589  143.7476 LP  0  0  0  0  0  0  0  0  0  0  0  0  # atno 17320 bound_to 7965
  145.9633  139.2816  143.1142 LP  0  0  0  0  0  0  0  0  0  0  0  0  # atno 17321 bound_to 7965
  139.4941  144.4171  152.0018 LP  0  0  0  0  0  0  0  0  0  0  0  0  # atno 17342 bound_to 10162
  140.3271  144.3360  150.5996 LP  0  0  0  0  0  0  0  0  0  0  0  0  # atno 17343 bound_to 10162
  157.1858  130.6330  149.5687 LP  0  0  0  0  0  0  0  0  0  0  0  0  # atno 17370 bound_to 10713
  155.9767  130.4738  150.6547 LP  0  0  0  0  0  0  0  0  0  0  0  0  # atno 17371 bound_to 10713
  140.0391  134.9863  157.0928 LP  0  0  0  0  0  0  0  0  0  0  0  0  # atno 17394 bound_to 11000
  140.4163  134.1928  155.7163 LP  0  0  0  0  0  0  0  0  0  0  0  0  # atno 17395 bound_to 11000

$$$$
