AV-unprocessed.smi:3240|AV-procd|sdf|12382|dock7
  -GOLD-   2272018243D 1   1.00000     0.00000
 Structure written by MMmdl.
 44 45  0  0  0  0  0  0  0  0  2 V2000
  137.7736  139.0505  153.6642 C   0  0  0  0  0  0  0  0  0  0  0  0
  138.8816  138.0487  153.8182 C   0  0  0  0  0  0  0  0  0  0  0  0
  138.9968  137.0124  154.7878 C   0  0  0  0  0  0  0  0  0  0  0  0
  140.1035  136.3004  154.6493 N   0  0  0  0  0  0  0  0  0  0  0  0
  140.7322  136.8551  153.5918 N   0  0  0  0  0  0  0  0  0  0  0  0
  142.0040  136.3213  153.1398 C   0  0  0  0  0  0  0  0  0  0  0  0
  143.0498  137.4335  152.8785 C   0  0  1  0  0  0  0  0  0  0  0  0
  143.7138  137.8898  154.1856 C   0  0  0  0  0  0  0  0  0  0  0  0
  144.0967  136.9878  151.9317 N   0  3  0  0  0  0  0  0  0  0  0  0
  144.5883  135.6066  152.1302 C   0  0  0  0  0  0  0  0  0  0  0  0
  145.2410  135.0261  150.8523 C   0  0  0  0  0  0  0  0  0  0  0  0
  145.5032  136.1156  149.9878 O   0  0  0  0  0  0  0  0  0  0  0  0
  146.5748  134.2866  151.1229 C   0  0  0  0  0  0  0  0  0  0  0  0
  146.3666  132.9544  151.8648 C   0  0  0  0  0  0  0  0  0  0  0  0
  145.3925  132.0408  151.1046 C   0  0  0  0  0  0  0  0  0  0  0  0
  144.0559  132.7477  150.8305 C   0  0  0  0  0  0  0  0  0  0  0  0
  144.2696  134.0861  150.0997 C   0  0  0  0  0  0  0  0  0  0  0  0
  140.0162  137.9114  153.0702 C   0  0  0  0  0  0  0  0  0  0  0  0
  136.9646  138.8743  154.3735 H   0  0  0  0  0  0  0  0  0  0  0  0
  137.3374  139.0172  152.6655 H   0  0  0  0  0  0  0  0  0  0  0  0
  138.1272  140.0685  153.8281 H   0  0  0  0  0  0  0  0  0  0  0  0
  138.3125  136.7586  155.5841 H   0  0  0  0  0  0  0  0  0  0  0  0
  142.3584  135.6295  153.9054 H   0  0  0  0  0  0  0  0  0  0  0  0
  141.8346  135.7103  152.2512 H   0  0  0  0  0  0  0  0  0  0  0  0
  142.5629  138.3105  152.4474 H   0  0  0  0  0  0  0  0  0  0  0  0
  142.9728  138.2723  154.8886 H   0  0  0  0  0  0  0  0  0  0  0  0
  144.4344  138.6880  154.0042 H   0  0  0  0  0  0  0  0  0  0  0  0
  144.2418  137.0689  154.6724 H   0  0  0  0  0  0  0  0  0  0  0  0
  143.7104  137.0299  150.9992 H   0  0  0  0  0  0  0  0  0  0  0  0
  145.3055  135.6031  152.9478 H   0  0  0  0  0  0  0  0  0  0  0  0
  143.7543  134.9768  152.4438 H   0  0  0  0  0  0  0  0  0  0  0  0
  145.7257  135.7754  149.1340 H   0  0  0  0  0  0  0  0  0  0  0  0
  147.0697  134.0761  150.1734 H   0  0  0  0  0  0  0  0  0  0  0  0
  147.2668  134.9174  151.6816 H   0  0  0  0  0  0  0  0  0  0  0  0
  147.3244  132.4478  151.9878 H   0  0  0  0  0  0  0  0  0  0  0  0
  145.9902  133.1401  152.8711 H   0  0  0  0  0  0  0  0  0  0  0  0
  145.8428  131.7368  150.1587 H   0  0  0  0  0  0  0  0  0  0  0  0
  145.2201  131.1256  151.6719 H   0  0  0  0  0  0  0  0  0  0  0  0
  143.4140  132.1006  150.2320 H   0  0  0  0  0  0  0  0  0  0  0  0
  143.5261  132.9116  151.7691 H   0  0  0  0  0  0  0  0  0  0  0  0
  143.3087  134.5775  149.9415 H   0  0  0  0  0  0  0  0  0  0  0  0
  144.6651  133.8735  149.1049 H   0  0  0  0  0  0  0  0  0  0  0  0
  140.3696  138.4736  152.2181 H   0  0  0  0  0  0  0  0  0  0  0  0
  144.8774  137.6261  151.9824 H   0  0  0  0  0  0  0  0  0  0  0  0
  1  2  1  0  0  0  0
  1 19  1  0  0  0  0
  1 20  1  0  0  0  0
  1 21  1  0  0  0  0
  2 18  2  0  0  0  0
  2  3  1  0  0  0  0
  3  4  2  0  0  0  0
  3 22  1  0  0  0  0
  4  5  1  0  0  0  0
  5  6  1  0  0  0  0
  5 18  1  0  0  0  0
  6  7  1  0  0  0  0
  6 23  1  0  0  0  0
  6 24  1  0  0  0  0
  7  8  1  0  0  0  0
  7  9  1  0  0  0  0
  7 25  1  0  0  0  0
  8 26  1  0  0  0  0
  8 27  1  0  0  0  0
  8 28  1  0  0  0  0
  9 10  1  0  0  0  0
  9 29  1  0  0  0  0
  9 44  1  0  0  0  0
 10 11  1  0  0  0  0
 10 30  1  0  0  0  0
 10 31  1  0  0  0  0
 11 17  1  0  0  0  0
 11 12  1  0  0  0  0
 11 13  1  0  0  0  0
 12 32  1  0  0  0  0
 13 14  1  0  0  0  0
 13 33  1  0  0  0  0
 13 34  1  0  0  0  0
 14 15  1  0  0  0  0
 14 35  1  0  0  0  0
 14 36  1  0  0  0  0
 15 16  1  0  0  0  0
 15 37  1  0  0  0  0
 15 38  1  0  0  0  0
 16 17  1  0  0  0  0
 16 39  1  0  0  0  0
 16 40  1  0  0  0  0
 17 41  1  0  0  0  0
 17 42  1  0  0  0  0
 18 43  1  0  0  0  0
M  CHG  1   9   1
M  END
> <s_m_source_file>
AV-unprocessed.smi

> <i_m_source_file_index>
3240

> <i_lp_mmshare_version>
43012

> <i_f3d_flags>
0

> <s_epik_input>
W0NIM11jMVtjSF1ubihbY0hdMSlbQ0gyXVtDQEhdKFtDSDNdKVtOSF1bQ0gyXUMyKFtPSF0pW0NIMl1bQ0gyXVtDSDJdW0NIMl1bQ0gyXTI=

> <s_epik_cmdline>
J2VwaWtfcHl0aG9uJywgJy1waCcsICc3LjAnLCAnLXRuJywgJzgnLCAnLW1hJywgJzIwMCcsICctbWV0YWxfYmluZGluZycsICctaW1hZScsICc8aW5maWxlLm1hZT4nLCAnLW9tYWUnLCAnPG91dGZpbGUubWFlPic=

> <r_lp_tautomer_probability>
1

> <r_epik_Ionization_Penalty>
0.0111573

> <r_epik_Ionization_Penalty_Charging>
0.0111472

> <r_epik_Ionization_Penalty_Neutral>
1.01652e-05

> <r_epik_State_Penalty>
0.00856328

> <r_epik_Charging_Adjusted_Penalty>
0.0197104

> <i_epik_Tot_Q>
1

> <i_epik_Tot_abs_Q>
1

> <r_epik_Metal_State_Penalty>
0.00856448

> <b_epik_Metal_Only>
0

> <s_lp_Force_Field>
OPLS_2005

> <r_lp_Energy>
18.8853

> <b_lp_Chiralities_Consistent>
1

> <s_lp_Variant>
AV-unprocessed.smi:3240-2

> <Gold.Version>
5.8.1

> <Gold.Id.Protein>
6NUR|6NUR_protein|mol2

> <Gold.PLP.Fitness>
45.3728

> <Gold.PLP.PLP>
-37.4268

> <Gold.PLP.part.hbond>
-4.0000

> <Gold.PLP.part.metal>
0.0000

> <Gold.PLP.part.buried>
-5.7740

> <Gold.PLP.part.nonpolar>
-27.1046

> <Gold.PLP.part.repulsive>
0.1215

> <Gold.PLP.ligand.clash>
0.0000

> <Gold.PLP.ligand.torsion>
1.5996

> <Gold.PLP.Chemscore.Hbond>
2.7040

> <Gold.PLP.Chemscore.CHOScore>
1.0000

> <Gold.PLP.Chemscore.Metal>
0.0000

> <Gold.Chemscore.Hbonds>
donor molecule, donor type, donor heavy atom, donor atom, acceptor molecule, acceptor atom, score
      L1  H     9    29       P1 10171  0.50
      L1  H    12    32       P1  7921  1.00
      P1  H 11000 11005       L1     4  0.91
      L1  C    18    43       P1 10160  1.00

> <Gold.PLP.Chemscore.Internal.Correction>
0.0331

> <Gold.Rescore>
     Score         DG    S(hbond)    S(metal)    S(lipo)     H(rot)  DE(clash)    DE(int)     intcor
     16.17     -17.90       2.46        0.00      82.44       2.12       0.12       1.61       ----

> <Gold.Chemscore.Fitness>
16.1749

> <Gold.Chemscore.DG>
-17.9045

> <Gold.Chemscore.ZeroCoef>
-5.4800

> <Gold.Chemscore.Hbond>
2.4565

> <Gold.Chemscore.Metal>
0.0000

> <Gold.Chemscore.Lipo>
82.4370

> <Gold.Chemscore.Internal_Hbond>
0.0000

> <Gold.Chemscore.DEClash>
0.1155

> <Gold.Chemscore.DEInternal>
1.6141

> <Gold.Chemscore.Rot>
2.1193

> <Gold.Chemscore.Internal.Correction>
   9.000000E+99

> <Gold.Chemscore.Hbonds>
donor molecule, donor type, donor heavy atom, donor atom, acceptor molecule, acceptor atom, score
      L1  H     9    29       P1 10171  0.49
      L1  H    12    32       P1  7921  1.00
      P1  H 11000 11005       L1     4  0.55

> <Gold.Chemscore.Hbond.Weighted>
-8.2047

> <Gold.Chemscore.Metal.Weighted>
-0.0000

> <Gold.Chemscore.Lipo.Weighted>
-9.6451

> <Gold.Chemscore.Internal_Hbond.Weighted>
0.0000

> <Gold.Chemscore.DEClash.Weighted>
0.1155

> <Gold.Chemscore.DEInternal.Weighted>
1.6141

> <Gold.Chemscore.Rot.Weighted>
5.4254

> <Gold.Chemscore.Internal.Correction.Weighted>
   9.000000E+99

> <Gold.Protein.RotatedTorsions>
[ 6907 6896 6895 6894 ] final  -38.79 input  -60.11 | X-H torsion
[ 7974 7965 7964 7962 ] final   69.98 input  175.53 | X-H torsion
[ 8008 7997 7996 7995 ] final   71.86 input   59.86 | X-H torsion
[ 10167 10162 10161 10158 ] final  103.15 input  -65.29 | X-H torsion
[ 10718 10713 10712 10709 ] final -168.35 input   66.30 | X-H torsion
[ 10763 10752 10751 10750 ] final -129.97 input  -60.55 | X-H torsion
[ 11005 11000 10999 10996 ] final   64.26 input  -57.11 | X-H torsion

> <Gold.Protein.ActiveResidues>
 VAL166  LYS551  ARG553  GLY616  TRP617  ASP618  TYR619  PRO620  LYS621  CYS622 
 ASP623  PHE694  ASN695  SER759  ASP760  ASP761  ALA762  ILE779  LEU786  VAL792 
 PHE793  MET794  SER795  GLU796  ALA797  LYS798  CYS799  TRP800  GLU811  SER814 

> <Gold.Protein.RotatedAtoms>
  150.9982  134.9300  159.7938 H   0  0  0  0  0  0  0  0  0  0  0  0  # atno 6907 bound_to 6896
  152.5270  134.3190  159.9151 H   0  0  0  0  0  0  0  0  0  0  0  0  # atno 6908 bound_to 6896
  151.3196  133.4004  159.2688 H   0  0  0  0  0  0  0  0  0  0  0  0  # atno 6909 bound_to 6896
  145.7838  139.2900  143.1250 H   0  0  0  0  0  0  0  0  0  0  0  0  # atno 7974 bound_to 7965
  155.7602  140.3486  155.5194 H   0  0  0  0  0  0  0  0  0  0  0  0  # atno 8008 bound_to 7997
  155.8921  140.1020  157.1432 H   0  0  0  0  0  0  0  0  0  0  0  0  # atno 8009 bound_to 7997
  154.4034  140.1302  156.4316 H   0  0  0  0  0  0  0  0  0  0  0  0  # atno 8010 bound_to 7997
  139.7288  144.7041  151.0756 H   0  0  0  0  0  0  0  0  0  0  0  0  # atno 10167 bound_to 10162
  156.6956  130.9176  151.3074 H   0  0  0  0  0  0  0  0  0  0  0  0  # atno 10718 bound_to 10713
  154.8756  135.3878  154.4007 H   0  0  0  0  0  0  0  0  0  0  0  0  # atno 10763 bound_to 10752
  153.4732  135.7030  153.5986 H   0  0  0  0  0  0  0  0  0  0  0  0  # atno 10764 bound_to 10752
  153.4434  135.3850  155.2209 H   0  0  0  0  0  0  0  0  0  0  0  0  # atno 10765 bound_to 10752
  139.9970  134.6501  155.9993 H   0  0  0  0  0  0  0  0  0  0  0  0  # atno 11005 bound_to 11000
  146.0047  140.8489  143.0001 LP  0  0  0  0  0  0  0  0  0  0  0  0  # atno 17320 bound_to 7965
  144.6792  140.2403  143.7344 LP  0  0  0  0  0  0  0  0  0  0  0  0  # atno 17321 bound_to 7965
  140.7767  143.5071  150.9699 LP  0  0  0  0  0  0  0  0  0  0  0  0  # atno 17342 bound_to 10162
  139.8758  143.7134  152.3162 LP  0  0  0  0  0  0  0  0  0  0  0  0  # atno 17343 bound_to 10162
  157.6992  130.9315  150.0735 LP  0  0  0  0  0  0  0  0  0  0  0  0  # atno 17370 bound_to 10713
  156.1766  130.3648  149.9092 LP  0  0  0  0  0  0  0  0  0  0  0  0  # atno 17371 bound_to 10713
  141.1612  133.6539  156.4326 LP  0  0  0  0  0  0  0  0  0  0  0  0  # atno 17394 bound_to 11000
  140.4799  134.6674  157.5166 LP  0  0  0  0  0  0  0  0  0  0  0  0  # atno 17395 bound_to 11000

$$$$
