AV-unprocessed.smi:2279|AV-procd|sdf|9186|dock5
  -GOLD-   2272012403D 1   1.00000     0.00000
 Structure written by MMmdl.
 58 60  0  0  0  0  0  0  0  0  3 V2000
  135.1233  141.4526  153.1612 C   0  0  0  0  0  0  0  0  0  0  0  0
  136.4863  142.0739  153.3836 C   0  0  0  0  0  0  0  0  0  0  0  0
  136.6117  143.4232  153.7657 C   0  0  0  0  0  0  0  0  0  0  0  0
  137.9072  143.9421  153.9577 C   0  0  0  0  0  0  0  0  0  0  0  0
  138.1162  145.3862  154.3627 C   0  0  0  0  0  0  0  0  0  0  0  0
  139.0269  143.2049  153.7983 N   0  0  0  0  0  0  0  0  0  0  0  0
  138.9187  141.9036  153.4324 C   0  0  0  0  0  0  0  0  0  0  0  0
  140.0348  141.0482  153.2308 N   0  0  0  0  0  0  0  0  0  0  0  0
  140.1084  139.7215  153.4386 C   0  0  0  0  0  0  0  0  0  0  0  0
  139.1754  139.0053  153.8032 O   0  0  0  0  0  0  0  0  0  0  0  0
  141.3393  139.2533  153.1820 N   0  0  0  0  0  0  0  0  0  0  0  0
  141.7387  137.8525  153.2886 C   0  0  2  0  0  0  0  0  0  0  0  0
  142.7724  137.6765  154.4137 C   0  0  0  0  0  0  0  0  0  0  0  0
  143.2728  136.2207  154.4641 C   0  0  0  0  0  0  0  0  0  0  0  0
  143.8858  135.8010  153.1708 N   0  3  2  0  0  0  0  0  0  0  0  0
  145.2257  136.4059  152.8487 C   0  0  2  0  0  0  0  0  0  0  0  0
  145.7432  135.9973  151.4481 C   0  0  0  0  0  0  0  0  0  0  0  0
  146.1201  134.5051  151.3855 C   0  0  0  0  0  0  0  0  0  0  0  0
  147.1438  134.1667  152.4058 N   0  3  2  0  0  0  0  0  0  0  0  0
  147.5796  132.7561  152.3198 C   0  0  0  0  0  0  0  0  0  0  0  0
  146.7202  134.5444  153.7773 C   0  0  0  0  0  0  0  0  0  0  0  0
  146.3488  136.0374  153.8495 C   0  0  0  0  0  0  0  0  0  0  0  0
  142.8697  135.9162  152.0836 C   0  0  0  0  0  0  0  0  0  0  0  0
  142.3142  137.3487  151.9515 C   0  0  0  0  0  0  0  0  0  0  0  0
  137.6567  141.3069  153.2126 C   0  0  0  0  0  0  0  0  0  0  0  0
  134.3352  142.2058  153.1901 H   0  0  0  0  0  0  0  0  0  0  0  0
  134.9164  140.7112  153.9333 H   0  0  0  0  0  0  0  0  0  0  0  0
  135.0854  140.9581  152.1903 H   0  0  0  0  0  0  0  0  0  0  0  0
  135.7390  144.0441  153.9069 H   0  0  0  0  0  0  0  0  0  0  0  0
  137.1853  145.9510  154.3062 H   0  0  0  0  0  0  0  0  0  0  0  0
  138.8428  145.8655  153.7058 H   0  0  0  0  0  0  0  0  0  0  0  0
  138.4882  145.4412  155.3861 H   0  0  0  0  0  0  0  0  0  0  0  0
  140.8711  141.4993  152.8905 H   0  0  0  0  0  0  0  0  0  0  0  0
  142.0455  139.9114  152.8857 H   0  0  0  0  0  0  0  0  0  0  0  0
  140.8670  137.2462  153.5435 H   0  0  0  0  0  0  0  0  0  0  0  0
  143.6125  138.3571  154.2700 H   0  0  0  0  0  0  0  0  0  0  0  0
  142.3233  137.9418  155.3717 H   0  0  0  0  0  0  0  0  0  0  0  0
  143.9383  136.0596  155.3096 H   0  0  0  0  0  0  0  0  0  0  0  0
  142.4237  135.5645  154.6618 H   0  0  0  0  0  0  0  0  0  0  0  0
  145.1188  137.4901  152.8700 H   0  0  0  0  0  0  0  0  0  0  0  0
  145.0390  136.2426  150.6559 H   0  0  0  0  0  0  0  0  0  0  0  0
  146.6314  136.5874  151.2169 H   0  0  0  0  0  0  0  0  0  0  0  0
  145.2349  133.8838  151.5303 H   0  0  0  0  0  0  0  0  0  0  0  0
  146.5102  134.2713  150.3940 H   0  0  0  0  0  0  0  0  0  0  0  0
  146.7539  132.0766  152.5359 H   0  0  0  0  0  0  0  0  0  0  0  0
  148.3819  132.5563  153.0308 H   0  0  0  0  0  0  0  0  0  0  0  0
  147.9568  132.5295  151.3221 H   0  0  0  0  0  0  0  0  0  0  0  0
  145.8759  133.9259  154.0854 H   0  0  0  0  0  0  0  0  0  0  0  0
  147.5329  134.3383  154.4748 H   0  0  0  0  0  0  0  0  0  0  0  0
  147.2371  136.6222  153.6056 H   0  0  0  0  0  0  0  0  0  0  0  0
  146.1080  136.3324  154.8696 H   0  0  0  0  0  0  0  0  0  0  0  0
  143.2491  135.5667  151.1262 H   0  0  0  0  0  0  0  0  0  0  0  0
  142.0459  135.2415  152.3208 H   0  0  0  0  0  0  0  0  0  0  0  0
  141.5378  137.3668  151.1854 H   0  0  0  0  0  0  0  0  0  0  0  0
  143.0954  138.0235  151.6006 H   0  0  0  0  0  0  0  0  0  0  0  0
  137.5833  140.2693  152.9198 H   0  0  0  0  0  0  0  0  0  0  0  0
  144.0641  134.8121  153.2730 H   0  0  0  0  0  0  0  0  0  0  0  0
  147.9570  134.7275  152.1930 H   0  0  0  0  0  0  0  0  0  0  0  0
  1  2  1  0  0  0  0
  1 26  1  0  0  0  0
  1 27  1  0  0  0  0
  1 28  1  0  0  0  0
  2 25  1  0  0  0  0
  2  3  2  0  0  0  0
  3  4  1  0  0  0  0
  3 29  1  0  0  0  0
  4  5  1  0  0  0  0
  4  6  2  0  0  0  0
  5 30  1  0  0  0  0
  5 31  1  0  0  0  0
  5 32  1  0  0  0  0
  6  7  1  0  0  0  0
  7  8  1  0  0  0  0
  7 25  2  0  0  0  0
  8  9  1  0  0  0  0
  8 33  1  0  0  0  0
  9 10  2  0  0  0  0
  9 11  1  0  0  0  0
 11 12  1  0  0  0  0
 11 34  1  0  0  0  0
 12 24  1  0  0  0  0
 12 13  1  0  0  0  0
 12 35  1  0  0  0  0
 13 14  1  0  0  0  0
 13 36  1  0  0  0  0
 13 37  1  0  0  0  0
 14 15  1  0  0  0  0
 14 38  1  0  0  0  0
 14 39  1  0  0  0  0
 15 16  1  0  0  0  0
 15 23  1  0  0  0  0
 15 57  1  0  0  0  0
 16 22  1  0  0  0  0
 16 17  1  0  0  0  0
 16 40  1  0  0  0  0
 17 18  1  0  0  0  0
 17 41  1  0  0  0  0
 17 42  1  0  0  0  0
 18 19  1  0  0  0  0
 18 43  1  0  0  0  0
 18 44  1  0  0  0  0
 19 20  1  0  0  0  0
 19 21  1  0  0  0  0
 19 58  1  0  0  0  0
 20 45  1  0  0  0  0
 20 46  1  0  0  0  0
 20 47  1  0  0  0  0
 21 22  1  0  0  0  0
 21 48  1  0  0  0  0
 21 49  1  0  0  0  0
 22 50  1  0  0  0  0
 22 51  1  0  0  0  0
 23 24  1  0  0  0  0
 23 52  1  0  0  0  0
 23 53  1  0  0  0  0
 24 54  1  0  0  0  0
 24 55  1  0  0  0  0
 25 56  1  0  0  0  0
M  CHG  1  15   1
M  CHG  1  19   1
M  END
> <s_m_source_file>
AV-unprocessed.smi

> <i_m_source_file_index>
2279

> <i_lp_mmshare_version>
43012

> <i_f3d_flags>
0

> <s_epik_input>
W0NIM11jMVtjSF1jKFtDSDNdKW5jKFtjSF0xKVtOSF1DKD1PKVtOSF1bQ0hdMltDSDJdW0NIMl1OKFtDSDJdW0NIMl0yKVtDSF0zW0NIMl1bQ0gyXU4oW0NIM10pW0NIMl1bQ0gyXTM=

> <s_epik_cmdline>
J2VwaWtfcHl0aG9uJywgJy1waCcsICc3LjAnLCAnLXRuJywgJzgnLCAnLW1hJywgJzIwMCcsICctbWV0YWxfYmluZGluZycsICctaW1hZScsICc8aW5maWxlLm1hZT4nLCAnLW9tYWUnLCAnPG91dGZpbGUubWFlPic=

> <r_epik_Ionization_Penalty>
0.180973

> <r_epik_Ionization_Penalty_Charging>
0.180787

> <r_epik_Ionization_Penalty_Neutral>
0.000186186

> <r_epik_State_Penalty>
0.153592

> <r_epik_Charging_Adjusted_Penalty>
0.334379

> <i_epik_Tot_Q>
2

> <i_epik_Tot_abs_Q>
2

> <r_epik_Metal_State_Penalty>
0.153604

> <b_epik_Metal_Only>
0

> <s_lp_Force_Field>
OPLS_2005

> <r_lp_Energy>
49.6144

> <b_lp_Chiralities_Consistent>
1

> <s_lp_Variant>
AV-unprocessed.smi:2279-4

> <Gold.Version>
5.8.1

> <Gold.Id.Protein>
6NUR|6NUR_protein|mol2

> <Gold.PLP.Fitness>
42.5831

> <Gold.PLP.PLP>
-29.0387

> <Gold.PLP.part.hbond>
-5.4629

> <Gold.PLP.part.metal>
0.0000

> <Gold.PLP.part.buried>
-1.3691

> <Gold.PLP.part.nonpolar>
-21.3924

> <Gold.PLP.part.repulsive>
0.1673

> <Gold.PLP.ligand.clash>
0.0000

> <Gold.PLP.ligand.torsion>
0.3104

> <Gold.PLP.Chemscore.Hbond>
4.7062

> <Gold.PLP.Chemscore.CHOScore>
0.0000

> <Gold.PLP.Chemscore.Metal>
0.0000

> <Gold.Chemscore.Hbonds>
donor molecule, donor type, donor heavy atom, donor atom, acceptor molecule, acceptor atom, score
      L1  H     8    33       P1 10174  0.80
      L1  H    11    34       P1 10175  1.00
      L1  H    19    58       P1  7948  2.00
      P1  H 10162 10167       L1     6  0.82

> <Gold.PLP.Chemscore.Internal.Correction>
0.0467

> <Gold.Rescore>
     Score         DG    S(hbond)    S(metal)    S(lipo)     H(rot)  DE(clash)    DE(int)     intcor
     15.29     -17.15       2.06        0.00      67.27       1.21       0.21       1.65       ----

> <Gold.Chemscore.Fitness>
15.2866

> <Gold.Chemscore.DG>
-17.1481

> <Gold.Chemscore.ZeroCoef>
-5.4800

> <Gold.Chemscore.Hbond>
2.0640

> <Gold.Chemscore.Metal>
0.0000

> <Gold.Chemscore.Lipo>
67.2711

> <Gold.Chemscore.Internal_Hbond>
0.0000

> <Gold.Chemscore.DEClash>
0.2066

> <Gold.Chemscore.DEInternal>
1.6549

> <Gold.Chemscore.Rot>
1.2095

> <Gold.Chemscore.Internal.Correction>
   9.000000E+99

> <Gold.Chemscore.Hbonds>
donor molecule, donor type, donor heavy atom, donor atom, acceptor molecule, acceptor atom, score
      L1  H     8    33       P1 10174  0.24
      L1  H    11    34       P1 10175  0.30
      L1  H    19    58       P1  7948  0.45
      P1  H 10162 10167       L1     6  0.06

> <Gold.Chemscore.Hbond.Weighted>
-6.8936

> <Gold.Chemscore.Metal.Weighted>
-0.0000

> <Gold.Chemscore.Lipo.Weighted>
-7.8707

> <Gold.Chemscore.Internal_Hbond.Weighted>
0.0000

> <Gold.Chemscore.DEClash.Weighted>
0.2066

> <Gold.Chemscore.DEInternal.Weighted>
1.6549

> <Gold.Chemscore.Rot.Weighted>
3.0963

> <Gold.Chemscore.Internal.Correction.Weighted>
   9.000000E+99

> <Gold.Protein.RotatedTorsions>
[ 6907 6896 6895 6894 ] final  -72.95 input  -60.11 | X-H torsion
[ 7974 7965 7964 7962 ] final  134.45 input  175.53 | X-H torsion
[ 8008 7997 7996 7995 ] final    6.41 input   59.86 | X-H torsion
[ 10167 10162 10161 10158 ] final -159.33 input  -65.29 | X-H torsion
[ 10718 10713 10712 10709 ] final  177.90 input   66.30 | X-H torsion
[ 10763 10752 10751 10750 ] final  102.70 input  -60.55 | X-H torsion
[ 11005 11000 10999 10996 ] final  -63.59 input  -57.11 | X-H torsion

> <Gold.Protein.ActiveResidues>
 VAL166  LYS551  ARG553  GLY616  TRP617  ASP618  TYR619  PRO620  LYS621  CYS622 
 ASP623  PHE694  ASN695  SER759  ASP760  ASP761  ALA762  ILE779  LEU786  VAL792 
 PHE793  MET794  SER795  GLU796  ALA797  LYS798  CYS799  TRP800  GLU811  SER814 

> <Gold.Protein.RotatedAtoms>
  150.7149  134.5088  159.5596 H   0  0  0  0  0  0  0  0  0  0  0  0  # atno 6907 bound_to 6896
  152.2669  134.7971  160.0430 H   0  0  0  0  0  0  0  0  0  0  0  0  # atno 6908 bound_to 6896
  151.8665  133.3432  159.3757 H   0  0  0  0  0  0  0  0  0  0  0  0  # atno 6909 bound_to 6896
  144.9762  139.4552  143.5408 H   0  0  0  0  0  0  0  0  0  0  0  0  # atno 7974 bound_to 7965
  154.7406  140.2748  155.6376 H   0  0  0  0  0  0  0  0  0  0  0  0  # atno 8008 bound_to 7997
  156.2872  140.2698  156.2058 H   0  0  0  0  0  0  0  0  0  0  0  0  # atno 8009 bound_to 7997
  155.0263  140.0371  157.2447 H   0  0  0  0  0  0  0  0  0  0  0  0  # atno 8010 bound_to 7997
  139.6623  143.9891  152.2233 H   0  0  0  0  0  0  0  0  0  0  0  0  # atno 10167 bound_to 10162
  156.8985  130.9871  151.3039 H   0  0  0  0  0  0  0  0  0  0  0  0  # atno 10718 bound_to 10713
  153.3430  135.4001  155.1587 H   0  0  0  0  0  0  0  0  0  0  0  0  # atno 10763 bound_to 10752
  154.8647  135.3638  154.5321 H   0  0  0  0  0  0  0  0  0  0  0  0  # atno 10764 bound_to 10752
  153.5767  135.7077  153.5541 H   0  0  0  0  0  0  0  0  0  0  0  0  # atno 10765 bound_to 10752
  141.1398  133.6654  156.5704 H   0  0  0  0  0  0  0  0  0  0  0  0  # atno 11005 bound_to 11000
  146.3396  139.9006  142.8795 LP  0  0  0  0  0  0  0  0  0  0  0  0  # atno 17320 bound_to 7965
  145.2487  141.0036  143.3894 LP  0  0  0  0  0  0  0  0  0  0  0  0  # atno 17321 bound_to 7965
  139.9633  144.6543  150.8058 LP  0  0  0  0  0  0  0  0  0  0  0  0  # atno 17342 bound_to 10162
  140.7585  143.3108  151.2849 LP  0  0  0  0  0  0  0  0  0  0  0  0  # atno 17343 bound_to 10162
  157.6040  130.8534  149.8847 LP  0  0  0  0  0  0  0  0  0  0  0  0  # atno 17370 bound_to 10713
  156.0593  130.3702  150.1018 LP  0  0  0  0  0  0  0  0  0  0  0  0  # atno 17371 bound_to 10713
  140.3918  134.7434  157.4726 LP  0  0  0  0  0  0  0  0  0  0  0  0  # atno 17394 bound_to 11000
  140.0561  134.6062  155.8804 LP  0  0  0  0  0  0  0  0  0  0  0  0  # atno 17395 bound_to 11000

$$$$
