AV-unprocessed.smi:1449|AV-procd|sdf|5896|dock8
  -GOLD-   22720 5583D 1   1.00000     0.00000
 Structure written by MMmdl.
 34 35  0  0  0  0  0  0  0  0  1 V2000
  155.3220  140.3246  144.7176 C   0  0  0  0  0  0  0  0  0  0  0  0
  155.6143  139.3783  145.7397 O   0  0  0  0  0  0  0  0  0  0  0  0
  154.7265  139.2504  146.7881 C   0  0  0  0  0  0  0  0  0  0  0  0
  153.5767  140.0643  146.8007 C   0  0  0  0  0  0  0  0  0  0  0  0
  152.6657  139.9418  147.8673 C   0  0  0  0  0  0  0  0  0  0  0  0
  152.9308  138.9978  148.8882 C   0  0  0  0  0  0  0  0  0  0  0  0
  152.1049  138.7891  150.0257 N   0  0  0  0  0  0  0  0  0  0  0  0
  152.2321  137.8773  151.0100 C   0  0  0  0  0  0  0  0  0  0  0  0
  153.1548  137.0714  151.1052 O   0  0  0  0  0  0  0  0  0  0  0  0
  151.2594  137.9282  151.9379 N   0  0  0  0  0  0  0  0  0  0  0  0
  151.0940  137.0920  153.1279 C   0  0  1  0  0  0  0  0  0  0  0  0
  150.5089  135.7165  152.7563 C   0  0  0  0  0  0  0  0  0  0  0  0
  150.6882  134.7659  153.9465 C   0  0  0  0  0  0  0  0  0  0  0  0
  152.2151  135.3075  154.8039 S   0  0  0  0  0  0  0  0  0  0  0  0
  151.8853  135.6391  156.1983 O   0  0  0  0  0  0  0  0  0  0  0  0
  153.3153  134.3855  154.4841 O   0  0  0  0  0  0  0  0  0  0  0  0
  152.4320  136.8542  153.8463 C   0  0  0  0  0  0  0  0  0  0  0  0
  154.1156  138.2396  148.7878 C   0  0  0  0  0  0  0  0  0  0  0  0
  154.9931  138.3524  147.7686 N   0  0  0  0  0  0  0  0  0  0  0  0
  156.1142  140.3025  143.9695 H   0  0  0  0  0  0  0  0  0  0  0  0
  155.2718  141.3390  145.1159 H   0  0  0  0  0  0  0  0  0  0  0  0
  154.3839  140.0905  144.2123 H   0  0  0  0  0  0  0  0  0  0  0  0
  153.3982  140.7754  146.0076 H   0  0  0  0  0  0  0  0  0  0  0  0
  151.7975  140.5815  147.8835 H   0  0  0  0  0  0  0  0  0  0  0  0
  151.3401  139.4404  150.1263 H   0  0  0  0  0  0  0  0  0  0  0  0
  150.5643  138.6501  151.8131 H   0  0  0  0  0  0  0  0  0  0  0  0
  150.3977  137.5628  153.8241 H   0  0  0  0  0  0  0  0  0  0  0  0
  149.4631  135.7878  152.4560 H   0  0  0  0  0  0  0  0  0  0  0  0
  151.0569  135.3117  151.9042 H   0  0  0  0  0  0  0  0  0  0  0  0
  149.8581  134.8613  154.6468 H   0  0  0  0  0  0  0  0  0  0  0  0
  150.7730  133.7212  153.6472 H   0  0  0  0  0  0  0  0  0  0  0  0
  153.2399  136.6908  153.1318 H   0  0  0  0  0  0  0  0  0  0  0  0
  152.7163  137.6700  154.5113 H   0  0  0  0  0  0  0  0  0  0  0  0
  154.3685  137.5157  149.5488 H   0  0  0  0  0  0  0  0  0  0  0  0
  1  2  1  0  0  0  0
  1 20  1  0  0  0  0
  1 21  1  0  0  0  0
  1 22  1  0  0  0  0
  2  3  1  0  0  0  0
  3 19  1  0  0  0  0
  3  4  2  0  0  0  0
  4  5  1  0  0  0  0
  4 23  1  0  0  0  0
  5  6  2  0  0  0  0
  5 24  1  0  0  0  0
  6  7  1  0  0  0  0
  6 18  1  0  0  0  0
  7  8  1  0  0  0  0
  7 25  1  0  0  0  0
  8  9  2  0  0  0  0
  8 10  1  0  0  0  0
 10 11  1  0  0  0  0
 10 26  1  0  0  0  0
 11 17  1  0  0  0  0
 11 12  1  0  0  0  0
 11 27  1  0  0  0  0
 12 13  1  0  0  0  0
 12 28  1  0  0  0  0
 12 29  1  0  0  0  0
 13 14  1  0  0  0  0
 13 30  1  0  0  0  0
 13 31  1  0  0  0  0
 14 15  2  0  0  0  0
 14 16  2  0  0  0  0
 14 17  1  0  0  0  0
 17 32  1  0  0  0  0
 17 33  1  0  0  0  0
 18 19  2  0  0  0  0
 18 34  1  0  0  0  0
M  END
> <s_m_source_file>
AV-unprocessed.smi

> <i_m_source_file_index>
1449

> <i_lp_mmshare_version>
43012

> <i_f3d_flags>
0

> <s_epik_input>
W0NIM11PYzFbY0hdW2NIXWMoW2NIXW4xKVtOSF1DKD1PKVtOSF1bQ0BASF0oW0NIMl0yKVtDSDJdW0NIMl1TMig9Tyk9Tw==

> <s_epik_cmdline>
J2VwaWtfcHl0aG9uJywgJy1waCcsICc3LjAnLCAnLXRuJywgJzgnLCAnLW1hJywgJzIwMCcsICctbWV0YWxfYmluZGluZycsICctaW1hZScsICc8aW5maWxlLm1hZT4nLCAnLW9tYWUnLCAnPG91dGZpbGUubWFlPic=

> <r_lp_tautomer_probability>
1

> <r_epik_Ionization_Penalty>
7.6506e-05

> <r_epik_Ionization_Penalty_Charging>
0

> <r_epik_Ionization_Penalty_Neutral>
7.6506e-05

> <r_epik_State_Penalty>
-0

> <r_epik_Charging_Adjusted_Penalty>
0

> <i_epik_Tot_Q>
0

> <i_epik_Tot_abs_Q>
0

> <r_epik_Metal_State_Penalty>
-0

> <b_epik_Metal_Only>
0

> <s_lp_Force_Field>
OPLS_2005

> <r_lp_Energy>
18.5668

> <b_lp_Chiralities_Consistent>
1

> <s_lp_Variant>
AV-unprocessed.smi:1449-2

> <Gold.Version>
5.8.1

> <Gold.Id.Protein>
6NUR|6NUR_protein|mol2

> <Gold.PLP.Fitness>
36.5458

> <Gold.PLP.PLP>
-29.1140

> <Gold.PLP.part.hbond>
-3.0000

> <Gold.PLP.part.metal>
0.0000

> <Gold.PLP.part.buried>
-6.0520

> <Gold.PLP.part.nonpolar>
-19.8992

> <Gold.PLP.part.repulsive>
0.6540

> <Gold.PLP.ligand.clash>
0.7269

> <Gold.PLP.ligand.torsion>
0.2558

> <Gold.PLP.Chemscore.Hbond>
2.8897

> <Gold.PLP.Chemscore.CHOScore>
0.0000

> <Gold.PLP.Chemscore.Metal>
0.0000

> <Gold.Chemscore.Hbonds>
donor molecule, donor type, donor heavy atom, donor atom, acceptor molecule, acceptor atom, score
      L1  C    18    34       P1 10674  0.25

> <Gold.PLP.Chemscore.Internal.Correction>
0.0011

> <Gold.Rescore>
     Score         DG    S(hbond)    S(metal)    S(lipo)     H(rot)  DE(clash)    DE(int)     intcor
     14.37     -18.95       2.82        0.00      63.40       1.31       2.14       2.44       ----

> <Gold.Chemscore.Fitness>
14.3710

> <Gold.Chemscore.DG>
-18.9517

> <Gold.Chemscore.ZeroCoef>
-5.4800

> <Gold.Chemscore.Hbond>
2.8175

> <Gold.Chemscore.Metal>
0.0000

> <Gold.Chemscore.Lipo>
63.3955

> <Gold.Chemscore.Internal_Hbond>
0.0000

> <Gold.Chemscore.DEClash>
2.1437

> <Gold.Chemscore.DEInternal>
2.4370

> <Gold.Chemscore.Rot>
1.3109

> <Gold.Chemscore.Internal.Correction>
   9.000000E+99

> <Gold.Chemscore.Hbond.Weighted>
-9.4104

> <Gold.Chemscore.Metal.Weighted>
-0.0000

> <Gold.Chemscore.Lipo.Weighted>
-7.4173

> <Gold.Chemscore.Internal_Hbond.Weighted>
0.0000

> <Gold.Chemscore.DEClash.Weighted>
2.1437

> <Gold.Chemscore.DEInternal.Weighted>
2.4370

> <Gold.Chemscore.Rot.Weighted>
3.3559

> <Gold.Chemscore.Internal.Correction.Weighted>
   9.000000E+99

> <Gold.Protein.RotatedTorsions>
[ 6907 6896 6895 6894 ] final   79.57 input  -60.11 | X-H torsion
[ 7974 7965 7964 7962 ] final   99.29 input  175.53 | X-H torsion
[ 8008 7997 7996 7995 ] final  -25.30 input   59.86 | X-H torsion
[ 10167 10162 10161 10158 ] final  117.98 input  -65.29 | X-H torsion
[ 10718 10713 10712 10709 ] final   76.83 input   66.30 | X-H torsion
[ 10763 10752 10751 10750 ] final  -51.61 input  -60.55 | X-H torsion
[ 11005 11000 10999 10996 ] final  139.80 input  -57.11 | X-H torsion

> <Gold.Protein.ActiveResidues>
 VAL166  LYS551  ARG553  GLY616  TRP617  ASP618  TYR619  PRO620  LYS621  CYS622 
 ASP623  PHE694  ASN695  SER759  ASP760  ASP761  ALA762  ILE779  LEU786  VAL792 
 PHE793  MET794  SER795  GLU796  ALA797  LYS798  CYS799  TRP800  GLU811  SER814 

> <Gold.Protein.RotatedAtoms>
  152.5203  134.3491  159.9244 H   0  0  0  0  0  0  0  0  0  0  0  0  # atno 6907 bound_to 6896
  151.3441  133.3944  159.2681 H   0  0  0  0  0  0  0  0  0  0  0  0  # atno 6908 bound_to 6896
  150.9779  134.9158  159.7885 H   0  0  0  0  0  0  0  0  0  0  0  0  # atno 6909 bound_to 6896
  145.4008  139.2348  143.3301 H   0  0  0  0  0  0  0  0  0  0  0  0  # atno 7974 bound_to 7965
  154.4483  140.1930  156.0598 H   0  0  0  0  0  0  0  0  0  0  0  0  # atno 8008 bound_to 7997
  156.0591  140.3299  155.7413 H   0  0  0  0  0  0  0  0  0  0  0  0  # atno 8009 bound_to 7997
  155.5439  140.0589  157.2855 H   0  0  0  0  0  0  0  0  0  0  0  0  # atno 8010 bound_to 7997
  139.6142  144.7088  151.2777 H   0  0  0  0  0  0  0  0  0  0  0  0  # atno 10167 bound_to 10162
  157.6688  130.9793  150.1553 H   0  0  0  0  0  0  0  0  0  0  0  0  # atno 10718 bound_to 10713
  154.1294  135.6522  153.4919 H   0  0  0  0  0  0  0  0  0  0  0  0  # atno 10763 bound_to 10752
  153.0200  135.5289  154.7017 H   0  0  0  0  0  0  0  0  0  0  0  0  # atno 10764 bound_to 10752
  154.6247  135.2969  155.0256 H   0  0  0  0  0  0  0  0  0  0  0  0  # atno 10765 bound_to 10752
  140.0281  134.9365  157.0608 H   0  0  0  0  0  0  0  0  0  0  0  0  # atno 11005 bound_to 11000
  146.2753  140.4705  142.8798 LP  0  0  0  0  0  0  0  0  0  0  0  0  # atno 17320 bound_to 7965
  144.8375  140.6806  143.6251 LP  0  0  0  0  0  0  0  0  0  0  0  0  # atno 17321 bound_to 7965
  140.7339  143.6780  150.8025 LP  0  0  0  0  0  0  0  0  0  0  0  0  # atno 17342 bound_to 10162
  140.0380  143.5375  152.2731 LP  0  0  0  0  0  0  0  0  0  0  0  0  # atno 17343 bound_to 10162
  156.2342  130.3685  149.8410 LP  0  0  0  0  0  0  0  0  0  0  0  0  # atno 17370 bound_to 10713
  156.6228  130.8633  151.3479 LP  0  0  0  0  0  0  0  0  0  0  0  0  # atno 17371 bound_to 10713
  140.4272  134.1819  155.7166 LP  0  0  0  0  0  0  0  0  0  0  0  0  # atno 17394 bound_to 11000
  141.1815  133.8404  157.1242 LP  0  0  0  0  0  0  0  0  0  0  0  0  # atno 17395 bound_to 11000

$$$$
