AV-unprocessed.smi:2772|AV-procd|sdf|10669|dock8
  -GOLD-   2272015113D 1   1.00000     0.00000
 Structure written by MMmdl.
 54 56  0  0  0  0  0  0  0  0  2 V2000
  148.7145  126.9929  150.5275 C   0  0  0  0  0  0  0  0  0  0  0  0
  147.9414  127.6025  151.6782 C   0  0  0  0  0  0  0  0  0  0  0  0
  146.8394  128.4502  151.4432 C   0  0  0  0  0  0  0  0  0  0  0  0
  146.1617  128.9902  152.5529 C   0  0  0  0  0  0  0  0  0  0  0  0
  146.6096  128.6766  153.8524 C   0  0  0  0  0  0  0  0  0  0  0  0
  145.9004  129.2258  154.9544 N   0  0  0  0  0  0  0  0  0  0  0  0
  146.3069  129.3451  156.2300 C   0  0  0  0  0  0  0  0  0  0  0  0
  147.3968  128.9771  156.6677 O   0  0  0  0  0  0  0  0  0  0  0  0
  145.3746  129.9473  156.9820 N   0  0  0  0  0  0  0  0  0  0  0  0
  145.5161  130.2581  158.4016 C   0  0  0  0  0  0  0  0  0  0  0  0
  144.3065  131.0582  158.8905 C   0  0  0  0  0  0  0  0  0  0  0  0
  144.4847  131.4883  160.3570 C   0  0  0  0  0  0  0  0  0  0  0  0
  145.6842  132.3229  160.5415 N   0  0  0  0  0  0  0  0  0  0  0  0
  145.8017  132.7966  161.9404 C   0  0  2  0  0  0  0  0  0  0  0  0
  144.5799  133.6236  162.4183 C   0  0  0  0  0  0  0  0  0  0  0  0
  144.4985  134.9896  161.7133 C   0  0  0  0  0  0  0  0  0  0  0  0
  145.7367  135.7774  161.9298 N   0  3  2  0  0  0  0  0  0  0  0  0
  145.6558  137.1287  161.3353 C   0  0  0  0  0  0  0  0  0  0  0  0
  146.9523  135.0430  161.5015 C   0  0  0  0  0  0  0  0  0  0  0  0
  147.0506  133.6774  162.2054 C   0  0  0  0  0  0  0  0  0  0  0  0
  146.8572  131.5305  160.1350 C   0  0  0  0  0  0  0  0  0  0  0  0
  146.7750  131.0939  158.6624 C   0  0  0  0  0  0  0  0  0  0  0  0
  147.7181  127.8030  153.9758 C   0  0  0  0  0  0  0  0  0  0  0  0
  148.3723  127.2795  152.9164 N   0  0  0  0  0  0  0  0  0  0  0  0
  148.2721  127.2599  149.5675 H   0  0  0  0  0  0  0  0  0  0  0  0
  148.7211  125.9055  150.6079 H   0  0  0  0  0  0  0  0  0  0  0  0
  149.7466  127.3446  150.5366 H   0  0  0  0  0  0  0  0  0  0  0  0
  146.5187  128.6834  150.4385 H   0  0  0  0  0  0  0  0  0  0  0  0
  145.3131  129.6421  152.4043 H   0  0  0  0  0  0  0  0  0  0  0  0
  145.0099  129.6451  154.7310 H   0  0  0  0  0  0  0  0  0  0  0  0
  144.5084  130.2188  156.5402 H   0  0  0  0  0  0  0  0  0  0  0  0
  145.5728  129.3288  158.9720 H   0  0  0  0  0  0  0  0  0  0  0  0
  144.1638  131.9433  158.2687 H   0  0  0  0  0  0  0  0  0  0  0  0
  143.3997  130.4605  158.7910 H   0  0  0  0  0  0  0  0  0  0  0  0
  143.5820  132.0311  160.6234 H   0  0  0  0  0  0  0  0  0  0  0  0
  144.5346  130.6122  161.0056 H   0  0  0  0  0  0  0  0  0  0  0  0
  145.8786  131.9097  162.5715 H   0  0  0  0  0  0  0  0  0  0  0  0
  143.6366  133.0892  162.3327 H   0  0  0  0  0  0  0  0  0  0  0  0
  144.6839  133.8004  163.4896 H   0  0  0  0  0  0  0  0  0  0  0  0
  144.3293  134.8535  160.6438 H   0  0  0  0  0  0  0  0  0  0  0  0
  143.6445  135.5469  162.1001 H   0  0  0  0  0  0  0  0  0  0  0  0
  145.5599  137.0736  160.2502 H   0  0  0  0  0  0  0  0  0  0  0  0
  146.5492  137.7079  161.5713 H   0  0  0  0  0  0  0  0  0  0  0  0
  144.7948  137.6711  161.7279 H   0  0  0  0  0  0  0  0  0  0  0  0
  146.9427  134.9107  160.4184 H   0  0  0  0  0  0  0  0  0  0  0  0
  147.8353  135.6378  161.7393 H   0  0  0  0  0  0  0  0  0  0  0  0
  147.1222  133.8549  163.2795 H   0  0  0  0  0  0  0  0  0  0  0  0
  147.9875  133.1808  161.9622 H   0  0  0  0  0  0  0  0  0  0  0  0
  147.7715  132.1117  160.2226 H   0  0  0  0  0  0  0  0  0  0  0  0
  146.9646  130.6596  160.7836 H   0  0  0  0  0  0  0  0  0  0  0  0
  147.6664  130.5214  158.4035 H   0  0  0  0  0  0  0  0  0  0  0  0
  146.7785  131.9770  158.0214 H   0  0  0  0  0  0  0  0  0  0  0  0
  148.0932  127.4869  154.9364 H   0  0  0  0  0  0  0  0  0  0  0  0
  145.8201  135.9084  162.9280 H   0  0  0  0  0  0  0  0  0  0  0  0
  1  2  1  0  0  0  0
  1 25  1  0  0  0  0
  1 26  1  0  0  0  0
  1 27  1  0  0  0  0
  2 24  1  0  0  0  0
  2  3  2  0  0  0  0
  3  4  1  0  0  0  0
  3 28  1  0  0  0  0
  4  5  2  0  0  0  0
  4 29  1  0  0  0  0
  5  6  1  0  0  0  0
  5 23  1  0  0  0  0
  6  7  1  0  0  0  0
  6 30  1  0  0  0  0
  7  8  2  0  0  0  0
  7  9  1  0  0  0  0
  9 10  1  0  0  0  0
  9 31  1  0  0  0  0
 10 22  1  0  0  0  0
 10 11  1  0  0  0  0
 10 32  1  0  0  0  0
 11 12  1  0  0  0  0
 11 33  1  0  0  0  0
 11 34  1  0  0  0  0
 12 13  1  0  0  0  0
 12 35  1  0  0  0  0
 12 36  1  0  0  0  0
 13 14  1  0  0  0  0
 13 21  1  0  0  0  0
 14 20  1  0  0  0  0
 14 15  1  0  0  0  0
 14 37  1  0  0  0  0
 15 16  1  0  0  0  0
 15 38  1  0  0  0  0
 15 39  1  0  0  0  0
 16 17  1  0  0  0  0
 16 40  1  0  0  0  0
 16 41  1  0  0  0  0
 17 18  1  0  0  0  0
 17 19  1  0  0  0  0
 17 54  1  0  0  0  0
 18 42  1  0  0  0  0
 18 43  1  0  0  0  0
 18 44  1  0  0  0  0
 19 20  1  0  0  0  0
 19 45  1  0  0  0  0
 19 46  1  0  0  0  0
 20 47  1  0  0  0  0
 20 48  1  0  0  0  0
 21 22  1  0  0  0  0
 21 49  1  0  0  0  0
 21 50  1  0  0  0  0
 22 51  1  0  0  0  0
 22 52  1  0  0  0  0
 23 24  2  0  0  0  0
 23 53  1  0  0  0  0
M  CHG  1  17   1
M  END
> <s_m_source_file>
AV-unprocessed.smi

> <i_m_source_file_index>
2772

> <i_lp_mmshare_version>
43012

> <i_f3d_flags>
0

> <s_epik_input>
W0NIM11jMVtjSF1bY0hdYyhbY0hdbjEpW05IXUMoPU8pW05IXVtDSF0yW0NIMl1bQ0gyXU4oW0NIMl1bQ0gyXTIpW0NIXTNbQ0gyXVtDSDJdTihbQ0gzXSlbQ0gyXVtDSDJdMw==

> <s_epik_cmdline>
J2VwaWtfcHl0aG9uJywgJy1waCcsICc3LjAnLCAnLXRuJywgJzgnLCAnLW1hJywgJzIwMCcsICctbWV0YWxfYmluZGluZycsICctaW1hZScsICc8aW5maWxlLm1hZT4nLCAnLW9tYWUnLCAnPG91dGZpbGUubWFlPic=

> <r_epik_Ionization_Penalty>
1.02952

> <r_epik_Ionization_Penalty_Charging>
0.000974969

> <r_epik_Ionization_Penalty_Neutral>
1.02854

> <r_epik_State_Penalty>
1.11259

> <r_epik_Charging_Adjusted_Penalty>
1.11356

> <i_epik_Tot_Q>
1

> <i_epik_Tot_abs_Q>
1

> <r_epik_Metal_State_Penalty>
1.1091

> <b_epik_Metal_Only>
0

> <s_lp_Force_Field>
OPLS_2005

> <r_lp_Energy>
36.1162

> <b_lp_Chiralities_Consistent>
1

> <s_lp_Variant>
AV-unprocessed.smi:2772-6

> <Gold.Version>
5.8.1

> <Gold.Id.Protein>
6NUR|6NUR_protein|mol2

> <Gold.PLP.Fitness>
39.2971

> <Gold.PLP.PLP>
-35.1635

> <Gold.PLP.part.hbond>
-1.9741

> <Gold.PLP.part.metal>
0.0000

> <Gold.PLP.part.buried>
-5.6901

> <Gold.PLP.part.nonpolar>
-27.9516

> <Gold.PLP.part.repulsive>
0.1601

> <Gold.PLP.ligand.clash>
0.0000

> <Gold.PLP.ligand.torsion>
0.1039

> <Gold.PLP.Chemscore.Hbond>
1.4459

> <Gold.PLP.Chemscore.CHOScore>
0.0000

> <Gold.PLP.Chemscore.Metal>
0.0000

> <Gold.Chemscore.Hbonds>
donor molecule, donor type, donor heavy atom, donor atom, acceptor molecule, acceptor atom, score
      L1  H     6    30       P1 10956  0.98
      L1  H     9    31       P1 10956  0.42

> <Gold.PLP.Chemscore.Internal.Correction>
0.0037

> <Gold.Rescore>
     Score         DG    S(hbond)    S(metal)    S(lipo)     H(rot)  DE(clash)    DE(int)     intcor
     17.05     -19.63       1.89        0.00      93.03       1.20       0.05       2.53       ----

> <Gold.Chemscore.Fitness>
17.0472

> <Gold.Chemscore.DG>
-19.6266

> <Gold.Chemscore.ZeroCoef>
-5.4800

> <Gold.Chemscore.Hbond>
1.8944

> <Gold.Chemscore.Metal>
0.0000

> <Gold.Chemscore.Lipo>
93.0300

> <Gold.Chemscore.Internal_Hbond>
0.0000

> <Gold.Chemscore.DEClash>
0.0480

> <Gold.Chemscore.DEInternal>
2.5314

> <Gold.Chemscore.Rot>
1.1974

> <Gold.Chemscore.Internal.Correction>
   9.000000E+99

> <Gold.Chemscore.Hbonds>
donor molecule, donor type, donor heavy atom, donor atom, acceptor molecule, acceptor atom, score
      L1  H     6    30       P1 10956  0.90
      L1  H     9    31       P1 10956  0.32

> <Gold.Chemscore.Hbond.Weighted>
-6.3273

> <Gold.Chemscore.Metal.Weighted>
-0.0000

> <Gold.Chemscore.Lipo.Weighted>
-10.8845

> <Gold.Chemscore.Internal_Hbond.Weighted>
0.0000

> <Gold.Chemscore.DEClash.Weighted>
0.0480

> <Gold.Chemscore.DEInternal.Weighted>
2.5314

> <Gold.Chemscore.Rot.Weighted>
3.0652

> <Gold.Chemscore.Internal.Correction.Weighted>
   9.000000E+99

> <Gold.Protein.RotatedTorsions>
[ 6907 6896 6895 6894 ] final  -51.47 input  -60.11 | X-H torsion
[ 7974 7965 7964 7962 ] final  -94.33 input  175.53 | X-H torsion
[ 8008 7997 7996 7995 ] final   57.36 input   59.86 | X-H torsion
[ 10167 10162 10161 10158 ] final -152.46 input  -65.29 | X-H torsion
[ 10718 10713 10712 10709 ] final   25.41 input   66.30 | X-H torsion
[ 10763 10752 10751 10750 ] final   75.69 input  -60.55 | X-H torsion
[ 11005 11000 10999 10996 ] final  105.72 input  -57.11 | X-H torsion

> <Gold.Protein.ActiveResidues>
 VAL166  LYS551  ARG553  GLY616  TRP617  ASP618  TYR619  PRO620  LYS621  CYS622 
 ASP623  PHE694  ASN695  SER759  ASP760  ASP761  ALA762  ILE779  LEU786  VAL792 
 PHE793  MET794  SER795  GLU796  ALA797  LYS798  CYS799  TRP800  GLU811  SER814 

> <Gold.Protein.RotatedAtoms>
  150.8608  134.7959  159.7081 H   0  0  0  0  0  0  0  0  0  0  0  0  # atno 6907 bound_to 6896
  152.4646  134.5103  159.9761 H   0  0  0  0  0  0  0  0  0  0  0  0  # atno 6908 bound_to 6896
  151.5207  133.3429  159.2936 H   0  0  0  0  0  0  0  0  0  0  0  0  # atno 6909 bound_to 6896
  145.3747  140.9510  143.2427 H   0  0  0  0  0  0  0  0  0  0  0  0  # atno 7974 bound_to 7965
  155.5325  140.3482  155.4429 H   0  0  0  0  0  0  0  0  0  0  0  0  # atno 8008 bound_to 7997
  156.0708  140.1362  156.9857 H   0  0  0  0  0  0  0  0  0  0  0  0  # atno 8009 bound_to 7997
  154.4527  140.0966  156.6641 H   0  0  0  0  0  0  0  0  0  0  0  0  # atno 8010 bound_to 7997
  139.7180  143.9003  152.2493 H   0  0  0  0  0  0  0  0  0  0  0  0  # atno 10167 bound_to 10162
  157.1929  130.6854  149.6157 H   0  0  0  0  0  0  0  0  0  0  0  0  # atno 10718 bound_to 10713
  153.0672  135.4979  154.8226 H   0  0  0  0  0  0  0  0  0  0  0  0  # atno 10763 bound_to 10752
  154.6971  135.2995  154.9398 H   0  0  0  0  0  0  0  0  0  0  0  0  # atno 10764 bound_to 10752
  154.0134  135.6751  153.4820 H   0  0  0  0  0  0  0  0  0  0  0  0  # atno 10765 bound_to 10752
  139.8805  134.9345  156.5557 H   0  0  0  0  0  0  0  0  0  0  0  0  # atno 11005 bound_to 11000
  144.8551  139.5262  143.6838 LP  0  0  0  0  0  0  0  0  0  0  0  0  # atno 17320 bound_to 7965
  146.2869  139.7030  142.9189 LP  0  0  0  0  0  0  0  0  0  0  0  0  # atno 17321 bound_to 7965
  139.8891  144.6976  150.8791 LP  0  0  0  0  0  0  0  0  0  0  0  0  # atno 17342 bound_to 10162
  140.7748  143.3601  151.1845 LP  0  0  0  0  0  0  0  0  0  0  0  0  # atno 17343 bound_to 10162
  155.9709  130.4608  150.6087 LP  0  0  0  0  0  0  0  0  0  0  0  0  # atno 17370 bound_to 10713
  157.3842  131.0785  151.1450 LP  0  0  0  0  0  0  0  0  0  0  0  0  # atno 17371 bound_to 10713
  140.8207  133.8356  155.8893 LP  0  0  0  0  0  0  0  0  0  0  0  0  # atno 17394 bound_to 11000
  140.9421  134.1887  157.4790 LP  0  0  0  0  0  0  0  0  0  0  0  0  # atno 17395 bound_to 11000

$$$$
