AV-unprocessed.smi:2913|AV-procd|sdf|11183|dock1
  -GOLD-   2272016 73D 1   1.00000     0.00000
 Structure written by MMmdl.
 41 42  0  0  0  0  0  0  0  0  1 V2000
  145.6221  135.7860  151.2701 C   0  0  0  0  0  0  0  0  0  0  0  0
  145.5543  134.2699  151.3515 C   0  0  0  0  0  0  0  0  0  0  0  0
  144.5838  133.6049  150.6861 C   0  0  0  0  0  0  0  0  0  0  0  0
  144.4571  132.1472  150.7187 C   0  0  0  0  0  0  0  0  0  0  0  0
  143.5714  131.5503  150.1055 O   0  0  0  0  0  0  0  0  0  0  0  0
  145.3828  131.4946  151.4736 N   0  0  0  0  0  0  0  0  0  0  0  0
  145.3378  130.0334  151.5763 C   0  0  0  0  0  0  0  0  0  0  0  0
  146.3967  132.1735  152.1711 C   0  0  0  0  0  0  0  0  0  0  0  0
  146.5250  133.5189  152.1383 C   0  0  0  0  0  0  0  0  0  0  0  0
  147.5176  134.2423  152.8223 N   0  0  0  0  0  0  0  0  0  0  0  0
  148.1095  133.9893  154.0047 C   0  0  0  0  0  0  0  0  0  0  0  0
  147.8925  133.0185  154.7291 O   0  0  0  0  0  0  0  0  0  0  0  0
  148.9985  134.9480  154.3033 N   0  0  0  0  0  0  0  0  0  0  0  0
  149.8465  134.9996  155.4941 C   0  0  1  0  0  0  0  0  0  0  0  0
  150.7784  133.7791  155.5076 C   0  0  0  0  0  0  0  0  0  0  0  0
  150.6336  136.3252  155.5574 C   0  0  2  0  0  0  0  0  0  0  0  0
  149.7971  137.5996  155.4187 C   0  0  0  0  0  0  0  0  0  0  0  0
  150.8427  138.5930  154.9668 C   0  0  0  0  0  0  0  0  0  0  0  0
  151.6974  137.7426  154.0306 C   0  0  0  0  0  0  0  0  0  0  0  0
  151.6050  136.4050  154.5157 O   0  0  0  0  0  0  0  0  0  0  0  0
  144.8346  136.1929  150.6348 H   0  0  0  0  0  0  0  0  0  0  0  0
  146.5811  136.1010  150.8579 H   0  0  0  0  0  0  0  0  0  0  0  0
  145.5124  136.2240  152.2626 H   0  0  0  0  0  0  0  0  0  0  0  0
  143.8658  134.1616  150.1018 H   0  0  0  0  0  0  0  0  0  0  0  0
  146.1248  129.6275  152.2123 H   0  0  0  0  0  0  0  0  0  0  0  0
  145.4498  129.5770  150.5916 H   0  0  0  0  0  0  0  0  0  0  0  0
  144.3839  129.7083  151.9942 H   0  0  0  0  0  0  0  0  0  0  0  0
  147.0420  131.5156  152.7295 H   0  0  0  0  0  0  0  0  0  0  0  0
  147.8374  135.0686  152.3385 H   0  0  0  0  0  0  0  0  0  0  0  0
  149.1045  135.7100  153.6497 H   0  0  0  0  0  0  0  0  0  0  0  0
  149.2318  134.9388  156.3938 H   0  0  0  0  0  0  0  0  0  0  0  0
  151.4088  133.7766  156.3971 H   0  0  0  0  0  0  0  0  0  0  0  0
  151.4339  133.7673  154.6360 H   0  0  0  0  0  0  0  0  0  0  0  0
  150.2080  132.8498  155.5074 H   0  0  0  0  0  0  0  0  0  0  0  0
  151.1735  136.3784  156.5044 H   0  0  0  0  0  0  0  0  0  0  0  0
  149.0333  137.4972  154.6474 H   0  0  0  0  0  0  0  0  0  0  0  0
  149.3061  137.8882  156.3484 H   0  0  0  0  0  0  0  0  0  0  0  0
  150.4199  139.4719  154.4797 H   0  0  0  0  0  0  0  0  0  0  0  0
  151.4361  138.9255  155.8197 H   0  0  0  0  0  0  0  0  0  0  0  0
  151.2948  137.7703  153.0174 H   0  0  0  0  0  0  0  0  0  0  0  0
  152.7328  138.0814  153.9927 H   0  0  0  0  0  0  0  0  0  0  0  0
  1  2  1  0  0  0  0
  1 21  1  0  0  0  0
  1 22  1  0  0  0  0
  1 23  1  0  0  0  0
  2  9  1  0  0  0  0
  2  3  2  0  0  0  0
  3  4  1  0  0  0  0
  3 24  1  0  0  0  0
  4  5  2  0  0  0  0
  4  6  1  0  0  0  0
  6  7  1  0  0  0  0
  6  8  1  0  0  0  0
  7 25  1  0  0  0  0
  7 26  1  0  0  0  0
  7 27  1  0  0  0  0
  8  9  2  0  0  0  0
  8 28  1  0  0  0  0
  9 10  1  0  0  0  0
 10 11  1  0  0  0  0
 10 29  1  0  0  0  0
 11 12  2  0  0  0  0
 11 13  1  0  0  0  0
 13 14  1  0  0  0  0
 13 30  1  0  0  0  0
 14 15  1  0  0  0  0
 14 16  1  0  0  0  0
 14 31  1  0  0  0  0
 15 32  1  0  0  0  0
 15 33  1  0  0  0  0
 15 34  1  0  0  0  0
 16 20  1  0  0  0  0
 16 17  1  0  0  0  0
 16 35  1  0  0  0  0
 17 18  1  0  0  0  0
 17 36  1  0  0  0  0
 17 37  1  0  0  0  0
 18 19  1  0  0  0  0
 18 38  1  0  0  0  0
 18 39  1  0  0  0  0
 19 20  1  0  0  0  0
 19 40  1  0  0  0  0
 19 41  1  0  0  0  0
M  END
> <s_m_source_file>
AV-unprocessed.smi

> <i_m_source_file_index>
2913

> <i_lp_mmshare_version>
43012

> <i_f3d_flags>
0

> <s_epik_input>
W0NIM11jMVtjSF1jKD1PKW4oW0NIM10pW2NIXWMxW05IXUMoPU8pW05IXVtDQEhdKFtDSDNdKVtDQEBIXTJbQ0gyXVtDSDJdW0NIMl1PMg==

> <s_epik_cmdline>
J2VwaWtfcHl0aG9uJywgJy1waCcsICc3LjAnLCAnLXRuJywgJzgnLCAnLW1hJywgJzIwMCcsICctbWV0YWxfYmluZGluZycsICctaW1hZScsICc8aW5maWxlLm1hZT4nLCAnLW9tYWUnLCAnPG91dGZpbGUubWFlPic=

> <r_lp_tautomer_probability>
1

> <r_epik_Ionization_Penalty>
2.72039e-05

> <r_epik_Ionization_Penalty_Charging>
8.03976e-06

> <r_epik_Ionization_Penalty_Neutral>
1.91642e-05

> <r_epik_State_Penalty>
-0

> <r_epik_Charging_Adjusted_Penalty>
8.03976e-06

> <i_epik_Tot_Q>
0

> <i_epik_Tot_abs_Q>
0

> <r_epik_Metal_State_Penalty>
-0

> <b_epik_Metal_Only>
0

> <s_lp_Force_Field>
OPLS_2005

> <r_lp_Energy>
32.4224

> <b_lp_Chiralities_Consistent>
1

> <s_lp_Variant>
AV-unprocessed.smi:2913-2

> <Gold.Version>
5.8.1

> <Gold.Id.Protein>
6NUR|6NUR_protein|mol2

> <Gold.PLP.Fitness>
46.0380

> <Gold.PLP.PLP>
-35.2787

> <Gold.PLP.part.hbond>
-4.0000

> <Gold.PLP.part.metal>
0.0000

> <Gold.PLP.part.buried>
-6.9736

> <Gold.PLP.part.nonpolar>
-26.6880

> <Gold.PLP.part.repulsive>
0.6195

> <Gold.PLP.ligand.clash>
0.0000

> <Gold.PLP.ligand.torsion>
0.2913

> <Gold.PLP.Chemscore.Hbond>
3.7760

> <Gold.PLP.Chemscore.CHOScore>
0.0000

> <Gold.PLP.Chemscore.Metal>
0.0000

> <Gold.Chemscore.Hbonds>
donor molecule, donor type, donor heavy atom, donor atom, acceptor molecule, acceptor atom, score
      L1  H    10    29       P1  7948  1.00
      L1  H    13    30       P1  7948  0.90
      P1  H 10752 10765       L1    20  1.00
      P1  H 10785 10796       L1     5  0.91

> <Gold.PLP.Chemscore.Internal.Correction>
0.0140

> <Gold.Rescore>
     Score         DG    S(hbond)    S(metal)    S(lipo)     H(rot)  DE(clash)    DE(int)     intcor
     21.90     -22.74       3.61        0.00      71.00       1.21       0.48       0.36       ----

> <Gold.Chemscore.Fitness>
21.8966

> <Gold.Chemscore.DG>
-22.7371

> <Gold.Chemscore.ZeroCoef>
-5.4800

> <Gold.Chemscore.Hbond>
3.6073

> <Gold.Chemscore.Metal>
0.0000

> <Gold.Chemscore.Lipo>
70.9973

> <Gold.Chemscore.Internal_Hbond>
0.0000

> <Gold.Chemscore.DEClash>
0.4821

> <Gold.Chemscore.DEInternal>
0.3584

> <Gold.Chemscore.Rot>
1.2101

> <Gold.Chemscore.Internal.Correction>
   9.000000E+99

> <Gold.Chemscore.Hbonds>
donor molecule, donor type, donor heavy atom, donor atom, acceptor molecule, acceptor atom, score
      L1  H    10    29       P1  7948  0.91
      L1  H    13    30       P1  7948  0.69
      P1  H 10752 10765       L1    20  0.73
      P1  H 10785 10796       L1     5  0.87

> <Gold.Chemscore.Hbond.Weighted>
-12.0483

> <Gold.Chemscore.Metal.Weighted>
-0.0000

> <Gold.Chemscore.Lipo.Weighted>
-8.3067

> <Gold.Chemscore.Internal_Hbond.Weighted>
0.0000

> <Gold.Chemscore.DEClash.Weighted>
0.4821

> <Gold.Chemscore.DEInternal.Weighted>
0.3584

> <Gold.Chemscore.Rot.Weighted>
3.0979

> <Gold.Chemscore.Internal.Correction.Weighted>
   9.000000E+99

> <Gold.Protein.RotatedTorsions>
[ 6907 6896 6895 6894 ] final   49.87 input  -60.11 | X-H torsion
[ 7974 7965 7964 7962 ] final  -45.74 input  175.53 | X-H torsion
[ 8008 7997 7996 7995 ] final -134.48 input   59.86 | X-H torsion
[ 10167 10162 10161 10158 ] final   98.80 input  -65.29 | X-H torsion
[ 10718 10713 10712 10709 ] final    9.36 input   66.30 | X-H torsion
[ 10763 10752 10751 10750 ] final  164.46 input  -60.55 | X-H torsion
[ 11005 11000 10999 10996 ] final  128.99 input  -57.11 | X-H torsion

> <Gold.Protein.ActiveResidues>
 VAL166  LYS551  ARG553  GLY616  TRP617  ASP618  TYR619  PRO620  LYS621  CYS622 
 ASP623  PHE694  ASN695  SER759  ASP760  ASP761  ALA762  ILE779  LEU786  VAL792 
 PHE793  MET794  SER795  GLU796  ALA797  LYS798  CYS799  TRP800  GLU811  SER814 

> <Gold.Protein.RotatedAtoms>
  152.2956  134.7671  160.0368 H   0  0  0  0  0  0  0  0  0  0  0  0  # atno 6907 bound_to 6896
  151.8202  133.3388  159.3590 H   0  0  0  0  0  0  0  0  0  0  0  0  # atno 6908 bound_to 6896
  150.7250  134.5510  159.5839 H   0  0  0  0  0  0  0  0  0  0  0  0  # atno 6909 bound_to 6896
  145.9790  140.7303  142.9373 H   0  0  0  0  0  0  0  0  0  0  0  0  # atno 7974 bound_to 7965
  155.3628  140.0484  157.3046 H   0  0  0  0  0  0  0  0  0  0  0  0  # atno 8008 bound_to 7997
  154.5169  140.2211  155.9012 H   0  0  0  0  0  0  0  0  0  0  0  0  # atno 8009 bound_to 7997
  156.1646  140.3109  155.8873 H   0  0  0  0  0  0  0  0  0  0  0  0  # atno 8010 bound_to 7997
  139.7675  144.6933  151.0203 H   0  0  0  0  0  0  0  0  0  0  0  0  # atno 10167 bound_to 10162
  156.9652  130.5948  149.5665 H   0  0  0  0  0  0  0  0  0  0  0  0  # atno 10718 bound_to 10713
  154.3092  135.2757  155.2574 H   0  0  0  0  0  0  0  0  0  0  0  0  # atno 10763 bound_to 10752
  154.4977  135.5816  153.6510 H   0  0  0  0  0  0  0  0  0  0  0  0  # atno 10764 bound_to 10752
  152.9890  135.6150  154.3268 H   0  0  0  0  0  0  0  0  0  0  0  0  # atno 10765 bound_to 10752
  139.9591  134.9606  156.9083 H   0  0  0  0  0  0  0  0  0  0  0  0  # atno 11005 bound_to 11000
  144.6856  140.2876  143.7283 LP  0  0  0  0  0  0  0  0  0  0  0  0  # atno 17320 bound_to 7965
  145.7797  139.1887  143.2165 LP  0  0  0  0  0  0  0  0  0  0  0  0  # atno 17321 bound_to 7965
  140.7812  143.4626  151.0257 LP  0  0  0  0  0  0  0  0  0  0  0  0  # atno 17342 bound_to 10162
  139.8310  143.7691  152.3180 LP  0  0  0  0  0  0  0  0  0  0  0  0  # atno 17343 bound_to 10162
  156.0306  130.5397  150.8523 LP  0  0  0  0  0  0  0  0  0  0  0  0  # atno 17370 bound_to 10713
  157.5631  131.0946  150.9530 LP  0  0  0  0  0  0  0  0  0  0  0  0  # atno 17371 bound_to 10713
  140.5542  134.0598  155.7378 LP  0  0  0  0  0  0  0  0  0  0  0  0  # atno 17394 bound_to 11000
  141.1266  133.9373  157.2623 LP  0  0  0  0  0  0  0  0  0  0  0  0  # atno 17395 bound_to 11000

$$$$
