#       Name:                AV-unprocessed.smi:287
#       Creating user name   scv26
#       Creation time:       Thu Mar 26 21:57:31 2020


#       File generated by GOLD software.
#

@<TRIPOS>MOLECULE
AV-unprocessed.smi:287
    70    73     1
SMALL
NO_CHARGES


@<TRIPOS>ATOM
      1 ****         0.2910   4.9780  -3.8922 C.3            1 S1                 0.0000
      2 ****        -0.1740   4.8458  -2.4827 C.2            1 S1                 0.0000
      3 ****        -0.6770   3.8125  -1.7473 C.2            1 S1                 0.0000
      4 ****        -0.9319   4.3089  -0.4337 C.2            1 S1                 0.0000
      5 ****        -1.5056   3.5185   0.7341 C.3            1 S1                 0.0000
      6 ****        -3.0372   3.4600   0.6152 C.3            1 S1                 0.0000
      7 ****        -1.2457   4.1268   1.9848 O.3            1 S1                 0.0000
      8 ****        -0.9256   2.0891   0.8312 C.3            1 S1                 0.0000
      9 ****         0.5256   2.0521   0.7012 N.pl3          1 S1                 0.0000
     10 ****         1.1945   0.8799   0.7180 C.ar           1 S1                 0.0000
     11 ****         2.5425   0.9763   0.6249 N.ar           1 S1                 0.0000
     12 ****         3.2982  -0.1255   0.6338 C.ar           1 S1                 0.0000
     13 ****         2.9139  -1.4000   0.7248 N.ar           1 S1                 0.0000
     14 ****         1.5567  -1.5049   0.8160 C.ar           1 S1                 0.0000
     15 ****         0.6278  -0.4258   0.8198 C.ar           1 S1                 0.0000
     16 ****        -0.6619  -0.9366   0.9254 N.2            1 S1                 0.0000
     17 ****        -0.4984  -2.2307   0.9766 C.2            1 S1                 0.0000
     18 ****         0.8097  -2.6586   0.9085 N.pl3          1 S1                 0.0000
     19 ****         1.3609  -4.0535   0.9482 C.3            1 S1                 0.0000
     20 ****         0.3420  -4.9199   1.3490 O.3            1 S1                 0.0000
     21 ****        -0.2048  -5.5727   0.2087 C.3            1 S1                 0.0000
     22 ****        -0.9974  -6.8308   0.6035 C.3            1 S1                 0.0000
     23 ****        -2.3070  -6.4737   0.9912 O.3            1 S1                 0.0000
     24 ****         1.0425  -5.8169  -0.6488 C.3            1 S1                 0.0000
     25 ****         1.7589  -6.9488  -0.1888 O.3            1 S1                 0.0000
     26 ****         1.8548  -4.5439  -0.4369 C.3            1 S1                 0.0000
     27 ****         1.6030  -3.6384  -1.4982 O.3            1 S1                 0.0000
     28 ****        -0.5760   5.6349  -0.4858 C.2            1 S1                 0.0000
     29 ****        -0.6023   6.7534   0.5026 C.3            1 S1                 0.0000
     30 ****        -0.1086   5.9667  -1.7216 O.3            1 S1                 0.0000
     31 ****         2.1440  -4.0145   1.7064 H              1 S1                 0.0000
     32 ****        -0.8535  -4.8770  -0.3274 H              1 S1                 0.0000
     33 ****         0.7873  -5.9844  -1.6962 H              1 S1                 0.0000
     34 ****         2.9272  -4.7393  -0.3961 H              1 S1                 0.0000
     35 ****         0.3059   4.0081  -4.3898 H              1 S1                 0.0000
     36 ****         1.2987   5.3922  -3.9301 H              1 S1                 0.0000
     37 ****        -0.3686   5.6377  -4.4560 H              1 S1                 0.0000
     38 ****        -0.8392   2.8081  -2.1095 H              1 S1                 0.0000
     39 ****        -3.3418   2.9733  -0.3120 H              1 S1                 0.0000
     40 ****        -3.4738   4.4597   0.6194 H              1 S1                 0.0000
     41 ****        -3.4825   2.9013   1.4395 H              1 S1                 0.0000
     42 ****        -1.6213   3.5873   2.6633 H              1 S1                 0.0000
     43 ****        -1.2338   1.6110   1.7624 H              1 S1                 0.0000
     44 ****        -1.3385   1.4930   0.0165 H              1 S1                 0.0000
     45 ****         0.9808   2.9503   0.6218 H              1 S1                 0.0000
     46 ****         4.3628   0.0381   0.5548 H              1 S1                 0.0000
     47 ****        -1.3369  -2.9057   1.0683 H              1 S1                 0.0000
     48 ****        -1.0816  -7.5041  -0.2504 H              1 S1                 0.0000
     49 ****        -0.5029  -7.3804   1.4051 H              1 S1                 0.0000
     50 ****        -2.7765  -7.2601   1.2244 H              1 S1                 0.0000
     51 ****         1.9616  -6.8238   0.7257 H              1 S1                 0.0000
     52 ****         2.0412  -2.8236  -1.3034 H              1 S1                 0.0000
     53 ****        -1.5623   6.7922   1.0177 H              1 S1                 0.0000
     54 ****        -0.4468   7.7155   0.0138 H              1 S1                 0.0000
     55 ****         0.1799   6.6252   1.2508 H              1 S1                 0.0000
     56 ****        -1.6589   5.0370   2.0098 LP             1 S1                 0.0000
     57 ****        -0.2584   4.2050   2.1235 LP             1 S1                 0.0000
     58 ****         2.9736   1.8754   0.5492 LP             1 S1                 0.0000
     59 ****         3.5409  -2.1791   0.7260 LP             1 S1                 0.0000
     60 ****        -1.5216  -0.4267   0.9554 LP             1 S1                 0.0000
     61 ****        -0.3759  -4.3987   1.8104 LP             1 S1                 0.0000
     62 ****         0.7140  -5.6032   1.9773 LP             1 S1                 0.0000
     63 ****        -2.7706  -6.0169   0.2320 LP             1 S1                 0.0000
     64 ****        -2.2694  -5.8577   1.7780 LP             1 S1                 0.0000
     65 ****         2.6057  -7.0476  -0.7116 LP             1 S1                 0.0000
     66 ****         1.2001  -7.7704  -0.3013 LP             1 S1                 0.0000
     67 ****         0.6190  -3.4815  -1.5825 LP             1 S1                 0.0000
     68 ****         1.9551  -4.0153  -2.3550 LP             1 S1                 0.0000
     69 ****        -0.6752   6.6871  -2.1214 LP             1 S1                 0.0000
     70 ****         0.8376   6.2838  -1.6575 LP             1 S1                 0.0000
@<TRIPOS>BOND
    1    1    2 1     
    2    1   35 1     
    3    1   36 1     
    4    1   37 1     
    5    2   30 1     
    6    2    3 2     
    7    3    4 1     
    8    3   38 1     
    9    4    5 1     
   10    4   28 2     
   11    5    6 1     
   12    5    7 1     
   13    5    8 1     
   14    6   39 1     
   15    6   40 1     
   16    6   41 1     
   17    7   42 1     
   18    8    9 1     
   19    8   43 1     
   20    8   44 1     
   21    9   10 1     
   22    9   45 1     
   23   10   15 ar    
   24   10   11 ar    
   25   11   12 ar    
   26   12   13 ar    
   27   12   46 1     
   28   13   14 ar    
   29   14   18 1     
   30   14   15 ar    
   31   15   16 1     
   32   16   17 2     
   33   17   18 1     
   34   17   47 1     
   35   18   19 1     
   36   19   31 1     
   37   19   26 1     
   38   19   20 1     
   39   20   21 1     
   40   21   32 1     
   41   21   22 1     
   42   21   24 1     
   43   22   23 1     
   44   22   48 1     
   45   22   49 1     
   46   23   50 1     
   47   24   33 1     
   48   24   25 1     
   49   24   26 1     
   50   25   51 1     
   51   26   34 1     
   52   26   27 1     
   53   27   52 1     
   54   28   29 1     
   55   28   30 1     
   56   29   53 1     
   57   29   54 1     
   58   29   55 1     
   59    7   56 1     
   60    7   57 1     
   61   11   58 1     
   62   13   59 1     
   63   16   60 1     
   64   20   61 1     
   65   20   62 1     
   66   23   63 1     
   67   23   64 1     
   68   25   65 1     
   69   25   66 1     
   70   27   67 1     
   71   27   68 1     
   72   30   69 1     
   73   30   70 1     
@<TRIPOS>SUBSTRUCTURE
      1 S1             1
@<TRIPOS>SET
LONE_PAIRS      STATIC     ATOMS    <user>   **** ""
15 56 57 58 59 60 61 62 63 64 65 66 67 68 69 70
DONOR_HYDROGENS      STATIC     ATOMS    <user>   **** ""
5 42 45 50 51 52
ATOM$BLUE        STATIC     ATOMS    COLORGROUP SYSTEM
15 56 57 58 59 60 61 62 63 64 65 66 67 68 69 70
ATOM$RED        STATIC     ATOMS    COLORGROUP SYSTEM
5 42 45 50 51 52
