AV-unprocessed.smi:479|AV-procd|sdf|2674|dock1
  -GOLD-   2262023 93D 1   1.00000     0.00000
 Structure written by MMmdl.
 46 48  0  0  0  0  0  0  0  0  2 V2000
  148.6081  132.4383  158.3557 C   0  0  0  0  0  0  0  0  0  0  0  0
  148.9058  133.8086  158.5780 O   0  0  0  0  0  0  0  0  0  0  0  0
  148.2092  134.4847  159.5586 C   0  0  0  0  0  0  0  0  0  0  0  0
  147.1906  133.8920  160.3479 C   0  0  0  0  0  0  0  0  0  0  0  0
  146.5080  134.6382  161.3362 C   0  0  0  0  0  0  0  0  0  0  0  0
  145.4353  134.0357  162.1791 C   0  0  0  0  0  0  0  0  0  0  0  0
  144.4250  134.9770  162.8330 C   0  0  0  0  0  0  0  0  0  0  0  0
  145.3234  132.8254  162.3714 O   0  0  0  0  0  0  0  0  0  0  0  0
  146.8550  135.9922  161.5253 C   0  0  0  0  0  0  0  0  0  0  0  0
  147.8641  136.5882  160.7492 C   0  0  0  0  0  0  0  0  0  0  0  0
  148.5531  135.8395  159.7644 C   0  0  0  0  0  0  0  0  0  0  0  0
  149.5632  136.3558  158.9785 O   0  0  0  0  0  0  0  0  0  0  0  0
  149.8682  137.7408  159.0853 C   0  0  0  0  0  0  0  0  0  0  0  0
  151.3428  137.9878  158.7158 C   0  0  2  0  0  0  0  0  0  0  0  0
  152.1365  136.9186  159.1846 O   0  0  0  0  0  0  0  0  0  0  0  0
  151.9262  139.3339  159.1927 C   0  0  0  0  0  0  0  0  0  0  0  0
  151.5184  140.4606  158.3387 N   0  0  0  0  0  0  0  0  0  0  0  0
  150.8144  140.4462  157.1741 C   0  0  0  0  0  0  0  0  0  0  0  0
  150.6657  141.7359  156.7651 N   0  3  0  0  0  0  0  0  0  0  0  0
  151.2914  142.5891  157.6757 C   0  0  0  0  0  0  0  0  0  0  0  0
  151.4052  143.9760  157.6896 C   0  0  0  0  0  0  0  0  0  0  0  0
  152.1128  144.5427  158.7699 C   0  0  0  0  0  0  0  0  0  0  0  0
  152.6790  143.7374  159.7787 C   0  0  0  0  0  0  0  0  0  0  0  0
  152.5620  142.3327  159.7501 C   0  0  0  0  0  0  0  0  0  0  0  0
  151.8522  141.7773  158.6852 C   0  0  0  0  0  0  0  0  0  0  0  0
  149.2499  132.0569  157.5616 H   0  0  0  0  0  0  0  0  0  0  0  0
  147.5739  132.3002  158.0379 H   0  0  0  0  0  0  0  0  0  0  0  0
  148.7976  131.8401  159.2479 H   0  0  0  0  0  0  0  0  0  0  0  0
  146.9282  132.8575  160.1951 H   0  0  0  0  0  0  0  0  0  0  0  0
  144.9293  135.6737  163.5029 H   0  0  0  0  0  0  0  0  0  0  0  0
  143.6981  134.4105  163.4156 H   0  0  0  0  0  0  0  0  0  0  0  0
  143.8850  135.5446  162.0751 H   0  0  0  0  0  0  0  0  0  0  0  0
  146.3501  136.5913  162.2695 H   0  0  0  0  0  0  0  0  0  0  0  0
  148.0895  137.6276  160.9320 H   0  0  0  0  0  0  0  0  0  0  0  0
  149.2081  138.3326  158.4492 H   0  0  0  0  0  0  0  0  0  0  0  0
  149.7130  138.0681  160.1146 H   0  0  0  0  0  0  0  0  0  0  0  0
  151.4139  137.9555  157.6279 H   0  0  0  0  0  0  0  0  0  0  0  0
  152.9953  137.2507  159.3978 H   0  0  0  0  0  0  0  0  0  0  0  0
  151.6442  139.5310  160.2257 H   0  0  0  0  0  0  0  0  0  0  0  0
  153.0162  139.2950  159.1784 H   0  0  0  0  0  0  0  0  0  0  0  0
  150.4321  139.5694  156.6716 H   0  0  0  0  0  0  0  0  0  0  0  0
  150.9737  144.5951  156.9166 H   0  0  0  0  0  0  0  0  0  0  0  0
  152.2245  145.6158  158.8255 H   0  0  0  0  0  0  0  0  0  0  0  0
  153.2138  144.2052  160.5924 H   0  0  0  0  0  0  0  0  0  0  0  0
  153.0003  141.7328  160.5331 H   0  0  0  0  0  0  0  0  0  0  0  0
  150.1728  142.0112  155.9250 H   0  0  0  0  0  0  0  0  0  0  0  0
  1  2  1  0  0  0  0
  1 26  1  0  0  0  0
  1 27  1  0  0  0  0
  1 28  1  0  0  0  0
  2  3  1  0  0  0  0
  3 11  1  0  0  0  0
  3  4  2  0  0  0  0
  4  5  1  0  0  0  0
  4 29  1  0  0  0  0
  5  6  1  0  0  0  0
  5  9  2  0  0  0  0
  6  7  1  0  0  0  0
  6  8  2  0  0  0  0
  7 30  1  0  0  0  0
  7 31  1  0  0  0  0
  7 32  1  0  0  0  0
  9 10  1  0  0  0  0
  9 33  1  0  0  0  0
 10 11  2  0  0  0  0
 10 34  1  0  0  0  0
 11 12  1  0  0  0  0
 12 13  1  0  0  0  0
 13 14  1  0  0  0  0
 13 35  1  0  0  0  0
 13 36  1  0  0  0  0
 14 15  1  0  0  0  0
 14 16  1  0  0  0  0
 14 37  1  0  0  0  0
 15 38  1  0  0  0  0
 16 17  1  0  0  0  0
 16 39  1  0  0  0  0
 16 40  1  0  0  0  0
 17 25  1  0  0  0  0
 17 18  1  0  0  0  0
 18 19  2  0  0  0  0
 18 41  1  0  0  0  0
 19 20  1  0  0  0  0
 19 46  1  0  0  0  0
 20 25  2  0  0  0  0
 20 21  1  0  0  0  0
 21 22  2  0  0  0  0
 21 42  1  0  0  0  0
 22 23  1  0  0  0  0
 22 43  1  0  0  0  0
 23 24  2  0  0  0  0
 23 44  1  0  0  0  0
 24 25  1  0  0  0  0
 24 45  1  0  0  0  0
M  CHG  1  19   1
M  END
> <s_m_source_file>
AV-unprocessed.smi

> <i_m_source_file_index>
479

> <i_lp_mmshare_version>
43012

> <i_f3d_flags>
0

> <s_epik_input>
W0NIM11PYzFbY0hdYyhDKD1PKVtDSDNdKVtjSF1bY0hdYzFPW0NIMl1bQ0BIXShbT0hdKVtDSDJdbihbY0hdbjIpYyhjMjMpW2NIXVtjSF1bY0hdW2NIXTM=

> <s_epik_cmdline>
J2VwaWtfcHl0aG9uJywgJy1waCcsICc3LjAnLCAnLXRuJywgJzgnLCAnLW1hJywgJzIwMCcsICctbWV0YWxfYmluZGluZycsICctaW1hZScsICc8aW5maWxlLm1hZT4nLCAnLW9tYWUnLCAnPG91dGZpbGUubWFlPic=

> <r_lp_tautomer_probability>
0.99995

> <r_epik_Ionization_Penalty>
1.37698

> <r_epik_Ionization_Penalty_Charging>
1.37698

> <r_epik_Ionization_Penalty_Neutral>
2.3993e-06

> <r_epik_State_Penalty>
1.45717

> <r_epik_Charging_Adjusted_Penalty>
2.83415

> <i_epik_Tot_Q>
1

> <i_epik_Tot_abs_Q>
1

> <r_epik_Metal_State_Penalty>
5.49703

> <b_epik_Metal_Only>
0

> <s_lp_Force_Field>
OPLS_2005

> <r_lp_Energy>
30.5916

> <b_lp_Chiralities_Consistent>
1

> <s_lp_Variant>
AV-unprocessed.smi:479-3

> <Gold.Version>
5.8.1

> <Gold.Id.Protein>
6NUR|6NUR_protein|mol2

> <Gold.PLP.Fitness>
52.9782

> <Gold.PLP.PLP>
-48.2579

> <Gold.PLP.part.hbond>
-2.9496

> <Gold.PLP.part.metal>
0.0000

> <Gold.PLP.part.buried>
-5.9062

> <Gold.PLP.part.nonpolar>
-40.1764

> <Gold.PLP.part.repulsive>
0.1458

> <Gold.PLP.ligand.clash>
0.0000

> <Gold.PLP.ligand.torsion>
0.8287

> <Gold.PLP.Chemscore.Hbond>
1.9920

> <Gold.PLP.Chemscore.CHOScore>
0.0000

> <Gold.PLP.Chemscore.Metal>
0.0000

> <Gold.Chemscore.Hbonds>
donor molecule, donor type, donor heavy atom, donor atom, acceptor molecule, acceptor atom, score
      P1  H  6896  6907       L1     2  1.00
      P1  H  6896  6908       L1    15  1.00

> <Gold.PLP.Chemscore.Internal.Correction>
0.4019

> <Gold.Rescore>
     Score         DG    S(hbond)    S(metal)    S(lipo)     H(rot)  DE(clash)    DE(int)     intcor
     17.70     -18.67       1.62        0.00     126.53       2.75       0.02       0.95       ----

> <Gold.Chemscore.Fitness>
17.6968

> <Gold.Chemscore.DG>
-18.6707

> <Gold.Chemscore.ZeroCoef>
-5.4800

> <Gold.Chemscore.Hbond>
1.6237

> <Gold.Chemscore.Metal>
0.0000

> <Gold.Chemscore.Lipo>
126.5317

> <Gold.Chemscore.Internal_Hbond>
0.0000

> <Gold.Chemscore.DEClash>
0.0225

> <Gold.Chemscore.DEInternal>
0.9514

> <Gold.Chemscore.Rot>
2.7487

> <Gold.Chemscore.Internal.Correction>
   9.000000E+99

> <Gold.Chemscore.Hbonds>
donor molecule, donor type, donor heavy atom, donor atom, acceptor molecule, acceptor atom, score
      P1  H  6896  6907       L1     2  0.16
      P1  H  6896  6908       L1    15  0.87

> <Gold.Chemscore.Hbond.Weighted>
-5.4233

> <Gold.Chemscore.Metal.Weighted>
-0.0000

> <Gold.Chemscore.Lipo.Weighted>
-14.8042

> <Gold.Chemscore.Internal_Hbond.Weighted>
0.0000

> <Gold.Chemscore.DEClash.Weighted>
0.0225

> <Gold.Chemscore.DEInternal.Weighted>
0.9514

> <Gold.Chemscore.Rot.Weighted>
7.0368

> <Gold.Chemscore.Internal.Correction.Weighted>
   9.000000E+99

> <Gold.Protein.RotatedTorsions>
[ 6907 6896 6895 6894 ] final -120.69 input  -60.11 | X-H torsion
[ 7974 7965 7964 7962 ] final   58.39 input  175.53 | X-H torsion
[ 8008 7997 7996 7995 ] final  -37.64 input   59.86 | X-H torsion
[ 10167 10162 10161 10158 ] final   54.39 input  -65.29 | X-H torsion
[ 10718 10713 10712 10709 ] final  137.28 input   66.30 | X-H torsion
[ 10763 10752 10751 10750 ] final  147.91 input  -60.55 | X-H torsion
[ 11005 11000 10999 10996 ] final  163.58 input  -57.11 | X-H torsion

> <Gold.Protein.ActiveResidues>
 VAL166  LYS551  ARG553  GLY616  TRP617  ASP618  TYR619  PRO620  LYS621  CYS622 
 ASP623  PHE694  ASN695  SER759  ASP760  ASP761  ALA762  ILE779  LEU786  VAL792 
 PHE793  MET794  SER795  GLU796  ALA797  LYS798  CYS799  TRP800  GLU811  SER814 

> <Gold.Protein.RotatedAtoms>
  150.8415  133.7928  159.3058 H   0  0  0  0  0  0  0  0  0  0  0  0  # atno 6907 bound_to 6896
  151.5627  135.1063  159.9986 H   0  0  0  0  0  0  0  0  0  0  0  0  # atno 6908 bound_to 6896
  152.4478  133.7528  159.6759 H   0  0  0  0  0  0  0  0  0  0  0  0  # atno 6909 bound_to 6896
  145.9186  139.3711  143.0492 H   0  0  0  0  0  0  0  0  0  0  0  0  # atno 7974 bound_to 7965
  154.4050  140.1599  156.2570 H   0  0  0  0  0  0  0  0  0  0  0  0  # atno 8008 bound_to 7997
  155.9069  140.3429  155.6046 H   0  0  0  0  0  0  0  0  0  0  0  0  # atno 8009 bound_to 7997
  155.7382  140.0789  157.2248 H   0  0  0  0  0  0  0  0  0  0  0  0  # atno 8010 bound_to 7997
  140.2307  144.3690  150.6415 H   0  0  0  0  0  0  0  0  0  0  0  0  # atno 10167 bound_to 10162
  157.4378  131.1055  151.0178 H   0  0  0  0  0  0  0  0  0  0  0  0  # atno 10718 bound_to 10713
  154.0460  135.2885  155.3348 H   0  0  0  0  0  0  0  0  0  0  0  0  # atno 10763 bound_to 10752
  154.6899  135.5230  153.8381 H   0  0  0  0  0  0  0  0  0  0  0  0  # atno 10764 bound_to 10752
  153.0580  135.6603  154.0661 H   0  0  0  0  0  0  0  0  0  0  0  0  # atno 10765 bound_to 10752
  140.2372  134.8079  157.3375 H   0  0  0  0  0  0  0  0  0  0  0  0  # atno 11005 bound_to 11000
  145.8579  140.9492  143.0715 LP  0  0  0  0  0  0  0  0  0  0  0  0  # atno 17320 bound_to 7965
  144.6750  140.0492  143.7479 LP  0  0  0  0  0  0  0  0  0  0  0  0  # atno 17321 bound_to 7965
  140.6187  143.2174  151.6738 LP  0  0  0  0  0  0  0  0  0  0  0  0  # atno 17342 bound_to 10162
  139.5111  144.3520  152.0643 LP  0  0  0  0  0  0  0  0  0  0  0  0  # atno 17343 bound_to 10162
  157.1052  130.5998  149.5469 LP  0  0  0  0  0  0  0  0  0  0  0  0  # atno 17370 bound_to 10713
  155.9937  130.4999  150.7390 LP  0  0  0  0  0  0  0  0  0  0  0  0  # atno 17371 bound_to 10713
  140.1690  134.4632  155.7844 LP  0  0  0  0  0  0  0  0  0  0  0  0  # atno 17394 bound_to 11000
  141.2213  133.6933  156.7675 LP  0  0  0  0  0  0  0  0  0  0  0  0  # atno 17395 bound_to 11000

$$$$
