AV-unprocessed.smi:445|AV-procd|sdf|2591|dock8
  -GOLD-   2262022583D 1   1.00000     0.00000
 Structure written by MMmdl.
 44 45  0  0  0  0  0  0  0  0  3 V2000
  146.6695  132.8110  162.2645 C   0  0  0  0  0  0  0  0  0  0  0  0
  146.2732  134.2649  162.5745 C   0  0  2  0  0  0  0  0  0  0  0  0
  144.9104  134.6272  161.9484 C   0  0  0  0  0  0  0  0  0  0  0  0
  144.4865  136.0605  162.3075 C   0  0  0  0  0  0  0  0  0  0  0  0
  145.5603  137.0802  161.8995 C   0  0  0  0  0  0  0  0  0  0  0  0
  146.9253  136.7289  162.5168 C   0  0  0  0  0  0  0  0  0  0  0  0
  147.3666  135.2904  162.1794 C   0  0  2  0  0  0  0  0  0  0  0  0
  147.7097  135.1971  160.7588 N   0  0  0  0  0  0  0  0  0  0  0  0
  148.3363  136.1339  160.0304 C   0  0  0  0  0  0  0  0  0  0  0  0
  148.7251  137.2074  160.4927 O   0  0  0  0  0  0  0  0  0  0  0  0
  148.5785  135.7817  158.5558 C   0  0  0  0  0  0  0  0  0  0  0  0
  149.3038  136.8336  157.8201 N   0  0  0  0  0  0  0  0  0  0  0  0
  150.5034  137.2889  158.3959 C   0  0  0  0  0  0  0  0  0  0  0  0
  151.2518  138.2506  157.8280 C   0  0  0  0  0  0  0  0  0  0  0  0
  152.4800  138.7063  158.4433 N   0  3  0  0  0  0  0  0  0  0  0  0
  153.1053  139.6164  157.9085 O   0  0  0  0  0  0  0  0  0  0  0  0
  152.8614  138.1709  159.4798 O   0  5  0  0  0  0  0  0  0  0  0  0
  150.7877  138.8207  156.5801 C   0  0  0  0  0  0  0  0  0  0  0  0
  149.6305  138.4003  156.0081 C   0  0  0  0  0  0  0  0  0  0  0  0
  149.1182  138.9551  154.7350 C   0  0  0  0  0  0  0  0  0  0  0  0
  150.0356  139.6053  154.0080 N   0  0  0  0  0  0  0  0  0  0  0  0
  147.9685  138.8756  154.3025 O   0  0  0  0  0  0  0  0  0  0  0  0
  148.8071  137.3379  156.6472 C   0  0  0  0  0  0  0  0  0  0  0  0
  147.7429  136.9045  156.1968 O   0  0  0  0  0  0  0  0  0  0  0  0
  146.7500  132.6331  161.1919 H   0  0  0  0  0  0  0  0  0  0  0  0
  145.9300  132.1130  162.6577 H   0  0  0  0  0  0  0  0  0  0  0  0
  147.6299  132.5621  162.7168 H   0  0  0  0  0  0  0  0  0  0  0  0
  146.1551  134.3299  163.6572 H   0  0  0  0  0  0  0  0  0  0  0  0
  144.9579  134.5212  160.8637 H   0  0  0  0  0  0  0  0  0  0  0  0
  144.1466  133.9280  162.2903 H   0  0  0  0  0  0  0  0  0  0  0  0
  143.5412  136.3016  161.8206 H   0  0  0  0  0  0  0  0  0  0  0  0
  144.3070  136.1295  163.3811 H   0  0  0  0  0  0  0  0  0  0  0  0
  145.6424  137.1109  160.8125 H   0  0  0  0  0  0  0  0  0  0  0  0
  145.2595  138.0805  162.2122 H   0  0  0  0  0  0  0  0  0  0  0  0
  147.6804  137.4430  162.1853 H   0  0  0  0  0  0  0  0  0  0  0  0
  146.8627  136.8377  163.6004 H   0  0  0  0  0  0  0  0  0  0  0  0
  148.2541  135.0801  162.7787 H   0  0  0  0  0  0  0  0  0  0  0  0
  147.4385  134.3452  160.2893 H   0  0  0  0  0  0  0  0  0  0  0  0
  149.1258  134.8389  158.5208 H   0  0  0  0  0  0  0  0  0  0  0  0
  147.6241  135.5694  158.0697 H   0  0  0  0  0  0  0  0  0  0  0  0
  150.7628  136.8098  159.3292 H   0  0  0  0  0  0  0  0  0  0  0  0
  151.3907  139.5893  156.1204 H   0  0  0  0  0  0  0  0  0  0  0  0
  149.7826  140.0170  153.1219 H   0  0  0  0  0  0  0  0  0  0  0  0
  150.9827  139.6788  154.3510 H   0  0  0  0  0  0  0  0  0  0  0  0
  1  2  1  0  0  0  0
  1 25  1  0  0  0  0
  1 26  1  0  0  0  0
  1 27  1  0  0  0  0
  2  7  1  0  0  0  0
  2  3  1  0  0  0  0
  2 28  1  0  0  0  0
  3  4  1  0  0  0  0
  3 29  1  0  0  0  0
  3 30  1  0  0  0  0
  4  5  1  0  0  0  0
  4 31  1  0  0  0  0
  4 32  1  0  0  0  0
  5  6  1  0  0  0  0
  5 33  1  0  0  0  0
  5 34  1  0  0  0  0
  6  7  1  0  0  0  0
  6 35  1  0  0  0  0
  6 36  1  0  0  0  0
  7  8  1  0  0  0  0
  7 37  1  0  0  0  0
  8  9  1  0  0  0  0
  8 38  1  0  0  0  0
  9 10  2  0  0  0  0
  9 11  1  0  0  0  0
 11 12  1  0  0  0  0
 11 39  1  0  0  0  0
 11 40  1  0  0  0  0
 12 23  1  0  0  0  0
 12 13  1  0  0  0  0
 13 14  2  0  0  0  0
 13 41  1  0  0  0  0
 14 15  1  0  0  0  0
 14 18  1  0  0  0  0
 15 16  2  0  0  0  0
 15 17  1  0  0  0  0
 18 19  2  0  0  0  0
 18 42  1  0  0  0  0
 19 20  1  0  0  0  0
 19 23  1  0  0  0  0
 20 21  1  0  0  0  0
 20 22  2  0  0  0  0
 21 43  1  0  0  0  0
 21 44  1  0  0  0  0
 23 24  2  0  0  0  0
M  CHG  1  15   1
M  CHG  1  17  -1
M  END
> <s_m_source_file>
AV-unprocessed.smi

> <i_m_source_file_index>
445

> <i_lp_mmshare_version>
43012

> <i_f3d_flags>
0

> <s_epik_input>
W0NIM11bQ0BASF0xW0NIMl1bQ0gyXVtDSDJdW0NIMl1bQ0BIXTFbTkhdQyg9TylbQ0gyXW4yW2NIXWMoW04rXSg9TylbTy1dKVtjSF1jKGMyPU8pQyg9TylbTkgyXQ==

> <s_epik_cmdline>
J2VwaWtfcHl0aG9uJywgJy1waCcsICc3LjAnLCAnLXRuJywgJzgnLCAnLW1hJywgJzIwMCcsICctbWV0YWxfYmluZGluZycsICctaW1hZScsICc8aW5maWxlLm1hZT4nLCAnLW9tYWUnLCAnPG91dGZpbGUubWFlPic=

> <r_lp_tautomer_probability>
1

> <r_epik_Ionization_Penalty>
2.81321e-06

> <r_epik_Ionization_Penalty_Charging>
2.43777e-12

> <r_epik_Ionization_Penalty_Neutral>
2.81321e-06

> <r_epik_State_Penalty>
-0

> <r_epik_Charging_Adjusted_Penalty>
2.43777e-12

> <i_epik_Tot_Q>
0

> <i_epik_Tot_abs_Q>
2

> <r_epik_Metal_State_Penalty>
-0

> <b_epik_Metal_Only>
0

> <s_lp_Force_Field>
OPLS_2005

> <r_lp_Energy>
27.547

> <b_lp_Chiralities_Consistent>
1

> <s_lp_Variant>
AV-unprocessed.smi:445-3

> <Gold.Version>
5.8.1

> <Gold.Id.Protein>
6NUR|6NUR_protein|mol2

> <Gold.PLP.Fitness>
39.1362

> <Gold.PLP.PLP>
-31.9555

> <Gold.PLP.part.hbond>
-3.8713

> <Gold.PLP.part.metal>
0.0000

> <Gold.PLP.part.buried>
-6.4517

> <Gold.PLP.part.nonpolar>
-23.2143

> <Gold.PLP.part.repulsive>
1.3305

> <Gold.PLP.ligand.clash>
0.0000

> <Gold.PLP.ligand.torsion>
0.4910

> <Gold.PLP.Chemscore.Hbond>
2.7098

> <Gold.PLP.Chemscore.CHOScore>
0.0000

> <Gold.PLP.Chemscore.Metal>
0.0000

> <Gold.Chemscore.Hbonds>
donor molecule, donor type, donor heavy atom, donor atom, acceptor molecule, acceptor atom, score
      L1  H    21    43       P1  7957  1.00
      P1  H  6931  6943       L1    10  0.67
      P1  H  6934  6947       L1    10  0.03
      P1  H  7997  8010       L1    16  1.00

> <Gold.PLP.Chemscore.Internal.Correction>
0.0332

> <Gold.Rescore>
     Score         DG    S(hbond)    S(metal)    S(lipo)     H(rot)  DE(clash)    DE(int)     intcor
     13.81     -18.52       3.10        0.00      60.52       1.71       0.02       4.69       ----

> <Gold.Chemscore.Fitness>
13.8060

> <Gold.Chemscore.DG>
-18.5159

> <Gold.Chemscore.ZeroCoef>
-5.4800

> <Gold.Chemscore.Hbond>
3.0954

> <Gold.Chemscore.Metal>
0.0000

> <Gold.Chemscore.Lipo>
60.5189

> <Gold.Chemscore.Internal_Hbond>
0.0000

> <Gold.Chemscore.DEClash>
0.0202

> <Gold.Chemscore.DEInternal>
4.6897

> <Gold.Chemscore.Rot>
1.7123

> <Gold.Chemscore.Internal.Correction>
   9.000000E+99

> <Gold.Chemscore.Hbonds>
donor molecule, donor type, donor heavy atom, donor atom, acceptor molecule, acceptor atom, score
      L1  H    21    43       P1  7957  0.96
      P1  H  6931  6943       L1    10  0.68
      P1  H  6934  6947       L1    10  0.04
      P1  H  7997  8010       L1    16  1.00

> <Gold.Chemscore.Hbond.Weighted>
-10.3387

> <Gold.Chemscore.Metal.Weighted>
-0.0000

> <Gold.Chemscore.Lipo.Weighted>
-7.0807

> <Gold.Chemscore.Internal_Hbond.Weighted>
0.0000

> <Gold.Chemscore.DEClash.Weighted>
0.0202

> <Gold.Chemscore.DEInternal.Weighted>
4.6897

> <Gold.Chemscore.Rot.Weighted>
4.3835

> <Gold.Chemscore.Internal.Correction.Weighted>
   9.000000E+99

> <Gold.Protein.RotatedTorsions>
[ 6907 6896 6895 6894 ] final  -40.95 input  -60.11 | X-H torsion
[ 7974 7965 7964 7962 ] final  102.62 input  175.53 | X-H torsion
[ 8008 7997 7996 7995 ] final   41.36 input   59.86 | X-H torsion
[ 10167 10162 10161 10158 ] final  153.03 input  -65.29 | X-H torsion
[ 10718 10713 10712 10709 ] final  -28.77 input   66.30 | X-H torsion
[ 10763 10752 10751 10750 ] final -109.33 input  -60.55 | X-H torsion
[ 11005 11000 10999 10996 ] final  176.27 input  -57.11 | X-H torsion

> <Gold.Protein.ActiveResidues>
 VAL166  LYS551  ARG553  GLY616  TRP617  ASP618  TYR619  PRO620  LYS621  CYS622 
 ASP623  PHE694  ASN695  SER759  ASP760  ASP761  ALA762  ILE779  LEU786  VAL792 
 PHE793  MET794  SER795  GLU796  ALA797  LYS798  CYS799  TRP800  GLU811  SER814 

> <Gold.Protein.RotatedAtoms>
  150.9724  134.9095  159.7795 H   0  0  0  0  0  0  0  0  0  0  0  0  # atno 6907 bound_to 6896
  152.5195  134.3522  159.9265 H   0  0  0  0  0  0  0  0  0  0  0  0  # atno 6908 bound_to 6896
  151.3531  133.3877  159.2717 H   0  0  0  0  0  0  0  0  0  0  0  0  # atno 6909 bound_to 6896
  145.3567  139.2427  143.3529 H   0  0  0  0  0  0  0  0  0  0  0  0  # atno 7974 bound_to 7965
  155.2683  140.3364  155.4267 H   0  0  0  0  0  0  0  0  0  0  0  0  # atno 8008 bound_to 7997
  156.2144  140.1783  156.7665 H   0  0  0  0  0  0  0  0  0  0  0  0  # atno 8009 bound_to 7997
  154.5732  140.0666  156.8980 H   0  0  0  0  0  0  0  0  0  0  0  0  # atno 8010 bound_to 7997
  139.4829  144.5308  151.7726 H   0  0  0  0  0  0  0  0  0  0  0  0  # atno 10167 bound_to 10162
  156.4209  130.4426  149.7184 H   0  0  0  0  0  0  0  0  0  0  0  0  # atno 10718 bound_to 10713
  154.8187  135.4605  154.0716 H   0  0  0  0  0  0  0  0  0  0  0  0  # atno 10763 bound_to 10752
  153.2088  135.6879  153.8146 H   0  0  0  0  0  0  0  0  0  0  0  0  # atno 10764 bound_to 10752
  153.7605  135.3285  155.3313 H   0  0  0  0  0  0  0  0  0  0  0  0  # atno 10765 bound_to 10752
  140.3713  134.7028  157.4394 H   0  0  0  0  0  0  0  0  0  0  0  0  # atno 11005 bound_to 11000
  146.2945  140.4193  142.8727 LP  0  0  0  0  0  0  0  0  0  0  0  0  # atno 17320 bound_to 7965
  144.8677  140.7229  143.6067 LP  0  0  0  0  0  0  0  0  0  0  0  0  # atno 17321 bound_to 7965
  140.4834  144.1416  150.5936 LP  0  0  0  0  0  0  0  0  0  0  0  0  # atno 17342 bound_to 10162
  140.4252  143.2593  151.9665 LP  0  0  0  0  0  0  0  0  0  0  0  0  # atno 17343 bound_to 10162
  156.4125  130.7729  151.2743 LP  0  0  0  0  0  0  0  0  0  0  0  0  # atno 17370 bound_to 10713
  157.7508  131.0207  150.3719 LP  0  0  0  0  0  0  0  0  0  0  0  0  # atno 17371 bound_to 10713
  140.0550  134.6077  155.8816 LP  0  0  0  0  0  0  0  0  0  0  0  0  # atno 17394 bound_to 11000
  141.1953  133.6587  156.5639 LP  0  0  0  0  0  0  0  0  0  0  0  0  # atno 17395 bound_to 11000

$$$$
