AV-unprocessed.smi:1550|AV-procd|sdf|6230|dock4
  -GOLD-   22720 6413D 1   1.00000     0.00000
 Structure written by MMmdl.
 42 43  0  0  0  0  0  0  0  0  2 V2000
  154.0435  139.2678  157.9726 C   0  0  0  0  0  0  0  0  0  0  0  0
  152.5493  138.9569  157.8004 C   0  0  2  0  0  0  0  0  0  0  0  0
  151.8192  139.9514  158.5124 O   0  0  0  0  0  0  0  0  0  0  0  0
  151.8554  141.2572  157.9458 C   0  0  0  0  0  0  0  0  0  0  0  0
  151.4266  142.2895  158.9976 C   0  0  1  0  0  0  0  0  0  0  0  0
  152.4833  142.5046  160.0998 C   0  0  0  0  0  0  0  0  0  0  0  0
  152.0150  143.5805  161.0857 C   0  0  0  0  0  0  0  0  0  0  0  0
  151.6264  144.8491  160.3181 C   0  0  0  0  0  0  0  0  0  0  0  0
  150.6109  144.5177  159.2122 C   0  0  0  0  0  0  0  0  0  0  0  0
  151.1397  143.5224  158.3407 O   0  0  0  0  0  0  0  0  0  0  0  0
  152.1998  137.5583  158.3349 C   0  0  0  0  0  0  0  0  0  0  0  0
  153.0512  136.9192  158.9522 O   0  0  0  0  0  0  0  0  0  0  0  0
  150.9435  137.1444  158.0772 N   0  0  0  0  0  0  0  0  0  0  0  0
  150.2881  135.9515  158.4306 C   0  0  0  0  0  0  0  0  0  0  0  0
  149.7576  135.6772  159.6552 C   0  0  0  0  0  0  0  0  0  0  0  0
  149.0893  134.4159  159.9517 C   0  0  0  0  0  0  0  0  0  0  0  0
  148.4221  134.1072  161.2806 C   0  0  0  0  0  0  0  0  0  0  0  0
  149.2550  134.3266  162.2983 F   0  0  0  0  0  0  0  0  0  0  0  0
  147.3535  134.8860  161.4433 F   0  0  0  0  0  0  0  0  0  0  0  0
  148.0220  132.8366  161.3313 F   0  0  0  0  0  0  0  0  0  0  0  0
  149.0409  133.5773  158.8551 C   0  0  0  0  0  0  0  0  0  0  0  0
  149.5466  133.7667  157.6169 N   0  5  0  0  0  0  0  0  0  0  0  0
  150.1782  134.9452  157.3534 C   0  0  0  0  0  0  0  0  0  0  0  0
  150.6552  135.1848  156.2433 O   0  0  0  0  0  0  0  0  0  0  0  0
  154.6631  138.5265  157.4665 H   0  0  0  0  0  0  0  0  0  0  0  0
  154.3327  139.2861  159.0242 H   0  0  0  0  0  0  0  0  0  0  0  0
  154.2853  140.2429  157.5492 H   0  0  0  0  0  0  0  0  0  0  0  0
  152.3094  139.0211  156.7371 H   0  0  0  0  0  0  0  0  0  0  0  0
  152.8615  141.4832  157.5897 H   0  0  0  0  0  0  0  0  0  0  0  0
  151.1857  141.3259  157.0882 H   0  0  0  0  0  0  0  0  0  0  0  0
  150.5046  141.9287  159.4570 H   0  0  0  0  0  0  0  0  0  0  0  0
  152.6763  141.5699  160.6273 H   0  0  0  0  0  0  0  0  0  0  0  0
  153.4303  142.8128  159.6549 H   0  0  0  0  0  0  0  0  0  0  0  0
  151.1561  143.2140  161.6494 H   0  0  0  0  0  0  0  0  0  0  0  0
  152.7983  143.7988  161.8122 H   0  0  0  0  0  0  0  0  0  0  0  0
  151.2117  145.5910  161.0012 H   0  0  0  0  0  0  0  0  0  0  0  0
  152.5164  145.2957  159.8730 H   0  0  0  0  0  0  0  0  0  0  0  0
  149.6682  144.1745  159.6411 H   0  0  0  0  0  0  0  0  0  0  0  0
  150.3874  145.4116  158.6298 H   0  0  0  0  0  0  0  0  0  0  0  0
  150.3736  137.7783  157.5357 H   0  0  0  0  0  0  0  0  0  0  0  0
  149.8080  136.3916  160.4589 H   0  0  0  0  0  0  0  0  0  0  0  0
  148.5132  132.6094  158.9928 H   0  0  0  0  0  0  0  0  0  0  0  0
  1  2  1  0  0  0  0
  1 25  1  0  0  0  0
  1 26  1  0  0  0  0
  1 27  1  0  0  0  0
  2  3  1  0  0  0  0
  2 11  1  0  0  0  0
  2 28  1  0  0  0  0
  3  4  1  0  0  0  0
  4  5  1  0  0  0  0
  4 29  1  0  0  0  0
  4 30  1  0  0  0  0
  5 10  1  0  0  0  0
  5  6  1  0  0  0  0
  5 31  1  0  0  0  0
  6  7  1  0  0  0  0
  6 32  1  0  0  0  0
  6 33  1  0  0  0  0
  7  8  1  0  0  0  0
  7 34  1  0  0  0  0
  7 35  1  0  0  0  0
  8  9  1  0  0  0  0
  8 36  1  0  0  0  0
  8 37  1  0  0  0  0
  9 10  1  0  0  0  0
  9 38  1  0  0  0  0
  9 39  1  0  0  0  0
 11 12  2  0  0  0  0
 11 13  1  0  0  0  0
 13 14  1  0  0  0  0
 13 40  1  0  0  0  0
 14 23  1  0  0  0  0
 14 15  2  0  0  0  0
 15 16  1  0  0  0  0
 15 41  1  0  0  0  0
 16 17  1  0  0  0  0
 16 21  2  0  0  0  0
 17 18  1  0  0  0  0
 17 19  1  0  0  0  0
 17 20  1  0  0  0  0
 21 22  1  0  0  0  0
 21 42  1  0  0  0  0
 22 23  1  0  0  0  0
 23 24  2  0  0  0  0
M  CHG  1  22  -1
M  END
> <s_m_source_file>
AV-unprocessed.smi

> <i_m_source_file_index>
1550

> <i_lp_mmshare_version>
43012

> <i_f3d_flags>
0

> <s_epik_input>
TzFbQ0gyXVtDSDJdW0NIMl1bQ0gyXVtDQEhdMVtDSDJdT1tDQEBIXShbQ0gzXSlDKD1PKVtOSF1jMltjSF1jKEMoRikoRilGKVtjSF1bbkhdYzI9Tw==

> <s_epik_cmdline>
J2VwaWtfcHl0aG9uJywgJy1waCcsICc3LjAnLCAnLXRuJywgJzgnLCAnLW1hJywgJzIwMCcsICctbWV0YWxfYmluZGluZycsICctaW1hZScsICc8aW5maWxlLm1hZT4nLCAnLW9tYWUnLCAnPG91dGZpbGUubWFlPic=

> <r_epik_Ionization_Penalty>
2.54933

> <r_epik_Ionization_Penalty_Charging>
0.0583423

> <r_epik_Ionization_Penalty_Neutral>
2.49099

> <r_epik_State_Penalty>
2.65532

> <r_epik_Charging_Adjusted_Penalty>
2.71366

> <i_epik_Tot_Q>
-1

> <i_epik_Tot_abs_Q>
1

> <r_epik_Metal_State_Penalty>
0.516364

> <b_epik_Metal_Only>
0

> <s_lp_Force_Field>
OPLS_2005

> <r_lp_Energy>
26.7738

> <b_lp_Chiralities_Consistent>
1

> <s_lp_Variant>
AV-unprocessed.smi:1550-7

> <Gold.Version>
5.8.1

> <Gold.Id.Protein>
6NUR|6NUR_protein|mol2

> <Gold.PLP.Fitness>
46.6799

> <Gold.PLP.PLP>
-46.2302

> <Gold.PLP.part.hbond>
-1.0000

> <Gold.PLP.part.metal>
0.0000

> <Gold.PLP.part.buried>
-6.1804

> <Gold.PLP.part.nonpolar>
-38.8688

> <Gold.PLP.part.repulsive>
0.2832

> <Gold.PLP.ligand.clash>
0.0000

> <Gold.PLP.ligand.torsion>
1.3498

> <Gold.PLP.Chemscore.Hbond>
1.0000

> <Gold.PLP.Chemscore.CHOScore>
0.0000

> <Gold.PLP.Chemscore.Metal>
0.0000

> <Gold.PLP.Chemscore.Internal.Correction>
0.1494

> <Gold.Rescore>
     Score         DG    S(hbond)    S(metal)    S(lipo)     H(rot)  DE(clash)    DE(int)     intcor
     14.96     -16.23       1.00        0.00     103.33       1.82       0.17       1.10       ----

> <Gold.Chemscore.Fitness>
14.9600

> <Gold.Chemscore.DG>
-16.2306

> <Gold.Chemscore.ZeroCoef>
-5.4800

> <Gold.Chemscore.Hbond>
0.9970

> <Gold.Chemscore.Metal>
0.0000

> <Gold.Chemscore.Lipo>
103.3262

> <Gold.Chemscore.Internal_Hbond>
0.0000

> <Gold.Chemscore.DEClash>
0.1685

> <Gold.Chemscore.DEInternal>
1.1021

> <Gold.Chemscore.Rot>
1.8236

> <Gold.Chemscore.Internal.Correction>
   9.000000E+99

> <Gold.Chemscore.Hbonds>
donor molecule, donor type, donor heavy atom, donor atom, acceptor molecule, acceptor atom, score
      P1  H  6896  6907       L1    12  0.01

> <Gold.Chemscore.Hbond.Weighted>
-3.3298

> <Gold.Chemscore.Metal.Weighted>
-0.0000

> <Gold.Chemscore.Lipo.Weighted>
-12.0892

> <Gold.Chemscore.Internal_Hbond.Weighted>
0.0000

> <Gold.Chemscore.DEClash.Weighted>
0.1685

> <Gold.Chemscore.DEInternal.Weighted>
1.1021

> <Gold.Chemscore.Rot.Weighted>
4.6684

> <Gold.Chemscore.Internal.Correction.Weighted>
   9.000000E+99

> <Gold.Protein.RotatedTorsions>
[ 6907 6896 6895 6894 ] final    2.08 input  -60.11 | X-H torsion
[ 7974 7965 7964 7962 ] final   53.07 input  175.53 | X-H torsion
[ 8008 7997 7996 7995 ] final -175.97 input   59.86 | X-H torsion
[ 10167 10162 10161 10158 ] final   58.96 input  -65.29 | X-H torsion
[ 10718 10713 10712 10709 ] final   58.02 input   66.30 | X-H torsion
[ 10763 10752 10751 10750 ] final   47.38 input  -60.55 | X-H torsion
[ 11005 11000 10999 10996 ] final -127.77 input  -57.11 | X-H torsion

> <Gold.Protein.ActiveResidues>
 VAL166  LYS551  ARG553  GLY616  TRP617  ASP618  TYR619  PRO620  LYS621  CYS622 
 ASP623  PHE694  ASN695  SER759  ASP760  ASP761  ALA762  ILE779  LEU786  VAL792 
 PHE793  MET794  SER795  GLU796  ALA797  LYS798  CYS799  TRP800  GLU811  SER814 

> <Gold.Protein.RotatedAtoms>
  151.6031  135.1046  160.0064 H   0  0  0  0  0  0  0  0  0  0  0  0  # atno 6907 bound_to 6896
  152.4247  133.7171  159.6523 H   0  0  0  0  0  0  0  0  0  0  0  0  # atno 6908 bound_to 6896
  150.8136  133.8305  159.3193 H   0  0  0  0  0  0  0  0  0  0  0  0  # atno 6909 bound_to 6896
  145.9749  139.4185  143.0167 H   0  0  0  0  0  0  0  0  0  0  0  0  # atno 7974 bound_to 7965
  155.9891  140.1197  157.0655 H   0  0  0  0  0  0  0  0  0  0  0  0  # atno 8008 bound_to 7997
  154.4206  140.1129  156.5609 H   0  0  0  0  0  0  0  0  0  0  0  0  # atno 8009 bound_to 7997
  155.6367  140.3473  155.4703 H   0  0  0  0  0  0  0  0  0  0  0  0  # atno 8010 bound_to 7997
  140.1815  144.4177  150.6613 H   0  0  0  0  0  0  0  0  0  0  0  0  # atno 10167 bound_to 10162
  157.5562  130.8802  149.9040 H   0  0  0  0  0  0  0  0  0  0  0  0  # atno 10718 bound_to 10713
  152.9800  135.5978  154.3753 H   0  0  0  0  0  0  0  0  0  0  0  0  # atno 10763 bound_to 10752
  154.3422  135.2767  155.2418 H   0  0  0  0  0  0  0  0  0  0  0  0  # atno 10764 bound_to 10752
  154.4495  135.5993  153.6237 H   0  0  0  0  0  0  0  0  0  0  0  0  # atno 10765 bound_to 10752
  140.9571  134.0986  157.4005 H   0  0  0  0  0  0  0  0  0  0  0  0  # atno 11005 bound_to 11000
  145.7853  140.9838  143.1078 LP  0  0  0  0  0  0  0  0  0  0  0  0  # atno 17320 bound_to 7965
  144.6846  139.9615  143.7480 LP  0  0  0  0  0  0  0  0  0  0  0  0  # atno 17321 bound_to 7965
  140.6516  143.2226  151.6064 LP  0  0  0  0  0  0  0  0  0  0  0  0  # atno 17342 bound_to 10162
  139.5294  144.2961  152.1112 LP  0  0  0  0  0  0  0  0  0  0  0  0  # atno 17343 bound_to 10162
  156.0621  130.3698  150.0959 LP  0  0  0  0  0  0  0  0  0  0  0  0  # atno 17370 bound_to 10713
  156.9127  130.9657  151.3560 LP  0  0  0  0  0  0  0  0  0  0  0  0  # atno 17371 bound_to 10713
  139.8866  135.0082  156.6507 LP  0  0  0  0  0  0  0  0  0  0  0  0  # atno 17394 bound_to 11000
  140.7520  133.8889  155.8354 LP  0  0  0  0  0  0  0  0  0  0  0  0  # atno 17395 bound_to 11000

$$$$
