AV-unprocessed.smi:826|AV-procd|sdf|3854|dock6
  -GOLD-   22720 1303D 1   1.00000     0.00000
 Structure written by MMmdl.
 38 39  0  0  0  0  0  0  0  0  2 V2000
  152.9661  141.0063  159.3311 C   0  0  0  0  0  0  0  0  0  0  0  0
  152.5089  140.5049  158.0044 C   0  0  0  0  0  0  0  0  0  0  0  0
  153.1312  139.5230  157.3474 N   0  0  0  0  0  0  0  0  0  0  0  0
  152.5206  139.2366  156.1350 N   0  0  0  0  0  0  0  0  0  0  0  0
  151.4555  140.0118  155.8864 C   0  0  0  0  0  0  0  0  0  0  0  0
  150.7243  139.8941  154.7657 N   0  5  0  0  0  0  0  0  0  0  0  0
  149.4261  139.5227  154.8423 C   0  0  0  0  0  0  0  0  0  0  0  0
  148.7800  139.3353  155.8763 O   0  0  0  0  0  0  0  0  0  0  0  0
  148.8393  139.3552  153.6473 N   0  0  0  0  0  0  0  0  0  0  0  0
  147.4495  138.9600  153.4206 C   0  0  2  0  0  0  0  0  0  0  0  0
  146.5423  140.0944  153.9259 C   0  0  0  0  0  0  0  0  0  0  0  0
  147.1189  137.6856  154.2133 C   0  0  0  0  0  0  0  0  0  0  0  0
  146.2235  137.6867  155.0600 O   0  0  0  0  0  0  0  0  0  0  0  0
  147.8485  136.5995  153.9173 N   0  0  0  0  0  0  0  0  0  0  0  0
  147.7111  135.2972  154.5621 C   0  0  0  0  0  0  0  0  0  0  0  0
  149.0606  134.7861  155.1092 C   0  0  0  0  0  0  0  0  0  0  0  0
  149.1980  133.3447  154.6163 C   0  0  0  0  0  0  0  0  0  0  0  0
  148.4335  133.3269  153.2968 C   0  0  0  0  0  0  0  0  0  0  0  0
  147.2328  134.2391  153.5507 C   0  0  0  0  0  0  0  0  0  0  0  0
  151.1093  141.1644  157.1752 S   0  0  0  0  0  0  0  0  0  0  0  0
  153.6751  141.8228  159.1947 H   0  0  0  0  0  0  0  0  0  0  0  0
  153.4522  140.2085  159.8936 H   0  0  0  0  0  0  0  0  0  0  0  0
  152.1165  141.3713  159.9084 H   0  0  0  0  0  0  0  0  0  0  0  0
  149.4024  139.5273  152.8277 H   0  0  0  0  0  0  0  0  0  0  0  0
  147.2752  138.8036  152.3540 H   0  0  0  0  0  0  0  0  0  0  0  0
  145.4883  139.8508  153.7858 H   0  0  0  0  0  0  0  0  0  0  0  0
  146.7368  141.0186  153.3805 H   0  0  0  0  0  0  0  0  0  0  0  0
  146.6992  140.3004  154.9859 H   0  0  0  0  0  0  0  0  0  0  0  0
  148.5654  136.6888  153.2120 H   0  0  0  0  0  0  0  0  0  0  0  0
  146.9794  135.3692  155.3687 H   0  0  0  0  0  0  0  0  0  0  0  0
  149.8864  135.3765  154.7082 H   0  0  0  0  0  0  0  0  0  0  0  0
  149.1165  134.8546  156.1961 H   0  0  0  0  0  0  0  0  0  0  0  0
  150.2380  133.0367  154.5054 H   0  0  0  0  0  0  0  0  0  0  0  0
  148.7221  132.6658  155.3251 H   0  0  0  0  0  0  0  0  0  0  0  0
  149.0560  133.7488  152.5064 H   0  0  0  0  0  0  0  0  0  0  0  0
  148.1411  132.3216  152.9922 H   0  0  0  0  0  0  0  0  0  0  0  0
  146.4284  133.6538  153.9984 H   0  0  0  0  0  0  0  0  0  0  0  0
  146.8400  134.6663  152.6271 H   0  0  0  0  0  0  0  0  0  0  0  0
  1  2  1  0  0  0  0
  1 21  1  0  0  0  0
  1 22  1  0  0  0  0
  1 23  1  0  0  0  0
  2 20  1  0  0  0  0
  2  3  2  0  0  0  0
  3  4  1  0  0  0  0
  4  5  2  0  0  0  0
  5  6  1  0  0  0  0
  5 20  1  0  0  0  0
  6  7  1  0  0  0  0
  7  8  2  0  0  0  0
  7  9  1  0  0  0  0
  9 10  1  0  0  0  0
  9 24  1  0  0  0  0
 10 11  1  0  0  0  0
 10 12  1  0  0  0  0
 10 25  1  0  0  0  0
 11 26  1  0  0  0  0
 11 27  1  0  0  0  0
 11 28  1  0  0  0  0
 12 13  2  0  0  0  0
 12 14  1  0  0  0  0
 14 15  1  0  0  0  0
 14 29  1  0  0  0  0
 15 19  1  0  0  0  0
 15 16  1  0  0  0  0
 15 30  1  0  0  0  0
 16 17  1  0  0  0  0
 16 31  1  0  0  0  0
 16 32  1  0  0  0  0
 17 18  1  0  0  0  0
 17 33  1  0  0  0  0
 17 34  1  0  0  0  0
 18 19  1  0  0  0  0
 18 35  1  0  0  0  0
 18 36  1  0  0  0  0
 19 37  1  0  0  0  0
 19 38  1  0  0  0  0
M  CHG  1   6  -1
M  END
> <s_m_source_file>
AV-unprocessed.smi

> <i_m_source_file_index>
826

> <i_lp_mmshare_version>
43012

> <i_f3d_flags>
0

> <s_epik_input>
W0NIM11jMW5uYyhzMSlbTkhdQyg9TylbTkhdW0NASF0oW0NIM10pQyg9TylbTkhdW0NIXTJbQ0gyXVtDSDJdW0NIMl1bQ0gyXTI=

> <s_epik_cmdline>
J2VwaWtfcHl0aG9uJywgJy1waCcsICc3LjAnLCAnLXRuJywgJzgnLCAnLW1hJywgJzIwMCcsICctbWV0YWxfYmluZGluZycsICctaW1hZScsICc8aW5maWxlLm1hZT4nLCAnLW9tYWUnLCAnPG91dGZpbGUubWFlPic=

> <r_lp_tautomer_probability>
1

> <r_epik_Ionization_Penalty>
3.15008

> <r_epik_Ionization_Penalty_Charging>
3.01509

> <r_epik_Ionization_Penalty_Neutral>
0.134987

> <r_epik_State_Penalty>
3.01143

> <r_epik_Charging_Adjusted_Penalty>
6.02652

> <i_epik_Tot_Q>
-1

> <i_epik_Tot_abs_Q>
1

> <r_epik_Metal_State_Penalty>
0.454645

> <b_epik_Metal_Only>
1

> <s_lp_Force_Field>
OPLS_2005

> <r_lp_Energy>
15.3268

> <b_lp_Chiralities_Consistent>
1

> <s_lp_Variant>
AV-unprocessed.smi:826-3

> <Gold.Version>
5.8.1

> <Gold.Id.Protein>
6NUR|6NUR_protein|mol2

> <Gold.PLP.Fitness>
36.9497

> <Gold.PLP.PLP>
-26.5883

> <Gold.PLP.part.hbond>
-4.7023

> <Gold.PLP.part.metal>
0.0000

> <Gold.PLP.part.buried>
-1.9569

> <Gold.PLP.part.nonpolar>
-19.9081

> <Gold.PLP.part.repulsive>
0.2038

> <Gold.PLP.ligand.clash>
0.0000

> <Gold.PLP.ligand.torsion>
0.6865

> <Gold.PLP.Chemscore.Hbond>
3.8960

> <Gold.PLP.Chemscore.CHOScore>
0.0000

> <Gold.PLP.Chemscore.Metal>
0.0000

> <Gold.Chemscore.Hbonds>
donor molecule, donor type, donor heavy atom, donor atom, acceptor molecule, acceptor atom, score
      L1  H     9    24       P1  7957  1.00
      L1  H    14    29       P1  7948  0.76
      P1  H  7989  7998       L1     6  1.00
      P1  H  7997  8010       L1     3  1.00

> <Gold.PLP.Chemscore.Internal.Correction>
0.0464

> <Gold.Rescore>
     Score         DG    S(hbond)    S(metal)    S(lipo)     H(rot)  DE(clash)    DE(int)     intcor
     14.60     -16.70       2.75        0.00      52.90       1.62       0.01       2.08       ----

> <Gold.Chemscore.Fitness>
14.6037

> <Gold.Chemscore.DG>
-16.6961

> <Gold.Chemscore.ZeroCoef>
-5.4800

> <Gold.Chemscore.Hbond>
2.7469

> <Gold.Chemscore.Metal>
0.0000

> <Gold.Chemscore.Lipo>
52.8967

> <Gold.Chemscore.Internal_Hbond>
0.0000

> <Gold.Chemscore.DEClash>
0.0147

> <Gold.Chemscore.DEInternal>
2.0776

> <Gold.Chemscore.Rot>
1.6201

> <Gold.Chemscore.Internal.Correction>
   9.000000E+99

> <Gold.Chemscore.Hbonds>
donor molecule, donor type, donor heavy atom, donor atom, acceptor molecule, acceptor atom, score
      L1  H     9    24       P1  7957  0.97
      L1  H    14    29       P1  7948  0.73
      P1  H  7989  7998       L1     6  0.50
      P1  H  7997  8010       L1     3  0.28

> <Gold.Chemscore.Hbond.Weighted>
-9.1746

> <Gold.Chemscore.Metal.Weighted>
-0.0000

> <Gold.Chemscore.Lipo.Weighted>
-6.1889

> <Gold.Chemscore.Internal_Hbond.Weighted>
0.0000

> <Gold.Chemscore.DEClash.Weighted>
0.0147

> <Gold.Chemscore.DEInternal.Weighted>
2.0776

> <Gold.Chemscore.Rot.Weighted>
4.1475

> <Gold.Chemscore.Internal.Correction.Weighted>
   9.000000E+99

> <Gold.Protein.RotatedTorsions>
[ 6907 6896 6895 6894 ] final -101.90 input  -60.11 | X-H torsion
[ 7974 7965 7964 7962 ] final -175.07 input  175.53 | X-H torsion
[ 8008 7997 7996 7995 ] final   39.22 input   59.86 | X-H torsion
[ 10167 10162 10161 10158 ] final    2.86 input  -65.29 | X-H torsion
[ 10718 10713 10712 10709 ] final  -42.65 input   66.30 | X-H torsion
[ 10763 10752 10751 10750 ] final -154.42 input  -60.55 | X-H torsion
[ 11005 11000 10999 10996 ] final  129.74 input  -57.11 | X-H torsion

> <Gold.Protein.ActiveResidues>
 VAL166  LYS551  ARG553  GLY616  TRP617  ASP618  TYR619  PRO620  LYS621  CYS622 
 ASP623  PHE694  ASN695  SER759  ASP760  ASP761  ALA762  ILE779  LEU786  VAL792 
 PHE793  MET794  SER795  GLU796  ALA797  LYS798  CYS799  TRP800  GLU811  SER814 

> <Gold.Protein.RotatedAtoms>
  150.7173  134.0664  159.3848 H   0  0  0  0  0  0  0  0  0  0  0  0  # atno 6907 bound_to 6896
  151.8645  135.0510  160.0482 H   0  0  0  0  0  0  0  0  0  0  0  0  # atno 6908 bound_to 6896
  152.2691  133.5331  159.5465 H   0  0  0  0  0  0  0  0  0  0  0  0  # atno 6909 bound_to 6896
  144.7129  140.1377  143.6394 H   0  0  0  0  0  0  0  0  0  0  0  0  # atno 7974 bound_to 7965
  155.2330  140.3340  155.4301 H   0  0  0  0  0  0  0  0  0  0  0  0  # atno 8008 bound_to 7997
  156.2287  140.1841  156.7344 H   0  0  0  0  0  0  0  0  0  0  0  0  # atno 8009 bound_to 7997
  154.5941  140.0633  156.9265 H   0  0  0  0  0  0  0  0  0  0  0  0  # atno 8010 bound_to 7997
  140.6614  143.7293  150.7746 H   0  0  0  0  0  0  0  0  0  0  0  0  # atno 10167 bound_to 10162
  156.2573  130.4193  149.8581 H   0  0  0  0  0  0  0  0  0  0  0  0  # atno 10718 bound_to 10713
  154.7860  135.3190  154.7885 H   0  0  0  0  0  0  0  0  0  0  0  0  # atno 10763 bound_to 10752
  153.8585  135.6855  153.4789 H   0  0  0  0  0  0  0  0  0  0  0  0  # atno 10764 bound_to 10752
  153.1512  135.4698  154.9578 H   0  0  0  0  0  0  0  0  0  0  0  0  # atno 10765 bound_to 10752
  139.9633  134.9597  156.9193 H   0  0  0  0  0  0  0  0  0  0  0  0  # atno 11005 bound_to 11000
  145.9230  139.2558  143.1370 LP  0  0  0  0  0  0  0  0  0  0  0  0  # atno 17320 bound_to 7965
  145.9601  140.8842  143.0215 LP  0  0  0  0  0  0  0  0  0  0  0  0  # atno 17321 bound_to 7965
  140.0962  143.4831  152.2451 LP  0  0  0  0  0  0  0  0  0  0  0  0  # atno 17342 bound_to 10162
  139.5850  144.7527  151.3544 LP  0  0  0  0  0  0  0  0  0  0  0  0  # atno 17343 bound_to 10162
  156.6109  130.8586  151.3454 LP  0  0  0  0  0  0  0  0  0  0  0  0  # atno 17370 bound_to 10713
  157.7237  130.9593  150.1546 LP  0  0  0  0  0  0  0  0  0  0  0  0  # atno 17371 bound_to 10713
  140.5453  134.0680  155.7353 LP  0  0  0  0  0  0  0  0  0  0  0  0  # atno 17394 bound_to 11000
  141.1311  133.9300  157.2533 LP  0  0  0  0  0  0  0  0  0  0  0  0  # atno 17395 bound_to 11000

$$$$
