AV-unprocessed.smi:1509|AV-procd|sdf|6092|dock2
  -GOLD-   22720 6223D 1   1.00000     0.00000
 Structure written by MMmdl.
 42 43  0  0  0  0  0  0  0  0  2 V2000
  152.8401  143.1104  161.0842 C   0  0  0  0  0  0  0  0  0  0  0  0
  152.6684  143.9547  159.8091 C   0  0  2  0  0  0  0  0  0  0  0  0
  151.8068  145.2106  160.0357 C   0  0  0  0  0  0  0  0  0  0  0  0
  150.3213  144.8489  160.1720 C   0  0  0  0  0  0  0  0  0  0  0  0
  149.8468  144.0055  158.9780 C   0  0  0  0  0  0  0  0  0  0  0  0
  150.6795  142.7854  158.8176 N   0  3  1  0  0  0  0  0  0  0  0  0
  150.1499  141.8795  157.7667 C   0  0  0  0  0  0  0  0  0  0  0  0
  150.5693  142.3105  156.3508 C   0  0  0  0  0  0  0  0  0  0  0  0
  150.0459  141.3482  155.2711 C   0  0  0  0  0  0  0  0  0  0  0  0
  150.5294  139.9877  155.4775 N   0  0  0  0  0  0  0  0  0  0  0  0
  151.8048  139.5949  155.3324 C   0  0  0  0  0  0  0  0  0  0  0  0
  152.7107  140.3517  154.9839 O   0  0  0  0  0  0  0  0  0  0  0  0
  152.1075  138.1256  155.6273 C   0  0  0  0  0  0  0  0  0  0  0  0
  151.7920  137.7976  157.0045 N   0  0  0  0  0  0  0  0  0  0  0  0
  151.4141  138.5693  158.0258 C   0  0  0  0  0  0  0  0  0  0  0  0
  151.2310  137.8631  159.1311 N   0  0  0  0  0  0  0  0  0  0  0  0
  151.5253  136.5704  158.7306 N   0  0  0  0  0  0  0  0  0  0  0  0
  151.8587  136.5253  157.4698 N   0  0  0  0  0  0  0  0  0  0  0  0
  152.1167  143.1252  158.6308 C   0  0  0  0  0  0  0  0  0  0  0  0
  151.8929  142.6982  161.4320 H   0  0  0  0  0  0  0  0  0  0  0  0
  153.2599  143.7067  161.8947 H   0  0  0  0  0  0  0  0  0  0  0  0
  153.5177  142.2739  160.9103 H   0  0  0  0  0  0  0  0  0  0  0  0
  153.6670  144.2939  159.5303 H   0  0  0  0  0  0  0  0  0  0  0  0
  152.1471  145.7560  160.9164 H   0  0  0  0  0  0  0  0  0  0  0  0
  151.9313  145.8885  159.1901 H   0  0  0  0  0  0  0  0  0  0  0  0
  150.1539  144.3010  161.0998 H   0  0  0  0  0  0  0  0  0  0  0  0
  149.7243  145.7585  160.2435 H   0  0  0  0  0  0  0  0  0  0  0  0
  148.8045  143.7254  159.1351 H   0  0  0  0  0  0  0  0  0  0  0  0
  149.8822  144.5953  158.0606 H   0  0  0  0  0  0  0  0  0  0  0  0
  150.5367  140.8735  157.9366 H   0  0  0  0  0  0  0  0  0  0  0  0
  149.0641  141.8091  157.8475 H   0  0  0  0  0  0  0  0  0  0  0  0
  150.2045  143.3140  156.1331 H   0  0  0  0  0  0  0  0  0  0  0  0
  151.6578  142.3597  156.3010 H   0  0  0  0  0  0  0  0  0  0  0  0
  148.9547  141.3538  155.2478 H   0  0  0  0  0  0  0  0  0  0  0  0
  150.3782  141.6785  154.2866 H   0  0  0  0  0  0  0  0  0  0  0  0
  149.8489  139.2996  155.7668 H   0  0  0  0  0  0  0  0  0  0  0  0
  151.5288  137.4766  154.9688 H   0  0  0  0  0  0  0  0  0  0  0  0
  153.1619  137.9176  155.4384 H   0  0  0  0  0  0  0  0  0  0  0  0
  151.2766  139.6388  157.9608 H   0  0  0  0  0  0  0  0  0  0  0  0
  152.2304  143.6861  157.7015 H   0  0  0  0  0  0  0  0  0  0  0  0
  152.7149  142.2217  158.5192 H   0  0  0  0  0  0  0  0  0  0  0  0
  150.6070  142.2821  159.6903 H   0  0  0  0  0  0  0  0  0  0  0  0
  1  2  1  0  0  0  0
  1 20  1  0  0  0  0
  1 21  1  0  0  0  0
  1 22  1  0  0  0  0
  2 19  1  0  0  0  0
  2  3  1  0  0  0  0
  2 23  1  0  0  0  0
  3  4  1  0  0  0  0
  3 24  1  0  0  0  0
  3 25  1  0  0  0  0
  4  5  1  0  0  0  0
  4 26  1  0  0  0  0
  4 27  1  0  0  0  0
  5  6  1  0  0  0  0
  5 28  1  0  0  0  0
  5 29  1  0  0  0  0
  6  7  1  0  0  0  0
  6 19  1  0  0  0  0
  6 42  1  0  0  0  0
  7  8  1  0  0  0  0
  7 30  1  0  0  0  0
  7 31  1  0  0  0  0
  8  9  1  0  0  0  0
  8 32  1  0  0  0  0
  8 33  1  0  0  0  0
  9 10  1  0  0  0  0
  9 34  1  0  0  0  0
  9 35  1  0  0  0  0
 10 11  1  0  0  0  0
 10 36  1  0  0  0  0
 11 12  2  0  0  0  0
 11 13  1  0  0  0  0
 13 14  1  0  0  0  0
 13 37  1  0  0  0  0
 13 38  1  0  0  0  0
 14 18  1  0  0  0  0
 14 15  1  0  0  0  0
 15 16  2  0  0  0  0
 15 39  1  0  0  0  0
 16 17  1  0  0  0  0
 17 18  2  0  0  0  0
 19 40  1  0  0  0  0
 19 41  1  0  0  0  0
M  CHG  1   6   1
M  END
> <s_m_source_file>
AV-unprocessed.smi

> <i_m_source_file_index>
1509

> <i_lp_mmshare_version>
43012

> <i_f3d_flags>
0

> <s_epik_input>
W0NIM11bQ0BASF0xW0NIMl1bQ0gyXVtDSDJdTihbQ0gyXTEpW0NIMl1bQ0gyXVtDSDJdW05IXUMoPU8pW0NIMl1uMltjSF1ubm4y

> <s_epik_cmdline>
J2VwaWtfcHl0aG9uJywgJy1waCcsICc3LjAnLCAnLXRuJywgJzgnLCAnLW1hJywgJzIwMCcsICctbWV0YWxfYmluZGluZycsICctaW1hZScsICc8aW5maWxlLm1hZT4nLCAnLW9tYWUnLCAnPG91dGZpbGUubWFlPic=

> <r_lp_tautomer_probability>
1

> <r_epik_Ionization_Penalty>
0.00044216

> <r_epik_Ionization_Penalty_Charging>
0.000440775

> <r_epik_Ionization_Penalty_Neutral>
1.38512e-06

> <r_epik_State_Penalty>
0.000271914

> <r_epik_Charging_Adjusted_Penalty>
0.000712689

> <i_epik_Tot_Q>
1

> <i_epik_Tot_abs_Q>
1

> <r_epik_Metal_State_Penalty>
-0

> <b_epik_Metal_Only>
0

> <s_lp_Force_Field>
OPLS_2005

> <r_lp_Energy>
22.816

> <b_lp_Chiralities_Consistent>
1

> <s_lp_Variant>
AV-unprocessed.smi:1509-3

> <Gold.Version>
5.8.1

> <Gold.Id.Protein>
6NUR|6NUR_protein|mol2

> <Gold.PLP.Fitness>
43.1619

> <Gold.PLP.PLP>
-36.7075

> <Gold.PLP.part.hbond>
-4.1544

> <Gold.PLP.part.metal>
0.0000

> <Gold.PLP.part.buried>
-4.6543

> <Gold.PLP.part.nonpolar>
-27.3884

> <Gold.PLP.part.repulsive>
0.1789

> <Gold.PLP.ligand.clash>
0.0000

> <Gold.PLP.ligand.torsion>
0.2403

> <Gold.PLP.Chemscore.Hbond>
2.2836

> <Gold.PLP.Chemscore.CHOScore>
0.0000

> <Gold.PLP.Chemscore.Metal>
0.0000

> <Gold.Chemscore.Hbonds>
donor molecule, donor type, donor heavy atom, donor atom, acceptor molecule, acceptor atom, score
      P1  H  6896  6908       L1    17  0.69
      P1  H  7989  7998       L1    12  0.18
      P1  H  7997  8010       L1    12  1.00

> <Gold.PLP.Chemscore.Internal.Correction>
0.0842

> <Gold.Rescore>
     Score         DG    S(hbond)    S(metal)    S(lipo)     H(rot)  DE(clash)    DE(int)     intcor
     13.72     -14.45       1.79        0.00      90.47       2.97       0.28       0.44       ----

> <Gold.Chemscore.Fitness>
13.7231

> <Gold.Chemscore.DG>
-14.4460

> <Gold.Chemscore.ZeroCoef>
-5.4800

> <Gold.Chemscore.Hbond>
1.7902

> <Gold.Chemscore.Metal>
0.0000

> <Gold.Chemscore.Lipo>
90.4661

> <Gold.Chemscore.Internal_Hbond>
0.0000

> <Gold.Chemscore.DEClash>
0.2833

> <Gold.Chemscore.DEInternal>
0.4396

> <Gold.Chemscore.Rot>
2.9680

> <Gold.Chemscore.Internal.Correction>
   9.000000E+99

> <Gold.Chemscore.Hbonds>
donor molecule, donor type, donor heavy atom, donor atom, acceptor molecule, acceptor atom, score
      P1  H  6896  6908       L1    17  0.69
      P1  H  7989  7998       L1    12  0.01
      P1  H  7997  8010       L1    12  0.92

> <Gold.Chemscore.Hbond.Weighted>
-5.9794

> <Gold.Chemscore.Metal.Weighted>
-0.0000

> <Gold.Chemscore.Lipo.Weighted>
-10.5845

> <Gold.Chemscore.Internal_Hbond.Weighted>
0.0000

> <Gold.Chemscore.DEClash.Weighted>
0.2833

> <Gold.Chemscore.DEInternal.Weighted>
0.4396

> <Gold.Chemscore.Rot.Weighted>
7.5980

> <Gold.Chemscore.Internal.Correction.Weighted>
   9.000000E+99

> <Gold.Protein.RotatedTorsions>
[ 6907 6896 6895 6894 ] final -148.40 input  -60.11 | X-H torsion
[ 7974 7965 7964 7962 ] final  156.40 input  175.53 | X-H torsion
[ 8008 7997 7996 7995 ] final  100.02 input   59.86 | X-H torsion
[ 10167 10162 10161 10158 ] final   90.46 input  -65.29 | X-H torsion
[ 10718 10713 10712 10709 ] final  145.44 input   66.30 | X-H torsion
[ 10763 10752 10751 10750 ] final  -61.13 input  -60.55 | X-H torsion
[ 11005 11000 10999 10996 ] final -123.80 input  -57.11 | X-H torsion

> <Gold.Protein.ActiveResidues>
 VAL166  LYS551  ARG553  GLY616  TRP617  ASP618  TYR619  PRO620  LYS621  CYS622 
 ASP623  PHE694  ASN695  SER759  ASP760  ASP761  ALA762  ILE779  LEU786  VAL792 
 PHE793  MET794  SER795  GLU796  ALA797  LYS798  CYS799  TRP800  GLU811  SER814 

> <Gold.Protein.RotatedAtoms>
  151.1692  133.4795  159.2593 H   0  0  0  0  0  0  0  0  0  0  0  0  # atno 6907 bound_to 6896
  151.1373  135.0161  159.8620 H   0  0  0  0  0  0  0  0  0  0  0  0  # atno 6908 bound_to 6896
  152.5461  134.1589  159.8603 H   0  0  0  0  0  0  0  0  0  0  0  0  # atno 6909 bound_to 6896
  144.7965  139.7199  143.6200 H   0  0  0  0  0  0  0  0  0  0  0  0  # atno 7974 bound_to 7965
  156.1162  140.3220  155.8142 H   0  0  0  0  0  0  0  0  0  0  0  0  # atno 8008 bound_to 7997
  155.4586  140.0537  157.3010 H   0  0  0  0  0  0  0  0  0  0  0  0  # atno 8009 bound_to 7997
  154.4794  140.2046  155.9813 H   0  0  0  0  0  0  0  0  0  0  0  0  # atno 8010 bound_to 7997
  139.8471  144.6612  150.9214 H   0  0  0  0  0  0  0  0  0  0  0  0  # atno 10167 bound_to 10162
  157.3452  131.0942  151.1048 H   0  0  0  0  0  0  0  0  0  0  0  0  # atno 10718 bound_to 10713
  154.2798  135.6274  153.5342 H   0  0  0  0  0  0  0  0  0  0  0  0  # atno 10763 bound_to 10752
  152.9867  135.5630  154.5508 H   0  0  0  0  0  0  0  0  0  0  0  0  # atno 10764 bound_to 10752
  154.5096  135.2876  155.1329 H   0  0  0  0  0  0  0  0  0  0  0  0  # atno 10765 bound_to 10752
  140.9891  134.0564  157.3676 H   0  0  0  0  0  0  0  0  0  0  0  0  # atno 11005 bound_to 11000
  146.2235  139.5679  142.9603 LP  0  0  0  0  0  0  0  0  0  0  0  0  # atno 17320 bound_to 7965
  145.5660  141.0399  143.2200 LP  0  0  0  0  0  0  0  0  0  0  0  0  # atno 17321 bound_to 7965
  140.7792  143.3860  151.1392 LP  0  0  0  0  0  0  0  0  0  0  0  0  # atno 17342 bound_to 10162
  139.7502  143.8791  152.3074 LP  0  0  0  0  0  0  0  0  0  0  0  0  # atno 17343 bound_to 10162
  157.2245  130.6496  149.5824 LP  0  0  0  0  0  0  0  0  0  0  0  0  # atno 17370 bound_to 10713
  155.9713  130.4618  150.6124 LP  0  0  0  0  0  0  0  0  0  0  0  0  # atno 17371 bound_to 10713
  139.8984  135.0154  156.7146 LP  0  0  0  0  0  0  0  0  0  0  0  0  # atno 17394 bound_to 11000
  140.7068  133.9258  155.8059 LP  0  0  0  0  0  0  0  0  0  0  0  0  # atno 17395 bound_to 11000

$$$$
