AV-unprocessed.smi:1900|AV-procd|sdf|7714|dock2
  -GOLD-   22720 9453D 1   1.00000     0.00000
 Structure written by MMmdl.
 43 44  0  0  0  0  0  0  0  0  1 V2000
  151.3211  142.2071  157.3225 C   0  0  0  0  0  0  0  0  0  0  0  0
  150.5535  141.0952  156.5998 C   0  0  1  0  0  0  0  0  0  0  0  0
  149.5388  141.6536  155.5844 C   0  0  0  0  0  0  0  0  0  0  0  0
  148.8616  140.5944  154.8448 N   0  0  0  0  0  0  0  0  0  0  0  0
  147.9038  141.1559  153.8932 C   0  0  0  0  0  0  0  0  0  0  0  0
  146.9199  140.1443  153.2806 C   0  0  0  0  0  0  0  0  0  0  0  0
  146.8814  138.8280  154.0729 C   0  0  0  0  0  0  0  0  0  0  0  0
  146.9380  137.6676  153.1909 N   0  0  0  0  0  0  0  0  0  0  0  0
  145.8702  137.0242  152.6978 C   0  0  0  0  0  0  0  0  0  0  0  0
  144.7080  137.3427  152.9492 O   0  0  0  0  0  0  0  0  0  0  0  0
  146.2375  136.0037  151.9059 N   0  0  0  0  0  0  0  0  0  0  0  0
  145.3866  135.1239  151.1911 C   0  0  0  0  0  0  0  0  0  0  0  0
  145.6226  133.7813  150.7727 C   0  0  0  0  0  0  0  0  0  0  0  0
  144.5749  133.2894  150.1265 N   0  0  0  0  0  0  0  0  0  0  0  0
  143.6764  134.2996  150.1289 N   0  0  0  0  0  0  0  0  0  0  0  0
  144.1295  135.4339  150.7655 C   0  0  0  0  0  0  0  0  0  0  0  0
  149.8666  139.7527  154.1993 C   0  0  0  0  0  0  0  0  0  0  0  0
  150.8888  139.1939  155.2084 C   0  0  1  0  0  0  0  0  0  0  0  0
  151.9965  138.3860  154.5240 C   0  0  0  0  0  0  0  0  0  0  0  0
  151.4939  140.2760  155.9109 O   0  0  0  0  0  0  0  0  0  0  0  0
  142.7686  134.2001  149.6970 H   0  0  0  0  0  0  0  0  0  0  0  0
  150.6419  142.8561  157.8760 H   0  0  0  0  0  0  0  0  0  0  0  0
  151.8765  142.8261  156.6169 H   0  0  0  0  0  0  0  0  0  0  0  0
  152.0347  141.7896  158.0330 H   0  0  0  0  0  0  0  0  0  0  0  0
  150.0323  140.4887  157.3426 H   0  0  0  0  0  0  0  0  0  0  0  0
  148.8030  142.2630  156.1108 H   0  0  0  0  0  0  0  0  0  0  0  0
  150.0517  142.3188  154.8877 H   0  0  0  0  0  0  0  0  0  0  0  0
  147.3133  141.9184  154.4034 H   0  0  0  0  0  0  0  0  0  0  0  0
  148.4376  141.6759  153.0963 H   0  0  0  0  0  0  0  0  0  0  0  0
  145.9148  140.5641  153.2476 H   0  0  0  0  0  0  0  0  0  0  0  0
  147.2084  139.9429  152.2480 H   0  0  0  0  0  0  0  0  0  0  0  0
  147.6985  138.7915  154.7955 H   0  0  0  0  0  0  0  0  0  0  0  0
  145.9573  138.7694  154.6484 H   0  0  0  0  0  0  0  0  0  0  0  0
  147.8559  137.3360  152.9329 H   0  0  0  0  0  0  0  0  0  0  0  0
  147.2282  135.8483  151.7922 H   0  0  0  0  0  0  0  0  0  0  0  0
  146.4914  133.1546  150.9085 H   0  0  0  0  0  0  0  0  0  0  0  0
  143.5352  136.3312  150.8566 H   0  0  0  0  0  0  0  0  0  0  0  0
  149.3880  138.9159  153.6918 H   0  0  0  0  0  0  0  0  0  0  0  0
  150.3898  140.3266  153.4325 H   0  0  0  0  0  0  0  0  0  0  0  0
  150.3778  138.5493  155.9258 H   0  0  0  0  0  0  0  0  0  0  0  0
  151.5835  137.5371  153.9786 H   0  0  0  0  0  0  0  0  0  0  0  0
  152.7043  137.9975  155.2565 H   0  0  0  0  0  0  0  0  0  0  0  0
  152.5536  139.0005  153.8162 H   0  0  0  0  0  0  0  0  0  0  0  0
  1  2  1  0  0  0  0
  1 22  1  0  0  0  0
  1 23  1  0  0  0  0
  1 24  1  0  0  0  0
  2 20  1  0  0  0  0
  2  3  1  0  0  0  0
  2 25  1  0  0  0  0
  3  4  1  0  0  0  0
  3 26  1  0  0  0  0
  3 27  1  0  0  0  0
  4  5  1  0  0  0  0
  4 17  1  0  0  0  0
  5  6  1  0  0  0  0
  5 28  1  0  0  0  0
  5 29  1  0  0  0  0
  6  7  1  0  0  0  0
  6 30  1  0  0  0  0
  6 31  1  0  0  0  0
  7  8  1  0  0  0  0
  7 32  1  0  0  0  0
  7 33  1  0  0  0  0
  8  9  1  0  0  0  0
  8 34  1  0  0  0  0
  9 10  2  0  0  0  0
  9 11  1  0  0  0  0
 11 12  1  0  0  0  0
 11 35  1  0  0  0  0
 12 16  2  0  0  0  0
 12 13  1  0  0  0  0
 13 14  2  0  0  0  0
 13 36  1  0  0  0  0
 14 15  1  0  0  0  0
 15 21  1  0  0  0  0
 15 16  1  0  0  0  0
 16 37  1  0  0  0  0
 17 18  1  0  0  0  0
 17 38  1  0  0  0  0
 17 39  1  0  0  0  0
 18 19  1  0  0  0  0
 18 20  1  0  0  0  0
 18 40  1  0  0  0  0
 19 41  1  0  0  0  0
 19 42  1  0  0  0  0
 19 43  1  0  0  0  0
M  END
> <s_m_source_file>
AV-unprocessed.smi

> <i_m_source_file_index>
1900

> <i_lp_mmshare_version>
43012

> <i_f3d_flags>
0

> <s_epik_input>
W0NIM11bQ0BASF0xW0NIMl1OKFtDSDJdW0NASF0oTzEpW0NIM10pW0NIMl1bQ0gyXVtDSDJdW05IXUMoPU8pW05IXWMyW2NIXW5bbkhdW2NIXTI=

> <s_epik_cmdline>
J2VwaWtfcHl0aG9uJywgJy1waCcsICc3LjAnLCAnLXRuJywgJzgnLCAnLW1hJywgJzIwMCcsICctbWV0YWxfYmluZGluZycsICctaW1hZScsICc8aW5maWxlLm1hZT4nLCAnLW9tYWUnLCAnPG91dGZpbGUubWFlPic=

> <r_lp_tautomer_probability>
0.5

> <r_epik_Ionization_Penalty>
0.594715

> <r_epik_Ionization_Penalty_Charging>
0

> <r_epik_Ionization_Penalty_Neutral>
0.594715

> <r_epik_State_Penalty>
0.608529

> <r_epik_Charging_Adjusted_Penalty>
0.608529

> <i_epik_Tot_Q>
0

> <i_epik_Tot_abs_Q>
0

> <r_epik_Metal_State_Penalty>
0.608528

> <b_epik_Metal_Only>
0

> <s_lp_Force_Field>
OPLS_2005

> <r_lp_Energy>
22.5064

> <b_lp_Chiralities_Consistent>
1

> <s_lp_Variant>
AV-unprocessed.smi:1900-6

> <Gold.Version>
5.8.1

> <Gold.Id.Protein>
6NUR|6NUR_protein|mol2

> <Gold.PLP.Fitness>
43.6487

> <Gold.PLP.PLP>
-33.7026

> <Gold.PLP.part.hbond>
-3.0000

> <Gold.PLP.part.metal>
0.0000

> <Gold.PLP.part.buried>
-3.4666

> <Gold.PLP.part.nonpolar>
-27.9731

> <Gold.PLP.part.repulsive>
0.5817

> <Gold.PLP.ligand.clash>
0.0000

> <Gold.PLP.ligand.torsion>
1.0414

> <Gold.PLP.Chemscore.Hbond>
2.9600

> <Gold.PLP.Chemscore.CHOScore>
1.0000

> <Gold.PLP.Chemscore.Metal>
0.0000

> <Gold.Chemscore.Hbonds>
donor molecule, donor type, donor heavy atom, donor atom, acceptor molecule, acceptor atom, score
      L1  H     8    34       P1  7948  0.99
      L1  H    11    35       P1  7948  1.00
      L1  H    15    21       P1 10186  1.00
      L1  C    16    37       P1 10171  1.00

> <Gold.PLP.Chemscore.Internal.Correction>
0.1489

> <Gold.Rescore>
     Score         DG    S(hbond)    S(metal)    S(lipo)     H(rot)  DE(clash)    DE(int)     intcor
     18.12     -20.00       2.94        0.00      81.39       1.88       0.50       1.39       ----

> <Gold.Chemscore.Fitness>
18.1161

> <Gold.Chemscore.DG>
-20.0039

> <Gold.Chemscore.ZeroCoef>
-5.4800

> <Gold.Chemscore.Hbond>
2.9382

> <Gold.Chemscore.Metal>
0.0000

> <Gold.Chemscore.Lipo>
81.3926

> <Gold.Chemscore.Internal_Hbond>
0.0000

> <Gold.Chemscore.DEClash>
0.4969

> <Gold.Chemscore.DEInternal>
1.3910

> <Gold.Chemscore.Rot>
1.8799

> <Gold.Chemscore.Internal.Correction>
   9.000000E+99

> <Gold.Chemscore.Hbonds>
donor molecule, donor type, donor heavy atom, donor atom, acceptor molecule, acceptor atom, score
      L1  H     8    34       P1  7948  0.94
      L1  H    11    35       P1  7948  0.99
      L1  H    15    21       P1 10186  0.98

> <Gold.Chemscore.Hbond.Weighted>
-9.8136

> <Gold.Chemscore.Metal.Weighted>
-0.0000

> <Gold.Chemscore.Lipo.Weighted>
-9.5229

> <Gold.Chemscore.Internal_Hbond.Weighted>
0.0000

> <Gold.Chemscore.DEClash.Weighted>
0.4969

> <Gold.Chemscore.DEInternal.Weighted>
1.3910

> <Gold.Chemscore.Rot.Weighted>
4.8126

> <Gold.Chemscore.Internal.Correction.Weighted>
   9.000000E+99

> <Gold.Protein.RotatedTorsions>
[ 6907 6896 6895 6894 ] final  -23.23 input  -60.11 | X-H torsion
[ 7974 7965 7964 7962 ] final  -58.33 input  175.53 | X-H torsion
[ 8008 7997 7996 7995 ] final -172.31 input   59.86 | X-H torsion
[ 10167 10162 10161 10158 ] final   30.24 input  -65.29 | X-H torsion
[ 10718 10713 10712 10709 ] final -114.16 input   66.30 | X-H torsion
[ 10763 10752 10751 10750 ] final -159.56 input  -60.55 | X-H torsion
[ 11005 11000 10999 10996 ] final  -28.58 input  -57.11 | X-H torsion

> <Gold.Protein.ActiveResidues>
 VAL166  LYS551  ARG553  GLY616  TRP617  ASP618  TYR619  PRO620  LYS621  CYS622 
 ASP623  PHE694  ASN695  SER759  ASP760  ASP761  ALA762  ILE779  LEU786  VAL792 
 PHE793  MET794  SER795  GLU796  ALA797  LYS798  CYS799  TRP800  GLU811  SER814 

> <Gold.Protein.RotatedAtoms>
  151.2070  135.0466  159.8895 H   0  0  0  0  0  0  0  0  0  0  0  0  # atno 6907 bound_to 6896
  152.5428  134.0787  159.8236 H   0  0  0  0  0  0  0  0  0  0  0  0  # atno 6908 bound_to 6896
  151.0935  133.5250  159.2645 H   0  0  0  0  0  0  0  0  0  0  0  0  # atno 6909 bound_to 6896
  145.8405  140.8420  143.0037 H   0  0  0  0  0  0  0  0  0  0  0  0  # atno 7974 bound_to 7965
  155.9429  140.1112  157.1040 H   0  0  0  0  0  0  0  0  0  0  0  0  # atno 8008 bound_to 7997
  154.4093  140.1215  156.5017 H   0  0  0  0  0  0  0  0  0  0  0  0  # atno 8009 bound_to 7997
  155.6939  140.3472  155.4907 H   0  0  0  0  0  0  0  0  0  0  0  0  # atno 8010 bound_to 7997
  140.4695  144.0784  150.6233 H   0  0  0  0  0  0  0  0  0  0  0  0  # atno 10167 bound_to 10162
  156.0812  130.6012  150.8739 H   0  0  0  0  0  0  0  0  0  0  0  0  # atno 10718 bound_to 10713
  154.7464  135.3081  154.8636 H   0  0  0  0  0  0  0  0  0  0  0  0  # atno 10763 bound_to 10752
  153.9436  135.6772  153.4748 H   0  0  0  0  0  0  0  0  0  0  0  0  # atno 10764 bound_to 10752
  153.1061  135.4888  154.8880 H   0  0  0  0  0  0  0  0  0  0  0  0  # atno 10765 bound_to 10752
  140.9221  133.7392  156.0816 H   0  0  0  0  0  0  0  0  0  0  0  0  # atno 11005 bound_to 11000
  144.6734  140.0806  143.7469 LP  0  0  0  0  0  0  0  0  0  0  0  0  # atno 17320 bound_to 7965
  145.9470  139.2707  143.1235 LP  0  0  0  0  0  0  0  0  0  0  0  0  # atno 17321 bound_to 7965
  140.3994  143.2711  151.9966 LP  0  0  0  0  0  0  0  0  0  0  0  0  # atno 17342 bound_to 10162
  139.4816  144.6010  151.7605 LP  0  0  0  0  0  0  0  0  0  0  0  0  # atno 17343 bound_to 10162
  157.5930  131.0944  150.9087 LP  0  0  0  0  0  0  0  0  0  0  0  0  # atno 17370 bound_to 10713
  156.9260  130.5332  149.5279 LP  0  0  0  0  0  0  0  0  0  0  0  0  # atno 17371 bound_to 10713
  140.7974  134.3548  157.5449 LP  0  0  0  0  0  0  0  0  0  0  0  0  # atno 17394 bound_to 11000
  139.8777  134.9177  156.3184 LP  0  0  0  0  0  0  0  0  0  0  0  0  # atno 17395 bound_to 11000

$$$$
