#       Name:                AV-unprocessed.smi:2085
#       Creating user name   scv26
#       Creation time:       Fri Mar 27 11:23:15 2020


#       File generated by GOLD software.
#

@<TRIPOS>MOLECULE
AV-unprocessed.smi:2085
    37    38     1
SMALL
NO_CHARGES


@<TRIPOS>ATOM
      1 ****        -2.0743   3.6802  -0.2876 C.3            1 S1                 0.0000
      2 ****        -1.3213   2.4886  -0.0875 O.3            1 S1                 0.0000
      3 ****         0.0540   2.5853   0.0090 C.ar           1 S1                 0.0000
      4 ****         0.6224   3.8132  -0.0921 N.ar           1 S1                 0.0000
      5 ****         1.9647   3.9096  -0.0042 C.ar           1 S1                 0.0000
      6 ****         2.8059   2.7977   0.1814 C.ar           1 S1                 0.0000
      7 ****         2.2193   1.5230   0.2865 C.ar           1 S1                 0.0000
      8 ****         0.8099   1.4065   0.2105 C.ar           1 S1                 0.0000
      9 ****         0.1137   0.1677   0.2827 N.am           1 S1                 0.0000
     10 ****         0.5193  -1.0053   0.8040 C.2            1 S1                 0.0000
     11 ****         1.5956  -1.1775   1.3756 O.2            1 S1                 0.0000
     12 ****        -0.4771  -2.1701   0.7056 C.3            1 S1                 0.0000
     13 ****         0.1809  -3.5382   0.4794 C.3            1 S1                 0.0000
     14 ****        -0.8610  -4.2629  -0.3428 C.3            1 S1                 0.0000
     15 ****        -1.3928  -3.1389  -1.2222 C.3            1 S1                 0.0000
     16 ****        -1.3609  -1.9759  -0.4024 O.3            1 S1                 0.0000
     17 ****        -3.1341   3.4317  -0.3405 H              1 S1                 0.0000
     18 ****        -1.8033   4.1718  -1.2229 H              1 S1                 0.0000
     19 ****        -1.9398   4.3808   0.5379 H              1 S1                 0.0000
     20 ****         2.3814   4.9021  -0.0915 H              1 S1                 0.0000
     21 ****         3.8777   2.9187   0.2359 H              1 S1                 0.0000
     22 ****         2.8618   0.6649   0.4065 H              1 S1                 0.0000
     23 ****        -0.8339   0.1850  -0.0671 H              1 S1                 0.0000
     24 ****        -1.0831  -2.1965   1.6121 H              1 S1                 0.0000
     25 ****         1.1051  -3.4469  -0.0944 H              1 S1                 0.0000
     26 ****         0.4098  -4.0546   1.4121 H              1 S1                 0.0000
     27 ****        -0.4541  -5.0975  -0.9144 H              1 S1                 0.0000
     28 ****        -1.6532  -4.6420   0.3042 H              1 S1                 0.0000
     29 ****        -0.7348  -2.9821  -2.0779 H              1 S1                 0.0000
     30 ****        -2.3971  -3.3370  -1.5969 H              1 S1                 0.0000
     31 ****        -1.5212   1.8806  -0.8559 LP             1 S1                 0.0000
     32 ****        -1.6481   2.0719   0.7609 LP             1 S1                 0.0000
     33 ****         0.0589   4.6279  -0.2286 LP             1 S1                 0.0000
     34 ****         2.2354  -0.4158   1.4769 LP             1 S1                 0.0000
     35 ****         1.8302  -2.0792   1.7388 LP             1 S1                 0.0000
     36 ****        -1.0426  -1.1988  -0.9453 LP             1 S1                 0.0000
     37 ****        -2.2818  -1.7887  -0.0603 LP             1 S1                 0.0000
@<TRIPOS>BOND
    1    1    2 1     
    2    1   17 1     
    3    1   18 1     
    4    1   19 1     
    5    2    3 1     
    6    3    8 ar    
    7    3    4 ar    
    8    4    5 ar    
    9    5    6 ar    
   10    5   20 1     
   11    6    7 ar    
   12    6   21 1     
   13    7    8 ar    
   14    7   22 1     
   15    8    9 1     
   16    9   10 am    
   17    9   23 1     
   18   10   11 2     
   19   10   12 1     
   20   12   16 1     
   21   12   13 1     
   22   12   24 1     
   23   13   14 1     
   24   13   25 1     
   25   13   26 1     
   26   14   15 1     
   27   14   27 1     
   28   14   28 1     
   29   15   16 1     
   30   15   29 1     
   31   15   30 1     
   32    2   31 1     
   33    2   32 1     
   34    4   33 1     
   35   11   34 1     
   36   11   35 1     
   37   16   36 1     
   38   16   37 1     
@<TRIPOS>SUBSTRUCTURE
      1 S1             1
@<TRIPOS>SET
LONE_PAIRS      STATIC     ATOMS    <user>   **** ""
7 31 32 33 34 35 36 37
DONOR_HYDROGENS      STATIC     ATOMS    <user>   **** ""
1 23
ATOM$BLUE        STATIC     ATOMS    COLORGROUP SYSTEM
7 31 32 33 34 35 36 37
ATOM$RED        STATIC     ATOMS    COLORGROUP SYSTEM
1 23
