AV-unprocessed.smi:594|AV-procd|sdf|3016|dock8
  -GOLD-   2262023523D 1   1.00000     0.00000
 Structure written by MMmdl.
 40 41  0  0  0  0  0  0  0  0  3 V2000
  153.3145  141.4047  161.1766 C   0  0  0  0  0  0  0  0  0  0  0  0
  153.1263  142.7740  160.5008 C   0  0  2  0  0  0  0  0  0  0  0  0
  151.9897  143.5806  161.1627 C   0  0  0  0  0  0  0  0  0  0  0  0
  151.8433  144.9743  160.5308 C   0  0  0  0  0  0  0  0  0  0  0  0
  151.6301  144.8803  159.0127 C   0  0  0  0  0  0  0  0  0  0  0  0
  152.7561  144.0753  158.3403 C   0  0  0  0  0  0  0  0  0  0  0  0
  152.9288  142.6763  158.9656 C   0  0  2  0  0  0  0  0  0  0  0  0
  151.7849  141.8309  158.6163 N   0  0  0  0  0  0  0  0  0  0  0  0
  151.8188  140.7276  157.8531 C   0  0  0  0  0  0  0  0  0  0  0  0
  152.8499  140.2891  157.3412 O   0  0  0  0  0  0  0  0  0  0  0  0
  150.4745  140.0100  157.6658 C   0  0  0  0  0  0  0  0  0  0  0  0
  150.5429  138.8710  156.7350 N   0  0  0  0  0  0  0  0  0  0  0  0
  150.1736  137.6105  157.2445 C   0  0  0  0  0  0  0  0  0  0  0  0
  150.2102  136.4947  156.4902 C   0  0  0  0  0  0  0  0  0  0  0  0
  149.8378  135.2070  157.0337 N   0  3  0  0  0  0  0  0  0  0  0  0
  149.8229  134.2346  156.2856 O   0  0  0  0  0  0  0  0  0  0  0  0
  149.5476  135.1242  158.2237 O   0  5  0  0  0  0  0  0  0  0  0  0
  150.6440  136.6263  155.1127 C   0  0  0  0  0  0  0  0  0  0  0  0
  151.0029  137.8287  154.6208 C   0  0  0  0  0  0  0  0  0  0  0  0
  150.9703  139.0405  155.4465 C   0  0  0  0  0  0  0  0  0  0  0  0
  151.3072  140.1397  155.0064 O   0  0  0  0  0  0  0  0  0  0  0  0
  152.4089  140.7997  161.1252 H   0  0  0  0  0  0  0  0  0  0  0  0
  153.5705  141.5213  162.2299 H   0  0  0  0  0  0  0  0  0  0  0  0
  154.1193  140.8415  160.7033 H   0  0  0  0  0  0  0  0  0  0  0  0
  154.0508  143.3296  160.6654 H   0  0  0  0  0  0  0  0  0  0  0  0
  151.0473  143.0385  161.0749 H   0  0  0  0  0  0  0  0  0  0  0  0
  152.1824  143.6865  162.2308 H   0  0  0  0  0  0  0  0  0  0  0  0
  151.0094  145.5054  160.9907 H   0  0  0  0  0  0  0  0  0  0  0  0
  152.7369  145.5645  160.7377 H   0  0  0  0  0  0  0  0  0  0  0  0
  150.6665  144.4127  158.8066 H   0  0  0  0  0  0  0  0  0  0  0  0
  151.5836  145.8809  158.5824 H   0  0  0  0  0  0  0  0  0  0  0  0
  152.5667  143.9896  157.2697 H   0  0  0  0  0  0  0  0  0  0  0  0
  153.6920  144.6272  158.4374 H   0  0  0  0  0  0  0  0  0  0  0  0
  153.8356  142.2458  158.5370 H   0  0  0  0  0  0  0  0  0  0  0  0
  150.8917  142.1093  158.9959 H   0  0  0  0  0  0  0  0  0  0  0  0
  150.1273  139.6732  158.6440 H   0  0  0  0  0  0  0  0  0  0  0  0
  149.7284  140.7349  157.3351 H   0  0  0  0  0  0  0  0  0  0  0  0
  149.8742  137.6184  158.2830 H   0  0  0  0  0  0  0  0  0  0  0  0
  150.6841  135.7623  154.4656 H   0  0  0  0  0  0  0  0  0  0  0  0
  151.3231  137.9035  153.5918 H   0  0  0  0  0  0  0  0  0  0  0  0
  1  2  1  0  0  0  0
  1 22  1  0  0  0  0
  1 23  1  0  0  0  0
  1 24  1  0  0  0  0
  2  7  1  0  0  0  0
  2  3  1  0  0  0  0
  2 25  1  0  0  0  0
  3  4  1  0  0  0  0
  3 26  1  0  0  0  0
  3 27  1  0  0  0  0
  4  5  1  0  0  0  0
  4 28  1  0  0  0  0
  4 29  1  0  0  0  0
  5  6  1  0  0  0  0
  5 30  1  0  0  0  0
  5 31  1  0  0  0  0
  6  7  1  0  0  0  0
  6 32  1  0  0  0  0
  6 33  1  0  0  0  0
  7  8  1  0  0  0  0
  7 34  1  0  0  0  0
  8  9  1  0  0  0  0
  8 35  1  0  0  0  0
  9 10  2  0  0  0  0
  9 11  1  0  0  0  0
 11 12  1  0  0  0  0
 11 36  1  0  0  0  0
 11 37  1  0  0  0  0
 12 20  1  0  0  0  0
 12 13  1  0  0  0  0
 13 14  2  0  0  0  0
 13 38  1  0  0  0  0
 14 15  1  0  0  0  0
 14 18  1  0  0  0  0
 15 16  2  0  0  0  0
 15 17  1  0  0  0  0
 18 19  2  0  0  0  0
 18 39  1  0  0  0  0
 19 20  1  0  0  0  0
 19 40  1  0  0  0  0
 20 21  2  0  0  0  0
M  CHG  1  15   1
M  CHG  1  17  -1
M  END
> <s_m_source_file>
AV-unprocessed.smi

> <i_m_source_file_index>
594

> <i_lp_mmshare_version>
43012

> <i_f3d_flags>
0

> <s_epik_input>
W0NIM11bQ0BASF0xW0NIMl1bQ0gyXVtDSDJdW0NIMl1bQ0BIXTFbTkhdQyg9TylbQ0gyXW4yW2NIXWMoW04rXSg9TylbTy1dKVtjSF1bY0hdYzI9Tw==

> <s_epik_cmdline>
J2VwaWtfcHl0aG9uJywgJy1waCcsICc3LjAnLCAnLXRuJywgJzgnLCAnLW1hJywgJzIwMCcsICctbWV0YWxfYmluZGluZycsICctaW1hZScsICc8aW5maWxlLm1hZT4nLCAnLW9tYWUnLCAnPG91dGZpbGUubWFlPic=

> <r_lp_tautomer_probability>
1

> <r_epik_Ionization_Penalty>
1.91305e-08

> <r_epik_Ionization_Penalty_Charging>
8.35811e-11

> <r_epik_Ionization_Penalty_Neutral>
1.90469e-08

> <r_epik_State_Penalty>
-0

> <r_epik_Charging_Adjusted_Penalty>
8.35811e-11

> <i_epik_Tot_Q>
0

> <i_epik_Tot_abs_Q>
2

> <r_epik_Metal_State_Penalty>
-0

> <b_epik_Metal_Only>
0

> <s_lp_Force_Field>
OPLS_2005

> <r_lp_Energy>
20.6939

> <b_lp_Chiralities_Consistent>
1

> <s_lp_Variant>
AV-unprocessed.smi:594-3

> <Gold.Version>
5.8.1

> <Gold.Id.Protein>
6NUR|6NUR_protein|mol2

> <Gold.PLP.Fitness>
49.1312

> <Gold.PLP.PLP>
-40.4878

> <Gold.PLP.part.hbond>
-3.0000

> <Gold.PLP.part.metal>
0.0000

> <Gold.PLP.part.buried>
-3.2152

> <Gold.PLP.part.nonpolar>
-34.0502

> <Gold.PLP.part.repulsive>
0.1314

> <Gold.PLP.ligand.clash>
0.0000

> <Gold.PLP.ligand.torsion>
0.0519

> <Gold.PLP.Chemscore.Hbond>
2.9120

> <Gold.PLP.Chemscore.CHOScore>
0.0000

> <Gold.PLP.Chemscore.Metal>
0.0000

> <Gold.Chemscore.Hbonds>
donor molecule, donor type, donor heavy atom, donor atom, acceptor molecule, acceptor atom, score
      P1  H  6896  6908       L1    17  1.00
      P1  H  7989  7998       L1    21  1.00
      P1  H  7997  8008       L1    10  0.93

> <Gold.PLP.Chemscore.Internal.Correction>
0.0112

> <Gold.Rescore>
     Score         DG    S(hbond)    S(metal)    S(lipo)     H(rot)  DE(clash)    DE(int)     intcor
     20.33     -23.66       2.97        0.00     104.52       1.55       0.02       3.32       ----

> <Gold.Chemscore.Fitness>
20.3261

> <Gold.Chemscore.DG>
-23.6620

> <Gold.Chemscore.ZeroCoef>
-5.4800

> <Gold.Chemscore.Hbond>
2.9708

> <Gold.Chemscore.Metal>
0.0000

> <Gold.Chemscore.Lipo>
104.5189

> <Gold.Chemscore.Internal_Hbond>
0.0000

> <Gold.Chemscore.DEClash>
0.0189

> <Gold.Chemscore.DEInternal>
3.3170

> <Gold.Chemscore.Rot>
1.5505

> <Gold.Chemscore.Internal.Correction>
   9.000000E+99

> <Gold.Chemscore.Hbonds>
donor molecule, donor type, donor heavy atom, donor atom, acceptor molecule, acceptor atom, score
      P1  H  6896  6908       L1    17  0.96
      P1  H  7989  7998       L1    21  0.99
      P1  H  7997  8008       L1    10  0.91

> <Gold.Chemscore.Hbond.Weighted>
-9.9224

> <Gold.Chemscore.Metal.Weighted>
-0.0000

> <Gold.Chemscore.Lipo.Weighted>
-12.2287

> <Gold.Chemscore.Internal_Hbond.Weighted>
0.0000

> <Gold.Chemscore.DEClash.Weighted>
0.0189

> <Gold.Chemscore.DEInternal.Weighted>
3.3170

> <Gold.Chemscore.Rot.Weighted>
3.9692

> <Gold.Chemscore.Internal.Correction.Weighted>
   9.000000E+99

> <Gold.Protein.RotatedTorsions>
[ 6907 6896 6895 6894 ] final  147.46 input  -60.11 | X-H torsion
[ 7974 7965 7964 7962 ] final  -77.06 input  175.53 | X-H torsion
[ 8008 7997 7996 7995 ] final  -71.00 input   59.86 | X-H torsion
[ 10167 10162 10161 10158 ] final  131.89 input  -65.29 | X-H torsion
[ 10718 10713 10712 10709 ] final   69.46 input   66.30 | X-H torsion
[ 10763 10752 10751 10750 ] final -166.01 input  -60.55 | X-H torsion
[ 11005 11000 10999 10996 ] final -120.38 input  -57.11 | X-H torsion

> <Gold.Protein.ActiveResidues>
 VAL166  LYS551  ARG553  GLY616  TRP617  ASP618  TYR619  PRO620  LYS621  CYS622 
 ASP623  PHE694  ASN695  SER759  ASP760  ASP761  ALA762  ILE779  LEU786  VAL792 
 PHE793  MET794  SER795  GLU796  ALA797  LYS798  CYS799  TRP800  GLU811  SER814 

> <Gold.Protein.RotatedAtoms>
  152.1544  133.4542  159.4829 H   0  0  0  0  0  0  0  0  0  0  0  0  # atno 6907 bound_to 6896
  150.6899  134.2149  159.4383 H   0  0  0  0  0  0  0  0  0  0  0  0  # atno 6908 bound_to 6896
  152.0048  134.9908  160.0617 H   0  0  0  0  0  0  0  0  0  0  0  0  # atno 6909 bound_to 6896
  145.6046  140.9401  143.1222 H   0  0  0  0  0  0  0  0  0  0  0  0  # atno 7974 bound_to 7965
  154.5054  140.0824  156.7884 H   0  0  0  0  0  0  0  0  0  0  0  0  # atno 8008 bound_to 7997
  155.3905  140.3432  155.4233 H   0  0  0  0  0  0  0  0  0  0  0  0  # atno 8009 bound_to 7997
  156.1509  140.1558  156.8759 H   0  0  0  0  0  0  0  0  0  0  0  0  # atno 8010 bound_to 7997
  139.5363  144.6686  151.4773 H   0  0  0  0  0  0  0  0  0  0  0  0  # atno 10167 bound_to 10162
  157.6347  130.9426  150.0516 H   0  0  0  0  0  0  0  0  0  0  0  0  # atno 10718 bound_to 10713
  154.6875  135.2965  154.9526 H   0  0  0  0  0  0  0  0  0  0  0  0  # atno 10763 bound_to 10752
  154.0500  135.6646  153.4803 H   0  0  0  0  0  0  0  0  0  0  0  0  # atno 10764 bound_to 10752
  153.0589  135.5127  154.7950 H   0  0  0  0  0  0  0  0  0  0  0  0  # atno 10765 bound_to 10752
  141.0148  134.0212  157.3365 H   0  0  0  0  0  0  0  0  0  0  0  0  # atno 11005 bound_to 11000
  144.7295  139.7769  143.7352 LP  0  0  0  0  0  0  0  0  0  0  0  0  # atno 17320 bound_to 7965
  146.1550  139.4645  143.0024 LP  0  0  0  0  0  0  0  0  0  0  0  0  # atno 17321 bound_to 7965
  140.6572  143.8575  150.6848 LP  0  0  0  0  0  0  0  0  0  0  0  0  # atno 17342 bound_to 10162
  140.1958  143.3999  152.1829 LP  0  0  0  0  0  0  0  0  0  0  0  0  # atno 17343 bound_to 10162
  156.1576  130.3643  149.9346 LP  0  0  0  0  0  0  0  0  0  0  0  0  # atno 17370 bound_to 10713
  156.7351  130.9058  151.3628 LP  0  0  0  0  0  0  0  0  0  0  0  0  # atno 17371 bound_to 10713
  139.9110  135.0190  156.7692 LP  0  0  0  0  0  0  0  0  0  0  0  0  # atno 17394 bound_to 11000
  140.6674  133.9590  155.7837 LP  0  0  0  0  0  0  0  0  0  0  0  0  # atno 17395 bound_to 11000

$$$$
