AV-unprocessed.smi:1574|AV-procd|sdf|6335|dock7
  -GOLD-   22720 6543D 1   1.00000     0.00000
 Structure written by MMmdl.
 40 41  0  0  0  0  0  0  0  0  1 V2000
  152.1101  144.5901  158.2842 C   0  0  0  0  0  0  0  0  0  0  0  0
  152.0318  143.3543  159.1949 C   0  0  2  0  0  0  0  0  0  0  0  0
  153.3670  143.1386  159.9355 C   0  0  0  0  0  0  0  0  0  0  0  0
  153.3187  141.9059  160.8510 C   0  0  0  0  0  0  0  0  0  0  0  0
  152.9342  140.6487  160.0598 C   0  0  0  0  0  0  0  0  0  0  0  0
  151.6005  140.8492  159.3277 C   0  0  0  0  0  0  0  0  0  0  0  0
  151.6319  142.0870  158.4059 C   0  0  1  0  0  0  0  0  0  0  0  0
  150.3302  142.2948  157.8750 O   0  0  0  0  0  0  0  0  0  0  0  0
  149.7865  141.1721  157.1959 C   0  0  0  0  0  0  0  0  0  0  0  0
  150.5339  140.9936  155.8665 C   0  0  0  0  0  0  0  0  0  0  0  0
  150.6106  139.5868  155.4883 N   0  0  0  0  0  0  0  0  0  0  0  0
  151.7441  138.9130  155.2381 C   0  0  0  0  0  0  0  0  0  0  0  0
  152.8571  139.4376  155.2251 O   0  0  0  0  0  0  0  0  0  0  0  0
  151.6031  137.4134  154.9778 C   0  0  0  0  0  0  0  0  0  0  0  0
  151.2106  136.7102  156.1853 N   0  0  0  0  0  0  0  0  0  0  0  0
  150.0850  136.7573  156.9009 C   0  0  0  0  0  0  0  0  0  0  0  0
  150.1357  135.9471  157.9471 N   0  0  0  0  0  0  0  0  0  0  0  0
  151.3940  135.3779  157.8432 N   0  0  0  0  0  0  0  0  0  0  0  0
  152.0370  135.8282  156.8008 N   0  0  0  0  0  0  0  0  0  0  0  0
  152.8555  144.4580  157.4992 H   0  0  0  0  0  0  0  0  0  0  0  0
  152.3804  145.4802  158.8533 H   0  0  0  0  0  0  0  0  0  0  0  0
  151.1526  144.7899  157.8029 H   0  0  0  0  0  0  0  0  0  0  0  0
  151.2618  143.5430  159.9448 H   0  0  0  0  0  0  0  0  0  0  0  0
  154.1748  143.0202  159.2119 H   0  0  0  0  0  0  0  0  0  0  0  0
  153.6115  144.0207  160.5281 H   0  0  0  0  0  0  0  0  0  0  0  0
  154.2862  141.7612  161.3324 H   0  0  0  0  0  0  0  0  0  0  0  0
  152.5957  142.0708  161.6510 H   0  0  0  0  0  0  0  0  0  0  0  0
  153.7171  140.4140  159.3378 H   0  0  0  0  0  0  0  0  0  0  0  0
  152.8634  139.7933  160.7321 H   0  0  0  0  0  0  0  0  0  0  0  0
  151.3602  139.9484  158.7640 H   0  0  0  0  0  0  0  0  0  0  0  0
  150.8046  140.9709  160.0611 H   0  0  0  0  0  0  0  0  0  0  0  0
  152.3515  141.9335  157.5991 H   0  0  0  0  0  0  0  0  0  0  0  0
  149.9006  140.2839  157.8182 H   0  0  0  0  0  0  0  0  0  0  0  0
  148.7196  141.2932  157.0081 H   0  0  0  0  0  0  0  0  0  0  0  0
  150.0165  141.5353  155.0742 H   0  0  0  0  0  0  0  0  0  0  0  0
  151.5368  141.4181  155.9337 H   0  0  0  0  0  0  0  0  0  0  0  0
  149.7403  139.0751  155.4727 H   0  0  0  0  0  0  0  0  0  0  0  0
  150.8539  137.2361  154.2050 H   0  0  0  0  0  0  0  0  0  0  0  0
  152.5462  137.0031  154.6135 H   0  0  0  0  0  0  0  0  0  0  0  0
  149.2369  137.3802  156.6581 H   0  0  0  0  0  0  0  0  0  0  0  0
  1  2  1  0  0  0  0
  1 20  1  0  0  0  0
  1 21  1  0  0  0  0
  1 22  1  0  0  0  0
  2  7  1  0  0  0  0
  2  3  1  0  0  0  0
  2 23  1  0  0  0  0
  3  4  1  0  0  0  0
  3 24  1  0  0  0  0
  3 25  1  0  0  0  0
  4  5  1  0  0  0  0
  4 26  1  0  0  0  0
  4 27  1  0  0  0  0
  5  6  1  0  0  0  0
  5 28  1  0  0  0  0
  5 29  1  0  0  0  0
  6  7  1  0  0  0  0
  6 30  1  0  0  0  0
  6 31  1  0  0  0  0
  7  8  1  0  0  0  0
  7 32  1  0  0  0  0
  8  9  1  0  0  0  0
  9 10  1  0  0  0  0
  9 33  1  0  0  0  0
  9 34  1  0  0  0  0
 10 11  1  0  0  0  0
 10 35  1  0  0  0  0
 10 36  1  0  0  0  0
 11 12  1  0  0  0  0
 11 37  1  0  0  0  0
 12 13  2  0  0  0  0
 12 14  1  0  0  0  0
 14 15  1  0  0  0  0
 14 38  1  0  0  0  0
 14 39  1  0  0  0  0
 15 19  1  0  0  0  0
 15 16  1  0  0  0  0
 16 17  2  0  0  0  0
 16 40  1  0  0  0  0
 17 18  1  0  0  0  0
 18 19  2  0  0  0  0
M  END
> <s_m_source_file>
AV-unprocessed.smi

> <i_m_source_file_index>
1574

> <i_lp_mmshare_version>
43012

> <i_f3d_flags>
0

> <s_epik_input>
W0NIM11bQ0BASF0xW0NIMl1bQ0gyXVtDSDJdW0NIMl1bQ0BIXTFPW0NIMl1bQ0gyXVtOSF1DKD1PKVtDSDJdbjJbY0hdbm5uMg==

> <s_epik_cmdline>
J2VwaWtfcHl0aG9uJywgJy1waCcsICc3LjAnLCAnLXRuJywgJzgnLCAnLW1hJywgJzIwMCcsICctbWV0YWxfYmluZGluZycsICctaW1hZScsICc8aW5maWxlLm1hZT4nLCAnLW9tYWUnLCAnPG91dGZpbGUubWFlPic=

> <r_lp_tautomer_probability>
1

> <r_epik_Ionization_Penalty>
1.44269e-06

> <r_epik_Ionization_Penalty_Charging>
0

> <r_epik_Ionization_Penalty_Neutral>
1.44269e-06

> <r_epik_State_Penalty>
-0

> <r_epik_Charging_Adjusted_Penalty>
0

> <i_epik_Tot_Q>
0

> <i_epik_Tot_abs_Q>
0

> <r_epik_Metal_State_Penalty>
-0

> <b_epik_Metal_Only>
0

> <s_lp_Force_Field>
OPLS_2005

> <r_lp_Energy>
11.219

> <b_lp_Chiralities_Consistent>
1

> <s_lp_Variant>
AV-unprocessed.smi:1574-1

> <Gold.Version>
5.8.1

> <Gold.Id.Protein>
6NUR|6NUR_protein|mol2

> <Gold.PLP.Fitness>
45.6862

> <Gold.PLP.PLP>
-40.3535

> <Gold.PLP.part.hbond>
-4.6398

> <Gold.PLP.part.metal>
0.0000

> <Gold.PLP.part.buried>
-5.8106

> <Gold.PLP.part.nonpolar>
-30.9261

> <Gold.PLP.part.repulsive>
0.2147

> <Gold.PLP.ligand.clash>
0.0000

> <Gold.PLP.ligand.torsion>
0.3787

> <Gold.PLP.Chemscore.Hbond>
2.0187

> <Gold.PLP.Chemscore.CHOScore>
0.0000

> <Gold.PLP.Chemscore.Metal>
0.0000

> <Gold.Chemscore.Hbonds>
donor molecule, donor type, donor heavy atom, donor atom, acceptor molecule, acceptor atom, score
      P1  H  7997  8009       L1    13  1.00
      P1  H 10752 10764       L1    19  0.81

> <Gold.PLP.Chemscore.Internal.Correction>
0.0339

> <Gold.Rescore>
     Score         DG    S(hbond)    S(metal)    S(lipo)     H(rot)  DE(clash)    DE(int)     intcor
     14.03     -14.50       1.92        0.00      85.87       2.90       0.06       0.40       ----

> <Gold.Chemscore.Fitness>
14.0349

> <Gold.Chemscore.DG>
-14.4966

> <Gold.Chemscore.ZeroCoef>
-5.4800

> <Gold.Chemscore.Hbond>
1.9183

> <Gold.Chemscore.Metal>
0.0000

> <Gold.Chemscore.Lipo>
85.8652

> <Gold.Chemscore.Internal_Hbond>
0.0000

> <Gold.Chemscore.DEClash>
0.0589

> <Gold.Chemscore.DEInternal>
0.4029

> <Gold.Chemscore.Rot>
2.9050

> <Gold.Chemscore.Internal.Correction>
   9.000000E+99

> <Gold.Chemscore.Hbonds>
donor molecule, donor type, donor heavy atom, donor atom, acceptor molecule, acceptor atom, score
      P1  H  7997  8009       L1    13  1.00
      P1  H 10752 10764       L1    19  0.32

> <Gold.Chemscore.Hbond.Weighted>
-6.4071

> <Gold.Chemscore.Metal.Weighted>
-0.0000

> <Gold.Chemscore.Lipo.Weighted>
-10.0462

> <Gold.Chemscore.Internal_Hbond.Weighted>
0.0000

> <Gold.Chemscore.DEClash.Weighted>
0.0589

> <Gold.Chemscore.DEInternal.Weighted>
0.4029

> <Gold.Chemscore.Rot.Weighted>
7.4367

> <Gold.Chemscore.Internal.Correction.Weighted>
   9.000000E+99

> <Gold.Protein.RotatedTorsions>
[ 6907 6896 6895 6894 ] final  176.57 input  -60.11 | X-H torsion
[ 7974 7965 7964 7962 ] final  134.28 input  175.53 | X-H torsion
[ 8008 7997 7996 7995 ] final -144.02 input   59.86 | X-H torsion
[ 10167 10162 10161 10158 ] final  -61.67 input  -65.29 | X-H torsion
[ 10718 10713 10712 10709 ] final  -26.46 input   66.30 | X-H torsion
[ 10763 10752 10751 10750 ] final   -6.41 input  -60.55 | X-H torsion
[ 11005 11000 10999 10996 ] final   99.57 input  -57.11 | X-H torsion

> <Gold.Protein.ActiveResidues>
 VAL166  LYS551  ARG553  GLY616  TRP617  ASP618  TYR619  PRO620  LYS621  CYS622 
 ASP623  PHE694  ASN695  SER759  ASP760  ASP761  ALA762  ILE779  LEU786  VAL792 
 PHE793  MET794  SER795  GLU796  ALA797  LYS798  CYS799  TRP800  GLU811  SER814 

> <Gold.Protein.RotatedAtoms>
  151.7179  133.3314  159.3307 H   0  0  0  0  0  0  0  0  0  0  0  0  # atno 6907 bound_to 6896
  150.7665  134.6474  159.6279 H   0  0  0  0  0  0  0  0  0  0  0  0  # atno 6908 bound_to 6896
  152.3670  134.6792  160.0240 H   0  0  0  0  0  0  0  0  0  0  0  0  # atno 6909 bound_to 6896
  144.9779  139.4535  143.5401 H   0  0  0  0  0  0  0  0  0  0  0  0  # atno 7974 bound_to 7965
  155.5200  140.0590  157.2908 H   0  0  0  0  0  0  0  0  0  0  0  0  # atno 8008 bound_to 7997
  154.4521  140.1954  156.0435 H   0  0  0  0  0  0  0  0  0  0  0  0  # atno 8009 bound_to 7997
  156.0725  140.3258  155.7597 H   0  0  0  0  0  0  0  0  0  0  0  0  # atno 8010 bound_to 7997
  140.5990  143.2357  151.5971 H   0  0  0  0  0  0  0  0  0  0  0  0  # atno 10167 bound_to 10162
  156.4510  130.4484  149.6990 H   0  0  0  0  0  0  0  0  0  0  0  0  # atno 10718 bound_to 10713
  153.4120  135.7008  153.6353 H   0  0  0  0  0  0  0  0  0  0  0  0  # atno 10763 bound_to 10752
  153.4843  135.3687  155.2459 H   0  0  0  0  0  0  0  0  0  0  0  0  # atno 10764 bound_to 10752
  154.8717  135.4073  154.3474 H   0  0  0  0  0  0  0  0  0  0  0  0  # atno 10765 bound_to 10752
  139.8771  134.9102  156.4626 H   0  0  0  0  0  0  0  0  0  0  0  0  # atno 11005 bound_to 11000
  146.3400  139.9033  142.8791 LP  0  0  0  0  0  0  0  0  0  0  0  0  # atno 17320 bound_to 7965
  145.2463  141.0028  143.3907 LP  0  0  0  0  0  0  0  0  0  0  0  0  # atno 17321 bound_to 7965
  139.5278  144.3007  152.1076 LP  0  0  0  0  0  0  0  0  0  0  0  0  # atno 17342 bound_to 10162
  140.2184  144.4491  150.6353 LP  0  0  0  0  0  0  0  0  0  0  0  0  # atno 17343 bound_to 10162
  156.3816  130.7582  151.2575 LP  0  0  0  0  0  0  0  0  0  0  0  0  # atno 17370 bound_to 10713
  157.7503  131.0294  150.4090 LP  0  0  0  0  0  0  0  0  0  0  0  0  # atno 17371 bound_to 10713
  140.8853  133.7888  155.9511 LP  0  0  0  0  0  0  0  0  0  0  0  0  # atno 17394 bound_to 11000
  140.8811  134.2610  157.5143 LP  0  0  0  0  0  0  0  0  0  0  0  0  # atno 17395 bound_to 11000

$$$$
