AV-unprocessed.smi:232|AV-procd|sdf|1781|dock8
  -GOLD-   2262020333D 1   1.00000     0.00000
 Structure written by MMmdl.
 52 55  0  0  0  0  0  0  0  0  1 V2000
  150.7809  144.8233  159.5121 C   0  0  0  0  0  0  0  0  0  0  0  0
  151.7642  143.8615  158.8348 C   0  0  0  0  0  0  0  0  0  0  0  0
  151.8512  142.4902  159.5361 C   0  0  2  0  0  0  0  0  0  0  0  0
  153.2312  142.1754  160.1303 C   0  0  0  0  0  0  0  0  0  0  0  0
  153.3644  140.6513  160.0226 C   0  0  0  0  0  0  0  0  0  0  0  0
  152.0694  140.1939  159.3393 C   0  0  2  0  0  0  0  0  0  0  0  0
  152.2590  138.9744  158.4217 C   0  0  0  0  0  0  0  0  0  0  0  0
  151.5843  141.3742  158.6354 N   0  0  0  0  0  0  0  0  0  0  0  0
  150.3181  141.2808  158.1660 C   0  0  0  0  0  0  0  0  0  0  0  0
  149.2582  141.5362  158.9786 N   0  0  0  0  0  0  0  0  0  0  0  0
  148.0138  141.4475  158.4990 C   0  0  0  0  0  0  0  0  0  0  0  0
  147.6145  141.1265  157.2658 N   0  0  0  0  0  0  0  0  0  0  0  0
  148.6789  140.8668  156.4531 C   0  0  0  0  0  0  0  0  0  0  0  0
  150.0516  140.9186  156.8205 C   0  0  0  0  0  0  0  0  0  0  0  0
  150.8516  140.5935  155.7325 N   0  0  0  0  0  0  0  0  0  0  0  0
  149.9976  140.3642  154.7717 C   0  0  0  0  0  0  0  0  0  0  0  0
  148.6726  140.5078  155.1179 N   0  0  0  0  0  0  0  0  0  0  0  0
  147.5208  140.3249  154.2538 C   0  0  0  0  0  0  0  0  0  0  0  0
  147.3654  138.8637  153.7907 C   0  0  1  0  0  0  0  0  0  0  0  0
  148.4728  138.4700  153.0013 O   0  0  0  0  0  0  0  0  0  0  0  0
  147.1580  137.8862  154.9649 C   0  0  1  0  0  0  0  0  0  0  0  0
  147.0645  136.3939  154.6085 C   0  0  0  0  0  0  0  0  0  0  0  0
  147.8659  135.7041  155.7048 C   0  0  0  0  0  0  0  0  0  0  0  0
  148.1329  136.8110  156.7213 C   0  0  0  0  0  0  0  0  0  0  0  0
  148.2029  137.9801  155.9230 O   0  0  0  0  0  0  0  0  0  0  0  0
  150.7238  145.7649  158.9657 H   0  0  0  0  0  0  0  0  0  0  0  0
  151.0858  145.0521  160.5334 H   0  0  0  0  0  0  0  0  0  0  0  0
  149.7777  144.3981  159.5477 H   0  0  0  0  0  0  0  0  0  0  0  0
  151.4469  143.7258  157.8003 H   0  0  0  0  0  0  0  0  0  0  0  0
  152.7533  144.3193  158.7900 H   0  0  0  0  0  0  0  0  0  0  0  0
  151.1215  142.4625  160.3474 H   0  0  0  0  0  0  0  0  0  0  0  0
  154.0232  142.6504  159.5496 H   0  0  0  0  0  0  0  0  0  0  0  0
  153.3170  142.5282  161.1584 H   0  0  0  0  0  0  0  0  0  0  0  0
  154.2376  140.4032  159.4174 H   0  0  0  0  0  0  0  0  0  0  0  0
  153.4904  140.1764  160.9959 H   0  0  0  0  0  0  0  0  0  0  0  0
  151.3472  139.9370  160.1165 H   0  0  0  0  0  0  0  0  0  0  0  0
  152.6602  138.1282  158.9796 H   0  0  0  0  0  0  0  0  0  0  0  0
  152.9500  139.1950  157.6075 H   0  0  0  0  0  0  0  0  0  0  0  0
  151.3145  138.6560  157.9798 H   0  0  0  0  0  0  0  0  0  0  0  0
  147.2253  141.6656  159.2041 H   0  0  0  0  0  0  0  0  0  0  0  0
  150.3120  140.0887  153.7753 H   0  0  0  0  0  0  0  0  0  0  0  0
  146.6292  140.6574  154.7871 H   0  0  0  0  0  0  0  0  0  0  0  0
  147.6335  140.9841  153.3922 H   0  0  0  0  0  0  0  0  0  0  0  0
  146.4875  138.7984  153.1465 H   0  0  0  0  0  0  0  0  0  0  0  0
  148.7285  139.2002  152.4587 H   0  0  0  0  0  0  0  0  0  0  0  0
  146.2394  138.1665  155.4838 H   0  0  0  0  0  0  0  0  0  0  0  0
  146.0247  136.0651  154.6022 H   0  0  0  0  0  0  0  0  0  0  0  0
  147.4865  136.1607  153.6310 H   0  0  0  0  0  0  0  0  0  0  0  0
  147.3432  134.8533  156.1429 H   0  0  0  0  0  0  0  0  0  0  0  0
  148.8111  135.3439  155.2963 H   0  0  0  0  0  0  0  0  0  0  0  0
  147.3049  136.8999  157.4267 H   0  0  0  0  0  0  0  0  0  0  0  0
  149.0512  136.6521  157.2870 H   0  0  0  0  0  0  0  0  0  0  0  0
  1  2  1  0  0  0  0
  1 26  1  0  0  0  0
  1 27  1  0  0  0  0
  1 28  1  0  0  0  0
  2  3  1  0  0  0  0
  2 29  1  0  0  0  0
  2 30  1  0  0  0  0
  3  8  1  0  0  0  0
  3  4  1  0  0  0  0
  3 31  1  0  0  0  0
  4  5  1  0  0  0  0
  4 32  1  0  0  0  0
  4 33  1  0  0  0  0
  5  6  1  0  0  0  0
  5 34  1  0  0  0  0
  5 35  1  0  0  0  0
  6  7  1  0  0  0  0
  6  8  1  0  0  0  0
  6 36  1  0  0  0  0
  7 37  1  0  0  0  0
  7 38  1  0  0  0  0
  7 39  1  0  0  0  0
  8  9  1  0  0  0  0
  9 14  1  0  0  0  0
  9 10  2  0  0  0  0
 10 11  1  0  0  0  0
 11 12  2  0  0  0  0
 11 40  1  0  0  0  0
 12 13  1  0  0  0  0
 13 17  1  0  0  0  0
 13 14  2  0  0  0  0
 14 15  1  0  0  0  0
 15 16  2  0  0  0  0
 16 17  1  0  0  0  0
 16 41  1  0  0  0  0
 17 18  1  0  0  0  0
 18 19  1  0  0  0  0
 18 42  1  0  0  0  0
 18 43  1  0  0  0  0
 19 20  1  0  0  0  0
 19 21  1  0  0  0  0
 19 44  1  0  0  0  0
 20 45  1  0  0  0  0
 21 25  1  0  0  0  0
 21 22  1  0  0  0  0
 21 46  1  0  0  0  0
 22 23  1  0  0  0  0
 22 47  1  0  0  0  0
 22 48  1  0  0  0  0
 23 24  1  0  0  0  0
 23 49  1  0  0  0  0
 23 50  1  0  0  0  0
 24 25  1  0  0  0  0
 24 51  1  0  0  0  0
 24 52  1  0  0  0  0
M  END
> <s_m_source_file>
AV-unprocessed.smi

> <i_m_source_file_index>
232

> <i_lp_mmshare_version>
43012

> <i_f3d_flags>
0

> <s_epik_input>
W0NIM11bQ0gyXVtDQEBIXTFbQ0gyXVtDSDJdW0NAQEhdKFtDSDNdKU4xYyhuW2NIXW4yKWMoYzIzKW5bY0hdbjNbQ0gyXVtDQEhdKFtPSF0pW0NAQEhdNFtDSDJdW0NIMl1bQ0gyXU80

> <s_epik_cmdline>
J2VwaWtfcHl0aG9uJywgJy1waCcsICc3LjAnLCAnLXRuJywgJzgnLCAnLW1hJywgJzIwMCcsICctbWV0YWxfYmluZGluZycsICctaW1hZScsICc8aW5maWxlLm1hZT4nLCAnLW9tYWUnLCAnPG91dGZpbGUubWFlPic=

> <r_lp_tautomer_probability>
1

> <r_epik_Ionization_Penalty>
0.00258048

> <r_epik_Ionization_Penalty_Charging>
0

> <r_epik_Ionization_Penalty_Neutral>
0.00258048

> <r_epik_State_Penalty>
0.00168551

> <r_epik_Charging_Adjusted_Penalty>
0.00168551

> <i_epik_Tot_Q>
0

> <i_epik_Tot_abs_Q>
0

> <r_epik_Metal_State_Penalty>
-0

> <b_epik_Metal_Only>
0

> <s_lp_Force_Field>
OPLS_2005

> <r_lp_Energy>
54.2714

> <b_lp_Chiralities_Consistent>
1

> <s_lp_Variant>
AV-unprocessed.smi:232-15

> <Gold.Version>
5.8.1

> <Gold.Id.Protein>
6NUR|6NUR_protein|mol2

> <Gold.PLP.Fitness>
44.6144

> <Gold.PLP.PLP>
-41.3576

> <Gold.PLP.part.hbond>
-3.1268

> <Gold.PLP.part.metal>
0.0000

> <Gold.PLP.part.buried>
-4.1092

> <Gold.PLP.part.nonpolar>
-34.7464

> <Gold.PLP.part.repulsive>
0.3250

> <Gold.PLP.ligand.clash>
0.0000

> <Gold.PLP.ligand.torsion>
1.4262

> <Gold.PLP.Chemscore.Hbond>
1.0000

> <Gold.PLP.Chemscore.CHOScore>
1.0000

> <Gold.PLP.Chemscore.Metal>
0.0000

> <Gold.Chemscore.Hbonds>
donor molecule, donor type, donor heavy atom, donor atom, acceptor molecule, acceptor atom, score
      L1  H    20    45       P1  7957  1.00
      L1  C    16    41       P1  7957  0.57

> <Gold.PLP.Chemscore.Internal.Correction>
0.1092

> <Gold.Rescore>
     Score         DG    S(hbond)    S(metal)    S(lipo)     H(rot)  DE(clash)    DE(int)     intcor
      7.37     -12.70       0.99        0.00      86.45       2.43       1.17       4.16       ----

> <Gold.Chemscore.Fitness>
7.3679

> <Gold.Chemscore.DG>
-12.6963

> <Gold.Chemscore.ZeroCoef>
-5.4800

> <Gold.Chemscore.Hbond>
0.9916

> <Gold.Chemscore.Metal>
0.0000

> <Gold.Chemscore.Lipo>
86.4528

> <Gold.Chemscore.Internal_Hbond>
0.0000

> <Gold.Chemscore.DEClash>
1.1727

> <Gold.Chemscore.DEInternal>
4.1557

> <Gold.Chemscore.Rot>
2.4260

> <Gold.Chemscore.Internal.Correction>
   9.000000E+99

> <Gold.Chemscore.Hbonds>
donor molecule, donor type, donor heavy atom, donor atom, acceptor molecule, acceptor atom, score
      L1  H    20    45       P1  7957  0.99

> <Gold.Chemscore.Hbond.Weighted>
-3.3120

> <Gold.Chemscore.Metal.Weighted>
-0.0000

> <Gold.Chemscore.Lipo.Weighted>
-10.1150

> <Gold.Chemscore.Internal_Hbond.Weighted>
0.0000

> <Gold.Chemscore.DEClash.Weighted>
1.1727

> <Gold.Chemscore.DEInternal.Weighted>
4.1557

> <Gold.Chemscore.Rot.Weighted>
6.2107

> <Gold.Chemscore.Internal.Correction.Weighted>
   9.000000E+99

> <Gold.Protein.RotatedTorsions>
[ 6907 6896 6895 6894 ] final   59.54 input  -60.11 | X-H torsion
[ 7974 7965 7964 7962 ] final  -29.67 input  175.53 | X-H torsion
[ 8008 7997 7996 7995 ] final    5.54 input   59.86 | X-H torsion
[ 10167 10162 10161 10158 ] final   66.78 input  -65.29 | X-H torsion
[ 10718 10713 10712 10709 ] final   21.60 input   66.30 | X-H torsion
[ 10763 10752 10751 10750 ] final  101.83 input  -60.55 | X-H torsion
[ 11005 11000 10999 10996 ] final -165.49 input  -57.11 | X-H torsion

> <Gold.Protein.ActiveResidues>
 VAL166  LYS551  ARG553  GLY616  TRP617  ASP618  TYR619  PRO620  LYS621  CYS622 
 ASP623  PHE694  ASN695  SER759  ASP760  ASP761  ALA762  ILE779  LEU786  VAL792 
 PHE793  MET794  SER795  GLU796  ALA797  LYS798  CYS799  TRP800  GLU811  SER814 

> <Gold.Protein.RotatedAtoms>
  152.3924  134.6420  160.0102 H   0  0  0  0  0  0  0  0  0  0  0  0  # atno 6907 bound_to 6896
  151.6650  133.3310  159.3191 H   0  0  0  0  0  0  0  0  0  0  0  0  # atno 6908 bound_to 6896
  150.7837  134.6848  159.6509 H   0  0  0  0  0  0  0  0  0  0  0  0  # atno 6909 bound_to 6896
  146.1199  140.5442  142.8740 H   0  0  0  0  0  0  0  0  0  0  0  0  # atno 7974 bound_to 7965
  154.7296  140.2728  155.6468 H   0  0  0  0  0  0  0  0  0  0  0  0  # atno 8008 bound_to 7997
  156.2846  140.2718  156.1917 H   0  0  0  0  0  0  0  0  0  0  0  0  # atno 8009 bound_to 7997
  155.0399  140.0371  157.2495 H   0  0  0  0  0  0  0  0  0  0  0  0  # atno 8010 bound_to 7997
  140.0967  144.4940  150.7064 H   0  0  0  0  0  0  0  0  0  0  0  0  # atno 10167 bound_to 10162
  157.1406  130.6631  149.5980 H   0  0  0  0  0  0  0  0  0  0  0  0  # atno 10718 bound_to 10713
  153.3317  135.4031  155.1501 H   0  0  0  0  0  0  0  0  0  0  0  0  # atno 10763 bound_to 10752
  154.8624  135.3612  154.5462 H   0  0  0  0  0  0  0  0  0  0  0  0  # atno 10764 bound_to 10752
  153.5901  135.7074  153.5486 H   0  0  0  0  0  0  0  0  0  0  0  0  # atno 10765 bound_to 10752
  140.5751  134.5198  157.5169 H   0  0  0  0  0  0  0  0  0  0  0  0  # atno 11005 bound_to 11000
  144.7588  140.5371  143.6750 LP  0  0  0  0  0  0  0  0  0  0  0  0  # atno 17320 bound_to 7965
  145.5487  139.1476  143.3406 LP  0  0  0  0  0  0  0  0  0  0  0  0  # atno 17321 bound_to 7965
  140.7000  143.2428  151.4892 LP  0  0  0  0  0  0  0  0  0  0  0  0  # atno 17342 bound_to 10162
  139.5694  144.1964  152.1814 LP  0  0  0  0  0  0  0  0  0  0  0  0  # atno 17343 bound_to 10162
  155.9789  130.4779  150.6684 LP  0  0  0  0  0  0  0  0  0  0  0  0  # atno 17370 bound_to 10713
  157.4310  131.0849  151.1038 LP  0  0  0  0  0  0  0  0  0  0  0  0  # atno 17371 bound_to 10713
  139.9343  134.7904  156.0845 LP  0  0  0  0  0  0  0  0  0  0  0  0  # atno 17394 bound_to 11000
  141.1031  133.6670  156.2801 LP  0  0  0  0  0  0  0  0  0  0  0  0  # atno 17395 bound_to 11000

$$$$
