#       Name:                AV-unprocessed.smi:2224
#       Creating user name   scv26
#       Creation time:       Fri Mar 27 12:20:49 2020


#       File generated by GOLD software.
#

@<TRIPOS>MOLECULE
AV-unprocessed.smi:2224
    49    51     1
SMALL
NO_CHARGES


@<TRIPOS>ATOM
      1 ****        -5.1396   3.3003  -0.4476 C.3            1 S1                 0.0000
      2 ****        -4.4836   1.9824  -0.0930 C.ar           1 S1                 0.0000
      3 ****        -5.2596   0.8429   0.1929 C.ar           1 S1                 0.0000
      4 ****        -4.5897  -0.3534   0.5160 C.ar           1 S1                 0.0000
      5 ****        -5.3618  -1.6173   0.8314 C.3            1 S1                 0.0000
      6 ****        -3.2441  -0.4549   0.5616 N.ar           1 S1                 0.0000
      7 ****        -2.4863   0.6361   0.2885 C.ar           1 S1                 0.0000
      8 ****        -1.0658   0.6337   0.3075 N.am           1 S1                 0.0000
      9 ****        -0.2409  -0.3940   0.5753 C.2            1 S1                 0.0000
     10 ****        -0.5952  -1.5342   0.8761 O.2            1 S1                 0.0000
     11 ****         1.0436  -0.0271   0.4679 N.am           1 S1                 0.0000
     12 ****         2.1832  -0.9240   0.6895 C.3            1 S1                 0.0000
     13 ****         3.5179  -0.1774   0.7652 C.3            1 S1                 0.0000
     14 ****         3.9407   1.2296   0.9887 C.3            1 S1                 0.0000
     15 ****         5.0588   1.2687  -0.0886 C.3            1 S1                 0.0000
     16 ****         4.9123   0.0499  -0.8621 O.3            1 S1                 0.0000
     17 ****         3.5382  -0.2626  -0.7467 C.3            1 S1                 0.0000
     18 ****         2.7807  -1.6020  -0.6079 C.3            1 S1                 0.0000
     19 ****         3.6289  -2.8718  -0.4126 C.3            1 S1                 0.0000
     20 ****         1.8054  -1.9237  -1.7458 C.3            1 S1                 0.0000
     21 ****        -3.0790   1.8754  -0.0430 C.ar           1 S1                 0.0000
     22 ****        -6.2226   3.1971  -0.5206 H              1 S1                 0.0000
     23 ****        -4.7668   3.6624  -1.4059 H              1 S1                 0.0000
     24 ****        -4.9181   4.0487   0.3135 H              1 S1                 0.0000
     25 ****        -6.3388   0.8843   0.1651 H              1 S1                 0.0000
     26 ****        -6.4244  -1.4090   0.9605 H              1 S1                 0.0000
     27 ****        -4.9921  -2.0725   1.7507 H              1 S1                 0.0000
     28 ****        -5.2509  -2.3388   0.0216 H              1 S1                 0.0000
     29 ****        -0.6278   1.5138   0.0800 H              1 S1                 0.0000
     30 ****         1.2529   0.9280   0.2172 H              1 S1                 0.0000
     31 ****         2.0425  -1.6215   1.5169 H              1 S1                 0.0000
     32 ****         4.2518  -0.8370   1.2348 H              1 S1                 0.0000
     33 ****         3.1418   1.9411   0.7763 H              1 S1                 0.0000
     34 ****         4.3206   1.4048   1.9954 H              1 S1                 0.0000
     35 ****         4.9487   2.1432  -0.7311 H              1 S1                 0.0000
     36 ****         6.0534   1.2997   0.3570 H              1 S1                 0.0000
     37 ****         2.9322   0.5009  -1.2453 H              1 S1                 0.0000
     38 ****         4.2587  -3.0621  -1.2821 H              1 S1                 0.0000
     39 ****         2.9991  -3.7504  -0.2698 H              1 S1                 0.0000
     40 ****         4.2906  -2.8253   0.4507 H              1 S1                 0.0000
     41 ****         2.3276  -2.2920  -2.6293 H              1 S1                 0.0000
     42 ****         1.2390  -1.0469  -2.0600 H              1 S1                 0.0000
     43 ****         1.0832  -2.6848  -1.4482 H              1 S1                 0.0000
     44 ****        -2.4645   2.7378  -0.2586 H              1 S1                 0.0000
     45 ****        -2.8108  -1.3255   0.7943 LP             1 S1                 0.0000
     46 ****        -1.5685  -1.7556   0.9371 LP             1 S1                 0.0000
     47 ****         0.0903  -2.2388   1.0593 LP             1 S1                 0.0000
     48 ****         5.4770  -0.6827  -0.4822 LP             1 S1                 0.0000
     49 ****         5.1634   0.2027  -1.8180 LP             1 S1                 0.0000
@<TRIPOS>BOND
    1    1    2 1     
    2    1   22 1     
    3    1   23 1     
    4    1   24 1     
    5    2   21 ar    
    6    2    3 ar    
    7    3    4 ar    
    8    3   25 1     
    9    4    5 1     
   10    4    6 ar    
   11    5   26 1     
   12    5   27 1     
   13    5   28 1     
   14    6    7 ar    
   15    7    8 1     
   16    7   21 ar    
   17    8    9 am    
   18    8   29 1     
   19    9   10 2     
   20    9   11 am    
   21   11   12 1     
   22   11   30 1     
   23   12   18 1     
   24   12   13 1     
   25   12   31 1     
   26   13   17 1     
   27   13   14 1     
   28   13   32 1     
   29   14   15 1     
   30   14   33 1     
   31   14   34 1     
   32   15   16 1     
   33   15   35 1     
   34   15   36 1     
   35   16   17 1     
   36   17   18 1     
   37   17   37 1     
   38   18   19 1     
   39   18   20 1     
   40   19   38 1     
   41   19   39 1     
   42   19   40 1     
   43   20   41 1     
   44   20   42 1     
   45   20   43 1     
   46   21   44 1     
   47    6   45 1     
   48   10   46 1     
   49   10   47 1     
   50   16   48 1     
   51   16   49 1     
@<TRIPOS>SUBSTRUCTURE
      1 S1             1
@<TRIPOS>SET
LONE_PAIRS      STATIC     ATOMS    <user>   **** ""
5 45 46 47 48 49
DONOR_HYDROGENS      STATIC     ATOMS    <user>   **** ""
2 29 30
ATOM$BLUE        STATIC     ATOMS    COLORGROUP SYSTEM
5 45 46 47 48 49
ATOM$RED        STATIC     ATOMS    COLORGROUP SYSTEM
2 29 30
