AV-unprocessed.smi:107|AV-procd|sdf|1013|dock3
  -GOLD-   2262018 13D 1   1.00000     0.00000
 Structure written by MMmdl.
 31 32  0  0  0  0  0  0  0  0  1 V2000
  153.1522  140.7658  160.1374 C   0  0  0  0  0  0  0  0  0  0  0  0
  152.9943  139.5269  159.2715 C   0  0  0  0  0  0  0  0  0  0  0  0
  152.0908  139.4561  158.2607 C   0  0  0  0  0  0  0  0  0  0  0  0
  151.9231  138.3406  157.4523 N   0  0  0  0  0  0  0  0  0  0  0  0
  150.8946  138.3275  156.3439 C   0  0  2  0  0  0  0  0  0  0  0  0
  151.5625  138.1234  154.9800 C   0  0  0  0  0  0  0  0  0  0  0  0
  150.7704  139.0620  154.0914 C   0  0  1  0  0  0  0  0  0  0  0  0
  149.6247  138.4109  153.5745 O   0  0  0  0  0  0  0  0  0  0  0  0
  150.4106  140.1968  155.0612 C   0  0  1  0  0  0  0  0  0  0  0  0
  149.1882  141.0593  154.7019 C   0  0  0  0  0  0  0  0  0  0  0  0
  149.1981  141.3750  153.3258 O   0  0  0  0  0  0  0  0  0  0  0  0
  150.2324  139.5590  156.3239 O   0  0  0  0  0  0  0  0  0  0  0  0
  152.7401  137.2094  157.6587 C   0  0  0  0  0  0  0  0  0  0  0  0
  152.6715  136.1946  156.9663 O   0  0  0  0  0  0  0  0  0  0  0  0
  153.6654  137.2796  158.6989 N   0  0  0  0  0  0  0  0  0  0  0  0
  153.8577  138.3749  159.5444 C   0  0  0  0  0  0  0  0  0  0  0  0
  154.7077  138.3158  160.4315 O   0  0  0  0  0  0  0  0  0  0  0  0
  154.2499  136.4706  158.8523 H   0  0  0  0  0  0  0  0  0  0  0  0
  152.4590  141.5548  159.8445 H   0  0  0  0  0  0  0  0  0  0  0  0
  154.1648  141.1621  160.0536 H   0  0  0  0  0  0  0  0  0  0  0  0
  152.9630  140.5261  161.1843 H   0  0  0  0  0  0  0  0  0  0  0  0
  151.4724  140.3211  158.0754 H   0  0  0  0  0  0  0  0  0  0  0  0
  150.1513  137.5640  156.5775 H   0  0  0  0  0  0  0  0  0  0  0  0
  152.6030  138.4482  155.0276 H   0  0  0  0  0  0  0  0  0  0  0  0
  151.5353  137.0770  154.6737 H   0  0  0  0  0  0  0  0  0  0  0  0
  151.3660  139.4232  153.2525 H   0  0  0  0  0  0  0  0  0  0  0  0
  149.5256  138.6558  152.6667 H   0  0  0  0  0  0  0  0  0  0  0  0
  151.2808  140.8474  155.1596 H   0  0  0  0  0  0  0  0  0  0  0  0
  148.2540  140.5603  154.9599 H   0  0  0  0  0  0  0  0  0  0  0  0
  149.2148  141.9919  155.2659 H   0  0  0  0  0  0  0  0  0  0  0  0
  149.3383  140.5788  152.8361 H   0  0  0  0  0  0  0  0  0  0  0  0
  1  2  1  0  0  0  0
  1 19  1  0  0  0  0
  1 20  1  0  0  0  0
  1 21  1  0  0  0  0
  2 16  1  0  0  0  0
  2  3  2  0  0  0  0
  3  4  1  0  0  0  0
  3 22  1  0  0  0  0
  4  5  1  0  0  0  0
  4 13  1  0  0  0  0
  5 12  1  0  0  0  0
  5  6  1  0  0  0  0
  5 23  1  0  0  0  0
  6  7  1  0  0  0  0
  6 24  1  0  0  0  0
  6 25  1  0  0  0  0
  7  8  1  0  0  0  0
  7  9  1  0  0  0  0
  7 26  1  0  0  0  0
  8 27  1  0  0  0  0
  9 10  1  0  0  0  0
  9 12  1  0  0  0  0
  9 28  1  0  0  0  0
 10 11  1  0  0  0  0
 10 29  1  0  0  0  0
 10 30  1  0  0  0  0
 11 31  1  0  0  0  0
 13 14  2  0  0  0  0
 13 15  1  0  0  0  0
 15 18  1  0  0  0  0
 15 16  1  0  0  0  0
 16 17  2  0  0  0  0
M  END
> <s_m_source_file>
AV-unprocessed.smi

> <i_m_source_file_index>
107

> <i_lp_mmshare_version>
43012

> <i_f3d_flags>
0

> <s_epik_input>
Tz1jMVtuSF1jKD1PKW4oW2NIXWMxW0NIM10pW0NAQEhdMltDSDJdW0NAQEhdKFtPSF0pW0NASF0oTzIpW0NIMl1bT0hd

> <s_epik_cmdline>
J2VwaWtfcHl0aG9uJywgJy1waCcsICc3LjAnLCAnLXRuJywgJzgnLCAnLW1hJywgJzIwMCcsICctbWV0YWxfYmluZGluZycsICctaW1hZScsICc8aW5maWxlLm1hZT4nLCAnLW9tYWUnLCAnPG91dGZpbGUubWFlPic=

> <r_lp_tautomer_probability>
0.999537

> <r_epik_Ionization_Penalty>
0.00121888

> <r_epik_Ionization_Penalty_Charging>
0.00121876

> <r_epik_Ionization_Penalty_Neutral>
1.19946e-07

> <r_epik_State_Penalty>
0.000805124

> <r_epik_Charging_Adjusted_Penalty>
0.00202389

> <i_epik_Tot_Q>
0

> <i_epik_Tot_abs_Q>
0

> <r_epik_Metal_State_Penalty>
0.662472

> <b_epik_Metal_Only>
0

> <s_epik_Chemistry_Notes>
This compound contains an acetal/aminal-like group ( X-CH(R)-Y where X, Y are N, S, or O) that may be acid/base labile, releasing an aldehyde.

> <s_lp_Force_Field>
OPLS_2005

> <r_lp_Energy>
27.6975

> <b_lp_Chiralities_Consistent>
1

> <s_lp_Variant>
AV-unprocessed.smi:107-1

> <Gold.Version>
5.8.1

> <Gold.Id.Protein>
6NUR|6NUR_protein|mol2

> <Gold.PLP.Fitness>
35.9684

> <Gold.PLP.PLP>
-24.9320

> <Gold.PLP.part.hbond>
-5.8378

> <Gold.PLP.part.metal>
0.0000

> <Gold.PLP.part.buried>
-0.6563

> <Gold.PLP.part.nonpolar>
-16.6595

> <Gold.PLP.part.repulsive>
0.1007

> <Gold.PLP.ligand.clash>
0.0000

> <Gold.PLP.ligand.torsion>
0.1337

> <Gold.PLP.Chemscore.Hbond>
3.7673

> <Gold.PLP.Chemscore.CHOScore>
0.0000

> <Gold.PLP.Chemscore.Metal>
0.0000

> <Gold.Chemscore.Hbonds>
donor molecule, donor type, donor heavy atom, donor atom, acceptor molecule, acceptor atom, score
      L1  H     8    27       P1  7957  1.00
      L1  H    11    31       P1  7957  0.78
      P1  H  8011  8017       L1    11  0.99
      P1  H 10752 10763       L1    14  1.00

> <Gold.PLP.Chemscore.Internal.Correction>
0.0021

> <Gold.Rescore>
     Score         DG    S(hbond)    S(metal)    S(lipo)     H(rot)  DE(clash)    DE(int)     intcor
     12.74     -14.41       2.98        0.00      50.83       2.73       0.36       1.31       ----

> <Gold.Chemscore.Fitness>
12.7425

> <Gold.Chemscore.DG>
-14.4146

> <Gold.Chemscore.ZeroCoef>
-5.4800

> <Gold.Chemscore.Hbond>
2.9833

> <Gold.Chemscore.Metal>
0.0000

> <Gold.Chemscore.Lipo>
50.8303

> <Gold.Chemscore.Internal_Hbond>
0.0000

> <Gold.Chemscore.DEClash>
0.3621

> <Gold.Chemscore.DEInternal>
1.3100

> <Gold.Chemscore.Rot>
2.7253

> <Gold.Chemscore.Internal.Correction>
   9.000000E+99

> <Gold.Chemscore.Hbonds>
donor molecule, donor type, donor heavy atom, donor atom, acceptor molecule, acceptor atom, score
      L1  H     8    27       P1  7957  0.67
      L1  H    11    31       P1  7957  0.78
      P1  H  8011  8017       L1    11  0.23
      P1  H 10752 10763       L1    14  0.95

> <Gold.Chemscore.Hbond.Weighted>
-9.9643

> <Gold.Chemscore.Metal.Weighted>
-0.0000

> <Gold.Chemscore.Lipo.Weighted>
-5.9471

> <Gold.Chemscore.Internal_Hbond.Weighted>
0.0000

> <Gold.Chemscore.DEClash.Weighted>
0.3621

> <Gold.Chemscore.DEInternal.Weighted>
1.3100

> <Gold.Chemscore.Rot.Weighted>
6.9769

> <Gold.Chemscore.Internal.Correction.Weighted>
   9.000000E+99

> <Gold.Protein.RotatedTorsions>
[ 6907 6896 6895 6894 ] final -107.42 input  -60.11 | X-H torsion
[ 7974 7965 7964 7962 ] final   65.13 input  175.53 | X-H torsion
[ 8008 7997 7996 7995 ] final  145.52 input   59.86 | X-H torsion
[ 10167 10162 10161 10158 ] final  -11.07 input  -65.29 | X-H torsion
[ 10718 10713 10712 10709 ] final  -39.49 input   66.30 | X-H torsion
[ 10763 10752 10751 10750 ] final  107.14 input  -60.55 | X-H torsion
[ 11005 11000 10999 10996 ] final   96.27 input  -57.11 | X-H torsion

> <Gold.Protein.ActiveResidues>
 VAL166  LYS551  ARG553  GLY616  TRP617  ASP618  TYR619  PRO620  LYS621  CYS622 
 ASP623  PHE694  ASN695  SER759  ASP760  ASP761  ALA762  ILE779  LEU786  VAL792 
 PHE793  MET794  SER795  GLU796  ALA797  LYS798  CYS799  TRP800  GLU811  SER814 

> <Gold.Protein.RotatedAtoms>
  150.7443  133.9830  159.3582 H   0  0  0  0  0  0  0  0  0  0  0  0  # atno 6907 bound_to 6896
  151.7772  135.0769  160.0378 H   0  0  0  0  0  0  0  0  0  0  0  0  # atno 6908 bound_to 6896
  152.3299  133.5909  159.5838 H   0  0  0  0  0  0  0  0  0  0  0  0  # atno 6909 bound_to 6896
  145.8420  139.3201  143.0925 H   0  0  0  0  0  0  0  0  0  0  0  0  # atno 7974 bound_to 7965
  156.2881  140.2207  156.5228 H   0  0  0  0  0  0  0  0  0  0  0  0  # atno 8008 bound_to 7997
  154.7514  140.0480  157.0918 H   0  0  0  0  0  0  0  0  0  0  0  0  # atno 8009 bound_to 7997
  155.0105  140.3112  155.4835 H   0  0  0  0  0  0  0  0  0  0  0  0  # atno 8010 bound_to 7997
  140.7129  143.5679  150.9124 H   0  0  0  0  0  0  0  0  0  0  0  0  # atno 10167 bound_to 10162
  156.2919  130.4229  149.8230 H   0  0  0  0  0  0  0  0  0  0  0  0  # atno 10718 bound_to 10713
  153.4027  135.3854  155.1998 H   0  0  0  0  0  0  0  0  0  0  0  0  # atno 10763 bound_to 10752
  154.8731  135.3775  154.4599 H   0  0  0  0  0  0  0  0  0  0  0  0  # atno 10764 bound_to 10752
  153.5098  135.7087  153.5849 H   0  0  0  0  0  0  0  0  0  0  0  0  # atno 10765 bound_to 10752
  139.8783  134.8942  156.4135 H   0  0  0  0  0  0  0  0  0  0  0  0  # atno 11005 bound_to 11000
  145.9454  140.8948  143.0286 LP  0  0  0  0  0  0  0  0  0  0  0  0  # atno 17320 bound_to 7965
  144.6733  140.1606  143.7422 LP  0  0  0  0  0  0  0  0  0  0  0  0  # atno 17321 bound_to 7965
  139.9405  143.6387  152.3055 LP  0  0  0  0  0  0  0  0  0  0  0  0  # atno 17342 bound_to 10162
  139.6870  144.7650  151.1505 LP  0  0  0  0  0  0  0  0  0  0  0  0  # atno 17343 bound_to 10162
  156.5639  130.8395  151.3337 LP  0  0  0  0  0  0  0  0  0  0  0  0  # atno 17370 bound_to 10713
  157.7345  130.9747  150.2031 LP  0  0  0  0  0  0  0  0  0  0  0  0  # atno 17371 bound_to 10713
  140.9184  133.7662  155.9876 LP  0  0  0  0  0  0  0  0  0  0  0  0  # atno 17394 bound_to 11000
  140.8467  134.3002  157.5292 LP  0  0  0  0  0  0  0  0  0  0  0  0  # atno 17395 bound_to 11000

$$$$
