AV-unprocessed.smi:701|AV-procd|sdf|3415|dock1
  -GOLD-   22720 0393D 1   1.00000     0.00000
 Structure written by MMmdl.
 48 50  0  0  0  0  0  0  0  0  2 V2000
  151.4576  138.1295  154.7173 C   0  0  0  0  0  0  0  0  0  0  0  0
  150.4466  139.2563  154.9383 C   0  0  0  0  0  0  0  0  0  0  0  0
  149.2718  138.7075  155.5110 O   0  0  0  0  0  0  0  0  0  0  0  0
  148.4584  138.0296  154.5680 C   0  0  1  0  0  0  0  0  0  0  0  0
  147.7992  136.7554  155.1029 C   0  0  0  0  0  0  0  0  0  0  0  0
  146.5377  137.1778  154.3420 C   0  0  2  0  0  0  0  0  0  0  0  0
  146.5060  136.6019  152.9975 N   0  0  0  0  0  0  0  0  0  0  0  0
  145.3948  136.2186  152.3549 C   0  0  0  0  0  0  0  0  0  0  0  0
  144.2693  136.2861  152.8497 O   0  0  0  0  0  0  0  0  0  0  0  0
  145.5916  135.6427  150.9477 C   0  0  0  0  0  0  0  0  0  0  0  0
  145.4352  134.1806  150.9195 N   0  0  0  0  0  0  0  0  0  0  0  0
  144.3926  133.6461  150.1423 C   0  0  0  0  0  0  0  0  0  0  0  0
  144.1802  132.3192  150.0553 C   0  0  0  0  0  0  0  0  0  0  0  0
  145.0662  131.4284  150.7944 C   0  0  0  0  0  0  0  0  0  0  0  0
  144.8839  130.2143  150.7308 O   0  0  0  0  0  0  0  0  0  0  0  0
  146.0670  131.9953  151.5302 N   0  5  0  0  0  0  0  0  0  0  0  0
  146.2726  133.3466  151.6075 C   0  0  0  0  0  0  0  0  0  0  0  0
  147.1835  133.8378  152.2756 O   0  0  0  0  0  0  0  0  0  0  0  0
  147.0475  138.6476  154.3756 C   0  0  0  0  0  0  0  0  0  0  0  0
  146.4734  139.4594  155.5612 C   0  0  0  0  0  0  0  0  0  0  0  0
  147.0345  140.8888  155.6843 C   0  0  0  0  0  0  0  0  0  0  0  0
  146.8740  141.6729  154.3781 C   0  0  0  0  0  0  0  0  0  0  0  0
  147.4633  140.8941  153.1981 C   0  0  0  0  0  0  0  0  0  0  0  0
  146.8450  139.4911  153.0994 C   0  0  0  0  0  0  0  0  0  0  0  0
  152.3787  138.5121  154.2778 H   0  0  0  0  0  0  0  0  0  0  0  0
  151.0566  137.3698  154.0460 H   0  0  0  0  0  0  0  0  0  0  0  0
  151.7128  137.6440  155.6597 H   0  0  0  0  0  0  0  0  0  0  0  0
  150.8718  140.0110  155.6015 H   0  0  0  0  0  0  0  0  0  0  0  0
  150.2157  139.7414  153.9891 H   0  0  0  0  0  0  0  0  0  0  0  0
  148.9649  137.8666  153.6140 H   0  0  0  0  0  0  0  0  0  0  0  0
  148.2623  135.8266  154.7671 H   0  0  0  0  0  0  0  0  0  0  0  0
  147.6633  136.7648  156.1852 H   0  0  0  0  0  0  0  0  0  0  0  0
  145.6181  137.0259  154.9101 H   0  0  0  0  0  0  0  0  0  0  0  0
  147.3881  136.5118  152.5148 H   0  0  0  0  0  0  0  0  0  0  0  0
  144.8987  136.1105  150.2452 H   0  0  0  0  0  0  0  0  0  0  0  0
  146.5854  135.9279  150.6007 H   0  0  0  0  0  0  0  0  0  0  0  0
  143.7873  134.3735  149.6215 H   0  0  0  0  0  0  0  0  0  0  0  0
  143.3768  131.9243  149.4514 H   0  0  0  0  0  0  0  0  0  0  0  0
  145.3888  139.5228  155.4632 H   0  0  0  0  0  0  0  0  0  0  0  0
  146.6457  138.9380  156.5032 H   0  0  0  0  0  0  0  0  0  0  0  0
  146.5275  141.4147  156.4936 H   0  0  0  0  0  0  0  0  0  0  0  0
  148.0879  140.8584  155.9606 H   0  0  0  0  0  0  0  0  0  0  0  0
  145.8158  141.8640  154.1954 H   0  0  0  0  0  0  0  0  0  0  0  0
  147.3553  142.6475  154.4639 H   0  0  0  0  0  0  0  0  0  0  0  0
  147.2918  141.4414  152.2710 H   0  0  0  0  0  0  0  0  0  0  0  0
  148.5448  140.8110  153.3144 H   0  0  0  0  0  0  0  0  0  0  0  0
  147.2833  138.9945  152.2334 H   0  0  0  0  0  0  0  0  0  0  0  0
  145.7804  139.5817  152.8787 H   0  0  0  0  0  0  0  0  0  0  0  0
  1  2  1  0  0  0  0
  1 25  1  0  0  0  0
  1 26  1  0  0  0  0
  1 27  1  0  0  0  0
  2  3  1  0  0  0  0
  2 28  1  0  0  0  0
  2 29  1  0  0  0  0
  3  4  1  0  0  0  0
  4 19  1  0  0  0  0
  4  5  1  0  0  0  0
  4 30  1  0  0  0  0
  5  6  1  0  0  0  0
  5 31  1  0  0  0  0
  5 32  1  0  0  0  0
  6  7  1  0  0  0  0
  6 19  1  0  0  0  0
  6 33  1  0  0  0  0
  7  8  1  0  0  0  0
  7 34  1  0  0  0  0
  8  9  2  0  0  0  0
  8 10  1  0  0  0  0
 10 11  1  0  0  0  0
 10 35  1  0  0  0  0
 10 36  1  0  0  0  0
 11 17  1  0  0  0  0
 11 12  1  0  0  0  0
 12 13  2  0  0  0  0
 12 37  1  0  0  0  0
 13 14  1  0  0  0  0
 13 38  1  0  0  0  0
 14 15  2  0  0  0  0
 14 16  1  0  0  0  0
 16 17  1  0  0  0  0
 17 18  2  0  0  0  0
 19 24  1  0  0  0  0
 19 20  1  0  0  0  0
 20 21  1  0  0  0  0
 20 39  1  0  0  0  0
 20 40  1  0  0  0  0
 21 22  1  0  0  0  0
 21 41  1  0  0  0  0
 21 42  1  0  0  0  0
 22 23  1  0  0  0  0
 22 43  1  0  0  0  0
 22 44  1  0  0  0  0
 23 24  1  0  0  0  0
 23 45  1  0  0  0  0
 23 46  1  0  0  0  0
 24 47  1  0  0  0  0
 24 48  1  0  0  0  0
M  CHG  1  16  -1
M  END
> <s_m_source_file>
AV-unprocessed.smi

> <i_m_source_file_index>
701

> <i_lp_mmshare_version>
43012

> <i_f3d_flags>
0

> <s_epik_input>
W0NIMl0xW0NIMl1bQ0gyXVtDSDJdW0NIMl1DMTJbQ0BIXShPW0NIMl1bQ0gzXSlbQ0gyXVtDQEhdMltOSF1DKD1PKVtDSDJdbjNbY0hdW2NIXWMoPU8pW25IXWMzPU8=

> <s_epik_cmdline>
J2VwaWtfcHl0aG9uJywgJy1waCcsICc3LjAnLCAnLXRuJywgJzgnLCAnLW1hJywgJzIwMCcsICctbWV0YWxfYmluZGluZycsICctaW1hZScsICc8aW5maWxlLm1hZT4nLCAnLW9tYWUnLCAnPG91dGZpbGUubWFlPic=

> <r_lp_tautomer_probability>
0.999537

> <r_epik_Ionization_Penalty>
3.12423

> <r_epik_Ionization_Penalty_Charging>
2.92877e-08

> <r_epik_Ionization_Penalty_Neutral>
3.12423

> <r_epik_State_Penalty>
3.12332

> <r_epik_Charging_Adjusted_Penalty>
3.12332

> <i_epik_Tot_Q>
-1

> <i_epik_Tot_abs_Q>
1

> <r_epik_Metal_State_Penalty>
0.463873

> <b_epik_Metal_Only>
1

> <s_lp_Force_Field>
OPLS_2005

> <r_lp_Energy>
37.69

> <b_lp_Chiralities_Consistent>
1

> <s_lp_Variant>
AV-unprocessed.smi:701-8

> <Gold.Version>
5.8.1

> <Gold.Id.Protein>
6NUR|6NUR_protein|mol2

> <Gold.PLP.Fitness>
35.8900

> <Gold.PLP.PLP>
-31.6796

> <Gold.PLP.part.hbond>
-2.0000

> <Gold.PLP.part.metal>
0.0000

> <Gold.PLP.part.buried>
-2.7249

> <Gold.PLP.part.nonpolar>
-29.7118

> <Gold.PLP.part.repulsive>
1.7408

> <Gold.PLP.ligand.clash>
0.0000

> <Gold.PLP.ligand.torsion>
1.0795

> <Gold.PLP.Chemscore.Hbond>
1.0000

> <Gold.PLP.Chemscore.CHOScore>
0.9874

> <Gold.PLP.Chemscore.Metal>
0.0000

> <Gold.Chemscore.Hbonds>
donor molecule, donor type, donor heavy atom, donor atom, acceptor molecule, acceptor atom, score
      L1  H     7    34       P1  7948  1.00
      L1  C    12    37       P1 10186  0.36

> <Gold.PLP.Chemscore.Internal.Correction>
0.4072

> <Gold.Rescore>
     Score         DG    S(hbond)    S(metal)    S(lipo)     H(rot)  DE(clash)    DE(int)     intcor
      7.88     -12.22       1.00        0.00      73.66       2.04       0.41       3.92       ----

> <Gold.Chemscore.Fitness>
7.8827

> <Gold.Chemscore.DG>
-12.2160

> <Gold.Chemscore.ZeroCoef>
-5.4800

> <Gold.Chemscore.Hbond>
1.0000

> <Gold.Chemscore.Metal>
0.0000

> <Gold.Chemscore.Lipo>
73.6594

> <Gold.Chemscore.Internal_Hbond>
0.0000

> <Gold.Chemscore.DEClash>
0.4112

> <Gold.Chemscore.DEInternal>
3.9220

> <Gold.Chemscore.Rot>
2.0399

> <Gold.Chemscore.Internal.Correction>
   9.000000E+99

> <Gold.Chemscore.Hbonds>
donor molecule, donor type, donor heavy atom, donor atom, acceptor molecule, acceptor atom, score
      L1  H     7    34       P1  7948  1.00

> <Gold.Chemscore.Hbond.Weighted>
-3.3400

> <Gold.Chemscore.Metal.Weighted>
-0.0000

> <Gold.Chemscore.Lipo.Weighted>
-8.6181

> <Gold.Chemscore.Internal_Hbond.Weighted>
0.0000

> <Gold.Chemscore.DEClash.Weighted>
0.4112

> <Gold.Chemscore.DEInternal.Weighted>
3.9220

> <Gold.Chemscore.Rot.Weighted>
5.2222

> <Gold.Chemscore.Internal.Correction.Weighted>
   9.000000E+99

> <Gold.Protein.RotatedTorsions>
[ 6907 6896 6895 6894 ] final   43.33 input  -60.11 | X-H torsion
[ 7974 7965 7964 7962 ] final   75.07 input  175.53 | X-H torsion
[ 8008 7997 7996 7995 ] final  -62.33 input   59.86 | X-H torsion
[ 10167 10162 10161 10158 ] final -178.88 input  -65.29 | X-H torsion
[ 10718 10713 10712 10709 ] final -112.48 input   66.30 | X-H torsion
[ 10763 10752 10751 10750 ] final   17.14 input  -60.55 | X-H torsion
[ 11005 11000 10999 10996 ] final   51.04 input  -57.11 | X-H torsion

> <Gold.Protein.ActiveResidues>
 VAL166  LYS551  ARG553  GLY616  TRP617  ASP618  TYR619  PRO620  LYS621  CYS622 
 ASP623  PHE694  ASN695  SER759  ASP760  ASP761  ALA762  ILE779  LEU786  VAL792 
 PHE793  MET794  SER795  GLU796  ALA797  LYS798  CYS799  TRP800  GLU811  SER814 

> <Gold.Protein.RotatedAtoms>
  152.2189  134.8431  160.0488 H   0  0  0  0  0  0  0  0  0  0  0  0  # atno 6907 bound_to 6896
  151.9222  133.3583  159.3909 H   0  0  0  0  0  0  0  0  0  0  0  0  # atno 6908 bound_to 6896
  150.6995  134.4548  159.5397 H   0  0  0  0  0  0  0  0  0  0  0  0  # atno 6909 bound_to 6896
  145.7202  139.2645  143.1600 H   0  0  0  0  0  0  0  0  0  0  0  0  # atno 7974 bound_to 7965
  154.4494  140.0998  156.6571 H   0  0  0  0  0  0  0  0  0  0  0  0  # atno 8008 bound_to 7997
  155.5334  140.3482  155.4412 H   0  0  0  0  0  0  0  0  0  0  0  0  # atno 8009 bound_to 7997
  156.0648  140.1335  156.9888 H   0  0  0  0  0  0  0  0  0  0  0  0  # atno 8010 bound_to 7997
  139.5412  144.2358  152.0898 H   0  0  0  0  0  0  0  0  0  0  0  0  # atno 10167 bound_to 10162
  156.0708  130.5922  150.8514 H   0  0  0  0  0  0  0  0  0  0  0  0  # atno 10718 bound_to 10713
  153.1366  135.6751  153.9093 H   0  0  0  0  0  0  0  0  0  0  0  0  # atno 10763 bound_to 10752
  153.8563  135.3087  155.3436 H   0  0  0  0  0  0  0  0  0  0  0  0  # atno 10764 bound_to 10752
  154.7752  135.4918  153.9813 H   0  0  0  0  0  0  0  0  0  0  0  0  # atno 10765 bound_to 10752
  140.0966  134.5137  155.8801 H   0  0  0  0  0  0  0  0  0  0  0  0  # atno 11005 bound_to 11000
  146.0633  140.7948  142.9724 LP  0  0  0  0  0  0  0  0  0  0  0  0  # atno 17320 bound_to 7965
  144.6919  140.3229  143.7229 LP  0  0  0  0  0  0  0  0  0  0  0  0  # atno 17321 bound_to 7965
  140.1837  144.4819  150.6515 LP  0  0  0  0  0  0  0  0  0  0  0  0  # atno 17342 bound_to 10162
  140.6642  143.2262  151.5782 LP  0  0  0  0  0  0  0  0  0  0  0  0  # atno 17343 bound_to 10162
  157.5778  131.0946  150.9319 LP  0  0  0  0  0  0  0  0  0  0  0  0  # atno 17370 bound_to 10713
  156.9521  130.5423  149.5283 LP  0  0  0  0  0  0  0  0  0  0  0  0  # atno 17371 bound_to 10713
  141.2094  133.6683  156.6435 LP  0  0  0  0  0  0  0  0  0  0  0  0  # atno 17394 bound_to 11000
  140.3277  134.7955  157.4302 LP  0  0  0  0  0  0  0  0  0  0  0  0  # atno 17395 bound_to 11000

$$$$
