AV-unprocessed.smi:2063|AV-procd|sdf|8415|dock2
  -GOLD-   2272011103D 1   1.00000     0.00000
 Structure written by MMmdl.
 38 39  0  0  0  0  0  0  0  0  2 V2000
  152.5976  143.4595  159.0887 C   0  0  0  0  0  0  0  0  0  0  0  0
  152.4974  142.3279  160.1218 C   0  0  0  0  0  0  0  0  0  0  0  0
  152.6836  142.8126  161.5672 C   0  0  0  0  0  0  0  0  0  0  0  0
  153.4002  141.1804  159.7913 C   0  0  0  0  0  0  0  0  0  0  0  0
  154.7207  141.3116  159.6309 N   0  0  0  0  0  0  0  0  0  0  0  0
  155.3358  140.1043  159.3340 N   0  0  0  0  0  0  0  0  0  0  0  0
  154.4748  139.0794  159.2637 C   0  0  0  0  0  0  0  0  0  0  0  0
  154.8675  137.8238  158.9930 N   0  5  0  0  0  0  0  0  0  0  0  0
  154.3143  136.7838  159.6575 C   0  0  0  0  0  0  0  0  0  0  0  0
  153.1089  136.5682  159.8018 O   0  0  0  0  0  0  0  0  0  0  0  0
  155.2164  135.9468  160.1896 N   0  0  0  0  0  0  0  0  0  0  0  0
  154.9334  134.7522  160.9839 C   0  0  1  0  0  0  0  0  0  0  0  0
  155.9309  133.6417  160.6195 C   0  0  0  0  0  0  0  0  0  0  0  0
  154.9830  135.1047  162.4826 C   0  0  1  0  0  0  0  0  0  0  0  0
  154.1557  136.3322  162.8764 C   0  0  0  0  0  0  0  0  0  0  0  0
  153.7735  136.0703  164.3258 C   0  0  0  0  0  0  0  0  0  0  0  0
  154.1810  134.6148  164.5642 C   0  0  0  0  0  0  0  0  0  0  0  0
  154.3908  134.0798  163.2660 O   0  0  0  0  0  0  0  0  0  0  0  0
  152.8043  139.5411  159.5864 S   0  0  0  0  0  0  0  0  0  0  0  0
  152.3721  143.0957  158.0858 H   0  0  0  0  0  0  0  0  0  0  0  0
  153.5988  143.8912  159.0696 H   0  0  0  0  0  0  0  0  0  0  0  0
  151.8943  144.2612  159.3153 H   0  0  0  0  0  0  0  0  0  0  0  0
  151.4784  141.9443  160.0572 H   0  0  0  0  0  0  0  0  0  0  0  0
  152.5289  141.9984  162.2759 H   0  0  0  0  0  0  0  0  0  0  0  0
  151.9734  143.6031  161.8112 H   0  0  0  0  0  0  0  0  0  0  0  0
  153.6875  143.2076  161.7266 H   0  0  0  0  0  0  0  0  0  0  0  0
  156.1895  136.1673  160.0378 H   0  0  0  0  0  0  0  0  0  0  0  0
  153.9267  134.3947  160.7607 H   0  0  0  0  0  0  0  0  0  0  0  0
  155.7300  132.7315  161.1847 H   0  0  0  0  0  0  0  0  0  0  0  0
  156.9571  133.9451  160.8297 H   0  0  0  0  0  0  0  0  0  0  0  0
  155.8683  133.3899  159.5605 H   0  0  0  0  0  0  0  0  0  0  0  0
  156.0168  135.2406  162.8069 H   0  0  0  0  0  0  0  0  0  0  0  0
  154.7065  137.2640  162.7455 H   0  0  0  0  0  0  0  0  0  0  0  0
  153.2522  136.3910  162.2677 H   0  0  0  0  0  0  0  0  0  0  0  0
  154.2938  136.7395  165.0116 H   0  0  0  0  0  0  0  0  0  0  0  0
  152.7015  136.2105  164.4681 H   0  0  0  0  0  0  0  0  0  0  0  0
  155.1144  134.5649  165.1267 H   0  0  0  0  0  0  0  0  0  0  0  0
  153.4242  134.0497  165.1087 H   0  0  0  0  0  0  0  0  0  0  0  0
  1  2  1  0  0  0  0
  1 20  1  0  0  0  0
  1 21  1  0  0  0  0
  1 22  1  0  0  0  0
  2  3  1  0  0  0  0
  2  4  1  0  0  0  0
  2 23  1  0  0  0  0
  3 24  1  0  0  0  0
  3 25  1  0  0  0  0
  3 26  1  0  0  0  0
  4 19  1  0  0  0  0
  4  5  2  0  0  0  0
  5  6  1  0  0  0  0
  6  7  2  0  0  0  0
  7  8  1  0  0  0  0
  7 19  1  0  0  0  0
  8  9  1  0  0  0  0
  9 10  2  0  0  0  0
  9 11  1  0  0  0  0
 11 12  1  0  0  0  0
 11 27  1  0  0  0  0
 12 13  1  0  0  0  0
 12 14  1  0  0  0  0
 12 28  1  0  0  0  0
 13 29  1  0  0  0  0
 13 30  1  0  0  0  0
 13 31  1  0  0  0  0
 14 18  1  0  0  0  0
 14 15  1  0  0  0  0
 14 32  1  0  0  0  0
 15 16  1  0  0  0  0
 15 33  1  0  0  0  0
 15 34  1  0  0  0  0
 16 17  1  0  0  0  0
 16 35  1  0  0  0  0
 16 36  1  0  0  0  0
 17 18  1  0  0  0  0
 17 37  1  0  0  0  0
 17 38  1  0  0  0  0
M  CHG  1   8  -1
M  END
> <s_m_source_file>
AV-unprocessed.smi

> <i_m_source_file_index>
2063

> <i_lp_mmshare_version>
43012

> <i_f3d_flags>
0

> <s_epik_input>
W0NIM11bQ0hdKFtDSDNdKWMxbm5jKHMxKVtOSF1DKD1PKVtOSF1bQ0BIXShbQ0gzXSlbQ0BASF0yW0NIMl1bQ0gyXVtDSDJdTzI=

> <s_epik_cmdline>
J2VwaWtfcHl0aG9uJywgJy1waCcsICc3LjAnLCAnLXRuJywgJzgnLCAnLW1hJywgJzIwMCcsICctbWV0YWxfYmluZGluZycsICctaW1hZScsICc8aW5maWxlLm1hZT4nLCAnLW9tYWUnLCAnPG91dGZpbGUubWFlPic=

> <r_lp_tautomer_probability>
1

> <r_epik_Ionization_Penalty>
4.37022

> <r_epik_Ionization_Penalty_Charging>
4.21437

> <r_epik_Ionization_Penalty_Neutral>
0.15585

> <r_epik_State_Penalty>
4.21389

> <r_epik_Charging_Adjusted_Penalty>
8.42826

> <i_epik_Tot_Q>
-1

> <i_epik_Tot_abs_Q>
1

> <r_epik_Metal_State_Penalty>
0.693772

> <b_epik_Metal_Only>
1

> <s_lp_Force_Field>
OPLS_2005

> <r_lp_Energy>
9.58688

> <b_lp_Chiralities_Consistent>
1

> <s_lp_Variant>
AV-unprocessed.smi:2063-8

> <Gold.Version>
5.8.1

> <Gold.Id.Protein>
6NUR|6NUR_protein|mol2

> <Gold.PLP.Fitness>
36.2842

> <Gold.PLP.PLP>
-34.1834

> <Gold.PLP.part.hbond>
-2.0000

> <Gold.PLP.part.metal>
0.0000

> <Gold.PLP.part.buried>
-2.5506

> <Gold.PLP.part.nonpolar>
-28.8034

> <Gold.PLP.part.repulsive>
0.0548

> <Gold.PLP.ligand.clash>
0.0000

> <Gold.PLP.ligand.torsion>
1.3578

> <Gold.PLP.Chemscore.Hbond>
1.5329

> <Gold.PLP.Chemscore.CHOScore>
0.0000

> <Gold.PLP.Chemscore.Metal>
0.0000

> <Gold.Chemscore.Hbonds>
donor molecule, donor type, donor heavy atom, donor atom, acceptor molecule, acceptor atom, score
      P1  H  6896  6909       L1    10  1.00
      P1  H  7997  8008       L1     6  0.47

> <Gold.PLP.Chemscore.Internal.Correction>
0.2178

> <Gold.Rescore>
     Score         DG    S(hbond)    S(metal)    S(lipo)     H(rot)  DE(clash)    DE(int)     intcor
     14.17     -16.69       1.28        0.00      89.54       1.39       0.12       2.40       ----

> <Gold.Chemscore.Fitness>
14.1651

> <Gold.Chemscore.DG>
-16.6894

> <Gold.Chemscore.ZeroCoef>
-5.4800

> <Gold.Chemscore.Hbond>
1.2845

> <Gold.Chemscore.Metal>
0.0000

> <Gold.Chemscore.Lipo>
89.5372

> <Gold.Chemscore.Internal_Hbond>
0.0000

> <Gold.Chemscore.DEClash>
0.1204

> <Gold.Chemscore.DEInternal>
2.4039

> <Gold.Chemscore.Rot>
1.3893

> <Gold.Chemscore.Internal.Correction>
   9.000000E+99

> <Gold.Chemscore.Hbonds>
donor molecule, donor type, donor heavy atom, donor atom, acceptor molecule, acceptor atom, score
      P1  H  6896  6909       L1    10  0.96
      P1  H  7997  8008       L1     6  0.01

> <Gold.Chemscore.Hbond.Weighted>
-4.2903

> <Gold.Chemscore.Metal.Weighted>
-0.0000

> <Gold.Chemscore.Lipo.Weighted>
-10.4758

> <Gold.Chemscore.Internal_Hbond.Weighted>
0.0000

> <Gold.Chemscore.DEClash.Weighted>
0.1204

> <Gold.Chemscore.DEInternal.Weighted>
2.4039

> <Gold.Chemscore.Rot.Weighted>
3.5567

> <Gold.Chemscore.Internal.Correction.Weighted>
   9.000000E+99

> <Gold.Protein.RotatedTorsions>
[ 6907 6896 6895 6894 ] final  135.28 input  -60.11 | X-H torsion
[ 7974 7965 7964 7962 ] final -152.59 input  175.53 | X-H torsion
[ 8008 7997 7996 7995 ] final -150.30 input   59.86 | X-H torsion
[ 10167 10162 10161 10158 ] final    0.94 input  -65.29 | X-H torsion
[ 10718 10713 10712 10709 ] final  -78.27 input   66.30 | X-H torsion
[ 10763 10752 10751 10750 ] final  -18.36 input  -60.55 | X-H torsion
[ 11005 11000 10999 10996 ] final   76.35 input  -57.11 | X-H torsion

> <Gold.Protein.ActiveResidues>
 VAL166  LYS551  ARG553  GLY616  TRP617  ASP618  TYR619  PRO620  LYS621  CYS622 
 ASP623  PHE694  ASN695  SER759  ASP760  ASP761  ALA762  ILE779  LEU786  VAL792 
 PHE793  MET794  SER795  GLU796  ALA797  LYS798  CYS799  TRP800  GLU811  SER814 

> <Gold.Protein.RotatedAtoms>
  152.3021  133.5666  159.5624 H   0  0  0  0  0  0  0  0  0  0  0  0  # atno 6907 bound_to 6896
  150.7282  134.0276  159.3731 H   0  0  0  0  0  0  0  0  0  0  0  0  # atno 6908 bound_to 6896
  151.8175  135.0662  160.0472 H   0  0  0  0  0  0  0  0  0  0  0  0  # atno 6909 bound_to 6896
  144.7786  140.4642  143.5855 H   0  0  0  0  0  0  0  0  0  0  0  0  # atno 7974 bound_to 7965
  155.6213  140.0682  157.2677 H   0  0  0  0  0  0  0  0  0  0  0  0  # atno 8008 bound_to 7997
  154.4228  140.1784  156.1423 H   0  0  0  0  0  0  0  0  0  0  0  0  # atno 8009 bound_to 7997
  156.0007  140.3336  155.6846 H   0  0  0  0  0  0  0  0  0  0  0  0  # atno 8010 bound_to 7997
  140.6706  143.7059  150.7915 H   0  0  0  0  0  0  0  0  0  0  0  0  # atno 10167 bound_to 10162
  156.0122  130.4513  150.3471 H   0  0  0  0  0  0  0  0  0  0  0  0  # atno 10718 bound_to 10713
  153.5881  135.7003  153.5435 H   0  0  0  0  0  0  0  0  0  0  0  0  # atno 10763 bound_to 10752
  153.3202  135.4076  155.1410 H   0  0  0  0  0  0  0  0  0  0  0  0  # atno 10764 bound_to 10752
  154.8605  135.3693  154.5411 H   0  0  0  0  0  0  0  0  0  0  0  0  # atno 10765 bound_to 10752
  139.9302  134.7593  156.1384 H   0  0  0  0  0  0  0  0  0  0  0  0  # atno 11005 bound_to 11000
  145.6115  139.1514  143.3073 LP  0  0  0  0  0  0  0  0  0  0  0  0  # atno 17320 bound_to 7965
  146.1981  140.6230  142.9115 LP  0  0  0  0  0  0  0  0  0  0  0  0  # atno 17321 bound_to 7965
  140.0744  143.5029  152.2563 LP  0  0  0  0  0  0  0  0  0  0  0  0  # atno 17342 bound_to 10162
  139.5972  144.7571  151.3257 LP  0  0  0  0  0  0  0  0  0  0  0  0  # atno 17343 bound_to 10162
  157.1564  131.0334  151.2861 LP  0  0  0  0  0  0  0  0  0  0  0  0  # atno 17370 bound_to 10713
  157.4348  130.7511  149.7020 LP  0  0  0  0  0  0  0  0  0  0  0  0  # atno 17371 bound_to 10713
  141.0886  133.6723  156.2491 LP  0  0  0  0  0  0  0  0  0  0  0  0  # atno 17394 bound_to 11000
  140.6222  134.5349  157.5549 LP  0  0  0  0  0  0  0  0  0  0  0  0  # atno 17395 bound_to 11000

$$$$
