AV-unprocessed.smi:2564|AV-procd|sdf|10062|dock3
  -GOLD-   2272014103D 1   1.00000     0.00000
 Structure written by MMmdl.
 29 30  0  0  0  0  0  0  0  0  2 V2000
  152.3078  144.2596  158.7906 C   0  0  0  0  0  0  0  0  0  0  0  0
  152.1412  143.3781  159.8744 C   0  0  0  0  0  0  0  0  0  0  0  0
  151.4050  142.2476  159.7865 N   0  0  0  0  0  0  0  0  0  0  0  0
  150.8000  141.9301  158.6365 N   0  0  0  0  0  0  0  0  0  0  0  0
  150.9181  142.7341  157.5497 C   0  0  0  0  0  0  0  0  0  0  0  0
  150.2691  142.3741  156.3612 N   0  0  0  0  0  0  0  0  0  0  0  0
  150.5469  141.0931  155.7270 C   0  0  0  0  0  0  0  0  0  0  0  0
  149.3230  140.5566  154.9723 C   0  0  2  0  0  0  0  0  0  0  0  0
  149.6463  139.2506  154.2195 C   0  0  0  0  0  0  0  0  0  0  0  0
  148.4752  138.8099  153.4365 N   0  3  0  0  0  0  0  0  0  0  0  0
  148.0000  139.8702  152.5268 C   0  0  0  0  0  0  0  0  0  0  0  0
  147.7360  141.1624  153.3175 C   0  0  0  0  0  0  0  0  0  0  0  0
  148.9158  141.5377  154.0206 O   0  0  0  0  0  0  0  0  0  0  0  0
  151.6718  143.9242  157.5828 C   0  0  0  0  0  0  0  0  0  0  0  0
  152.9001  145.1577  158.8838 H   0  0  0  0  0  0  0  0  0  0  0  0
  152.6048  143.5818  160.8281 H   0  0  0  0  0  0  0  0  0  0  0  0
  149.7126  143.0566  155.8672 H   0  0  0  0  0  0  0  0  0  0  0  0
  151.3952  141.1935  155.0484 H   0  0  0  0  0  0  0  0  0  0  0  0
  150.8359  140.3813  156.5013 H   0  0  0  0  0  0  0  0  0  0  0  0
  148.5144  140.3748  155.6832 H   0  0  0  0  0  0  0  0  0  0  0  0
  150.4920  139.3973  153.5462 H   0  0  0  0  0  0  0  0  0  0  0  0
  149.9252  138.4621  154.9190 H   0  0  0  0  0  0  0  0  0  0  0  0
  148.7179  137.9894  152.8997 H   0  0  0  0  0  0  0  0  0  0  0  0
  148.7526  140.0465  151.7571 H   0  0  0  0  0  0  0  0  0  0  0  0
  147.0938  139.5357  152.0214 H   0  0  0  0  0  0  0  0  0  0  0  0
  147.4553  141.9682  152.6391 H   0  0  0  0  0  0  0  0  0  0  0  0
  146.9083  141.0312  154.0164 H   0  0  0  0  0  0  0  0  0  0  0  0
  151.7606  144.5598  156.7140 H   0  0  0  0  0  0  0  0  0  0  0  0
  147.7296  138.5759  154.0768 H   0  0  0  0  0  0  0  0  0  0  0  0
  1 14  1  0  0  0  0
  1  2  2  0  0  0  0
  1 15  1  0  0  0  0
  2  3  1  0  0  0  0
  2 16  1  0  0  0  0
  3  4  2  0  0  0  0
  4  5  1  0  0  0  0
  5  6  1  0  0  0  0
  5 14  2  0  0  0  0
  6  7  1  0  0  0  0
  6 17  1  0  0  0  0
  7  8  1  0  0  0  0
  7 18  1  0  0  0  0
  7 19  1  0  0  0  0
  8 13  1  0  0  0  0
  8  9  1  0  0  0  0
  8 20  1  0  0  0  0
  9 10  1  0  0  0  0
  9 21  1  0  0  0  0
  9 22  1  0  0  0  0
 10 11  1  0  0  0  0
 10 23  1  0  0  0  0
 10 29  1  0  0  0  0
 11 12  1  0  0  0  0
 11 24  1  0  0  0  0
 11 25  1  0  0  0  0
 12 13  1  0  0  0  0
 12 26  1  0  0  0  0
 12 27  1  0  0  0  0
 14 28  1  0  0  0  0
M  CHG  1  10   1
M  END
> <s_m_source_file>
AV-unprocessed.smi

> <i_m_source_file_index>
2564

> <i_lp_mmshare_version>
43012

> <i_f3d_flags>
0

> <s_epik_input>
W2NIXTFbY0hdW2NIXW5uYzFbTkhdW0NIMl1bQ0BASF0yW0NIMl1bTkhdW0NIMl1bQ0gyXU8y

> <s_epik_cmdline>
J2VwaWtfcHl0aG9uJywgJy1waCcsICc3LjAnLCAnLXRuJywgJzgnLCAnLW1hJywgJzIwMCcsICctbWV0YWxfYmluZGluZycsICctaW1hZScsICc8aW5maWxlLm1hZT4nLCAnLW9tYWUnLCAnPG91dGZpbGUubWFlPic=

> <r_lp_tautomer_probability>
0.999978

> <r_epik_Ionization_Penalty>
0.0278973

> <r_epik_Ionization_Penalty_Charging>
0.00959556

> <r_epik_Ionization_Penalty_Neutral>
0.0183017

> <r_epik_State_Penalty>
0.0323017

> <r_epik_Charging_Adjusted_Penalty>
0.0418973

> <i_epik_Tot_Q>
1

> <i_epik_Tot_abs_Q>
1

> <r_epik_Metal_State_Penalty>
0.0301524

> <b_epik_Metal_Only>
0

> <s_lp_Force_Field>
OPLS_2005

> <r_lp_Energy>
19.9275

> <b_lp_Chiralities_Consistent>
1

> <s_lp_Variant>
AV-unprocessed.smi:2564-1

> <Gold.Version>
5.8.1

> <Gold.Id.Protein>
6NUR|6NUR_protein|mol2

> <Gold.PLP.Fitness>
38.5790

> <Gold.PLP.PLP>
-29.8177

> <Gold.PLP.part.hbond>
-3.9812

> <Gold.PLP.part.metal>
0.0000

> <Gold.PLP.part.buried>
2.6708

> <Gold.PLP.part.nonpolar>
-28.4344

> <Gold.PLP.part.repulsive>
0.3358

> <Gold.PLP.ligand.clash>
0.0000

> <Gold.PLP.ligand.torsion>
0.7277

> <Gold.PLP.Chemscore.Hbond>
3.4051

> <Gold.PLP.Chemscore.CHOScore>
0.0000

> <Gold.PLP.Chemscore.Metal>
0.0000

> <Gold.Chemscore.Hbonds>
donor molecule, donor type, donor heavy atom, donor atom, acceptor molecule, acceptor atom, score
      L1  H     6    17       P1  8028  1.00
      L1  H    10    23       P1  7948  1.98
      P1  H  8011  8017       L1    13  0.39

> <Gold.PLP.Chemscore.Internal.Correction>
0.0015

> <Gold.Rescore>
     Score         DG    S(hbond)    S(metal)    S(lipo)     H(rot)  DE(clash)    DE(int)     intcor
     15.55     -18.40       2.14        0.00      78.41       1.33       2.10       0.76       ----

> <Gold.Chemscore.Fitness>
15.5451

> <Gold.Chemscore.DG>
-18.4048

> <Gold.Chemscore.ZeroCoef>
-5.4800

> <Gold.Chemscore.Hbond>
2.1388

> <Gold.Chemscore.Metal>
0.0000

> <Gold.Chemscore.Lipo>
78.4069

> <Gold.Chemscore.Internal_Hbond>
0.0000

> <Gold.Chemscore.DEClash>
2.1024

> <Gold.Chemscore.DEInternal>
0.7573

> <Gold.Chemscore.Rot>
1.3251

> <Gold.Chemscore.Internal.Correction>
   9.000000E+99

> <Gold.Chemscore.Hbonds>
donor molecule, donor type, donor heavy atom, donor atom, acceptor molecule, acceptor atom, score
      L1  H     6    17       P1  8028  0.98
      L1  H    10    23       P1  7948  0.93
      P1  H  8011  8017       L1    13  0.04

> <Gold.Chemscore.Hbond.Weighted>
-7.1436

> <Gold.Chemscore.Metal.Weighted>
-0.0000

> <Gold.Chemscore.Lipo.Weighted>
-9.1736

> <Gold.Chemscore.Internal_Hbond.Weighted>
0.0000

> <Gold.Chemscore.DEClash.Weighted>
2.1024

> <Gold.Chemscore.DEInternal.Weighted>
0.7573

> <Gold.Chemscore.Rot.Weighted>
3.3924

> <Gold.Chemscore.Internal.Correction.Weighted>
   9.000000E+99

> <Gold.Protein.RotatedTorsions>
[ 6907 6896 6895 6894 ] final   91.93 input  -60.11 | X-H torsion
[ 7974 7965 7964 7962 ] final  165.00 input  175.53 | X-H torsion
[ 8008 7997 7996 7995 ] final  -32.35 input   59.86 | X-H torsion
[ 10167 10162 10161 10158 ] final   16.13 input  -65.29 | X-H torsion
[ 10718 10713 10712 10709 ] final   91.02 input   66.30 | X-H torsion
[ 10763 10752 10751 10750 ] final   49.81 input  -60.55 | X-H torsion
[ 11005 11000 10999 10996 ] final -148.55 input  -57.11 | X-H torsion

> <Gold.Protein.ActiveResidues>
 VAL166  LYS551  ARG553  GLY616  TRP617  ASP618  TYR619  PRO620  LYS621  CYS622 
 ASP623  PHE694  ASN695  SER759  ASP760  ASP761  ALA762  ILE779  LEU786  VAL792 
 PHE793  MET794  SER795  GLU796  ALA797  LYS798  CYS799  TRP800  GLU811  SER814 

> <Gold.Protein.RotatedAtoms>
  152.5451  134.1581  159.8546 H   0  0  0  0  0  0  0  0  0  0  0  0  # atno 6907 bound_to 6896
  151.1602  133.4843  159.2602 H   0  0  0  0  0  0  0  0  0  0  0  0  # atno 6908 bound_to 6896
  151.1381  135.0176  159.8668 H   0  0  0  0  0  0  0  0  0  0  0  0  # atno 6909 bound_to 6896
  144.7521  139.8407  143.6362 H   0  0  0  0  0  0  0  0  0  0  0  0  # atno 7974 bound_to 7965
  154.4183  140.1740  156.1713 H   0  0  0  0  0  0  0  0  0  0  0  0  # atno 8008 bound_to 7997
  155.9758  140.3382  155.6593 H   0  0  0  0  0  0  0  0  0  0  0  0  # atno 8009 bound_to 7997
  155.6565  140.0696  157.2559 H   0  0  0  0  0  0  0  0  0  0  0  0  # atno 8010 bound_to 7997
  140.5819  143.8964  150.6797 H   0  0  0  0  0  0  0  0  0  0  0  0  # atno 10167 bound_to 10162
  157.6960  131.0392  150.3666 H   0  0  0  0  0  0  0  0  0  0  0  0  # atno 10718 bound_to 10713
  152.9786  135.5899  154.4150 H   0  0  0  0  0  0  0  0  0  0  0  0  # atno 10763 bound_to 10752
  154.3781  135.2767  155.2229 H   0  0  0  0  0  0  0  0  0  0  0  0  # atno 10764 bound_to 10752
  154.4155  135.6071  153.6033 H   0  0  0  0  0  0  0  0  0  0  0  0  # atno 10765 bound_to 10752
  140.7600  134.3308  157.5104 H   0  0  0  0  0  0  0  0  0  0  0  0  # atno 11005 bound_to 11000
  146.1485  139.4561  143.0064 LP  0  0  0  0  0  0  0  0  0  0  0  0  # atno 17320 bound_to 7965
  145.6907  141.0165  143.1557 LP  0  0  0  0  0  0  0  0  0  0  0  0  # atno 17321 bound_to 7965
  140.2466  143.3624  152.1442 LP  0  0  0  0  0  0  0  0  0  0  0  0  # atno 17342 bound_to 10162
  139.5175  144.6992  151.5542 LP  0  0  0  0  0  0  0  0  0  0  0  0  # atno 17343 bound_to 10162
  156.4096  130.3931  149.6901 LP  0  0  0  0  0  0  0  0  0  0  0  0  # atno 17370 bound_to 10713
  156.4190  130.7759  151.2776 LP  0  0  0  0  0  0  0  0  0  0  0  0  # atno 17371 bound_to 10713
  139.8772  134.9196  156.3231 LP  0  0  0  0  0  0  0  0  0  0  0  0  # atno 17394 bound_to 11000
  140.9671  133.7351  156.0483 LP  0  0  0  0  0  0  0  0  0  0  0  0  # atno 17395 bound_to 11000

$$$$
