#       Name:                AV-unprocessed.smi:3073
#       Creating user name   scv26
#       Creation time:       Fri Mar 27 17:12:08 2020


#       File generated by GOLD software.
#

@<TRIPOS>MOLECULE
AV-unprocessed.smi:3073
    25    26     1
SMALL
NO_CHARGES


@<TRIPOS>ATOM
      1 ****        -3.7162  -0.2063  -0.0276 C.2            1 S1                 0.0000
      2 ****        -3.9575   1.1437  -0.0136 C.2            1 S1                 0.0000
      3 ****        -2.4784   2.0640   0.0136 S.3            1 S1                 0.0000
      4 ****        -1.5728   0.5537   0.0036 C.2            1 S1                 0.0000
      5 ****        -0.0777   0.4951   0.0151 C.3            1 S1                 0.0000
      6 ****         0.4767  -0.1673   1.2902 C.3            1 S1                 0.0000
      7 ****         2.0123  -0.2022   1.2534 C.3            1 S1                 0.0000
      8 ****         2.5167  -0.8663  -0.0388 C.3            1 S1                 0.0000
      9 ****         1.9736  -0.1752  -1.2285 N.4            1 S1                 1.0000
     10 ****         0.4944  -0.1535  -1.2616 C.3            1 S1                 0.0000
     11 ****        -2.3570  -0.5287  -0.0179 N.2            1 S1                 0.0000
     12 ****        -4.4460  -1.0025  -0.0452 H              1 S1                 0.0000
     13 ****        -4.9115   1.6502  -0.0172 H              1 S1                 0.0000
     14 ****         0.2665   1.5307   0.0238 H              1 S1                 0.0000
     15 ****         0.1367   0.3710   2.1758 H              1 S1                 0.0000
     16 ****         0.0936  -1.1851   1.3773 H              1 S1                 0.0000
     17 ****         2.4041   0.8137   1.3209 H              1 S1                 0.0000
     18 ****         2.3938  -0.7389   2.1227 H              1 S1                 0.0000
     19 ****         3.6057  -0.8385  -0.0784 H              1 S1                 0.0000
     20 ****         2.2229  -1.9165  -0.0666 H              1 S1                 0.0000
     21 ****         2.3090   0.7776  -1.2264 H              1 S1                 0.0000
     22 ****         0.1288  -1.1757  -1.3689 H              1 S1                 0.0000
     23 ****         0.1702   0.3955  -2.1461 H              1 S1                 0.0000
     24 ****         2.3127  -0.6376  -2.0601 H              1 S1                 0.0000
     25 ****        -2.0089  -1.4662  -0.0261 LP             1 S1                 0.0000
@<TRIPOS>BOND
    1    1   11 1     
    2    1    2 2     
    3    1   12 1     
    4    2    3 1     
    5    2   13 1     
    6    3    4 1     
    7    4    5 1     
    8    4   11 2     
    9    5   10 1     
   10    5    6 1     
   11    5   14 1     
   12    6    7 1     
   13    6   15 1     
   14    6   16 1     
   15    7    8 1     
   16    7   17 1     
   17    7   18 1     
   18    8    9 1     
   19    8   19 1     
   20    8   20 1     
   21    9   10 1     
   22    9   21 1     
   23    9   24 1     
   24   10   22 1     
   25   10   23 1     
   26   11   25 1     
@<TRIPOS>SUBSTRUCTURE
      1 S1             1
@<TRIPOS>SET
LONE_PAIRS      STATIC     ATOMS    <user>   **** ""
1 25
DONOR_HYDROGENS      STATIC     ATOMS    <user>   **** ""
2 21 24
ATOM$BLUE        STATIC     ATOMS    COLORGROUP SYSTEM
1 25
ATOM$RED        STATIC     ATOMS    COLORGROUP SYSTEM
2 21 24
