AV-unprocessed.smi:1785|AV-procd|sdf|7200|dock8
  -GOLD-   22720 8443D 1   1.00000     0.00000
 Structure written by MMmdl.
 28 29  0  0  0  0  0  0  0  0  1 V2000
  150.8616  144.0723  158.8243 C   0  0  0  0  0  0  0  0  0  0  0  0
  151.7865  143.0798  159.5105 C   0  0  0  0  0  0  0  0  0  0  0  0
  152.4868  143.4763  160.6695 C   0  0  0  0  0  0  0  0  0  0  0  0
  153.3413  142.5576  161.3025 C   0  0  0  0  0  0  0  0  0  0  0  0
  153.4594  141.2725  160.7461 C   0  0  0  0  0  0  0  0  0  0  0  0
  152.7936  140.8848  159.6392 N   0  0  0  0  0  0  0  0  0  0  0  0
  151.9651  141.7599  159.0155 C   0  0  0  0  0  0  0  0  0  0  0  0
  151.2310  141.4226  157.8438 N   0  0  0  0  0  0  0  0  0  0  0  0
  151.5839  140.6127  156.8262 C   0  0  0  0  0  0  0  0  0  0  0  0
  152.6585  140.0127  156.7632 O   0  0  0  0  0  0  0  0  0  0  0  0
  150.5339  140.5430  155.8171 C   0  0  0  0  0  0  0  0  0  0  0  0
  149.8910  141.6742  155.4451 C   0  0  0  0  0  0  0  0  0  0  0  0
  148.8637  141.7033  154.5354 O   0  0  0  0  0  0  0  0  0  0  0  0
  148.3391  140.4262  154.1926 C   0  0  0  0  0  0  0  0  0  0  0  0
  149.4764  139.4072  154.0300 C   0  0  0  0  0  0  0  0  0  0  0  0
  150.2447  139.3319  155.2262 O   0  0  0  0  0  0  0  0  0  0  0  0
  150.8625  145.0354  159.3358 H   0  0  0  0  0  0  0  0  0  0  0  0
  149.8378  143.6972  158.8174 H   0  0  0  0  0  0  0  0  0  0  0  0
  151.1771  144.2405  157.7942 H   0  0  0  0  0  0  0  0  0  0  0  0
  152.3729  144.4725  161.0714 H   0  0  0  0  0  0  0  0  0  0  0  0
  153.8918  142.8308  162.1906 H   0  0  0  0  0  0  0  0  0  0  0  0
  154.1053  140.5361  161.2008 H   0  0  0  0  0  0  0  0  0  0  0  0
  150.3205  141.8514  157.7657 H   0  0  0  0  0  0  0  0  0  0  0  0
  150.0875  142.6564  155.8510 H   0  0  0  0  0  0  0  0  0  0  0  0
  147.6465  140.1020  154.9706 H   0  0  0  0  0  0  0  0  0  0  0  0
  147.7672  140.5114  153.2684 H   0  0  0  0  0  0  0  0  0  0  0  0
  149.0748  138.4200  153.8012 H   0  0  0  0  0  0  0  0  0  0  0  0
  150.1274  139.6896  153.2013 H   0  0  0  0  0  0  0  0  0  0  0  0
  1  2  1  0  0  0  0
  1 17  1  0  0  0  0
  1 18  1  0  0  0  0
  1 19  1  0  0  0  0
  2  7  1  0  0  0  0
  2  3  2  0  0  0  0
  3  4  1  0  0  0  0
  3 20  1  0  0  0  0
  4  5  2  0  0  0  0
  4 21  1  0  0  0  0
  5  6  1  0  0  0  0
  5 22  1  0  0  0  0
  6  7  2  0  0  0  0
  7  8  1  0  0  0  0
  8  9  1  0  0  0  0
  8 23  1  0  0  0  0
  9 10  2  0  0  0  0
  9 11  1  0  0  0  0
 11 16  1  0  0  0  0
 11 12  2  0  0  0  0
 12 13  1  0  0  0  0
 12 24  1  0  0  0  0
 13 14  1  0  0  0  0
 14 15  1  0  0  0  0
 14 25  1  0  0  0  0
 14 26  1  0  0  0  0
 15 16  1  0  0  0  0
 15 27  1  0  0  0  0
 15 28  1  0  0  0  0
M  END
> <s_m_source_file>
AV-unprocessed.smi

> <i_m_source_file_index>
1785

> <i_lp_mmshare_version>
43012

> <i_f3d_flags>
0

> <s_epik_input>
W0NIM11jMVtjSF1bY0hdW2NIXW5jMVtOSF1DKD1PKUMyPVtDSF1PW0NIMl1bQ0gyXU8y

> <s_epik_cmdline>
J2VwaWtfcHl0aG9uJywgJy1waCcsICc3LjAnLCAnLXRuJywgJzgnLCAnLW1hJywgJzIwMCcsICctbWV0YWxfYmluZGluZycsICctaW1hZScsICc8aW5maWxlLm1hZT4nLCAnLW9tYWUnLCAnPG91dGZpbGUubWFlPic=

> <r_lp_tautomer_probability>
1

> <r_epik_Ionization_Penalty>
8.87723e-05

> <r_epik_Ionization_Penalty_Charging>
0

> <r_epik_Ionization_Penalty_Neutral>
8.87723e-05

> <r_epik_State_Penalty>
-0

> <r_epik_Charging_Adjusted_Penalty>
0

> <i_epik_Tot_Q>
0

> <i_epik_Tot_abs_Q>
0

> <r_epik_Metal_State_Penalty>
0.0224094

> <b_epik_Metal_Only>
0

> <s_lp_Force_Field>
OPLS_2005

> <r_lp_Energy>
4.55211

> <b_lp_Chiralities_Consistent>
1

> <s_lp_Variant>
AV-unprocessed.smi:1785-1

> <Gold.Version>
5.8.1

> <Gold.Id.Protein>
6NUR|6NUR_protein|mol2

> <Gold.PLP.Fitness>
37.1375

> <Gold.PLP.PLP>
-32.5244

> <Gold.PLP.part.hbond>
-2.0897

> <Gold.PLP.part.metal>
0.0000

> <Gold.PLP.part.buried>
-1.8569

> <Gold.PLP.part.nonpolar>
-27.1236

> <Gold.PLP.part.repulsive>
0.2968

> <Gold.PLP.ligand.clash>
0.0000

> <Gold.PLP.ligand.torsion>
0.8938

> <Gold.PLP.Chemscore.Hbond>
1.2340

> <Gold.PLP.Chemscore.CHOScore>
0.8991

> <Gold.PLP.Chemscore.Metal>
0.0000

> <Gold.Chemscore.Hbonds>
donor molecule, donor type, donor heavy atom, donor atom, acceptor molecule, acceptor atom, score
      P1  H  7997  8010       L1    10  1.00
      L1  C    12    24       P1  8028  1.00

> <Gold.PLP.Chemscore.Internal.Correction>
0.0012

> <Gold.Rescore>
     Score         DG    S(hbond)    S(metal)    S(lipo)     H(rot)  DE(clash)    DE(int)     intcor
     17.44     -19.98       1.39        0.00      84.37       0.00       0.43       2.11       ----

> <Gold.Chemscore.Fitness>
17.4386

> <Gold.Chemscore.DG>
-19.9815

> <Gold.Chemscore.ZeroCoef>
-5.4800

> <Gold.Chemscore.Hbond>
1.3862

> <Gold.Chemscore.Metal>
0.0000

> <Gold.Chemscore.Lipo>
84.3727

> <Gold.Chemscore.Internal_Hbond>
0.0000

> <Gold.Chemscore.DEClash>
0.4342

> <Gold.Chemscore.DEInternal>
2.1087

> <Gold.Chemscore.Rot>
0.0000

> <Gold.Chemscore.Internal.Correction>
   9.000000E+99

> <Gold.Chemscore.Hbonds>
donor molecule, donor type, donor heavy atom, donor atom, acceptor molecule, acceptor atom, score
      P1  H  7997  8010       L1    10  0.99

> <Gold.Chemscore.Hbond.Weighted>
-4.6299

> <Gold.Chemscore.Metal.Weighted>
-0.0000

> <Gold.Chemscore.Lipo.Weighted>
-9.8716

> <Gold.Chemscore.Internal_Hbond.Weighted>
0.0000

> <Gold.Chemscore.DEClash.Weighted>
0.4342

> <Gold.Chemscore.DEInternal.Weighted>
2.1087

> <Gold.Chemscore.Rot.Weighted>
0.0000

> <Gold.Chemscore.Internal.Correction.Weighted>
   9.000000E+99

> <Gold.Protein.RotatedTorsions>
[ 6907 6896 6895 6894 ] final   71.57 input  -60.11 | X-H torsion
[ 7974 7965 7964 7962 ] final   35.66 input  175.53 | X-H torsion
[ 8008 7997 7996 7995 ] final   63.40 input   59.86 | X-H torsion
[ 10167 10162 10161 10158 ] final  107.59 input  -65.29 | X-H torsion
[ 10718 10713 10712 10709 ] final  -11.16 input   66.30 | X-H torsion
[ 10763 10752 10751 10750 ] final   18.07 input  -60.55 | X-H torsion
[ 11005 11000 10999 10996 ] final  108.50 input  -57.11 | X-H torsion

> <Gold.Protein.ActiveResidues>
 VAL166  LYS551  ARG553  GLY616  TRP617  ASP618  TYR619  PRO620  LYS621  CYS622 
 ASP623  PHE694  ASN695  SER759  ASP760  ASP761  ALA762  ILE779  LEU786  VAL792 
 PHE793  MET794  SER795  GLU796  ALA797  LYS798  CYS799  TRP800  GLU811  SER814 

> <Gold.Protein.RotatedAtoms>
  152.4818  134.4700  159.9632 H   0  0  0  0  0  0  0  0  0  0  0  0  # atno 6907 bound_to 6896
  151.4705  133.3564  159.2830 H   0  0  0  0  0  0  0  0  0  0  0  0  # atno 6908 bound_to 6896
  150.8896  134.8323  159.7344 H   0  0  0  0  0  0  0  0  0  0  0  0  # atno 6909 bound_to 6896
  146.1267  139.6114  142.9254 H   0  0  0  0  0  0  0  0  0  0  0  0  # atno 7974 bound_to 7965
  155.6296  140.3496  155.4678 H   0  0  0  0  0  0  0  0  0  0  0  0  # atno 8008 bound_to 7997
  156.0014  140.1214  157.0567 H   0  0  0  0  0  0  0  0  0  0  0  0  # atno 8009 bound_to 7997
  154.4250  140.1100  156.5688 H   0  0  0  0  0  0  0  0  0  0  0  0  # atno 8010 bound_to 7997
  139.6914  144.7107  151.1341 H   0  0  0  0  0  0  0  0  0  0  0  0  # atno 10167 bound_to 10162
  156.6630  130.4987  149.6024 H   0  0  0  0  0  0  0  0  0  0  0  0  # atno 10718 bound_to 10713
  153.1282  135.6734  153.9222 H   0  0  0  0  0  0  0  0  0  0  0  0  # atno 10763 bound_to 10752
  153.8717  135.3069  155.3443 H   0  0  0  0  0  0  0  0  0  0  0  0  # atno 10764 bound_to 10752
  154.7684  135.4952  153.9680 H   0  0  0  0  0  0  0  0  0  0  0  0  # atno 10765 bound_to 10752
  139.8845  134.9432  156.5981 H   0  0  0  0  0  0  0  0  0  0  0  0  # atno 11005 bound_to 11000
  145.5350  141.0424  143.2362 LP  0  0  0  0  0  0  0  0  0  0  0  0  # atno 17320 bound_to 7965
  144.7649  139.6868  143.7219 LP  0  0  0  0  0  0  0  0  0  0  0  0  # atno 17321 bound_to 7965
  140.7684  143.5553  150.9158 LP  0  0  0  0  0  0  0  0  0  0  0  0  # atno 17342 bound_to 10162
  139.9231  143.6582  152.3092 LP  0  0  0  0  0  0  0  0  0  0  0  0  # atno 17343 bound_to 10162
  156.1996  130.6611  151.1153 LP  0  0  0  0  0  0  0  0  0  0  0  0  # atno 17370 bound_to 10713
  157.7103  131.0737  150.6523 LP  0  0  0  0  0  0  0  0  0  0  0  0  # atno 17371 bound_to 10713
  140.7904  133.8587  155.8641 LP  0  0  0  0  0  0  0  0  0  0  0  0  # atno 17394 bound_to 11000
  140.9682  134.1566  157.4598 LP  0  0  0  0  0  0  0  0  0  0  0  0  # atno 17395 bound_to 11000

$$$$
