AV-unprocessed.smi:283|AV-procd|sdf|2152|dock6
  -GOLD-   2262021493D 1   1.00000     0.00000
 Structure written by MMmdl.
 48 51  0  0  0  0  0  0  0  0  1 V2000
  153.5048  139.3361  160.2417 C   0  0  0  0  0  0  0  0  0  0  0  0
  153.9651  140.7963  160.0636 C   0  0  1  0  0  0  0  0  0  0  0  0
  153.2657  141.4644  158.9677 N   0  0  0  0  0  0  0  0  0  0  0  0
  152.5050  140.7785  158.0864 C   0  0  0  0  0  0  0  0  0  0  0  0
  152.9208  139.5952  157.5646 N   0  0  0  0  0  0  0  0  0  0  0  0
  152.1471  138.9413  156.6938 C   0  0  0  0  0  0  0  0  0  0  0  0
  150.9488  139.2875  156.2190 N   0  0  0  0  0  0  0  0  0  0  0  0
  150.5273  140.4785  156.7344 C   0  0  0  0  0  0  0  0  0  0  0  0
  151.2462  141.2794  157.6656 C   0  0  0  0  0  0  0  0  0  0  0  0
  150.5176  142.4220  157.9659 N   0  0  0  0  0  0  0  0  0  0  0  0
  149.4318  142.2996  157.2512 C   0  0  0  0  0  0  0  0  0  0  0  0
  149.3496  141.1568  156.4862 N   0  0  0  0  0  0  0  0  0  0  0  0
  148.2306  140.7621  155.5736 C   0  0  1  0  0  0  0  0  0  0  0  0
  147.1952  141.6905  155.7270 O   0  0  0  0  0  0  0  0  0  0  0  0
  146.9187  142.3124  154.4765 C   0  0  2  0  0  0  0  0  0  0  0  0
  145.4918  142.8943  154.3895 C   0  0  0  0  0  0  0  0  0  0  0  0
  144.4944  142.0264  154.8861 O   0  0  0  0  0  0  0  0  0  0  0  0
  147.4324  141.3416  153.4040 C   0  0  2  0  0  0  0  0  0  0  0  0
  146.4872  140.3265  153.1081 O   0  0  0  0  0  0  0  0  0  0  0  0
  148.6713  140.7803  154.0981 C   0  0  2  0  0  0  0  0  0  0  0  0
  149.0180  139.5033  153.5966 O   0  0  0  0  0  0  0  0  0  0  0  0
  153.8738  141.5672  161.3798 C   0  0  0  0  0  0  0  0  0  0  0  0
  154.5964  141.0728  162.4890 C   0  0  0  0  0  0  0  0  0  0  0  0
  154.5581  141.7365  163.7295 C   0  0  0  0  0  0  0  0  0  0  0  0
  153.7900  142.9046  163.8769 C   0  0  0  0  0  0  0  0  0  0  0  0
  153.0606  143.4045  162.7830 C   0  0  0  0  0  0  0  0  0  0  0  0
  153.0952  142.7466  161.5366 C   0  0  0  0  0  0  0  0  0  0  0  0
  152.1645  143.4213  160.2433 Cl  0  0  0  0  0  0  0  0  0  0  0  0
  147.8992  139.7827  155.9219 H   0  0  0  0  0  0  0  0  0  0  0  0
  147.5800  143.1775  154.4357 H   0  0  0  0  0  0  0  0  0  0  0  0
  147.6840  141.8592  152.4778 H   0  0  0  0  0  0  0  0  0  0  0  0
  149.5085  141.4669  153.9688 H   0  0  0  0  0  0  0  0  0  0  0  0
  154.0737  138.8448  161.0315 H   0  0  0  0  0  0  0  0  0  0  0  0
  153.6483  138.7532  159.3323 H   0  0  0  0  0  0  0  0  0  0  0  0
  152.4500  139.2699  160.5061 H   0  0  0  0  0  0  0  0  0  0  0  0
  155.0225  140.7733  159.7975 H   0  0  0  0  0  0  0  0  0  0  0  0
  153.2795  142.4739  159.0002 H   0  0  0  0  0  0  0  0  0  0  0  0
  152.5448  138.0077  156.3245 H   0  0  0  0  0  0  0  0  0  0  0  0
  148.6517  143.0469  157.2653 H   0  0  0  0  0  0  0  0  0  0  0  0
  145.4409  143.8363  154.9361 H   0  0  0  0  0  0  0  0  0  0  0  0
  145.2526  143.1202  153.3500 H   0  0  0  0  0  0  0  0  0  0  0  0
  144.2412  141.4333  154.1952 H   0  0  0  0  0  0  0  0  0  0  0  0
  145.6476  140.7348  152.9581 H   0  0  0  0  0  0  0  0  0  0  0  0
  148.9820  139.5377  152.6525 H   0  0  0  0  0  0  0  0  0  0  0  0
  155.1914  140.1763  162.3929 H   0  0  0  0  0  0  0  0  0  0  0  0
  155.1189  141.3489  164.5674 H   0  0  0  0  0  0  0  0  0  0  0  0
  153.7591  143.4164  164.8275 H   0  0  0  0  0  0  0  0  0  0  0  0
  152.4690  144.3004  162.9020 H   0  0  0  0  0  0  0  0  0  0  0  0
  1  2  1  0  0  0  0
  1 33  1  0  0  0  0
  1 34  1  0  0  0  0
  1 35  1  0  0  0  0
  2  3  1  0  0  0  0
  2 22  1  0  0  0  0
  2 36  1  0  0  0  0
  3  4  1  0  0  0  0
  3 37  1  0  0  0  0
  4  9  1  0  0  0  0
  4  5  2  0  0  0  0
  5  6  1  0  0  0  0
  6  7  2  0  0  0  0
  6 38  1  0  0  0  0
  7  8  1  0  0  0  0
  8 12  1  0  0  0  0
  8  9  2  0  0  0  0
  9 10  1  0  0  0  0
 10 11  2  0  0  0  0
 11 12  1  0  0  0  0
 11 39  1  0  0  0  0
 12 13  1  0  0  0  0
 13 29  1  0  0  0  0
 13 20  1  0  0  0  0
 13 14  1  0  0  0  0
 14 15  1  0  0  0  0
 15 30  1  0  0  0  0
 15 16  1  0  0  0  0
 15 18  1  0  0  0  0
 16 17  1  0  0  0  0
 16 40  1  0  0  0  0
 16 41  1  0  0  0  0
 17 42  1  0  0  0  0
 18 31  1  0  0  0  0
 18 19  1  0  0  0  0
 18 20  1  0  0  0  0
 19 43  1  0  0  0  0
 20 32  1  0  0  0  0
 20 21  1  0  0  0  0
 21 44  1  0  0  0  0
 22 27  1  0  0  0  0
 22 23  2  0  0  0  0
 23 24  1  0  0  0  0
 23 45  1  0  0  0  0
 24 25  2  0  0  0  0
 24 46  1  0  0  0  0
 25 26  1  0  0  0  0
 25 47  1  0  0  0  0
 26 27  2  0  0  0  0
 26 48  1  0  0  0  0
 27 28  1  0  0  0  0
M  END
> <s_m_source_file>
AV-unprocessed.smi

> <i_m_source_file_index>
283

> <i_lp_mmshare_version>
43012

> <i_f3d_flags>
0

> <s_epik_input>
Q2xjMVtjSF1bY0hdW2NIXVtjSF1jMVtDQEhdKFtDSDNdKVtOSF1jKG5bY0hdbjIpYyhjMjMpbltjSF1uM1tDQEBIXTRPW0NASF0oW0NIMl1bT0hdKVtDQEBIXShbT0hdKVtDQEhdNFtPSF0=

> <s_epik_cmdline>
J2VwaWtfcHl0aG9uJywgJy1waCcsICc3LjAnLCAnLXRuJywgJzgnLCAnLW1hJywgJzIwMCcsICctbWV0YWxfYmluZGluZycsICctaW1hZScsICc8aW5maWxlLm1hZT4nLCAnLW9tYWUnLCAnPG91dGZpbGUubWFlPic=

> <r_lp_tautomer_probability>
1

> <r_epik_Ionization_Penalty>
0.000266407

> <r_epik_Ionization_Penalty_Charging>
0

> <r_epik_Ionization_Penalty_Neutral>
0.000266407

> <r_epik_State_Penalty>
-0

> <r_epik_Charging_Adjusted_Penalty>
0

> <i_epik_Tot_Q>
0

> <i_epik_Tot_abs_Q>
0

> <r_epik_Metal_State_Penalty>
-0

> <b_epik_Metal_Only>
0

> <s_epik_Chemistry_Notes>
This compound contains an acetal/aminal-like group ( X-CH(R)-Y where X, Y are N, S, or O) that may be acid/base labile, releasing an aldehyde.

> <s_lp_Force_Field>
OPLS_2005

> <r_lp_Energy>
54.2889

> <b_lp_Chiralities_Consistent>
1

> <s_lp_Variant>
AV-unprocessed.smi:283-28

> <Gold.Version>
5.8.1

> <Gold.Id.Protein>
6NUR|6NUR_protein|mol2

> <Gold.PLP.Fitness>
61.5515

> <Gold.PLP.PLP>
-49.0277

> <Gold.PLP.part.hbond>
-4.0078

> <Gold.PLP.part.metal>
0.0000

> <Gold.PLP.part.buried>
0.1880

> <Gold.PLP.part.nonpolar>
-43.4172

> <Gold.PLP.part.repulsive>
0.2929

> <Gold.PLP.ligand.clash>
0.0000

> <Gold.PLP.ligand.torsion>
0.7985

> <Gold.PLP.Chemscore.Hbond>
3.9600

> <Gold.PLP.Chemscore.CHOScore>
0.7090

> <Gold.PLP.Chemscore.Metal>
0.0000

> <Gold.Chemscore.Hbonds>
donor molecule, donor type, donor heavy atom, donor atom, acceptor molecule, acceptor atom, score
      L1  H    17    42       P1 10175  1.00
      L1  H    19    43       P1 10175  0.95
      L1  H    21    44       P1  7957  1.00
      P1  H  7997  8009       L1     5  1.00
      L1  C    11    39       P1  8028  0.71

> <Gold.PLP.Chemscore.Internal.Correction>
0.1136

> <Gold.Rescore>
     Score         DG    S(hbond)    S(metal)    S(lipo)     H(rot)  DE(clash)    DE(int)     intcor
     14.20     -19.40       3.03        0.00     121.95       4.10       0.28       4.92       ----

> <Gold.Chemscore.Fitness>
14.2011

> <Gold.Chemscore.DG>
-19.3969

> <Gold.Chemscore.ZeroCoef>
-5.4800

> <Gold.Chemscore.Hbond>
3.0348

> <Gold.Chemscore.Metal>
0.0000

> <Gold.Chemscore.Lipo>
121.9533

> <Gold.Chemscore.Internal_Hbond>
0.0000

> <Gold.Chemscore.DEClash>
0.2770

> <Gold.Chemscore.DEInternal>
4.9189

> <Gold.Chemscore.Rot>
4.0968

> <Gold.Chemscore.Internal.Correction>
   9.000000E+99

> <Gold.Chemscore.Hbonds>
donor molecule, donor type, donor heavy atom, donor atom, acceptor molecule, acceptor atom, score
      L1  H    17    42       P1 10175  0.33
      L1  H    19    43       P1 10175  0.52
      L1  H    21    44       P1  7957  0.96
      P1  H  7997  8009       L1     5  0.13

> <Gold.Chemscore.Hbond.Weighted>
-10.1363

> <Gold.Chemscore.Metal.Weighted>
-0.0000

> <Gold.Chemscore.Lipo.Weighted>
-14.2685

> <Gold.Chemscore.Internal_Hbond.Weighted>
0.0000

> <Gold.Chemscore.DEClash.Weighted>
0.2770

> <Gold.Chemscore.DEInternal.Weighted>
4.9189

> <Gold.Chemscore.Rot.Weighted>
10.4879

> <Gold.Chemscore.Internal.Correction.Weighted>
   9.000000E+99

> <Gold.Protein.RotatedTorsions>
[ 6907 6896 6895 6894 ] final  154.70 input  -60.11 | X-H torsion
[ 7974 7965 7964 7962 ] final    3.25 input  175.53 | X-H torsion
[ 8008 7997 7996 7995 ] final -172.70 input   59.86 | X-H torsion
[ 10167 10162 10161 10158 ] final  -37.46 input  -65.29 | X-H torsion
[ 10718 10713 10712 10709 ] final  -20.92 input   66.30 | X-H torsion
[ 10763 10752 10751 10750 ] final -135.97 input  -60.55 | X-H torsion
[ 11005 11000 10999 10996 ] final  -76.44 input  -57.11 | X-H torsion

> <Gold.Protein.ActiveResidues>
 VAL166  LYS551  ARG553  GLY616  TRP617  ASP618  TYR619  PRO620  LYS621  CYS622 
 ASP623  PHE694  ASN695  SER759  ASP760  ASP761  ALA762  ILE779  LEU786  VAL792 
 PHE793  MET794  SER795  GLU796  ALA797  LYS798  CYS799  TRP800  GLU811  SER814 

> <Gold.Protein.RotatedAtoms>
  152.0547  133.4035  159.4391 H   0  0  0  0  0  0  0  0  0  0  0  0  # atno 6907 bound_to 6896
  150.6868  134.3268  159.4819 H   0  0  0  0  0  0  0  0  0  0  0  0  # atno 6908 bound_to 6896
  152.1082  134.9293  160.0618 H   0  0  0  0  0  0  0  0  0  0  0  0  # atno 6909 bound_to 6896
  146.2445  140.0714  142.8362 H   0  0  0  0  0  0  0  0  0  0  0  0  # atno 7974 bound_to 7965
  155.9479  140.1121  157.1001 H   0  0  0  0  0  0  0  0  0  0  0  0  # atno 8008 bound_to 7997
  154.4103  140.1206  156.5080 H   0  0  0  0  0  0  0  0  0  0  0  0  # atno 8009 bound_to 7997
  155.6879  140.3473  155.4884 H   0  0  0  0  0  0  0  0  0  0  0  0  # atno 8010 bound_to 7997
  140.7118  143.3341  151.2503 H   0  0  0  0  0  0  0  0  0  0  0  0  # atno 10167 bound_to 10162
  156.5253  130.4642  149.6575 H   0  0  0  0  0  0  0  0  0  0  0  0  # atno 10718 bound_to 10713
  154.8693  135.3687  154.4985 H   0  0  0  0  0  0  0  0  0  0  0  0  # atno 10763 bound_to 10752
  153.5628  135.7022  153.5545 H   0  0  0  0  0  0  0  0  0  0  0  0  # atno 10764 bound_to 10752
  153.3613  135.4046  155.1683 H   0  0  0  0  0  0  0  0  0  0  0  0  # atno 10765 bound_to 10752
  141.1654  133.6984  156.7669 H   0  0  0  0  0  0  0  0  0  0  0  0  # atno 11005 bound_to 11000
  145.0813  140.9222  143.4824 LP  0  0  0  0  0  0  0  0  0  0  0  0  # atno 17320 bound_to 7965
  145.0868  139.2919  143.5755 LP  0  0  0  0  0  0  0  0  0  0  0  0  # atno 17321 bound_to 7965
  139.6831  143.9820  152.2819 LP  0  0  0  0  0  0  0  0  0  0  0  0  # atno 17342 bound_to 10162
  139.9457  144.6653  150.8222 LP  0  0  0  0  0  0  0  0  0  0  0  0  # atno 17343 bound_to 10162
  156.3111  130.7229  151.2122 LP  0  0  0  0  0  0  0  0  0  0  0  0  # atno 17370 bound_to 10713
  157.7430  131.0481  150.4977 LP  0  0  0  0  0  0  0  0  0  0  0  0  # atno 17371 bound_to 10713
  140.2493  134.8553  157.3651 LP  0  0  0  0  0  0  0  0  0  0  0  0  # atno 17394 bound_to 11000
  140.1719  134.4598  155.7826 LP  0  0  0  0  0  0  0  0  0  0  0  0  # atno 17395 bound_to 11000

$$$$
