AV-unprocessed.smi:79|AV-procd|sdf|779|dock9
  -GOLD-   2262017133D 1   1.00000     0.00000
 Structure written by MMmdl.
 56 59  0  0  0  0  0  0  0  0  2 V2000
  144.8220  132.4916  151.2225 C   0  0  0  0  0  0  0  0  0  0  0  0
  146.1591  133.2358  151.3348 C   0  0  2  0  0  0  0  0  0  0  0  0
  146.9019  132.9703  150.1616 O   0  0  0  0  0  0  0  0  0  0  0  0
  146.9649  132.7783  152.5677 C   0  0  0  0  0  0  0  0  0  0  0  0
  147.6498  133.8994  153.2610 N   0  3  1  0  0  0  0  0  0  0  0  0
  146.7276  134.7631  154.0412 C   0  0  0  0  0  0  0  0  0  0  0  0
  147.4817  135.9487  154.6605 C   0  0  0  0  0  0  0  0  0  0  0  0
  148.6255  135.4948  155.4450 N   0  0  0  0  0  0  0  0  0  0  0  0
  149.1907  136.5187  156.1231 C   0  0  0  0  0  0  0  0  0  0  0  0
  149.2267  136.4194  157.4740 N   0  0  0  0  0  0  0  0  0  0  0  0
  149.7751  137.3988  158.2000 C   0  0  0  0  0  0  0  0  0  0  0  0
  150.3277  138.5395  157.7809 N   0  0  0  0  0  0  0  0  0  0  0  0
  150.2877  138.6423  156.4214 C   0  0  0  0  0  0  0  0  0  0  0  0
  149.7410  137.6855  155.5216 C   0  0  0  0  0  0  0  0  0  0  0  0
  149.8740  138.1336  154.2130 N   0  0  0  0  0  0  0  0  0  0  0  0
  150.4658  139.2909  154.3330 C   0  0  0  0  0  0  0  0  0  0  0  0
  150.7589  139.6709  155.6239 N   0  0  0  0  0  0  0  0  0  0  0  0
  151.4076  140.9032  156.0453 C   0  0  0  0  0  0  0  0  0  0  0  0
  150.5927  141.7178  157.0696 C   0  0  0  0  0  0  0  0  0  0  0  0
  149.1086  141.7684  156.6660 C   0  0  0  0  0  0  0  0  0  0  0  0
  148.9408  142.3043  155.3692 O   0  0  0  0  0  0  0  0  0  0  0  0
  150.8349  141.3693  158.5453 C   0  0  0  0  0  0  0  0  0  0  0  0
  151.0943  142.7463  158.8892 O   0  0  0  0  0  0  0  0  0  0  0  0
  151.1957  143.0665  157.4854 C   0  0  0  0  0  0  0  0  0  0  0  0
  149.5551  134.6169  154.7248 C   0  0  1  0  0  0  0  0  0  0  0  0
  150.6937  134.0887  155.6211 C   0  0  0  0  0  0  0  0  0  0  0  0
  148.7876  133.4356  154.0941 C   0  0  0  0  0  0  0  0  0  0  0  0
  144.1953  132.6799  152.0945 H   0  0  0  0  0  0  0  0  0  0  0  0
  144.9695  131.4137  151.1465 H   0  0  0  0  0  0  0  0  0  0  0  0
  144.2649  132.8143  150.3420 H   0  0  0  0  0  0  0  0  0  0  0  0
  145.9512  134.3043  151.3763 H   0  0  0  0  0  0  0  0  0  0  0  0
  147.4682  132.2301  150.3157 H   0  0  0  0  0  0  0  0  0  0  0  0
  146.3161  132.2641  153.2785 H   0  0  0  0  0  0  0  0  0  0  0  0
  147.7002  132.0401  152.2431 H   0  0  0  0  0  0  0  0  0  0  0  0
  145.9274  135.1441  153.4082 H   0  0  0  0  0  0  0  0  0  0  0  0
  146.2553  134.1731  154.8282 H   0  0  0  0  0  0  0  0  0  0  0  0
  147.8238  136.6170  153.8688 H   0  0  0  0  0  0  0  0  0  0  0  0
  146.8032  136.5249  155.2919 H   0  0  0  0  0  0  0  0  0  0  0  0
  149.7703  137.2470  159.2695 H   0  0  0  0  0  0  0  0  0  0  0  0
  150.7044  139.9033  153.4757 H   0  0  0  0  0  0  0  0  0  0  0  0
  152.3806  140.6362  156.4599 H   0  0  0  0  0  0  0  0  0  0  0  0
  151.6265  141.5014  155.1602 H   0  0  0  0  0  0  0  0  0  0  0  0
  148.6439  140.7834  156.7088 H   0  0  0  0  0  0  0  0  0  0  0  0
  148.5462  142.3965  157.3580 H   0  0  0  0  0  0  0  0  0  0  0  0
  148.9671  143.2474  155.4279 H   0  0  0  0  0  0  0  0  0  0  0  0
  149.9604  140.9654  159.0570 H   0  0  0  0  0  0  0  0  0  0  0  0
  151.7109  140.7429  158.7192 H   0  0  0  0  0  0  0  0  0  0  0  0
  152.2329  143.2033  157.1754 H   0  0  0  0  0  0  0  0  0  0  0  0
  150.5904  143.9301  157.2080 H   0  0  0  0  0  0  0  0  0  0  0  0
  150.0021  135.1918  153.9128 H   0  0  0  0  0  0  0  0  0  0  0  0
  151.3380  133.4031  155.0699 H   0  0  0  0  0  0  0  0  0  0  0  0
  150.3003  133.5506  156.4844 H   0  0  0  0  0  0  0  0  0  0  0  0
  151.3301  134.8932  155.9908 H   0  0  0  0  0  0  0  0  0  0  0  0
  148.4105  132.7724  154.8750 H   0  0  0  0  0  0  0  0  0  0  0  0
  149.4720  132.8471  153.4814 H   0  0  0  0  0  0  0  0  0  0  0  0
  148.0544  134.4764  152.5378 H   0  0  0  0  0  0  0  0  0  0  0  0
  1  2  1  0  0  0  0
  1 28  1  0  0  0  0
  1 29  1  0  0  0  0
  1 30  1  0  0  0  0
  2  3  1  0  0  0  0
  2  4  1  0  0  0  0
  2 31  1  0  0  0  0
  3 32  1  0  0  0  0
  4  5  1  0  0  0  0
  4 33  1  0  0  0  0
  4 34  1  0  0  0  0
  5 27  1  0  0  0  0
  5  6  1  0  0  0  0
  5 56  1  0  0  0  0
  6  7  1  0  0  0  0
  6 35  1  0  0  0  0
  6 36  1  0  0  0  0
  7  8  1  0  0  0  0
  7 37  1  0  0  0  0
  7 38  1  0  0  0  0
  8  9  1  0  0  0  0
  8 25  1  0  0  0  0
  9 14  1  0  0  0  0
  9 10  2  0  0  0  0
 10 11  1  0  0  0  0
 11 12  2  0  0  0  0
 11 39  1  0  0  0  0
 12 13  1  0  0  0  0
 13 17  1  0  0  0  0
 13 14  2  0  0  0  0
 14 15  1  0  0  0  0
 15 16  2  0  0  0  0
 16 17  1  0  0  0  0
 16 40  1  0  0  0  0
 17 18  1  0  0  0  0
 18 19  1  0  0  0  0
 18 41  1  0  0  0  0
 18 42  1  0  0  0  0
 19 24  1  0  0  0  0
 19 20  1  0  0  0  0
 19 22  1  0  0  0  0
 20 21  1  0  0  0  0
 20 43  1  0  0  0  0
 20 44  1  0  0  0  0
 21 45  1  0  0  0  0
 22 23  1  0  0  0  0
 22 46  1  0  0  0  0
 22 47  1  0  0  0  0
 23 24  1  0  0  0  0
 24 48  1  0  0  0  0
 24 49  1  0  0  0  0
 25 26  1  0  0  0  0
 25 27  1  0  0  0  0
 25 50  1  0  0  0  0
 26 51  1  0  0  0  0
 26 52  1  0  0  0  0
 26 53  1  0  0  0  0
 27 54  1  0  0  0  0
 27 55  1  0  0  0  0
M  CHG  1   5   1
M  END
> <s_m_source_file>
AV-unprocessed.smi

> <i_m_source_file_index>
79

> <i_lp_mmshare_version>
43012

> <i_f3d_flags>
0

> <s_epik_input>
W0NIM11bQ0BIXShbT0hdKVtDSDJdTjFbQ0gyXVtDSDJdTihbQ0BASF0oW0NIM10pW0NIMl0xKWMobltjSF1uMiljKGMyMyluW2NIXW4zW0NIMl1DNChbQ0gyXVtPSF0pW0NIMl1PW0NIMl00

> <s_epik_cmdline>
J2VwaWtfcHl0aG9uJywgJy1waCcsICc3LjAnLCAnLXRuJywgJzgnLCAnLW1hJywgJzIwMCcsICctbWV0YWxfYmluZGluZycsICctaW1hZScsICc8aW5maWxlLm1hZT4nLCAnLW9tYWUnLCAnPG91dGZpbGUubWFlPic=

> <r_lp_tautomer_probability>
1

> <r_epik_Ionization_Penalty>
0.00515943

> <r_epik_Ionization_Penalty_Charging>
0.00509693

> <r_epik_Ionization_Penalty_Neutral>
6.25007e-05

> <r_epik_State_Penalty>
-0

> <r_epik_Charging_Adjusted_Penalty>
0.00509693

> <i_epik_Tot_Q>
1

> <i_epik_Tot_abs_Q>
1

> <r_epik_Metal_State_Penalty>
-0

> <b_epik_Metal_Only>
0

> <s_lp_Force_Field>
OPLS_2005

> <r_lp_Energy>
50.7064

> <b_lp_Chiralities_Consistent>
1

> <s_lp_Variant>
AV-unprocessed.smi:79-3

> <Gold.Version>
5.8.1

> <Gold.Id.Protein>
6NUR|6NUR_protein|mol2

> <Gold.PLP.Fitness>
48.4469

> <Gold.PLP.PLP>
-35.8541

> <Gold.PLP.part.hbond>
-4.1727

> <Gold.PLP.part.metal>
0.0000

> <Gold.PLP.part.buried>
-3.0245

> <Gold.PLP.part.nonpolar>
-27.5134

> <Gold.PLP.part.repulsive>
0.3558

> <Gold.PLP.ligand.clash>
0.0000

> <Gold.PLP.ligand.torsion>
1.2368

> <Gold.PLP.Chemscore.Hbond>
4.0000

> <Gold.PLP.Chemscore.CHOScore>
0.8470

> <Gold.PLP.Chemscore.Metal>
0.0000

> <Gold.Chemscore.Hbonds>
donor molecule, donor type, donor heavy atom, donor atom, acceptor molecule, acceptor atom, score
      L1  H     3    32       P1 10747  1.00
      L1  H     5    56       P1  7948  1.95
      L1  H    21    45       P1  8028  0.89
      L1  C    16    40       P1  7957  0.95

> <Gold.PLP.Chemscore.Internal.Correction>
0.5252

> <Gold.Rescore>
     Score         DG    S(hbond)    S(metal)    S(lipo)     H(rot)  DE(clash)    DE(int)     intcor
     11.31     -12.63       2.34        0.00      75.67       3.72       0.07       1.25       ----

> <Gold.Chemscore.Fitness>
11.3080

> <Gold.Chemscore.DG>
-12.6322

> <Gold.Chemscore.ZeroCoef>
-5.4800

> <Gold.Chemscore.Hbond>
2.3441

> <Gold.Chemscore.Metal>
0.0000

> <Gold.Chemscore.Lipo>
75.6652

> <Gold.Chemscore.Internal_Hbond>
0.0000

> <Gold.Chemscore.DEClash>
0.0697

> <Gold.Chemscore.DEInternal>
1.2545

> <Gold.Chemscore.Rot>
3.7226

> <Gold.Chemscore.Internal.Correction>
   9.000000E+99

> <Gold.Chemscore.Hbonds>
donor molecule, donor type, donor heavy atom, donor atom, acceptor molecule, acceptor atom, score
      L1  H     3    32       P1 10747  0.93
      L1  H     5    56       P1  7948  0.36
      L1  H    21    45       P1  8028  0.86

> <Gold.Chemscore.Hbond.Weighted>
-7.8292

> <Gold.Chemscore.Metal.Weighted>
-0.0000

> <Gold.Chemscore.Lipo.Weighted>
-8.8528

> <Gold.Chemscore.Internal_Hbond.Weighted>
0.0000

> <Gold.Chemscore.DEClash.Weighted>
0.0697

> <Gold.Chemscore.DEInternal.Weighted>
1.2545

> <Gold.Chemscore.Rot.Weighted>
9.5298

> <Gold.Chemscore.Internal.Correction.Weighted>
   9.000000E+99

> <Gold.Protein.RotatedTorsions>
[ 6907 6896 6895 6894 ] final -179.40 input  -60.11 | X-H torsion
[ 7974 7965 7964 7962 ] final   34.44 input  175.53 | X-H torsion
[ 8008 7997 7996 7995 ] final  175.97 input   59.86 | X-H torsion
[ 10167 10162 10161 10158 ] final   82.77 input  -65.29 | X-H torsion
[ 10718 10713 10712 10709 ] final   99.64 input   66.30 | X-H torsion
[ 10763 10752 10751 10750 ] final   40.37 input  -60.55 | X-H torsion
[ 11005 11000 10999 10996 ] final   77.13 input  -57.11 | X-H torsion

> <Gold.Protein.ActiveResidues>
 VAL166  LYS551  ARG553  GLY616  TRP617  ASP618  TYR619  PRO620  LYS621  CYS622 
 ASP623  PHE694  ASN695  SER759  ASP760  ASP761  ALA762  ILE779  LEU786  VAL792 
 PHE793  MET794  SER795  GLU796  ALA797  LYS798  CYS799  TRP800  GLU811  SER814 

> <Gold.Protein.RotatedAtoms>
  151.6528  133.3320  159.3155 H   0  0  0  0  0  0  0  0  0  0  0  0  # atno 6907 bound_to 6896
  150.7952  134.7010  159.6559 H   0  0  0  0  0  0  0  0  0  0  0  0  # atno 6908 bound_to 6896
  152.4038  134.6246  160.0111 H   0  0  0  0  0  0  0  0  0  0  0  0  # atno 6909 bound_to 6896
  146.1352  139.6268  142.9200 H   0  0  0  0  0  0  0  0  0  0  0  0  # atno 7974 bound_to 7965
  156.0815  140.1395  156.9707 H   0  0  0  0  0  0  0  0  0  0  0  0  # atno 8008 bound_to 7997
  154.4588  140.0951  156.6882 H   0  0  0  0  0  0  0  0  0  0  0  0  # atno 8009 bound_to 7997
  155.5068  140.3452  155.4383 H   0  0  0  0  0  0  0  0  0  0  0  0  # atno 8010 bound_to 7997
  139.9253  144.6187  150.8399 H   0  0  0  0  0  0  0  0  0  0  0  0  # atno 10167 bound_to 10162
  157.6872  131.0675  150.4978 H   0  0  0  0  0  0  0  0  0  0  0  0  # atno 10718 bound_to 10713
  152.9938  135.6193  154.2615 H   0  0  0  0  0  0  0  0  0  0  0  0  # atno 10763 bound_to 10752
  154.2351  135.2790  155.2877 H   0  0  0  0  0  0  0  0  0  0  0  0  # atno 10764 bound_to 10752
  154.5417  135.5759  153.6903 H   0  0  0  0  0  0  0  0  0  0  0  0  # atno 10765 bound_to 10752
  139.9268  134.7658  156.1483 H   0  0  0  0  0  0  0  0  0  0  0  0  # atno 11005 bound_to 11000
  145.5171  141.0433  143.2456 LP  0  0  0  0  0  0  0  0  0  0  0  0  # atno 17320 bound_to 7965
  144.7732  139.6687  143.7186 LP  0  0  0  0  0  0  0  0  0  0  0  0  # atno 17321 bound_to 7965
  140.7652  143.3268  151.2498 LP  0  0  0  0  0  0  0  0  0  0  0  0  # atno 17342 bound_to 10162
  139.6827  143.9826  152.2817 LP  0  0  0  0  0  0  0  0  0  0  0  0  # atno 17343 bound_to 10162
  156.5301  130.4183  149.6206 LP  0  0  0  0  0  0  0  0  0  0  0  0  # atno 17370 bound_to 10713
  156.3076  130.7211  151.2097 LP  0  0  0  0  0  0  0  0  0  0  0  0  # atno 17371 bound_to 10713
  141.0830  133.6746  156.2377 LP  0  0  0  0  0  0  0  0  0  0  0  0  # atno 17394 bound_to 11000
  140.6314  134.5260  157.5560 LP  0  0  0  0  0  0  0  0  0  0  0  0  # atno 17395 bound_to 11000

$$$$
