#       Name:                AV-unprocessed.smi:3057
#       Creating user name   scv26
#       Creation time:       Fri Mar 27 17:06:38 2020


#       File generated by GOLD software.
#

@<TRIPOS>MOLECULE
AV-unprocessed.smi:3057
    45    47     1
SMALL
NO_CHARGES


@<TRIPOS>ATOM
      1 ****        -3.0364   2.9101   1.2898 C.3            1 S1                 0.0000
      2 ****        -3.7223   1.6833   0.6585 C.3            1 S1                 0.0000
      3 ****        -4.8199   2.1015  -0.3369 C.3            1 S1                 0.0000
      4 ****        -4.1272   2.0760  -1.7073 C.3            1 S1                 0.0000
      5 ****        -2.9699   1.1194  -1.4705 C.2            1 S1                 0.0000
      6 ****        -2.3477   0.5725  -2.3796 O.2            1 S1                 0.0000
      7 ****        -2.7948   0.9230  -0.1575 N.am           1 S1                 0.0000
      8 ****        -2.0546  -0.1714   0.4753 C.3            1 S1                 0.0000
      9 ****        -0.5535   0.1580   0.5391 C.2            1 S1                 0.0000
     10 ****        -0.1652   1.2798   0.8677 O.2            1 S1                 0.0000
     11 ****         0.2811  -0.8440   0.2289 N.am           1 S1                 0.0000
     12 ****         1.7343  -0.7410   0.2208 C.3            1 S1                 0.0000
     13 ****         2.3513  -1.9007  -0.5735 C.3            1 S1                 0.0000
     14 ****         3.8674  -1.8474  -0.5903 C.ar           1 S1                 0.0000
     15 ****         4.6272  -2.6836   0.2555 C.ar           1 S1                 0.0000
     16 ****         6.0317  -2.5939   0.2018 C.ar           1 S1                 0.0000
     17 ****         6.6193  -1.6758  -0.6896 C.ar           1 S1                 0.0000
     18 ****         5.7726  -0.8841  -1.4909 C.ar           1 S1                 0.0000
     19 ****         4.4249  -0.9631  -1.4480 N.ar           1 S1                 0.0000
     20 ****        -2.6281  -0.3185   1.9070 C.3            1 S1                 0.0000
     21 ****        -4.2455   0.5042   1.9148 S.3            1 S1                 0.0000
     22 ****        -2.6122   3.5662   0.5290 H              1 S1                 0.0000
     23 ****        -2.2290   2.6216   1.9626 H              1 S1                 0.0000
     24 ****        -3.7477   3.4967   1.8718 H              1 S1                 0.0000
     25 ****        -5.6388   1.3804  -0.3315 H              1 S1                 0.0000
     26 ****        -5.2469   3.0787  -0.1078 H              1 S1                 0.0000
     27 ****        -4.7890   1.7292  -2.5014 H              1 S1                 0.0000
     28 ****        -3.7343   3.0572  -1.9756 H              1 S1                 0.0000
     29 ****        -2.2271  -1.0899  -0.0893 H              1 S1                 0.0000
     30 ****        -0.1179  -1.7345  -0.0307 H              1 S1                 0.0000
     31 ****         2.0395   0.2105  -0.2182 H              1 S1                 0.0000
     32 ****         2.0954  -0.7526   1.2500 H              1 S1                 0.0000
     33 ****         2.0316  -2.8542  -0.1507 H              1 S1                 0.0000
     34 ****         1.9871  -1.8838  -1.6019 H              1 S1                 0.0000
     35 ****         4.1473  -3.3779   0.9297 H              1 S1                 0.0000
     36 ****         6.6469  -3.2182   0.8328 H              1 S1                 0.0000
     37 ****         7.6928  -1.5804  -0.7577 H              1 S1                 0.0000
     38 ****         6.1890  -0.1691  -2.1851 H              1 S1                 0.0000
     39 ****        -2.7258  -1.3626   2.2040 H              1 S1                 0.0000
     40 ****        -2.0056   0.1780   2.6533 H              1 S1                 0.0000
     41 ****        -2.5958   0.7492  -3.3321 LP             1 S1                 0.0000
     42 ****        -1.5938  -0.0488  -2.1662 LP             1 S1                 0.0000
     43 ****        -0.8292   1.9913   1.0976 LP             1 S1                 0.0000
     44 ****         0.8141   1.4790   0.9046 LP             1 S1                 0.0000
     45 ****         3.8563  -0.3848  -2.0331 LP             1 S1                 0.0000
@<TRIPOS>BOND
    1    1    2 1     
    2    1   22 1     
    3    1   23 1     
    4    1   24 1     
    5    2    7 1     
    6    2   21 1     
    7    2    3 1     
    8    3    4 1     
    9    3   25 1     
   10    3   26 1     
   11    4    5 1     
   12    4   27 1     
   13    4   28 1     
   14    5    6 2     
   15    5    7 am    
   16    7    8 1     
   17    8    9 1     
   18    8   20 1     
   19    8   29 1     
   20    9   10 2     
   21    9   11 am    
   22   11   12 1     
   23   11   30 1     
   24   12   13 1     
   25   12   31 1     
   26   12   32 1     
   27   13   14 1     
   28   13   33 1     
   29   13   34 1     
   30   14   19 ar    
   31   14   15 ar    
   32   15   16 ar    
   33   15   35 1     
   34   16   17 ar    
   35   16   36 1     
   36   17   18 ar    
   37   17   37 1     
   38   18   19 ar    
   39   18   38 1     
   40   20   21 1     
   41   20   39 1     
   42   20   40 1     
   43    6   41 1     
   44    6   42 1     
   45   10   43 1     
   46   10   44 1     
   47   19   45 1     
@<TRIPOS>SUBSTRUCTURE
      1 S1             1
@<TRIPOS>SET
LONE_PAIRS      STATIC     ATOMS    <user>   **** ""
5 41 42 43 44 45
DONOR_HYDROGENS      STATIC     ATOMS    <user>   **** ""
1 30
ATOM$BLUE        STATIC     ATOMS    COLORGROUP SYSTEM
5 41 42 43 44 45
ATOM$RED        STATIC     ATOMS    COLORGROUP SYSTEM
1 30
