AV-unprocessed.smi:1252|AV-procd|sdf|5266|dock7
  -GOLD-   22720 4383D 1   1.00000     0.00000
 Structure written by MMmdl.
 44 45  0  0  0  0  0  0  0  0  2 V2000
  150.4523  142.3184  158.2604 C   0  0  0  0  0  0  0  0  0  0  0  0
  150.1602  141.6383  156.9098 C   0  0  2  0  0  0  0  0  0  0  0  0
  148.7804  140.9654  156.8567 C   0  0  0  0  0  0  0  0  0  0  0  0
  148.0249  140.9829  157.8285 O   0  0  0  0  0  0  0  0  0  0  0  0
  148.4896  140.3324  155.7101 N   0  0  0  0  0  0  0  0  0  0  0  0
  147.3411  139.4606  155.4748 C   0  0  0  0  0  0  0  0  0  0  0  0
  146.3515  140.0313  154.4134 C   0  0  0  0  0  0  0  0  0  0  0  0
  145.8852  141.4247  154.9043 C   0  0  0  0  0  0  0  0  0  0  0  0
  147.1208  140.2338  153.0879 C   0  0  0  0  0  0  0  0  0  0  0  0
  145.1667  139.1135  154.2385 N   0  3  0  0  0  0  0  0  0  0  0  0
  145.4453  137.7988  153.5947 C   0  0  0  0  0  0  0  0  0  0  0  0
  144.1362  137.0353  153.3289 C   0  0  0  0  0  0  0  0  0  0  0  0
  143.4130  136.8729  154.5406 O   0  0  0  0  0  0  0  0  0  0  0  0
  143.0596  138.1234  155.1136 C   0  0  0  0  0  0  0  0  0  0  0  0
  144.3362  138.9064  155.4578 C   0  0  0  0  0  0  0  0  0  0  0  0
  151.1896  140.6607  156.5789 N   0  0  0  0  0  0  0  0  0  0  0  0
  152.1393  140.1009  157.3336 C   0  0  0  0  0  0  0  0  0  0  0  0
  152.8723  139.2011  156.6936 N   0  0  0  0  0  0  0  0  0  0  0  0
  152.2889  139.2664  155.4604 C   0  0  0  0  0  0  0  0  0  0  0  0
  151.2642  140.1105  155.3431 N   0  0  0  0  0  0  0  0  0  0  0  0
  149.7100  143.0858  158.4834 H   0  0  0  0  0  0  0  0  0  0  0  0
  151.4284  142.8042  158.2472 H   0  0  0  0  0  0  0  0  0  0  0  0
  150.4512  141.6039  159.0846 H   0  0  0  0  0  0  0  0  0  0  0  0
  150.1700  142.4137  156.1416 H   0  0  0  0  0  0  0  0  0  0  0  0
  149.1629  140.4019  154.9605 H   0  0  0  0  0  0  0  0  0  0  0  0
  147.6701  138.4564  155.2014 H   0  0  0  0  0  0  0  0  0  0  0  0
  146.8379  139.3339  156.4333 H   0  0  0  0  0  0  0  0  0  0  0  0
  146.7294  142.0363  155.2246 H   0  0  0  0  0  0  0  0  0  0  0  0
  145.1990  141.3493  155.7483 H   0  0  0  0  0  0  0  0  0  0  0  0
  145.3826  141.9917  154.1205 H   0  0  0  0  0  0  0  0  0  0  0  0
  147.9519  140.9268  153.2251 H   0  0  0  0  0  0  0  0  0  0  0  0
  146.4876  140.6499  152.3046 H   0  0  0  0  0  0  0  0  0  0  0  0
  147.5474  139.3047  152.7110 H   0  0  0  0  0  0  0  0  0  0  0  0
  145.9503  137.9200  152.6384 H   0  0  0  0  0  0  0  0  0  0  0  0
  146.0961  137.1993  154.2317 H   0  0  0  0  0  0  0  0  0  0  0  0
  143.5233  137.5576  152.5938 H   0  0  0  0  0  0  0  0  0  0  0  0
  144.3546  136.0506  152.9154 H   0  0  0  0  0  0  0  0  0  0  0  0
  142.4250  138.6896  154.4301 H   0  0  0  0  0  0  0  0  0  0  0  0
  142.4748  137.9437  156.0158 H   0  0  0  0  0  0  0  0  0  0  0  0
  144.9023  138.3564  156.2101 H   0  0  0  0  0  0  0  0  0  0  0  0
  144.0435  139.8537  155.9067 H   0  0  0  0  0  0  0  0  0  0  0  0
  152.2872  140.3461  158.3753 H   0  0  0  0  0  0  0  0  0  0  0  0
  152.6164  138.6595  154.6293 H   0  0  0  0  0  0  0  0  0  0  0  0
  144.5662  139.5986  153.5870 H   0  0  0  0  0  0  0  0  0  0  0  0
  1  2  1  0  0  0  0
  1 21  1  0  0  0  0
  1 22  1  0  0  0  0
  1 23  1  0  0  0  0
  2  3  1  0  0  0  0
  2 16  1  0  0  0  0
  2 24  1  0  0  0  0
  3  4  2  0  0  0  0
  3  5  1  0  0  0  0
  5  6  1  0  0  0  0
  5 25  1  0  0  0  0
  6  7  1  0  0  0  0
  6 26  1  0  0  0  0
  6 27  1  0  0  0  0
  7  8  1  0  0  0  0
  7  9  1  0  0  0  0
  7 10  1  0  0  0  0
  8 28  1  0  0  0  0
  8 29  1  0  0  0  0
  8 30  1  0  0  0  0
  9 31  1  0  0  0  0
  9 32  1  0  0  0  0
  9 33  1  0  0  0  0
 10 15  1  0  0  0  0
 10 11  1  0  0  0  0
 10 44  1  0  0  0  0
 11 12  1  0  0  0  0
 11 34  1  0  0  0  0
 11 35  1  0  0  0  0
 12 13  1  0  0  0  0
 12 36  1  0  0  0  0
 12 37  1  0  0  0  0
 13 14  1  0  0  0  0
 14 15  1  0  0  0  0
 14 38  1  0  0  0  0
 14 39  1  0  0  0  0
 15 40  1  0  0  0  0
 15 41  1  0  0  0  0
 16 20  1  0  0  0  0
 16 17  1  0  0  0  0
 17 18  2  0  0  0  0
 17 42  1  0  0  0  0
 18 19  1  0  0  0  0
 19 20  2  0  0  0  0
 19 43  1  0  0  0  0
M  CHG  1  10   1
M  END
> <s_m_source_file>
AV-unprocessed.smi

> <i_m_source_file_index>
1252

> <i_lp_mmshare_version>
43012

> <i_f3d_flags>
0

> <s_epik_input>
bjFbY0hdbltjSF1uMVtDQEhdKFtDSDNdKUMoPU8pW05IXVtDSDJdQyhbQ0gzXSkoW0NIM10pTjJbQ0gyXVtDSDJdT1tDSDJdW0NIMl0y

> <s_epik_cmdline>
J2VwaWtfcHl0aG9uJywgJy1waCcsICc3LjAnLCAnLXRuJywgJzgnLCAnLW1hJywgJzIwMCcsICctbWV0YWxfYmluZGluZycsICctaW1hZScsICc8aW5maWxlLm1hZT4nLCAnLW9tYWUnLCAnPG91dGZpbGUubWFlPic=

> <r_lp_tautomer_probability>
1

> <r_epik_Ionization_Penalty>
0.71326

> <r_epik_Ionization_Penalty_Charging>
0.713252

> <r_epik_Ionization_Penalty_Neutral>
8.22342e-06

> <r_epik_State_Penalty>
0.737017

> <r_epik_Charging_Adjusted_Penalty>
1.45027

> <i_epik_Tot_Q>
1

> <i_epik_Tot_abs_Q>
1

> <r_epik_Metal_State_Penalty>
0.73702

> <b_epik_Metal_Only>
0

> <s_lp_Force_Field>
OPLS_2005

> <r_lp_Energy>
34.1677

> <b_lp_Chiralities_Consistent>
1

> <s_lp_Variant>
AV-unprocessed.smi:1252-3

> <Gold.Version>
5.8.1

> <Gold.Id.Protein>
6NUR|6NUR_protein|mol2

> <Gold.PLP.Fitness>
34.6878

> <Gold.PLP.PLP>
-23.2511

> <Gold.PLP.part.hbond>
-3.0000

> <Gold.PLP.part.metal>
0.0000

> <Gold.PLP.part.buried>
-3.4094

> <Gold.PLP.part.nonpolar>
-17.7729

> <Gold.PLP.part.repulsive>
0.1137

> <Gold.PLP.ligand.clash>
0.0000

> <Gold.PLP.ligand.torsion>
0.2983

> <Gold.PLP.Chemscore.Hbond>
3.9500

> <Gold.PLP.Chemscore.CHOScore>
0.0000

> <Gold.PLP.Chemscore.Metal>
0.0000

> <Gold.Chemscore.Hbonds>
donor molecule, donor type, donor heavy atom, donor atom, acceptor molecule, acceptor atom, score
      L1  H    10    44       P1 10175  2.00
      P1  H  7989  7998       L1    20  1.00
      P1  H  7997  8009       L1    18  0.85

> <Gold.PLP.Chemscore.Internal.Correction>
0.1832

> <Gold.Rescore>
     Score         DG    S(hbond)    S(metal)    S(lipo)     H(rot)  DE(clash)    DE(int)     intcor
      7.39      -9.10       1.78        0.00      36.59       2.59       0.04       1.66       ----

> <Gold.Chemscore.Fitness>
7.3876

> <Gold.Chemscore.DG>
-9.0953

> <Gold.Chemscore.ZeroCoef>
-5.4800

> <Gold.Chemscore.Hbond>
1.7829

> <Gold.Chemscore.Metal>
0.0000

> <Gold.Chemscore.Lipo>
36.5941

> <Gold.Chemscore.Internal_Hbond>
0.0000

> <Gold.Chemscore.DEClash>
0.0439

> <Gold.Chemscore.DEInternal>
1.6638

> <Gold.Chemscore.Rot>
2.5864

> <Gold.Chemscore.Internal.Correction>
   9.000000E+99

> <Gold.Chemscore.Hbonds>
donor molecule, donor type, donor heavy atom, donor atom, acceptor molecule, acceptor atom, score
      L1  H    10    44       P1 10175  1.00
      P1  H  7989  7998       L1    20  0.23
      P1  H  7997  8009       L1    18  0.06

> <Gold.Chemscore.Hbond.Weighted>
-5.9549

> <Gold.Chemscore.Metal.Weighted>
-0.0000

> <Gold.Chemscore.Lipo.Weighted>
-4.2815

> <Gold.Chemscore.Internal_Hbond.Weighted>
0.0000

> <Gold.Chemscore.DEClash.Weighted>
0.0439

> <Gold.Chemscore.DEInternal.Weighted>
1.6638

> <Gold.Chemscore.Rot.Weighted>
6.6211

> <Gold.Chemscore.Internal.Correction.Weighted>
   9.000000E+99

> <Gold.Protein.RotatedTorsions>
[ 6907 6896 6895 6894 ] final  159.67 input  -60.11 | X-H torsion
[ 7974 7965 7964 7962 ] final  172.42 input  175.53 | X-H torsion
[ 8008 7997 7996 7995 ] final -157.67 input   59.86 | X-H torsion
[ 10167 10162 10161 10158 ] final  130.28 input  -65.29 | X-H torsion
[ 10718 10713 10712 10709 ] final   45.49 input   66.30 | X-H torsion
[ 10763 10752 10751 10750 ] final   57.79 input  -60.55 | X-H torsion
[ 11005 11000 10999 10996 ] final  -97.82 input  -57.11 | X-H torsion

> <Gold.Protein.ActiveResidues>
 VAL166  LYS551  ARG553  GLY616  TRP617  ASP618  TYR619  PRO620  LYS621  CYS622 
 ASP623  PHE694  ASN695  SER759  ASP760  ASP761  ALA762  ILE779  LEU786  VAL792 
 PHE793  MET794  SER795  GLU796  ALA797  LYS798  CYS799  TRP800  GLU811  SER814 

> <Gold.Protein.RotatedAtoms>
  151.9821  133.3761  159.4111 H   0  0  0  0  0  0  0  0  0  0  0  0  # atno 6907 bound_to 6896
  150.6933  134.4027  159.5135 H   0  0  0  0  0  0  0  0  0  0  0  0  # atno 6908 bound_to 6896
  152.1748  134.8804  160.0582 H   0  0  0  0  0  0  0  0  0  0  0  0  # atno 6909 bound_to 6896
  144.7268  139.9496  143.6431 H   0  0  0  0  0  0  0  0  0  0  0  0  # atno 7974 bound_to 7965
  155.7360  140.0808  157.2267 H   0  0  0  0  0  0  0  0  0  0  0  0  # atno 8008 bound_to 7997
  154.4027  140.1586  156.2617 H   0  0  0  0  0  0  0  0  0  0  0  0  # atno 8009 bound_to 7997
  155.9065  140.3406  155.6069 H   0  0  0  0  0  0  0  0  0  0  0  0  # atno 8010 bound_to 7997
  139.5437  144.6754  151.4541 H   0  0  0  0  0  0  0  0  0  0  0  0  # atno 10167 bound_to 10162
  157.4381  130.8065  149.7668 H   0  0  0  0  0  0  0  0  0  0  0  0  # atno 10718 bound_to 10713
  152.9857  135.5629  154.5447 H   0  0  0  0  0  0  0  0  0  0  0  0  # atno 10763 bound_to 10752
  154.4895  135.2792  155.1510 H   0  0  0  0  0  0  0  0  0  0  0  0  # atno 10764 bound_to 10752
  154.2985  135.6312  153.5468 H   0  0  0  0  0  0  0  0  0  0  0  0  # atno 10765 bound_to 10752
  141.1366  133.8199  157.0757 H   0  0  0  0  0  0  0  0  0  0  0  0  # atno 11005 bound_to 11000
  146.0721  139.3710  143.0516 LP  0  0  0  0  0  0  0  0  0  0  0  0  # atno 17320 bound_to 7965
  145.7953  140.9796  143.1027 LP  0  0  0  0  0  0  0  0  0  0  0  0  # atno 17321 bound_to 7965
  140.6677  143.8361  150.6962 LP  0  0  0  0  0  0  0  0  0  0  0  0  # atno 17342 bound_to 10162
  140.1776  143.4142  152.1956 LP  0  0  0  0  0  0  0  0  0  0  0  0  # atno 17343 bound_to 10162
  155.9938  130.3922  150.2884 LP  0  0  0  0  0  0  0  0  0  0  0  0  # atno 17370 bound_to 10713
  157.1046  131.0205  151.3072 LP  0  0  0  0  0  0  0  0  0  0  0  0  # atno 17371 bound_to 10713
  140.0483  134.9819  157.1090 LP  0  0  0  0  0  0  0  0  0  0  0  0  # atno 17394 bound_to 11000
  140.4029  134.2064  155.7163 LP  0  0  0  0  0  0  0  0  0  0  0  0  # atno 17395 bound_to 11000

$$$$
