AV-unprocessed.smi:169|AV-procd|sdf|1405|dock5
  -GOLD-   2262019153D 1   1.00000     0.00000
 Structure written by MMmdl.
 56 60  0  0  0  0  0  0  0  0  2 V2000
  150.7612  141.3939  158.4381 C   0  0  0  0  0  0  0  0  0  0  0  0
  150.1547  142.4526  157.4998 C   0  0  0  0  0  0  0  0  0  0  0  0
  149.1137  141.9193  156.5822 N   0  3  1  0  0  0  0  0  0  0  0  0
  149.6526  140.9859  155.5608 C   0  0  0  0  0  0  0  0  0  0  0  0
  148.9637  141.1384  154.1900 C   0  0  0  0  0  0  0  0  0  0  0  0
  147.4189  141.1835  154.1985 C   0  0  2  0  0  0  0  0  0  0  0  0
  146.8482  142.5996  154.4232 C   0  0  0  0  0  0  0  0  0  0  0  0
  146.1969  142.5650  155.8097 C   0  0  0  0  0  0  0  0  0  0  0  0
  146.6606  141.2382  156.4192 C   0  0  2  0  0  0  0  0  0  0  0  0
  147.9224  141.3855  157.2999 C   0  0  0  0  0  0  0  0  0  0  0  0
  146.8637  140.3585  155.2715 N   0  0  0  0  0  0  0  0  0  0  0  0
  145.8482  139.4904  155.0253 C   0  0  0  0  0  0  0  0  0  0  0  0
  144.7743  139.4214  155.8560 N   0  0  0  0  0  0  0  0  0  0  0  0
  143.7856  138.5567  155.6101 C   0  0  0  0  0  0  0  0  0  0  0  0
  143.6729  137.6818  154.6092 N   0  0  0  0  0  0  0  0  0  0  0  0
  144.7484  137.7426  153.7737 C   0  0  0  0  0  0  0  0  0  0  0  0
  145.8669  138.6126  153.9061 C   0  0  0  0  0  0  0  0  0  0  0  0
  146.7596  138.4022  152.8622 N   0  0  0  0  0  0  0  0  0  0  0  0
  146.2016  137.4584  152.1542 C   0  0  0  0  0  0  0  0  0  0  0  0
  144.9977  136.9941  152.6364 N   0  0  0  0  0  0  0  0  0  0  0  0
  144.1727  135.9498  152.0477 C   0  0  0  0  0  0  0  0  0  0  0  0
  144.8405  134.5589  152.0177 C   0  0  0  0  0  0  0  0  0  0  0  0
  145.2532  134.1161  153.4328 C   0  0  0  0  0  0  0  0  0  0  0  0
  144.1560  134.1339  154.3237 O   0  0  0  0  0  0  0  0  0  0  0  0
  144.1078  133.4786  151.2089 C   0  0  0  0  0  0  0  0  0  0  0  0
  145.3053  133.1337  150.4816 O   0  0  0  0  0  0  0  0  0  0  0  0
  145.9167  134.3575  150.9420 C   0  0  0  0  0  0  0  0  0  0  0  0
  151.5339  141.8394  159.0648 H   0  0  0  0  0  0  0  0  0  0  0  0
  151.2237  140.5775  157.8834 H   0  0  0  0  0  0  0  0  0  0  0  0
  150.0125  140.9664  159.1049 H   0  0  0  0  0  0  0  0  0  0  0  0
  149.7252  143.2618  158.0915 H   0  0  0  0  0  0  0  0  0  0  0  0
  150.9465  142.9095  156.9049 H   0  0  0  0  0  0  0  0  0  0  0  0
  150.7187  141.1646  155.4127 H   0  0  0  0  0  0  0  0  0  0  0  0
  149.5735  139.9580  155.9193 H   0  0  0  0  0  0  0  0  0  0  0  0
  149.3525  142.0173  153.6742 H   0  0  0  0  0  0  0  0  0  0  0  0
  149.2763  140.2915  153.5779 H   0  0  0  0  0  0  0  0  0  0  0  0
  147.0976  140.8439  153.2136 H   0  0  0  0  0  0  0  0  0  0  0  0
  147.6218  143.3662  154.3717 H   0  0  0  0  0  0  0  0  0  0  0  0
  146.1035  142.8432  153.6644 H   0  0  0  0  0  0  0  0  0  0  0  0
  146.4523  143.4312  156.4210 H   0  0  0  0  0  0  0  0  0  0  0  0
  145.1118  142.5535  155.6971 H   0  0  0  0  0  0  0  0  0  0  0  0
  145.8610  140.8638  157.0603 H   0  0  0  0  0  0  0  0  0  0  0  0
  148.1643  140.4217  157.7495 H   0  0  0  0  0  0  0  0  0  0  0  0
  147.6792  142.0519  158.1285 H   0  0  0  0  0  0  0  0  0  0  0  0
  142.9683  138.5662  156.3163 H   0  0  0  0  0  0  0  0  0  0  0  0
  146.6597  137.0648  151.2583 H   0  0  0  0  0  0  0  0  0  0  0  0
  143.2359  135.9125  152.6052 H   0  0  0  0  0  0  0  0  0  0  0  0
  143.8975  136.2620  151.0396 H   0  0  0  0  0  0  0  0  0  0  0  0
  145.6983  133.1210  153.4305 H   0  0  0  0  0  0  0  0  0  0  0  0
  146.0165  134.7839  153.8338 H   0  0  0  0  0  0  0  0  0  0  0  0
  143.9156  133.2412  154.5210 H   0  0  0  0  0  0  0  0  0  0  0  0
  143.7254  132.6535  151.8109 H   0  0  0  0  0  0  0  0  0  0  0  0
  143.3358  133.8631  150.5413 H   0  0  0  0  0  0  0  0  0  0  0  0
  145.9183  135.1259  150.1670 H   0  0  0  0  0  0  0  0  0  0  0  0
  146.9209  134.2026  151.3380 H   0  0  0  0  0  0  0  0  0  0  0  0
  148.7887  142.7272  156.0702 H   0  0  0  0  0  0  0  0  0  0  0  0
  1  2  1  0  0  0  0
  1 28  1  0  0  0  0
  1 29  1  0  0  0  0
  1 30  1  0  0  0  0
  2  3  1  0  0  0  0
  2 31  1  0  0  0  0
  2 32  1  0  0  0  0
  3 10  1  0  0  0  0
  3  4  1  0  0  0  0
  3 56  1  0  0  0  0
  4  5  1  0  0  0  0
  4 33  1  0  0  0  0
  4 34  1  0  0  0  0
  5  6  1  0  0  0  0
  5 35  1  0  0  0  0
  5 36  1  0  0  0  0
  6 11  1  0  0  0  0
  6  7  1  0  0  0  0
  6 37  1  0  0  0  0
  7  8  1  0  0  0  0
  7 38  1  0  0  0  0
  7 39  1  0  0  0  0
  8  9  1  0  0  0  0
  8 40  1  0  0  0  0
  8 41  1  0  0  0  0
  9 10  1  0  0  0  0
  9 11  1  0  0  0  0
  9 42  1  0  0  0  0
 10 43  1  0  0  0  0
 10 44  1  0  0  0  0
 11 12  1  0  0  0  0
 12 17  1  0  0  0  0
 12 13  2  0  0  0  0
 13 14  1  0  0  0  0
 14 15  2  0  0  0  0
 14 45  1  0  0  0  0
 15 16  1  0  0  0  0
 16 20  1  0  0  0  0
 16 17  2  0  0  0  0
 17 18  1  0  0  0  0
 18 19  2  0  0  0  0
 19 20  1  0  0  0  0
 19 46  1  0  0  0  0
 20 21  1  0  0  0  0
 21 22  1  0  0  0  0
 21 47  1  0  0  0  0
 21 48  1  0  0  0  0
 22 27  1  0  0  0  0
 22 23  1  0  0  0  0
 22 25  1  0  0  0  0
 23 24  1  0  0  0  0
 23 49  1  0  0  0  0
 23 50  1  0  0  0  0
 24 51  1  0  0  0  0
 25 26  1  0  0  0  0
 25 52  1  0  0  0  0
 25 53  1  0  0  0  0
 26 27  1  0  0  0  0
 27 54  1  0  0  0  0
 27 55  1  0  0  0  0
M  CHG  1   3   1
M  END
> <s_m_source_file>
AV-unprocessed.smi

> <i_m_source_file_index>
169

> <i_lp_mmshare_version>
43012

> <i_f3d_flags>
0

> <s_epik_input>
W0NASF0xMltDSDJdW0NIMl1OKFtDSDJdW0NIM10pW0NIMl1bQ0BIXShbQ0gyXVtDSDJdMSlOMmMobltjSF1uMyljKGMzNCluW2NIXW40W0NIMl1DNShbQ0gyXVtPSF0pW0NIMl1PW0NIMl01

> <s_epik_cmdline>
J2VwaWtfcHl0aG9uJywgJy1waCcsICc3LjAnLCAnLXRuJywgJzgnLCAnLW1hJywgJzIwMCcsICctbWV0YWxfYmluZGluZycsICctaW1hZScsICc8aW5maWxlLm1hZT4nLCAnLW9tYWUnLCAnPG91dGZpbGUubWFlPic=

> <r_lp_tautomer_probability>
1

> <r_epik_Ionization_Penalty>
0.00274162

> <r_epik_Ionization_Penalty_Charging>
0.00243722

> <r_epik_Ionization_Penalty_Neutral>
0.000304399

> <r_epik_State_Penalty>
-0

> <r_epik_Charging_Adjusted_Penalty>
0.00243722

> <i_epik_Tot_Q>
1

> <i_epik_Tot_abs_Q>
1

> <r_epik_Metal_State_Penalty>
-0

> <b_epik_Metal_Only>
0

> <s_lp_Force_Field>
OPLS_2005

> <r_lp_Energy>
77.4951

> <b_lp_Chiralities_Consistent>
1

> <s_lp_Variant>
AV-unprocessed.smi:169-8

> <Gold.Version>
5.8.1

> <Gold.Id.Protein>
6NUR|6NUR_protein|mol2

> <Gold.PLP.Fitness>
42.9149

> <Gold.PLP.PLP>
-32.5945

> <Gold.PLP.part.hbond>
-2.0000

> <Gold.PLP.part.metal>
0.0000

> <Gold.PLP.part.buried>
-0.6448

> <Gold.PLP.part.nonpolar>
-29.8434

> <Gold.PLP.part.repulsive>
0.6522

> <Gold.PLP.ligand.clash>
0.0000

> <Gold.PLP.ligand.torsion>
0.3944

> <Gold.PLP.Chemscore.Hbond>
3.0000

> <Gold.PLP.Chemscore.CHOScore>
0.5286

> <Gold.PLP.Chemscore.Metal>
0.0000

> <Gold.Chemscore.Hbonds>
donor molecule, donor type, donor heavy atom, donor atom, acceptor molecule, acceptor atom, score
      L1  H     3    56       P1  8028  1.98
      L1  H    24    51       P1 10957  1.00
      L1  C    19    46       P1  7948  0.59

> <Gold.PLP.Chemscore.Internal.Correction>
0.5235

> <Gold.Rescore>
     Score         DG    S(hbond)    S(metal)    S(lipo)     H(rot)  DE(clash)    DE(int)     intcor
     12.90     -13.83       1.93        0.00      73.49       2.62       0.48       0.45       ----

> <Gold.Chemscore.Fitness>
12.9017

> <Gold.Chemscore.DG>
-13.8290

> <Gold.Chemscore.ZeroCoef>
-5.4800

> <Gold.Chemscore.Hbond>
1.9343

> <Gold.Chemscore.Metal>
0.0000

> <Gold.Chemscore.Lipo>
73.4924

> <Gold.Chemscore.Internal_Hbond>
0.0000

> <Gold.Chemscore.DEClash>
0.4810

> <Gold.Chemscore.DEInternal>
0.4463

> <Gold.Chemscore.Rot>
2.6212

> <Gold.Chemscore.Internal.Correction>
   9.000000E+99

> <Gold.Chemscore.Hbonds>
donor molecule, donor type, donor heavy atom, donor atom, acceptor molecule, acceptor atom, score
      L1  H     3    56       P1  8028  0.88
      L1  H    24    51       P1 10957  0.97

> <Gold.Chemscore.Hbond.Weighted>
-6.4606

> <Gold.Chemscore.Metal.Weighted>
-0.0000

> <Gold.Chemscore.Lipo.Weighted>
-8.5986

> <Gold.Chemscore.Internal_Hbond.Weighted>
0.0000

> <Gold.Chemscore.DEClash.Weighted>
0.4810

> <Gold.Chemscore.DEInternal.Weighted>
0.4463

> <Gold.Chemscore.Rot.Weighted>
6.7102

> <Gold.Chemscore.Internal.Correction.Weighted>
   9.000000E+99

> <Gold.Protein.RotatedTorsions>
[ 6907 6896 6895 6894 ] final  127.98 input  -60.11 | X-H torsion
[ 7974 7965 7964 7962 ] final   27.03 input  175.53 | X-H torsion
[ 8008 7997 7996 7995 ] final   55.18 input   59.86 | X-H torsion
[ 10167 10162 10161 10158 ] final -111.04 input  -65.29 | X-H torsion
[ 10718 10713 10712 10709 ] final  -58.83 input   66.30 | X-H torsion
[ 10763 10752 10751 10750 ] final -121.60 input  -60.55 | X-H torsion
[ 11005 11000 10999 10996 ] final  166.50 input  -57.11 | X-H torsion

> <Gold.Protein.ActiveResidues>
 VAL166  LYS551  ARG553  GLY616  TRP617  ASP618  TYR619  PRO620  LYS621  CYS622 
 ASP623  PHE694  ASN695  SER759  ASP760  ASP761  ALA762  ILE779  LEU786  VAL792 
 PHE793  MET794  SER795  GLU796  ALA797  LYS798  CYS799  TRP800  GLU811  SER814 

> <Gold.Protein.RotatedAtoms>
  152.3762  133.6484  159.6124 H   0  0  0  0  0  0  0  0  0  0  0  0  # atno 6907 bound_to 6896
  150.7705  133.9189  159.3401 H   0  0  0  0  0  0  0  0  0  0  0  0  # atno 6908 bound_to 6896
  151.7003  135.0932  160.0301 H   0  0  0  0  0  0  0  0  0  0  0  0  # atno 6909 bound_to 6896
  146.1806  139.7247  142.8903 H   0  0  0  0  0  0  0  0  0  0  0  0  # atno 7974 bound_to 7965
  155.4969  140.3473  155.4364 H   0  0  0  0  0  0  0  0  0  0  0  0  # atno 8008 bound_to 7997
  156.0939  140.1418  156.9584 H   0  0  0  0  0  0  0  0  0  0  0  0  # atno 8009 bound_to 7997
  154.4652  140.0920  156.6977 H   0  0  0  0  0  0  0  0  0  0  0  0  # atno 8010 bound_to 7997
  140.1380  143.4304  152.1582 H   0  0  0  0  0  0  0  0  0  0  0  0  # atno 10167 bound_to 10162
  156.1106  130.4175  150.0632 H   0  0  0  0  0  0  0  0  0  0  0  0  # atno 10718 bound_to 10713
  154.8672  135.4162  154.2646 H   0  0  0  0  0  0  0  0  0  0  0  0  # atno 10763 bound_to 10752
  153.3568  135.7001  153.6750 H   0  0  0  0  0  0  0  0  0  0  0  0  # atno 10764 bound_to 10752
  153.5667  135.3599  155.2794 H   0  0  0  0  0  0  0  0  0  0  0  0  # atno 10765 bound_to 10752
  140.2671  134.7856  157.3642 H   0  0  0  0  0  0  0  0  0  0  0  0  # atno 11005 bound_to 11000
  145.4087  141.0394  143.3029 LP  0  0  0  0  0  0  0  0  0  0  0  0  # atno 17320 bound_to 7965
  144.8309  139.5630  143.6944 LP  0  0  0  0  0  0  0  0  0  0  0  0  # atno 17321 bound_to 7965
  139.5486  144.7319  151.4504 LP  0  0  0  0  0  0  0  0  0  0  0  0  # atno 17342 bound_to 10162
  140.6778  143.8151  150.7081 LP  0  0  0  0  0  0  0  0  0  0  0  0  # atno 17343 bound_to 10162
  156.8596  130.9487  151.3619 LP  0  0  0  0  0  0  0  0  0  0  0  0  # atno 17370 bound_to 10713
  157.6286  130.8711  149.9234 LP  0  0  0  0  0  0  0  0  0  0  0  0  # atno 17371 bound_to 10713
  140.1409  134.4974  155.8033 LP  0  0  0  0  0  0  0  0  0  0  0  0  # atno 17394 bound_to 11000
  141.2182  133.6825  156.7207 LP  0  0  0  0  0  0  0  0  0  0  0  0  # atno 17395 bound_to 11000

$$$$
