AV-unprocessed.smi:295|AV-procd|sdf|2255|dock3
  -GOLD-   2262022143D 1   1.00000     0.00000
 Structure written by MMmdl.
 35 36  0  0  0  0  0  0  0  0  1 V2000
  151.7725  144.2983  157.6867 C   0  0  0  0  0  0  0  0  0  0  0  0
  152.4071  143.9113  159.0335 C   0  0  1  0  0  0  0  0  0  0  0  0
  151.4406  144.1628  160.2092 C   0  0  0  0  0  0  0  0  0  0  0  0
  152.0962  143.8350  161.5605 C   0  0  0  0  0  0  0  0  0  0  0  0
  152.6287  142.3945  161.5905 C   0  0  0  0  0  0  0  0  0  0  0  0
  153.5928  142.1323  160.4200 C   0  0  0  0  0  0  0  0  0  0  0  0
  152.9552  142.4615  159.0549 C   0  0  1  0  0  0  0  0  0  0  0  0
  151.9122  141.4801  158.7535 N   0  0  0  0  0  0  0  0  0  0  0  0
  152.1025  140.1995  158.3975 C   0  0  0  0  0  0  0  0  0  0  0  0
  153.2119  139.6949  158.2294 O   0  0  0  0  0  0  0  0  0  0  0  0
  150.8411  139.3580  158.1959 C   0  0  0  0  0  0  0  0  0  0  0  0
  151.0927  138.2408  157.3029 N   0  0  0  0  0  0  0  0  0  0  0  0
  151.8932  138.1445  156.2358 C   0  0  0  0  0  0  0  0  0  0  0  0
  151.8557  136.9602  155.6381 N   0  0  0  0  0  0  0  0  0  0  0  0
  150.9502  136.3418  156.4510 C   0  0  0  0  0  0  0  0  0  0  0  0
  150.5349  134.9688  156.2187 C   0  0  0  0  0  0  0  0  0  0  0  0
  150.2044  133.8753  156.0340 N   0  0  0  0  0  0  0  0  0  0  0  0
  150.4595  137.0532  157.4637 N   0  0  0  0  0  0  0  0  0  0  0  0
  150.8667  143.7253  157.4869 H   0  0  0  0  0  0  0  0  0  0  0  0
  152.4654  144.1254  156.8628 H   0  0  0  0  0  0  0  0  0  0  0  0
  151.5020  145.3543  157.6723 H   0  0  0  0  0  0  0  0  0  0  0  0
  153.2620  144.5745  159.1741 H   0  0  0  0  0  0  0  0  0  0  0  0
  151.1175  145.2043  160.2078 H   0  0  0  0  0  0  0  0  0  0  0  0
  150.5383  143.5626  160.0854 H   0  0  0  0  0  0  0  0  0  0  0  0
  152.9160  144.5304  161.7455 H   0  0  0  0  0  0  0  0  0  0  0  0
  151.3782  143.9831  162.3676 H   0  0  0  0  0  0  0  0  0  0  0  0
  153.1366  142.2073  162.5371 H   0  0  0  0  0  0  0  0  0  0  0  0
  151.7938  141.6941  161.5475 H   0  0  0  0  0  0  0  0  0  0  0  0
  154.4875  142.7419  160.5531 H   0  0  0  0  0  0  0  0  0  0  0  0
  153.9291  141.0949  160.4393 H   0  0  0  0  0  0  0  0  0  0  0  0
  153.7450  142.3871  158.3054 H   0  0  0  0  0  0  0  0  0  0  0  0
  150.9599  141.7999  158.8522 H   0  0  0  0  0  0  0  0  0  0  0  0
  150.4963  138.9734  159.1564 H   0  0  0  0  0  0  0  0  0  0  0  0
  150.0373  139.9718  157.7863 H   0  0  0  0  0  0  0  0  0  0  0  0
  152.5092  138.9599  155.8854 H   0  0  0  0  0  0  0  0  0  0  0  0
  1  2  1  0  0  0  0
  1 19  1  0  0  0  0
  1 20  1  0  0  0  0
  1 21  1  0  0  0  0
  2  7  1  0  0  0  0
  2  3  1  0  0  0  0
  2 22  1  0  0  0  0
  3  4  1  0  0  0  0
  3 23  1  0  0  0  0
  3 24  1  0  0  0  0
  4  5  1  0  0  0  0
  4 25  1  0  0  0  0
  4 26  1  0  0  0  0
  5  6  1  0  0  0  0
  5 27  1  0  0  0  0
  5 28  1  0  0  0  0
  6  7  1  0  0  0  0
  6 29  1  0  0  0  0
  6 30  1  0  0  0  0
  7  8  1  0  0  0  0
  7 31  1  0  0  0  0
  8  9  1  0  0  0  0
  8 32  1  0  0  0  0
  9 10  2  0  0  0  0
  9 11  1  0  0  0  0
 11 12  1  0  0  0  0
 11 33  1  0  0  0  0
 11 34  1  0  0  0  0
 12 18  1  0  0  0  0
 12 13  1  0  0  0  0
 13 14  2  0  0  0  0
 13 35  1  0  0  0  0
 14 15  1  0  0  0  0
 15 16  1  0  0  0  0
 15 18  2  0  0  0  0
 16 17  3  0  0  0  0
M  END
> <s_m_source_file>
AV-unprocessed.smi

> <i_m_source_file_index>
295

> <i_lp_mmshare_version>
43012

> <i_f3d_flags>
0

> <s_epik_input>
W0NIM11bQ0BASF0xW0NIMl1bQ0gyXVtDSDJdW0NIMl1bQ0BIXTFbTkhdQyg9TylbQ0gyXW4yW2NIXW5jKG4yKUMjTg==

> <s_epik_cmdline>
J2VwaWtfcHl0aG9uJywgJy1waCcsICc3LjAnLCAnLXRuJywgJzgnLCAnLW1hJywgJzIwMCcsICctbWV0YWxfYmluZGluZycsICctaW1hZScsICc8aW5maWxlLm1hZT4nLCAnLW9tYWUnLCAnPG91dGZpbGUubWFlPic=

> <r_lp_tautomer_probability>
1

> <r_epik_Ionization_Penalty>
5.31112e-08

> <r_epik_Ionization_Penalty_Charging>
0

> <r_epik_Ionization_Penalty_Neutral>
5.31112e-08

> <r_epik_State_Penalty>
-0

> <r_epik_Charging_Adjusted_Penalty>
0

> <i_epik_Tot_Q>
0

> <i_epik_Tot_abs_Q>
0

> <r_epik_Metal_State_Penalty>
-0

> <b_epik_Metal_Only>
0

> <s_lp_Force_Field>
OPLS_2005

> <r_lp_Energy>
13.099

> <b_lp_Chiralities_Consistent>
1

> <s_lp_Variant>
AV-unprocessed.smi:295-2

> <Gold.Version>
5.8.1

> <Gold.Id.Protein>
6NUR|6NUR_protein|mol2

> <Gold.PLP.Fitness>
42.0664

> <Gold.PLP.PLP>
-37.9821

> <Gold.PLP.part.hbond>
-2.0000

> <Gold.PLP.part.metal>
0.0000

> <Gold.PLP.part.buried>
-5.6390

> <Gold.PLP.part.nonpolar>
-31.4850

> <Gold.PLP.part.repulsive>
0.1908

> <Gold.PLP.ligand.clash>
0.0000

> <Gold.PLP.ligand.torsion>
0.8784

> <Gold.PLP.Chemscore.Hbond>
1.9440

> <Gold.PLP.Chemscore.CHOScore>
0.0000

> <Gold.PLP.Chemscore.Metal>
0.0000

> <Gold.Chemscore.Hbonds>
donor molecule, donor type, donor heavy atom, donor atom, acceptor molecule, acceptor atom, score
      P1  H  7997  8008       L1    10  1.00
      P1  H 10752 10763       L1    14  1.00

> <Gold.PLP.Chemscore.Internal.Correction>
0.0091

> <Gold.Rescore>
     Score         DG    S(hbond)    S(metal)    S(lipo)     H(rot)  DE(clash)    DE(int)     intcor
     15.66     -17.69       1.95        0.00      91.14       1.95       0.00       2.03       ----

> <Gold.Chemscore.Fitness>
15.6561

> <Gold.Chemscore.DG>
-17.6871

> <Gold.Chemscore.ZeroCoef>
-5.4800

> <Gold.Chemscore.Hbond>
1.9546

> <Gold.Chemscore.Metal>
0.0000

> <Gold.Chemscore.Lipo>
91.1437

> <Gold.Chemscore.Internal_Hbond>
0.0000

> <Gold.Chemscore.DEClash>
0.0048

> <Gold.Chemscore.DEInternal>
2.0262

> <Gold.Chemscore.Rot>
1.9474

> <Gold.Chemscore.Internal.Correction>
   9.000000E+99

> <Gold.Chemscore.Hbonds>
donor molecule, donor type, donor heavy atom, donor atom, acceptor molecule, acceptor atom, score
      P1  H  7997  8008       L1    10  0.95
      P1  H 10752 10763       L1    14  0.62

> <Gold.Chemscore.Hbond.Weighted>
-6.5285

> <Gold.Chemscore.Metal.Weighted>
-0.0000

> <Gold.Chemscore.Lipo.Weighted>
-10.6638

> <Gold.Chemscore.Internal_Hbond.Weighted>
0.0000

> <Gold.Chemscore.DEClash.Weighted>
0.0048

> <Gold.Chemscore.DEInternal.Weighted>
2.0262

> <Gold.Chemscore.Rot.Weighted>
4.9852

> <Gold.Chemscore.Internal.Correction.Weighted>
   9.000000E+99

> <Gold.Protein.RotatedTorsions>
[ 6907 6896 6895 6894 ] final -108.06 input  -60.11 | X-H torsion
[ 7974 7965 7964 7962 ] final  -16.21 input  175.53 | X-H torsion
[ 8008 7997 7996 7995 ] final -101.84 input   59.86 | X-H torsion
[ 10167 10162 10161 10158 ] final  102.11 input  -65.29 | X-H torsion
[ 10718 10713 10712 10709 ] final -155.14 input   66.30 | X-H torsion
[ 10763 10752 10751 10750 ] final   74.44 input  -60.55 | X-H torsion
[ 11005 11000 10999 10996 ] final -158.95 input  -57.11 | X-H torsion

> <Gold.Protein.ActiveResidues>
 VAL166  LYS551  ARG553  GLY616  TRP617  ASP618  TYR619  PRO620  LYS621  CYS622 
 ASP623  PHE694  ASN695  SER759  ASP760  ASP761  ALA762  ILE779  LEU786  VAL792 
 PHE793  MET794  SER795  GLU796  ALA797  LYS798  CYS799  TRP800  GLU811  SER814 

> <Gold.Protein.RotatedAtoms>
  150.7480  133.9733  159.3552 H   0  0  0  0  0  0  0  0  0  0  0  0  # atno 6907 bound_to 6896
  151.7669  135.0794  160.0363 H   0  0  0  0  0  0  0  0  0  0  0  0  # atno 6908 bound_to 6896
  152.3366  133.5981  159.5882 H   0  0  0  0  0  0  0  0  0  0  0  0  # atno 6909 bound_to 6896
  146.1998  140.3604  142.8427 H   0  0  0  0  0  0  0  0  0  0  0  0  # atno 7974 bound_to 7965
  154.8483  140.0432  157.1587 H   0  0  0  0  0  0  0  0  0  0  0  0  # atno 8008 bound_to 7997
  154.8971  140.2995  155.5318 H   0  0  0  0  0  0  0  0  0  0  0  0  # atno 8009 bound_to 7997
  156.2995  140.2383  156.3994 H   0  0  0  0  0  0  0  0  0  0  0  0  # atno 8010 bound_to 7997
  139.7379  144.7019  151.0621 H   0  0  0  0  0  0  0  0  0  0  0  0  # atno 10167 bound_to 10162
  156.5088  130.8425  151.2638 H   0  0  0  0  0  0  0  0  0  0  0  0  # atno 10718 bound_to 10713
  153.0587  135.5025  154.8043 H   0  0  0  0  0  0  0  0  0  0  0  0  # atno 10763 bound_to 10752
  154.6849  135.2974  154.9564 H   0  0  0  0  0  0  0  0  0  0  0  0  # atno 10764 bound_to 10752
  154.0338  135.6726  153.4836 H   0  0  0  0  0  0  0  0  0  0  0  0  # atno 10765 bound_to 10752
  140.6480  134.4481  157.5234 H   0  0  0  0  0  0  0  0  0  0  0  0  # atno 11005 bound_to 11000
  144.8657  140.7203  143.6079 LP  0  0  0  0  0  0  0  0  0  0  0  0  # atno 17320 bound_to 7965
  145.3524  139.1703  143.4427 LP  0  0  0  0  0  0  0  0  0  0  0  0  # atno 17321 bound_to 7965
  140.7781  143.4961  150.9830 LP  0  0  0  0  0  0  0  0  0  0  0  0  # atno 17342 bound_to 10162
  139.8650  143.7266  152.3171 LP  0  0  0  0  0  0  0  0  0  0  0  0  # atno 17343 bound_to 10162
  157.7453  130.9957  150.2752 LP  0  0  0  0  0  0  0  0  0  0  0  0  # atno 17370 bound_to 10713
  156.3260  130.3793  149.7532 LP  0  0  0  0  0  0  0  0  0  0  0  0  # atno 17371 bound_to 10713
  139.9056  134.8457  156.1720 LP  0  0  0  0  0  0  0  0  0  0  0  0  # atno 17394 bound_to 11000
  141.0558  133.6866  156.1857 LP  0  0  0  0  0  0  0  0  0  0  0  0  # atno 17395 bound_to 11000

$$$$
