AV-unprocessed.smi:2247|AV-procd|sdf|9091|dock2
  -GOLD-   2272012293D 1   1.00000     0.00000
 Structure written by MMmdl.
 34 35  0  0  0  0  0  0  0  0  1 V2000
  153.9541  141.2625  160.2639 C   0  0  0  0  0  0  0  0  0  0  0  0
  153.2610  142.6224  160.4486 C   0  0  0  0  0  0  0  0  0  0  0  0
  152.2204  142.6179  161.5786 C   0  0  0  0  0  0  0  0  0  0  0  0
  152.6706  143.1183  159.1980 N   0  0  0  0  0  0  0  0  0  0  0  0
  152.5654  144.5401  158.9086 C   0  0  0  0  0  0  0  0  0  0  0  0
  151.6835  144.6161  157.6590 C   0  0  0  0  0  0  0  0  0  0  0  0
  151.7429  143.2243  157.0105 C   0  0  2  0  0  0  0  0  0  0  0  0
  150.4128  142.8280  156.5500 N   0  0  0  0  0  0  0  0  0  0  0  0
  150.1211  141.7048  155.8763 C   0  0  0  0  0  0  0  0  0  0  0  0
  150.9935  140.8835  155.5760 O   0  0  0  0  0  0  0  0  0  0  0  0
  148.7684  141.6649  155.5724 N   0  0  0  0  0  0  0  0  0  0  0  0
  148.3445  140.8543  154.6514 C   0  0  0  0  0  0  0  0  0  0  0  0
  148.9928  139.9531  153.8106 N   0  0  0  0  0  0  0  0  0  0  0  0
  148.0527  139.3616  153.0139 C   0  0  0  0  0  0  0  0  0  0  0  0
  146.8648  139.8647  153.3359 C   0  0  0  0  0  0  0  0  0  0  0  0
  147.0115  140.7801  154.3347 O   0  0  0  0  0  0  0  0  0  0  0  0
  152.2098  142.3665  158.1878 C   0  0  0  0  0  0  0  0  0  0  0  0
  152.1846  141.1358  158.1616 O   0  0  0  0  0  0  0  0  0  0  0  0
  154.5003  140.9821  161.1650 H   0  0  0  0  0  0  0  0  0  0  0  0
  154.6706  141.2931  159.4423 H   0  0  0  0  0  0  0  0  0  0  0  0
  153.2385  140.4662  160.0590 H   0  0  0  0  0  0  0  0  0  0  0  0
  154.0458  143.3171  160.7528 H   0  0  0  0  0  0  0  0  0  0  0  0
  152.6747  142.3279  162.5263 H   0  0  0  0  0  0  0  0  0  0  0  0
  151.4107  141.9174  161.3724 H   0  0  0  0  0  0  0  0  0  0  0  0
  151.7812  143.6070  161.7127 H   0  0  0  0  0  0  0  0  0  0  0  0
  152.1297  145.1073  159.7309 H   0  0  0  0  0  0  0  0  0  0  0  0
  153.5594  144.9407  158.7056 H   0  0  0  0  0  0  0  0  0  0  0  0
  150.6628  144.8603  157.9597 H   0  0  0  0  0  0  0  0  0  0  0  0
  152.0129  145.3994  156.9756 H   0  0  0  0  0  0  0  0  0  0  0  0
  152.4886  143.1945  156.2143 H   0  0  0  0  0  0  0  0  0  0  0  0
  149.6533  143.4593  156.7600 H   0  0  0  0  0  0  0  0  0  0  0  0
  149.9791  139.7408  153.7631 H   0  0  0  0  0  0  0  0  0  0  0  0
  148.3430  138.6235  152.2807 H   0  0  0  0  0  0  0  0  0  0  0  0
  145.8670  139.6839  152.9642 H   0  0  0  0  0  0  0  0  0  0  0  0
  1  2  1  0  0  0  0
  1 19  1  0  0  0  0
  1 20  1  0  0  0  0
  1 21  1  0  0  0  0
  2  3  1  0  0  0  0
  2  4  1  0  0  0  0
  2 22  1  0  0  0  0
  3 23  1  0  0  0  0
  3 24  1  0  0  0  0
  3 25  1  0  0  0  0
  4 17  1  0  0  0  0
  4  5  1  0  0  0  0
  5  6  1  0  0  0  0
  5 26  1  0  0  0  0
  5 27  1  0  0  0  0
  6  7  1  0  0  0  0
  6 28  1  0  0  0  0
  6 29  1  0  0  0  0
  7  8  1  0  0  0  0
  7 17  1  0  0  0  0
  7 30  1  0  0  0  0
  8 31  1  0  0  0  0
  8  9  1  0  0  0  0
  9 11  1  0  0  0  0
  9 10  2  0  0  0  0
 11 12  2  0  0  0  0
 12 16  1  0  0  0  0
 12 13  1  0  0  0  0
 13 32  1  0  0  0  0
 13 14  1  0  0  0  0
 14 33  1  0  0  0  0
 14 15  2  0  0  0  0
 15 34  1  0  0  0  0
 15 16  1  0  0  0  0
 17 18  2  0  0  0  0
M  END
> <s_m_source_file>
AV-unprocessed.smi

> <i_m_source_file_index>
2247

> <i_lp_mmshare_version>
43012

> <i_f3d_flags>
0

> <s_epik_input>
W0NIM11bQ0hdKFtDSDNdKU4xW0NIMl1bQ0gyXVtDQEhdKEMxPU8pW05IXUMoPU8pW05IXWMybltjSF1bY0hdbzI=

> <s_epik_cmdline>
J2VwaWtfcHl0aG9uJywgJy1waCcsICc3LjAnLCAnLXRuJywgJzgnLCAnLW1hJywgJzIwMCcsICctbWV0YWxfYmluZGluZycsICctaW1hZScsICc8aW5maWxlLm1hZT4nLCAnLW9tYWUnLCAnPG91dGZpbGUubWFlPic=

> <r_lp_tautomer_probability>
0.107061

> <r_epik_Ionization_Penalty>
0.180736

> <r_epik_Ionization_Penalty_Charging>
0.180388

> <r_epik_Ionization_Penalty_Neutral>
0.000348501

> <r_epik_State_Penalty>
2.44396

> <r_epik_Charging_Adjusted_Penalty>
2.62435

> <i_epik_Tot_Q>
0

> <i_epik_Tot_abs_Q>
0

> <r_epik_Metal_State_Penalty>
4.38331

> <b_epik_Metal_Only>
0

> <s_lp_Force_Field>
OPLS_2005

> <r_lp_Energy>
46.2393

> <b_lp_Chiralities_Consistent>
1

> <s_lp_Variant>
AV-unprocessed.smi:2247-6

> <Gold.Version>
5.8.1

> <Gold.Id.Protein>
6NUR|6NUR_protein|mol2

> <Gold.PLP.Fitness>
43.1748

> <Gold.PLP.PLP>
-34.7146

> <Gold.PLP.part.hbond>
-3.0000

> <Gold.PLP.part.metal>
0.0000

> <Gold.PLP.part.buried>
-1.6826

> <Gold.PLP.part.nonpolar>
-30.6345

> <Gold.PLP.part.repulsive>
1.0230

> <Gold.PLP.ligand.clash>
0.0000

> <Gold.PLP.ligand.torsion>
0.8311

> <Gold.PLP.Chemscore.Hbond>
1.0601

> <Gold.PLP.Chemscore.CHOScore>
2.2816

> <Gold.PLP.Chemscore.Metal>
0.0000

> <Gold.Chemscore.Hbonds>
donor molecule, donor type, donor heavy atom, donor atom, acceptor molecule, acceptor atom, score
      L1  H     8    31       P1  8028  0.58
      P1  H  7989  7998       L1    10  0.49
      L1  C    14    33       P1  7948  1.00
      L1  C    14    33       P1  7957  0.29
      L1  C    15    34       P1 10175  1.00

> <Gold.PLP.Chemscore.Internal.Correction>
0.0973

> <Gold.Rescore>
     Score         DG    S(hbond)    S(metal)    S(lipo)     H(rot)  DE(clash)    DE(int)     intcor
     10.57     -16.38       1.32        0.00      84.54       1.33       2.33       3.48       ----

> <Gold.Chemscore.Fitness>
10.5685

> <Gold.Chemscore.DG>
-16.3822

> <Gold.Chemscore.ZeroCoef>
-5.4800

> <Gold.Chemscore.Hbond>
1.3249

> <Gold.Chemscore.Metal>
0.0000

> <Gold.Chemscore.Lipo>
84.5417

> <Gold.Chemscore.Internal_Hbond>
0.0000

> <Gold.Chemscore.DEClash>
2.3307

> <Gold.Chemscore.DEInternal>
3.4830

> <Gold.Chemscore.Rot>
1.3338

> <Gold.Chemscore.Internal.Correction>
   9.000000E+99

> <Gold.Chemscore.Hbonds>
donor molecule, donor type, donor heavy atom, donor atom, acceptor molecule, acceptor atom, score
      L1  H     8    31       P1  8028  0.58
      P1  H  7989  7998       L1    10  0.46

> <Gold.Chemscore.Hbond.Weighted>
-4.4253

> <Gold.Chemscore.Metal.Weighted>
-0.0000

> <Gold.Chemscore.Lipo.Weighted>
-9.8914

> <Gold.Chemscore.Internal_Hbond.Weighted>
0.0000

> <Gold.Chemscore.DEClash.Weighted>
2.3307

> <Gold.Chemscore.DEInternal.Weighted>
3.4830

> <Gold.Chemscore.Rot.Weighted>
3.4145

> <Gold.Chemscore.Internal.Correction.Weighted>
   9.000000E+99

> <Gold.Protein.RotatedTorsions>
[ 6907 6896 6895 6894 ] final  147.08 input  -60.11 | X-H torsion
[ 7974 7965 7964 7962 ] final  -29.66 input  175.53 | X-H torsion
[ 8008 7997 7996 7995 ] final -147.74 input   59.86 | X-H torsion
[ 10167 10162 10161 10158 ] final    9.55 input  -65.29 | X-H torsion
[ 10718 10713 10712 10709 ] final   88.95 input   66.30 | X-H torsion
[ 10763 10752 10751 10750 ] final  -27.50 input  -60.55 | X-H torsion
[ 11005 11000 10999 10996 ] final    4.37 input  -57.11 | X-H torsion

> <Gold.Protein.ActiveResidues>
 VAL166  LYS551  ARG553  GLY616  TRP617  ASP618  TYR619  PRO620  LYS621  CYS622 
 ASP623  PHE694  ASN695  SER759  ASP760  ASP761  ALA762  ILE779  LEU786  VAL792 
 PHE793  MET794  SER795  GLU796  ALA797  LYS798  CYS799  TRP800  GLU811  SER814 

> <Gold.Protein.RotatedAtoms>
  152.1595  133.4573  159.4853 H   0  0  0  0  0  0  0  0  0  0  0  0  # atno 6907 bound_to 6896
  150.6905  134.2089  159.4360 H   0  0  0  0  0  0  0  0  0  0  0  0  # atno 6908 bound_to 6896
  151.9990  134.9938  160.0615 H   0  0  0  0  0  0  0  0  0  0  0  0  # atno 6909 bound_to 6896
  146.1200  140.5440  142.8739 H   0  0  0  0  0  0  0  0  0  0  0  0  # atno 7974 bound_to 7965
  155.5804  140.0643  157.2784 H   0  0  0  0  0  0  0  0  0  0  0  0  # atno 8008 bound_to 7997
  154.4334  140.1853  156.1017 H   0  0  0  0  0  0  0  0  0  0  0  0  # atno 8009 bound_to 7997
  156.0309  140.3306  155.7142 H   0  0  0  0  0  0  0  0  0  0  0  0  # atno 8010 bound_to 7997
  140.6248  143.8125  150.7219 H   0  0  0  0  0  0  0  0  0  0  0  0  # atno 10167 bound_to 10162
  157.6952  131.0314  150.3352 H   0  0  0  0  0  0  0  0  0  0  0  0  # atno 10718 bound_to 10713
  153.7331  135.6937  153.4984 H   0  0  0  0  0  0  0  0  0  0  0  0  # atno 10763 bound_to 10752
  153.2122  135.4399  155.0391 H   0  0  0  0  0  0  0  0  0  0  0  0  # atno 10764 bound_to 10752
  154.8246  135.3439  154.6860 H   0  0  0  0  0  0  0  0  0  0  0  0  # atno 10765 bound_to 10752
  140.5827  133.9998  155.8054 H   0  0  0  0  0  0  0  0  0  0  0  0  # atno 11005 bound_to 11000
  144.7589  140.5373  143.6750 LP  0  0  0  0  0  0  0  0  0  0  0  0  # atno 17320 bound_to 7965
  145.5485  139.1476  143.3407 LP  0  0  0  0  0  0  0  0  0  0  0  0  # atno 17321 bound_to 7965
  140.1723  143.4184  152.1992 LP  0  0  0  0  0  0  0  0  0  0  0  0  # atno 17342 bound_to 10162
  139.5470  144.7307  151.4552 LP  0  0  0  0  0  0  0  0  0  0  0  0  # atno 17343 bound_to 10162
  156.3820  130.3882  149.7094 LP  0  0  0  0  0  0  0  0  0  0  0  0  # atno 17370 bound_to 10713
  156.4473  130.7890  151.2911 LP  0  0  0  0  0  0  0  0  0  0  0  0  # atno 17371 bound_to 10713
  141.0986  133.9804  157.3118 LP  0  0  0  0  0  0  0  0  0  0  0  0  # atno 17394 bound_to 11000
  139.9310  135.0200  156.8399 LP  0  0  0  0  0  0  0  0  0  0  0  0  # atno 17395 bound_to 11000

$$$$
