AV-unprocessed.smi:388|AV-procd|sdf|2475|dock3
  -GOLD-   2262022413D 1   1.00000     0.00000
 Structure written by MMmdl.
 34 35  0  0  0  0  0  0  0  0  1 V2000
  146.1128  138.9309  151.6562 C   0  0  0  0  0  0  0  0  0  0  0  0
  147.2152  139.6375  152.2900 N   0  0  0  0  0  0  0  0  0  0  0  0
  147.1189  140.2964  153.4527 C   0  0  0  0  0  0  0  0  0  0  0  0
  146.0622  140.4154  154.0766 O   0  0  0  0  0  0  0  0  0  0  0  0
  148.3123  140.7967  153.8241 N   0  0  0  0  0  0  0  0  0  0  0  0
  148.6354  141.3699  155.0014 C   0  0  0  0  0  0  0  0  0  0  0  0
  147.8699  141.5135  155.9565 O   0  0  0  0  0  0  0  0  0  0  0  0
  150.0796  141.8721  155.1175 C   0  0  0  0  0  0  0  0  0  0  0  0
  150.8431  141.1751  156.1433 N   0  0  0  0  0  0  0  0  0  0  0  0
  151.3348  139.8781  155.8431 C   0  0  0  0  0  0  0  0  0  0  0  0
  151.1421  139.3445  154.7487 O   0  0  0  0  0  0  0  0  0  0  0  0
  152.0827  139.2477  156.9287 C   0  0  0  0  0  0  0  0  0  0  0  0
  152.5605  137.9235  156.7046 C   0  0  0  0  0  0  0  0  0  0  0  0
  152.9344  136.8409  156.5388 N   0  0  0  0  0  0  0  0  0  0  0  0
  152.3052  139.8965  158.0919 C   0  0  0  0  0  0  0  0  0  0  0  0
  151.8644  141.1825  158.3268 N   0  0  0  0  0  0  0  0  0  0  0  0
  151.9993  141.7956  159.6183 C   0  0  0  0  0  0  0  0  0  0  0  0
  152.5978  143.1830  159.7498 C   0  0  0  0  0  0  0  0  0  0  0  0
  153.3833  141.9768  160.2029 C   0  0  0  0  0  0  0  0  0  0  0  0
  151.0716  141.8502  157.3678 C   0  0  0  0  0  0  0  0  0  0  0  0
  150.6022  142.9689  157.5923 O   0  0  0  0  0  0  0  0  0  0  0  0
  146.4529  138.4646  150.7315 H   0  0  0  0  0  0  0  0  0  0  0  0
  145.3009  139.6176  151.4135 H   0  0  0  0  0  0  0  0  0  0  0  0
  145.7244  138.1487  152.3098 H   0  0  0  0  0  0  0  0  0  0  0  0
  148.1048  139.6266  151.8123 H   0  0  0  0  0  0  0  0  0  0  0  0
  149.0514  140.7467  153.1382 H   0  0  0  0  0  0  0  0  0  0  0  0
  150.6105  141.7628  154.1703 H   0  0  0  0  0  0  0  0  0  0  0  0
  150.1110  142.9415  155.3311 H   0  0  0  0  0  0  0  0  0  0  0  0
  152.8600  139.3931  158.8707 H   0  0  0  0  0  0  0  0  0  0  0  0
  151.2141  141.5502  160.3313 H   0  0  0  0  0  0  0  0  0  0  0  0
  152.9390  143.6862  158.8470 H   0  0  0  0  0  0  0  0  0  0  0  0
  152.1869  143.8343  160.5182 H   0  0  0  0  0  0  0  0  0  0  0  0
  153.4989  141.8261  161.2742 H   0  0  0  0  0  0  0  0  0  0  0  0
  154.2391  141.6849  159.5969 H   0  0  0  0  0  0  0  0  0  0  0  0
  1  2  1  0  0  0  0
  1 22  1  0  0  0  0
  1 23  1  0  0  0  0
  1 24  1  0  0  0  0
  2  3  1  0  0  0  0
  2 25  1  0  0  0  0
  3  4  2  0  0  0  0
  3  5  1  0  0  0  0
  5  6  1  0  0  0  0
  5 26  1  0  0  0  0
  6  7  2  0  0  0  0
  6  8  1  0  0  0  0
  8  9  1  0  0  0  0
  8 27  1  0  0  0  0
  8 28  1  0  0  0  0
  9 20  1  0  0  0  0
  9 10  1  0  0  0  0
 10 11  2  0  0  0  0
 10 12  1  0  0  0  0
 12 13  1  0  0  0  0
 12 15  2  0  0  0  0
 13 14  3  0  0  0  0
 15 16  1  0  0  0  0
 15 29  1  0  0  0  0
 16 17  1  0  0  0  0
 16 20  1  0  0  0  0
 17 19  1  0  0  0  0
 17 18  1  0  0  0  0
 17 30  1  0  0  0  0
 18 19  1  0  0  0  0
 18 31  1  0  0  0  0
 18 32  1  0  0  0  0
 19 33  1  0  0  0  0
 19 34  1  0  0  0  0
 20 21  2  0  0  0  0
M  END
> <s_m_source_file>
AV-unprocessed.smi

> <i_m_source_file_index>
388

> <i_lp_mmshare_version>
43012

> <i_f3d_flags>
0

> <s_epik_input>
W0NIM11bTkhdQyg9TylbTkhdQyg9TylbQ0gyXW4xYyg9TyljKEMjTilbY0hdbihjMT1PKVtDSF0yW0NIMl1bQ0gyXTI=

> <s_epik_cmdline>
J2VwaWtfcHl0aG9uJywgJy1waCcsICc3LjAnLCAnLXRuJywgJzgnLCAnLW1hJywgJzIwMCcsICctbWV0YWxfYmluZGluZycsICctaW1hZScsICc8aW5maWxlLm1hZT4nLCAnLW9tYWUnLCAnPG91dGZpbGUubWFlPic=

> <r_lp_tautomer_probability>
1

> <r_epik_Ionization_Penalty>
2.95777e-05

> <r_epik_Ionization_Penalty_Charging>
6.31124e-11

> <r_epik_Ionization_Penalty_Neutral>
2.95776e-05

> <r_epik_State_Penalty>
-0

> <r_epik_Charging_Adjusted_Penalty>
6.31124e-11

> <i_epik_Tot_Q>
0

> <i_epik_Tot_abs_Q>
0

> <r_epik_Metal_State_Penalty>
-0

> <b_epik_Metal_Only>
0

> <s_lp_Force_Field>
OPLS_2005

> <r_lp_Energy>
33.5858

> <b_lp_Chiralities_Consistent>
1

> <s_lp_Variant>
AV-unprocessed.smi:388-1

> <Gold.Version>
5.8.1

> <Gold.Id.Protein>
6NUR|6NUR_protein|mol2

> <Gold.PLP.Fitness>
47.2607

> <Gold.PLP.PLP>
-37.2864

> <Gold.PLP.part.hbond>
-4.0510

> <Gold.PLP.part.metal>
0.0000

> <Gold.PLP.part.buried>
-1.5230

> <Gold.PLP.part.nonpolar>
-31.9217

> <Gold.PLP.part.repulsive>
0.6144

> <Gold.PLP.ligand.clash>
0.0000

> <Gold.PLP.ligand.torsion>
0.3590

> <Gold.PLP.Chemscore.Hbond>
3.4906

> <Gold.PLP.Chemscore.CHOScore>
0.0000

> <Gold.PLP.Chemscore.Metal>
0.0000

> <Gold.Chemscore.Hbonds>
donor molecule, donor type, donor heavy atom, donor atom, acceptor molecule, acceptor atom, score
      L1  H     2    25       P1  7957  1.00
      L1  H     5    26       P1  7957  0.59
      P1  H  7989  7998       L1    11  1.00
      P1  H 10752 10765       L1    14  0.77

> <Gold.PLP.Chemscore.Internal.Correction>
0.2203

> <Gold.Rescore>
     Score         DG    S(hbond)    S(metal)    S(lipo)     H(rot)  DE(clash)    DE(int)     intcor
     13.17     -16.81       2.68        0.00      61.11       1.87       1.69       1.95       ----

> <Gold.Chemscore.Fitness>
13.1656

> <Gold.Chemscore.DG>
-16.8059

> <Gold.Chemscore.ZeroCoef>
-5.4800

> <Gold.Chemscore.Hbond>
2.6812

> <Gold.Chemscore.Metal>
0.0000

> <Gold.Chemscore.Lipo>
61.1060

> <Gold.Chemscore.Internal_Hbond>
0.0000

> <Gold.Chemscore.DEClash>
1.6853

> <Gold.Chemscore.DEInternal>
1.9550

> <Gold.Chemscore.Rot>
1.8667

> <Gold.Chemscore.Internal.Correction>
   9.000000E+99

> <Gold.Chemscore.Hbonds>
donor molecule, donor type, donor heavy atom, donor atom, acceptor molecule, acceptor atom, score
      L1  H     2    25       P1  7957  1.00
      L1  H     5    26       P1  7957  0.57
      P1  H  7989  7998       L1    11  0.28
      P1  H 10752 10765       L1    14  0.73

> <Gold.Chemscore.Hbond.Weighted>
-8.9552

> <Gold.Chemscore.Metal.Weighted>
-0.0000

> <Gold.Chemscore.Lipo.Weighted>
-7.1494

> <Gold.Chemscore.Internal_Hbond.Weighted>
0.0000

> <Gold.Chemscore.DEClash.Weighted>
1.6853

> <Gold.Chemscore.DEInternal.Weighted>
1.9550

> <Gold.Chemscore.Rot.Weighted>
4.7787

> <Gold.Chemscore.Internal.Correction.Weighted>
   9.000000E+99

> <Gold.Protein.RotatedTorsions>
[ 6907 6896 6895 6894 ] final  160.69 input  -60.11 | X-H torsion
[ 7974 7965 7964 7962 ] final -142.46 input  175.53 | X-H torsion
[ 8008 7997 7996 7995 ] final   17.57 input   59.86 | X-H torsion
[ 10167 10162 10161 10158 ] final  155.43 input  -65.29 | X-H torsion
[ 10718 10713 10712 10709 ] final  141.49 input   66.30 | X-H torsion
[ 10763 10752 10751 10750 ] final -111.72 input  -60.55 | X-H torsion
[ 11005 11000 10999 10996 ] final -108.65 input  -57.11 | X-H torsion

> <Gold.Protein.ActiveResidues>
 VAL166  LYS551  ARG553  GLY616  TRP617  ASP618  TYR619  PRO620  LYS621  CYS622 
 ASP623  PHE694  ASN695  SER759  ASP760  ASP761  ALA762  ILE779  LEU786  VAL792 
 PHE793  MET794  SER795  GLU796  ALA797  LYS798  CYS799  TRP800  GLU811  SER814 

> <Gold.Protein.RotatedAtoms>
  151.9668  133.3713  159.4055 H   0  0  0  0  0  0  0  0  0  0  0  0  # atno 6907 bound_to 6896
  150.6955  134.4182  159.5202 H   0  0  0  0  0  0  0  0  0  0  0  0  # atno 6908 bound_to 6896
  152.1880  134.8697  160.0571 H   0  0  0  0  0  0  0  0  0  0  0  0  # atno 6909 bound_to 6896
  144.8442  140.5956  143.5432 H   0  0  0  0  0  0  0  0  0  0  0  0  # atno 7974 bound_to 7965
  154.8933  140.2990  155.5358 H   0  0  0  0  0  0  0  0  0  0  0  0  # atno 8008 bound_to 7997
  156.3020  140.2420  156.3886 H   0  0  0  0  0  0  0  0  0  0  0  0  # atno 8009 bound_to 7997
  154.8596  140.0406  157.1646 H   0  0  0  0  0  0  0  0  0  0  0  0  # atno 8010 bound_to 7997
  139.4821  144.5099  151.8040 H   0  0  0  0  0  0  0  0  0  0  0  0  # atno 10167 bound_to 10162
  157.3914  131.1005  151.0643 H   0  0  0  0  0  0  0  0  0  0  0  0  # atno 10718 bound_to 10713
  154.8314  135.4517  154.1083 H   0  0  0  0  0  0  0  0  0  0  0  0  # atno 10763 bound_to 10752
  153.2352  135.6910  153.7851 H   0  0  0  0  0  0  0  0  0  0  0  0  # atno 10764 bound_to 10752
  153.7219  135.3340  155.3244 H   0  0  0  0  0  0  0  0  0  0  0  0  # atno 10765 bound_to 10752
  141.0890  133.9088  157.2119 H   0  0  0  0  0  0  0  0  0  0  0  0  # atno 11005 bound_to 11000
  145.4631  139.1511  143.3855 LP  0  0  0  0  0  0  0  0  0  0  0  0  # atno 17320 bound_to 7965
  146.2729  140.4762  142.8807 LP  0  0  0  0  0  0  0  0  0  0  0  0  # atno 17321 bound_to 7965
  140.4601  144.1734  150.5905 LP  0  0  0  0  0  0  0  0  0  0  0  0  # atno 17342 bound_to 10162
  140.4493  143.2493  151.9369 LP  0  0  0  0  0  0  0  0  0  0  0  0  # atno 17343 bound_to 10162
  157.1675  130.6253  149.5630 LP  0  0  0  0  0  0  0  0  0  0  0  0  # atno 17370 bound_to 10713
  155.9799  130.4796  150.6743 LP  0  0  0  0  0  0  0  0  0  0  0  0  # atno 17371 bound_to 10713
  139.9713  135.0127  156.9518 LP  0  0  0  0  0  0  0  0  0  0  0  0  # atno 17394 bound_to 11000
  140.5296  134.0827  155.7312 LP  0  0  0  0  0  0  0  0  0  0  0  0  # atno 17395 bound_to 11000

$$$$
