AV-unprocessed.smi:137|AV-procd|sdf|1175|dock7
  -GOLD-   2262018323D 1   1.00000     0.00000
 Structure written by MMmdl.
 51 54  0  0  0  0  0  0  0  0  1 V2000
  154.5071  141.1375  160.7560 C   0  0  0  0  0  0  0  0  0  0  0  0
  153.3076  141.8098  160.0696 C   0  0  2  0  0  0  0  0  0  0  0  0
  152.7778  140.8870  158.9525 C   0  0  0  0  0  0  0  0  0  0  0  0
  151.7203  141.4562  158.1111 N   0  0  0  0  0  0  0  0  0  0  0  0
  151.4145  140.8164  156.9440 C   0  0  0  0  0  0  0  0  0  0  0  0
  152.3864  140.0967  156.3187 N   0  0  0  0  0  0  0  0  0  0  0  0
  152.1323  139.4367  155.1863 C   0  0  0  0  0  0  0  0  0  0  0  0
  150.9900  139.3624  154.5048 N   0  0  0  0  0  0  0  0  0  0  0  0
  150.0088  140.0912  155.1078 C   0  0  0  0  0  0  0  0  0  0  0  0
  150.1300  140.8382  156.3168 C   0  0  0  0  0  0  0  0  0  0  0  0
  148.9097  141.4397  156.6087 N   0  0  0  0  0  0  0  0  0  0  0  0
  148.1159  141.0573  155.6470 C   0  0  0  0  0  0  0  0  0  0  0  0
  148.7015  140.2657  154.6873 N   0  0  0  0  0  0  0  0  0  0  0  0
  148.0535  139.6694  153.5561 C   0  0  0  0  0  0  0  0  0  0  0  0
  146.5495  139.8309  153.3221 C   0  0  0  0  0  0  0  0  0  0  0  0
  146.5110  138.4318  152.6684 C   0  0  0  0  0  0  0  0  0  0  0  0
  145.2919  137.5697  153.0350 C   0  0  0  0  0  0  0  0  0  0  0  0
  144.1489  137.9617  152.3020 O   0  0  0  0  0  0  0  0  0  0  0  0
  146.6974  138.4171  151.1374 C   0  0  0  0  0  0  0  0  0  0  0  0
  146.5080  137.1208  150.6081 O   0  0  0  0  0  0  0  0  0  0  0  0
  147.7914  138.1629  153.4922 C   0  0  0  0  0  0  0  0  0  0  0  0
  150.7232  142.3590  158.6844 C   0  0  0  0  0  0  0  0  0  0  0  0
  151.1038  143.8366  158.4858 C   0  0  0  0  0  0  0  0  0  0  0  0
  152.2754  144.4060  159.8099 S   0  0  1  0  0  0  0  0  0  0  0  0
  151.6237  144.1222  161.1650 O   0  0  0  0  0  0  0  0  0  0  0  0
  153.6894  143.2207  159.5656 C   0  0  0  0  0  0  0  0  0  0  0  0
  155.3444  141.0190  160.0673 H   0  0  0  0  0  0  0  0  0  0  0  0
  154.2421  140.1487  161.1317 H   0  0  0  0  0  0  0  0  0  0  0  0
  154.8550  141.7254  161.6060 H   0  0  0  0  0  0  0  0  0  0  0  0
  152.5418  141.8907  160.8398 H   0  0  0  0  0  0  0  0  0  0  0  0
  153.6182  140.6209  158.3091 H   0  0  0  0  0  0  0  0  0  0  0  0
  152.4146  139.9573  159.3930 H   0  0  0  0  0  0  0  0  0  0  0  0
  152.9634  138.8888  154.7674 H   0  0  0  0  0  0  0  0  0  0  0  0
  147.0762  141.3488  155.6108 H   0  0  0  0  0  0  0  0  0  0  0  0
  148.6171  139.9996  152.6821 H   0  0  0  0  0  0  0  0  0  0  0  0
  145.9863  139.8817  154.2560 H   0  0  0  0  0  0  0  0  0  0  0  0
  146.2808  140.6545  152.6597 H   0  0  0  0  0  0  0  0  0  0  0  0
  145.4802  136.5106  152.8578 H   0  0  0  0  0  0  0  0  0  0  0  0
  145.0547  137.6638  154.0950 H   0  0  0  0  0  0  0  0  0  0  0  0
  143.9099  138.8372  152.5654 H   0  0  0  0  0  0  0  0  0  0  0  0
  146.0076  139.1015  150.6434 H   0  0  0  0  0  0  0  0  0  0  0  0
  147.6983  138.7460  150.8575 H   0  0  0  0  0  0  0  0  0  0  0  0
  147.2919  136.6159  150.7631 H   0  0  0  0  0  0  0  0  0  0  0  0
  148.5652  137.5941  152.9758 H   0  0  0  0  0  0  0  0  0  0  0  0
  147.5834  137.7334  154.4741 H   0  0  0  0  0  0  0  0  0  0  0  0
  149.7501  142.1703  158.2312 H   0  0  0  0  0  0  0  0  0  0  0  0
  150.5772  142.1393  159.7418 H   0  0  0  0  0  0  0  0  0  0  0  0
  151.5460  144.0110  157.5051 H   0  0  0  0  0  0  0  0  0  0  0  0
  150.2105  144.4577  158.5499 H   0  0  0  0  0  0  0  0  0  0  0  0
  154.5216  143.6155  160.1492 H   0  0  0  0  0  0  0  0  0  0  0  0
  154.0122  143.2134  158.5239 H   0  0  0  0  0  0  0  0  0  0  0  0
  1  2  1  0  0  0  0
  1 27  1  0  0  0  0
  1 28  1  0  0  0  0
  1 29  1  0  0  0  0
  2 26  1  0  0  0  0
  2  3  1  0  0  0  0
  2 30  1  0  0  0  0
  3  4  1  0  0  0  0
  3 31  1  0  0  0  0
  3 32  1  0  0  0  0
  4  5  1  0  0  0  0
  4 22  1  0  0  0  0
  5 10  1  0  0  0  0
  5  6  2  0  0  0  0
  6  7  1  0  0  0  0
  7  8  2  0  0  0  0
  7 33  1  0  0  0  0
  8  9  1  0  0  0  0
  9 13  1  0  0  0  0
  9 10  2  0  0  0  0
 10 11  1  0  0  0  0
 11 12  2  0  0  0  0
 12 13  1  0  0  0  0
 12 34  1  0  0  0  0
 13 14  1  0  0  0  0
 14 21  1  0  0  0  0
 14 15  1  0  0  0  0
 14 35  1  0  0  0  0
 15 16  1  0  0  0  0
 15 36  1  0  0  0  0
 15 37  1  0  0  0  0
 16 17  1  0  0  0  0
 16 19  1  0  0  0  0
 16 21  1  0  0  0  0
 17 18  1  0  0  0  0
 17 38  1  0  0  0  0
 17 39  1  0  0  0  0
 18 40  1  0  0  0  0
 19 20  1  0  0  0  0
 19 41  1  0  0  0  0
 19 42  1  0  0  0  0
 20 43  1  0  0  0  0
 21 44  1  0  0  0  0
 21 45  1  0  0  0  0
 22 23  1  0  0  0  0
 22 46  1  0  0  0  0
 22 47  1  0  0  0  0
 23 24  1  0  0  0  0
 23 48  1  0  0  0  0
 23 49  1  0  0  0  0
 24 25  2  0  0  0  0
 24 26  1  0  0  0  0
 26 50  1  0  0  0  0
 26 51  1  0  0  0  0
M  END
> <s_m_source_file>
AV-unprocessed.smi

> <i_m_source_file_index>
137

> <i_lp_mmshare_version>
43012

> <i_f3d_flags>
0

> <s_epik_input>
Tz1bU0BAXShbQ0gyXTEpW0NIMl1bQ0gyXU4oW0NIMl1bQ0BIXTFbQ0gzXSljKG5bY0hdbjIpYyhjMjMpbltjSF1uM1tDSF0oW0NIMl00KVtDSDJdQzQoW0NIMl1bT0hdKVtDSDJdW09IXQ==

> <s_epik_cmdline>
J2VwaWtfcHl0aG9uJywgJy1waCcsICc3LjAnLCAnLXRuJywgJzgnLCAnLW1hJywgJzIwMCcsICctbWV0YWxfYmluZGluZycsICctaW1hZScsICc8aW5maWxlLm1hZT4nLCAnLW9tYWUnLCAnPG91dGZpbGUubWFlPic=

> <r_lp_tautomer_probability>
1

> <r_epik_Ionization_Penalty>
0.000811024

> <r_epik_Ionization_Penalty_Charging>
0

> <r_epik_Ionization_Penalty_Neutral>
0.000811024

> <r_epik_State_Penalty>
0.000429598

> <r_epik_Charging_Adjusted_Penalty>
0.000429598

> <i_epik_Tot_Q>
0

> <i_epik_Tot_abs_Q>
0

> <r_epik_Metal_State_Penalty>
-0

> <b_epik_Metal_Only>
0

> <s_lp_Force_Field>
OPLS_2005

> <r_lp_Energy>
41.7942

> <b_lp_Chiralities_Consistent>
1

> <s_lp_Variant>
AV-unprocessed.smi:137-1

> <Gold.Version>
5.8.1

> <Gold.Id.Protein>
6NUR|6NUR_protein|mol2

> <Gold.PLP.Fitness>
53.1508

> <Gold.PLP.PLP>
-44.2557

> <Gold.PLP.part.hbond>
-6.6817

> <Gold.PLP.part.metal>
0.0000

> <Gold.PLP.part.buried>
6.6835

> <Gold.PLP.part.nonpolar>
-43.6748

> <Gold.PLP.part.repulsive>
0.3858

> <Gold.PLP.ligand.clash>
0.0000

> <Gold.PLP.ligand.torsion>
0.6658

> <Gold.PLP.Chemscore.Hbond>
3.2100

> <Gold.PLP.Chemscore.CHOScore>
0.0000

> <Gold.PLP.Chemscore.Metal>
0.0000

> <Gold.Chemscore.Hbonds>
donor molecule, donor type, donor heavy atom, donor atom, acceptor molecule, acceptor atom, score
      L1  H    18    40       P1 10175  1.00
      L1  H    20    43       P1  7948  1.00
      P1  H  7989  7998       L1     8  0.21
      P1  H  7997  8008       L1     6  0.95

> <Gold.PLP.Chemscore.Internal.Correction>
0.5967

> <Gold.Rescore>
     Score         DG    S(hbond)    S(metal)    S(lipo)     H(rot)  DE(clash)    DE(int)     intcor
     15.45     -18.46       2.66        0.00      97.95       2.87       1.21       1.80       ----

> <Gold.Chemscore.Fitness>
15.4486

> <Gold.Chemscore.DG>
-18.4565

> <Gold.Chemscore.ZeroCoef>
-5.4800

> <Gold.Chemscore.Hbond>
2.6556

> <Gold.Chemscore.Metal>
0.0000

> <Gold.Chemscore.Lipo>
97.9502

> <Gold.Chemscore.Internal_Hbond>
0.0000

> <Gold.Chemscore.DEClash>
1.2094

> <Gold.Chemscore.DEInternal>
1.7984

> <Gold.Chemscore.Rot>
2.8725

> <Gold.Chemscore.Internal.Correction>
   9.000000E+99

> <Gold.Chemscore.Hbonds>
donor molecule, donor type, donor heavy atom, donor atom, acceptor molecule, acceptor atom, score
      L1  H    18    40       P1 10175  0.99
      L1  H    20    43       P1  7948  0.89
      P1  H  7997  8008       L1     6  0.21

> <Gold.Chemscore.Hbond.Weighted>
-8.8699

> <Gold.Chemscore.Metal.Weighted>
-0.0000

> <Gold.Chemscore.Lipo.Weighted>
-11.4602

> <Gold.Chemscore.Internal_Hbond.Weighted>
0.0000

> <Gold.Chemscore.DEClash.Weighted>
1.2094

> <Gold.Chemscore.DEInternal.Weighted>
1.7984

> <Gold.Chemscore.Rot.Weighted>
7.3535

> <Gold.Chemscore.Internal.Correction.Weighted>
   9.000000E+99

> <Gold.Protein.RotatedTorsions>
[ 6907 6896 6895 6894 ] final  -61.55 input  -60.11 | X-H torsion
[ 7974 7965 7964 7962 ] final  127.01 input  175.53 | X-H torsion
[ 8008 7997 7996 7995 ] final  -34.10 input   59.86 | X-H torsion
[ 10167 10162 10161 10158 ] final  -18.99 input  -65.29 | X-H torsion
[ 10718 10713 10712 10709 ] final  -83.97 input   66.30 | X-H torsion
[ 10763 10752 10751 10750 ] final  168.97 input  -60.55 | X-H torsion
[ 11005 11000 10999 10996 ] final  -55.23 input  -57.11 | X-H torsion

> <Gold.Protein.ActiveResidues>
 VAL166  LYS551  ARG553  GLY616  TRP617  ASP618  TYR619  PRO620  LYS621  CYS622 
 ASP623  PHE694  ASN695  SER759  ASP760  ASP761  ALA762  ILE779  LEU786  VAL792 
 PHE793  MET794  SER795  GLU796  ALA797  LYS798  CYS799  TRP800  GLU811  SER814 

> <Gold.Protein.RotatedAtoms>
  150.7777  134.6690  159.6380 H   0  0  0  0  0  0  0  0  0  0  0  0  # atno 6907 bound_to 6896
  152.3852  134.6525  160.0137 H   0  0  0  0  0  0  0  0  0  0  0  0  # atno 6908 bound_to 6896
  151.6843  133.3275  159.3263 H   0  0  0  0  0  0  0  0  0  0  0  0  # atno 6909 bound_to 6896
  145.0553  139.3849  143.5033 H   0  0  0  0  0  0  0  0  0  0  0  0  # atno 7974 bound_to 7965
  154.4130  140.1693  156.1995 H   0  0  0  0  0  0  0  0  0  0  0  0  # atno 8008 bound_to 7997
  155.9536  140.3399  155.6405 H   0  0  0  0  0  0  0  0  0  0  0  0  # atno 8009 bound_to 7997
  155.6839  140.0726  157.2465 H   0  0  0  0  0  0  0  0  0  0  0  0  # atno 8010 bound_to 7997
  140.7264  143.4862  151.0052 H   0  0  0  0  0  0  0  0  0  0  0  0  # atno 10167 bound_to 10162
  156.0011  130.4683  150.4339 H   0  0  0  0  0  0  0  0  0  0  0  0  # atno 10718 bound_to 10713
  154.3763  135.2753  155.2237 H   0  0  0  0  0  0  0  0  0  0  0  0  # atno 10763 bound_to 10752
  154.4363  135.5965  153.6104 H   0  0  0  0  0  0  0  0  0  0  0  0  # atno 10764 bound_to 10752
  152.9836  135.6008  154.4000 H   0  0  0  0  0  0  0  0  0  0  0  0  # atno 10765 bound_to 10752
  141.1064  133.6613  156.4438 H   0  0  0  0  0  0  0  0  0  0  0  0  # atno 11005 bound_to 11000
  146.3521  140.0224  142.8657 LP  0  0  0  0  0  0  0  0  0  0  0  0  # atno 17320 bound_to 7965
  145.1476  140.9606  143.4452 LP  0  0  0  0  0  0  0  0  0  0  0  0  # atno 17321 bound_to 7965
  139.8564  143.7372  152.3176 LP  0  0  0  0  0  0  0  0  0  0  0  0  # atno 17342 bound_to 10162
  139.7572  144.7517  151.0418 LP  0  0  0  0  0  0  0  0  0  0  0  0  # atno 17343 bound_to 10162
  157.2385  131.0520  151.2450 LP  0  0  0  0  0  0  0  0  0  0  0  0  # atno 17370 bound_to 10713
  157.3643  130.7147  149.6522 LP  0  0  0  0  0  0  0  0  0  0  0  0  # atno 17371 bound_to 10713
  140.4891  134.6592  157.5203 LP  0  0  0  0  0  0  0  0  0  0  0  0  # atno 17394 bound_to 11000
  139.9936  134.6946  155.9648 LP  0  0  0  0  0  0  0  0  0  0  0  0  # atno 17395 bound_to 11000

$$$$
