AV-unprocessed.smi:1554|AV-procd|sdf|6251|dock5
  -GOLD-   22720 6433D 1   1.00000     0.00000
 Structure written by MMmdl.
 48 50  0  0  0  0  0  0  0  0  2 V2000
  153.0026  140.5482  160.8146 C   0  0  0  0  0  0  0  0  0  0  0  0
  152.2708  140.6446  159.4875 C   0  0  0  0  0  0  0  0  0  0  0  0
  152.4018  139.5931  158.5525 C   0  0  0  0  0  0  0  0  0  0  0  0
  151.7399  139.6453  157.3063 C   0  0  0  0  0  0  0  0  0  0  0  0
  151.7261  138.7432  156.2561 N   0  0  0  0  0  0  0  0  0  0  0  0
  150.9345  139.3596  155.3832 C   0  0  0  0  0  0  0  0  0  0  0  0
  150.4351  140.5578  155.7433 N   0  0  0  0  0  0  0  0  0  0  0  0
  149.5621  141.4187  154.9657 C   0  0  0  0  0  0  0  0  0  0  0  0
  148.0723  141.1430  155.2449 C   0  0  1  0  0  0  0  0  0  0  0  0
  147.7539  141.5811  156.5523 O   0  0  0  0  0  0  0  0  0  0  0  0
  147.1521  141.8628  154.2396 C   0  0  0  0  0  0  0  0  0  0  0  0
  145.7138  141.5783  154.4799 N   0  3  2  0  0  0  0  0  0  0  0  0
  145.0407  142.5859  155.3366 C   0  0  0  0  0  0  0  0  0  0  0  0
  143.5500  142.2444  155.4929 C   0  0  0  0  0  0  0  0  0  0  0  0
  143.4132  140.9330  156.0258 O   0  0  0  0  0  0  0  0  0  0  0  0
  143.9767  139.9413  155.1742 C   0  0  2  0  0  0  0  0  0  0  0  0
  143.6997  138.5665  155.7928 C   0  0  0  0  0  0  0  0  0  0  0  0
  145.4851  140.2139  155.0125 C   0  0  0  0  0  0  0  0  0  0  0  0
  150.9388  140.7886  157.0184 C   0  0  0  0  0  0  0  0  0  0  0  0
  150.7987  141.8404  157.9411 C   0  0  0  0  0  0  0  0  0  0  0  0
  151.4653  141.7712  159.1822 C   0  0  0  0  0  0  0  0  0  0  0  0
  151.3065  142.9114  160.1727 C   0  0  0  0  0  0  0  0  0  0  0  0
  153.5496  139.6088  160.9008 H   0  0  0  0  0  0  0  0  0  0  0  0
  152.2987  140.6015  161.6453 H   0  0  0  0  0  0  0  0  0  0  0  0
  153.7192  141.3639  160.9147 H   0  0  0  0  0  0  0  0  0  0  0  0
  153.0141  138.7343  158.7856 H   0  0  0  0  0  0  0  0  0  0  0  0
  150.7082  138.9167  154.4241 H   0  0  0  0  0  0  0  0  0  0  0  0
  149.8094  142.4593  155.1815 H   0  0  0  0  0  0  0  0  0  0  0  0
  149.7841  141.2571  153.9100 H   0  0  0  0  0  0  0  0  0  0  0  0
  147.9078  140.0671  155.1994 H   0  0  0  0  0  0  0  0  0  0  0  0
  148.3289  142.2956  156.7814 H   0  0  0  0  0  0  0  0  0  0  0  0
  147.3327  142.9367  154.3112 H   0  0  0  0  0  0  0  0  0  0  0  0
  147.4061  141.5802  153.2167 H   0  0  0  0  0  0  0  0  0  0  0  0
  145.5200  142.6135  156.3165 H   0  0  0  0  0  0  0  0  0  0  0  0
  145.1350  143.5829  154.9082 H   0  0  0  0  0  0  0  0  0  0  0  0
  143.0731  142.9518  156.1715 H   0  0  0  0  0  0  0  0  0  0  0  0
  143.0297  142.3196  154.5365 H   0  0  0  0  0  0  0  0  0  0  0  0
  143.4885  139.9870  154.1987 H   0  0  0  0  0  0  0  0  0  0  0  0
  144.1074  137.7672  155.1734 H   0  0  0  0  0  0  0  0  0  0  0  0
  142.6279  138.3937  155.8937 H   0  0  0  0  0  0  0  0  0  0  0  0
  144.1445  138.4817  156.7847 H   0  0  0  0  0  0  0  0  0  0  0  0
  145.9187  139.4775  154.3345 H   0  0  0  0  0  0  0  0  0  0  0  0
  145.9951  140.1076  155.9717 H   0  0  0  0  0  0  0  0  0  0  0  0
  150.1830  142.6928  157.6952 H   0  0  0  0  0  0  0  0  0  0  0  0
  150.6314  143.6782  159.7918 H   0  0  0  0  0  0  0  0  0  0  0  0
  152.2698  143.3812  160.3717 H   0  0  0  0  0  0  0  0  0  0  0  0
  150.8974  142.5461  161.1149 H   0  0  0  0  0  0  0  0  0  0  0  0
  145.2632  141.6081  153.5758 H   0  0  0  0  0  0  0  0  0  0  0  0
  1  2  1  0  0  0  0
  1 23  1  0  0  0  0
  1 24  1  0  0  0  0
  1 25  1  0  0  0  0
  2 21  1  0  0  0  0
  2  3  2  0  0  0  0
  3  4  1  0  0  0  0
  3 26  1  0  0  0  0
  4 19  2  0  0  0  0
  4  5  1  0  0  0  0
  5  6  2  0  0  0  0
  6  7  1  0  0  0  0
  6 27  1  0  0  0  0
  7  8  1  0  0  0  0
  7 19  1  0  0  0  0
  8  9  1  0  0  0  0
  8 28  1  0  0  0  0
  8 29  1  0  0  0  0
  9 10  1  0  0  0  0
  9 11  1  0  0  0  0
  9 30  1  0  0  0  0
 10 31  1  0  0  0  0
 11 12  1  0  0  0  0
 11 32  1  0  0  0  0
 11 33  1  0  0  0  0
 12 18  1  0  0  0  0
 12 13  1  0  0  0  0
 12 48  1  0  0  0  0
 13 14  1  0  0  0  0
 13 34  1  0  0  0  0
 13 35  1  0  0  0  0
 14 15  1  0  0  0  0
 14 36  1  0  0  0  0
 14 37  1  0  0  0  0
 15 16  1  0  0  0  0
 16 17  1  0  0  0  0
 16 18  1  0  0  0  0
 16 38  1  0  0  0  0
 17 39  1  0  0  0  0
 17 40  1  0  0  0  0
 17 41  1  0  0  0  0
 18 42  1  0  0  0  0
 18 43  1  0  0  0  0
 19 20  1  0  0  0  0
 20 21  2  0  0  0  0
 20 44  1  0  0  0  0
 21 22  1  0  0  0  0
 22 45  1  0  0  0  0
 22 46  1  0  0  0  0
 22 47  1  0  0  0  0
M  CHG  1  12   1
M  END
> <s_m_source_file>
AV-unprocessed.smi

> <i_m_source_file_index>
1554

> <i_lp_mmshare_version>
43012

> <i_f3d_flags>
0

> <s_epik_input>
W0NIM11jKFtjSF0xKWMoW0NIM10pW2NIXWMoYzEyKW4oW2NIXW4yKVtDSDJdW0NASF0oW09IXSlbQ0gyXU4zW0NIMl1bQ0gyXU9bQ0BASF0oW0NIM10pW0NIMl0z

> <s_epik_cmdline>
J2VwaWtfcHl0aG9uJywgJy1waCcsICc3LjAnLCAnLXRuJywgJzgnLCAnLW1hJywgJzIwMCcsICctbWV0YWxfYmluZGluZycsICctaW1hZScsICc8aW5maWxlLm1hZT4nLCAnLW9tYWUnLCAnPG91dGZpbGUubWFlPic=

> <r_epik_Ionization_Penalty>
0.695251

> <r_epik_Ionization_Penalty_Charging>
0.608065

> <r_epik_Ionization_Penalty_Neutral>
0.0871863

> <r_epik_State_Penalty>
0.731955

> <r_epik_Charging_Adjusted_Penalty>
1.34002

> <i_epik_Tot_Q>
1

> <i_epik_Tot_abs_Q>
1

> <r_epik_Metal_State_Penalty>
0.652186

> <b_epik_Metal_Only>
0

> <s_lp_Force_Field>
OPLS_2005

> <r_lp_Energy>
20.6032

> <b_lp_Chiralities_Consistent>
1

> <s_lp_Variant>
AV-unprocessed.smi:1554-12

> <Gold.Version>
5.8.1

> <Gold.Id.Protein>
6NUR|6NUR_protein|mol2

> <Gold.PLP.Fitness>
48.7861

> <Gold.PLP.PLP>
-41.4366

> <Gold.PLP.part.hbond>
-2.0000

> <Gold.PLP.part.metal>
0.0000

> <Gold.PLP.part.buried>
-4.3370

> <Gold.PLP.part.nonpolar>
-36.5250

> <Gold.PLP.part.repulsive>
0.0873

> <Gold.PLP.ligand.clash>
0.0000

> <Gold.PLP.ligand.torsion>
0.8143

> <Gold.PLP.Chemscore.Hbond>
2.9825

> <Gold.PLP.Chemscore.CHOScore>
0.0000

> <Gold.PLP.Chemscore.Metal>
0.0000

> <Gold.Chemscore.Hbonds>
donor molecule, donor type, donor heavy atom, donor atom, acceptor molecule, acceptor atom, score
      L1  H    12    48       P1 10175  0.64

> <Gold.PLP.Chemscore.Internal.Correction>
0.0307

> <Gold.Rescore>
     Score         DG    S(hbond)    S(metal)    S(lipo)     H(rot)  DE(clash)    DE(int)     intcor
     17.74     -18.79       1.89        0.00     104.86       2.05       0.24       0.80       ----

> <Gold.Chemscore.Fitness>
17.7401

> <Gold.Chemscore.DG>
-18.7879

> <Gold.Chemscore.ZeroCoef>
-5.4800

> <Gold.Chemscore.Hbond>
1.8859

> <Gold.Chemscore.Metal>
0.0000

> <Gold.Chemscore.Lipo>
104.8615

> <Gold.Chemscore.Internal_Hbond>
0.0000

> <Gold.Chemscore.DEClash>
0.2430

> <Gold.Chemscore.DEInternal>
0.8048

> <Gold.Chemscore.Rot>
2.0546

> <Gold.Chemscore.Internal.Correction>
   9.000000E+99

> <Gold.Chemscore.Hbonds>
donor molecule, donor type, donor heavy atom, donor atom, acceptor molecule, acceptor atom, score
      L1  H    12    48       P1 10175  0.04

> <Gold.Chemscore.Hbond.Weighted>
-6.2988

> <Gold.Chemscore.Metal.Weighted>
-0.0000

> <Gold.Chemscore.Lipo.Weighted>
-12.2688

> <Gold.Chemscore.Internal_Hbond.Weighted>
0.0000

> <Gold.Chemscore.DEClash.Weighted>
0.2430

> <Gold.Chemscore.DEInternal.Weighted>
0.8048

> <Gold.Chemscore.Rot.Weighted>
5.2597

> <Gold.Chemscore.Internal.Correction.Weighted>
   9.000000E+99

> <Gold.Protein.RotatedTorsions>
[ 6907 6896 6895 6894 ] final  -18.03 input  -60.11 | X-H torsion
[ 7974 7965 7964 7962 ] final   80.14 input  175.53 | X-H torsion
[ 8008 7997 7996 7995 ] final  105.01 input   59.86 | X-H torsion
[ 10167 10162 10161 10158 ] final   97.52 input  -65.29 | X-H torsion
[ 10718 10713 10712 10709 ] final  -93.64 input   66.30 | X-H torsion
[ 10763 10752 10751 10750 ] final -170.91 input  -60.55 | X-H torsion
[ 11005 11000 10999 10996 ] final   50.84 input  -57.11 | X-H torsion

> <Gold.Protein.ActiveResidues>
 VAL166  LYS551  ARG553  GLY616  TRP617  ASP618  TYR619  PRO620  LYS621  CYS622 
 ASP623  PHE694  ASN695  SER759  ASP760  ASP761  ALA762  ILE779  LEU786  VAL792 
 PHE793  MET794  SER795  GLU796  ALA797  LYS798  CYS799  TRP800  GLU811  SER814 

> <Gold.Protein.RotatedAtoms>
  151.2844  135.0723  159.9180 H   0  0  0  0  0  0  0  0  0  0  0  0  # atno 6907 bound_to 6896
  152.5328  133.9997  159.7899 H   0  0  0  0  0  0  0  0  0  0  0  0  # atno 6908 bound_to 6896
  151.0256  133.5786  159.2697 H   0  0  0  0  0  0  0  0  0  0  0  0  # atno 6909 bound_to 6896
  145.6550  139.2457  143.1955 H   0  0  0  0  0  0  0  0  0  0  0  0  # atno 7974 bound_to 7965
  156.1622  140.3138  155.8827 H   0  0  0  0  0  0  0  0  0  0  0  0  # atno 8008 bound_to 7997
  155.3759  140.0485  157.3061 H   0  0  0  0  0  0  0  0  0  0  0  0  # atno 8009 bound_to 7997
  154.5158  140.2180  155.9080 H   0  0  0  0  0  0  0  0  0  0  0  0  # atno 8010 bound_to 7997
  139.7793  144.6894  151.0045 H   0  0  0  0  0  0  0  0  0  0  0  0  # atno 10167 bound_to 10162
  156.0016  130.5035  150.5807 H   0  0  0  0  0  0  0  0  0  0  0  0  # atno 10718 bound_to 10713
  154.6363  135.2893  155.0157 H   0  0  0  0  0  0  0  0  0  0  0  0  # atno 10763 bound_to 10752
  154.1300  135.6535  153.4924 H   0  0  0  0  0  0  0  0  0  0  0  0  # atno 10764 bound_to 10752
  153.0304  135.5308  154.7211 H   0  0  0  0  0  0  0  0  0  0  0  0  # atno 10765 bound_to 10752
  140.0983  134.5116  155.8786 H   0  0  0  0  0  0  0  0  0  0  0  0  # atno 11005 bound_to 11000
  146.1172  140.7355  142.9475 LP  0  0  0  0  0  0  0  0  0  0  0  0  # atno 17320 bound_to 7965
  144.7109  140.4034  143.7081 LP  0  0  0  0  0  0  0  0  0  0  0  0  # atno 17321 bound_to 7965
  140.7817  143.4501  151.0425 LP  0  0  0  0  0  0  0  0  0  0  0  0  # atno 17342 bound_to 10162
  139.8182  143.7856  152.3175 LP  0  0  0  0  0  0  0  0  0  0  0  0  # atno 17343 bound_to 10162
  157.3687  131.0762  151.1576 LP  0  0  0  0  0  0  0  0  0  0  0  0  # atno 17370 bound_to 10713
  157.2336  130.6537  149.5860 LP  0  0  0  0  0  0  0  0  0  0  0  0  # atno 17371 bound_to 10713
  141.2098  133.6688  156.6466 LP  0  0  0  0  0  0  0  0  0  0  0  0  # atno 17394 bound_to 11000
  140.3256  134.7972  157.4286 LP  0  0  0  0  0  0  0  0  0  0  0  0  # atno 17395 bound_to 11000

$$$$
