AV-unprocessed.smi:1560|AV-procd|sdf|6278|dock7
  -GOLD-   22720 6473D 1   1.00000     0.00000
 Structure written by MMmdl.
 48 49  0  0  0  0  0  0  0  0  2 V2000
  145.2959  135.6807  150.9254 C   0  0  0  0  0  0  0  0  0  0  0  0
  145.5403  136.7237  152.0306 C   0  0  0  0  0  0  0  0  0  0  0  0
  145.7295  136.1488  153.4680 C   0  0  2  0  0  0  0  0  0  0  0  0
  144.4498  135.3440  153.8189 C   0  0  0  0  0  0  0  0  0  0  0  0
  145.8767  137.3279  154.4753 C   0  0  0  0  0  0  0  0  0  0  0  0
  146.8779  138.3066  154.0613 N   0  0  0  0  0  0  0  0  0  0  0  0
  146.8814  139.5941  154.4345 C   0  0  0  0  0  0  0  0  0  0  0  0
  146.0256  140.0789  155.1762 O   0  0  0  0  0  0  0  0  0  0  0  0
  148.0419  140.4463  153.8999 C   0  0  0  0  0  0  0  0  0  0  0  0
  149.3548  140.0262  154.4112 N   0  0  0  0  0  0  0  0  0  0  0  0
  149.9065  138.8172  154.0115 C   0  0  0  0  0  0  0  0  0  0  0  0
  151.1055  138.3639  154.4483 C   0  0  0  0  0  0  0  0  0  0  0  0
  151.8952  139.1519  155.3884 C   0  0  0  0  0  0  0  0  0  0  0  0
  152.9919  138.8284  155.8393 O   0  0  0  0  0  0  0  0  0  0  0  0
  151.3051  140.3600  155.7693 N   0  0  0  0  0  0  0  0  0  0  0  0
  150.0686  140.8316  155.3253 C   0  0  0  0  0  0  0  0  0  0  0  0
  149.6365  141.9104  155.7299 O   0  0  0  0  0  0  0  0  0  0  0  0
  146.9422  135.2518  153.5139 N   0  3  0  0  0  0  0  0  0  0  0  0
  147.5599  135.0612  154.8572 C   0  0  0  0  0  0  0  0  0  0  0  0
  148.8949  134.3098  154.7336 C   0  0  0  0  0  0  0  0  0  0  0  0
  148.6742  133.0532  154.1092 O   0  0  0  0  0  0  0  0  0  0  0  0
  148.1611  133.2034  152.7932 C   0  0  0  0  0  0  0  0  0  0  0  0
  146.8056  133.9299  152.8387 C   0  0  0  0  0  0  0  0  0  0  0  0
  151.8142  140.9385  156.4218 H   0  0  0  0  0  0  0  0  0  0  0  0
  145.1721  136.1724  149.9605 H   0  0  0  0  0  0  0  0  0  0  0  0
  144.3929  135.0992  151.1090 H   0  0  0  0  0  0  0  0  0  0  0  0
  146.1305  134.9865  150.8289 H   0  0  0  0  0  0  0  0  0  0  0  0
  146.3936  137.3409  151.7507 H   0  0  0  0  0  0  0  0  0  0  0  0
  144.6959  137.4141  152.0208 H   0  0  0  0  0  0  0  0  0  0  0  0
  143.5429  135.8967  153.5711 H   0  0  0  0  0  0  0  0  0  0  0  0
  144.3875  135.1191  154.8838 H   0  0  0  0  0  0  0  0  0  0  0  0
  144.4053  134.3976  153.2793 H   0  0  0  0  0  0  0  0  0  0  0  0
  144.9299  137.8544  154.5986 H   0  0  0  0  0  0  0  0  0  0  0  0
  146.1598  136.9556  155.4603 H   0  0  0  0  0  0  0  0  0  0  0  0
  147.6150  137.9845  153.4508 H   0  0  0  0  0  0  0  0  0  0  0  0
  148.0291  140.3919  152.8102 H   0  0  0  0  0  0  0  0  0  0  0  0
  147.8623  141.4973  154.1363 H   0  0  0  0  0  0  0  0  0  0  0  0
  149.3544  138.1979  153.3189 H   0  0  0  0  0  0  0  0  0  0  0  0
  151.4814  137.4124  154.1008 H   0  0  0  0  0  0  0  0  0  0  0  0
  147.7526  136.0120  155.3498 H   0  0  0  0  0  0  0  0  0  0  0  0
  146.8927  134.4925  155.5052 H   0  0  0  0  0  0  0  0  0  0  0  0
  149.6217  134.8938  154.1666 H   0  0  0  0  0  0  0  0  0  0  0  0
  149.3235  134.1409  155.7217 H   0  0  0  0  0  0  0  0  0  0  0  0
  148.8739  133.7483  152.1718 H   0  0  0  0  0  0  0  0  0  0  0  0
  148.0420  132.2158  152.3473 H   0  0  0  0  0  0  0  0  0  0  0  0
  146.0782  133.3113  153.3646 H   0  0  0  0  0  0  0  0  0  0  0  0
  146.4576  134.0353  151.8130 H   0  0  0  0  0  0  0  0  0  0  0  0
  147.6375  135.7467  152.9736 H   0  0  0  0  0  0  0  0  0  0  0  0
  1  2  1  0  0  0  0
  1 25  1  0  0  0  0
  1 26  1  0  0  0  0
  1 27  1  0  0  0  0
  2  3  1  0  0  0  0
  2 28  1  0  0  0  0
  2 29  1  0  0  0  0
  3  4  1  0  0  0  0
  3  5  1  0  0  0  0
  3 18  1  0  0  0  0
  4 30  1  0  0  0  0
  4 31  1  0  0  0  0
  4 32  1  0  0  0  0
  5  6  1  0  0  0  0
  5 33  1  0  0  0  0
  5 34  1  0  0  0  0
  6  7  1  0  0  0  0
  6 35  1  0  0  0  0
  7  8  2  0  0  0  0
  7  9  1  0  0  0  0
  9 10  1  0  0  0  0
  9 36  1  0  0  0  0
  9 37  1  0  0  0  0
 10 16  1  0  0  0  0
 10 11  1  0  0  0  0
 11 12  2  0  0  0  0
 11 38  1  0  0  0  0
 12 13  1  0  0  0  0
 12 39  1  0  0  0  0
 13 14  2  0  0  0  0
 13 15  1  0  0  0  0
 15 24  1  0  0  0  0
 15 16  1  0  0  0  0
 16 17  2  0  0  0  0
 18 23  1  0  0  0  0
 18 19  1  0  0  0  0
 18 48  1  0  0  0  0
 19 20  1  0  0  0  0
 19 40  1  0  0  0  0
 19 41  1  0  0  0  0
 20 21  1  0  0  0  0
 20 42  1  0  0  0  0
 20 43  1  0  0  0  0
 21 22  1  0  0  0  0
 22 23  1  0  0  0  0
 22 44  1  0  0  0  0
 22 45  1  0  0  0  0
 23 46  1  0  0  0  0
 23 47  1  0  0  0  0
M  CHG  1  18   1
M  END
> <s_m_source_file>
AV-unprocessed.smi

> <i_m_source_file_index>
1560

> <i_lp_mmshare_version>
43012

> <i_f3d_flags>
0

> <s_epik_input>
W0NIMl0xW0NIMl1PW0NIMl1bQ0gyXU4xW0NAQF0oW0NIM10pKFtDSDJdW0NIM10pW0NIMl1bTkhdQyg9TylbQ0gyXW4yW2NIXVtjSF1jKD1PKVtuSF1jMj1P

> <s_epik_cmdline>
J2VwaWtfcHl0aG9uJywgJy1waCcsICc3LjAnLCAnLXRuJywgJzgnLCAnLW1hJywgJzIwMCcsICctbWV0YWxfYmluZGluZycsICctaW1hZScsICc8aW5maWxlLm1hZT4nLCAnLW9tYWUnLCAnPG91dGZpbGUubWFlPic=

> <r_lp_tautomer_probability>
0.999537

> <r_epik_Ionization_Penalty>
0.523885

> <r_epik_Ionization_Penalty_Charging>
0.523885

> <r_epik_Ionization_Penalty_Neutral>
8.70177e-08

> <r_epik_State_Penalty>
0.572334

> <r_epik_Charging_Adjusted_Penalty>
1.09622

> <i_epik_Tot_Q>
1

> <i_epik_Tot_abs_Q>
1

> <r_epik_Metal_State_Penalty>
0.938906

> <b_epik_Metal_Only>
0

> <s_lp_Force_Field>
OPLS_2005

> <r_lp_Energy>
29.9369

> <b_lp_Chiralities_Consistent>
1

> <s_lp_Variant>
AV-unprocessed.smi:1560-4

> <Gold.Version>
5.8.1

> <Gold.Id.Protein>
6NUR|6NUR_protein|mol2

> <Gold.PLP.Fitness>
43.9942

> <Gold.PLP.PLP>
-33.3611

> <Gold.PLP.part.hbond>
-2.0000

> <Gold.PLP.part.metal>
0.0000

> <Gold.PLP.part.buried>
-3.2566

> <Gold.PLP.part.nonpolar>
-28.4862

> <Gold.PLP.part.repulsive>
0.6616

> <Gold.PLP.ligand.clash>
0.0000

> <Gold.PLP.ligand.torsion>
0.9031

> <Gold.PLP.Chemscore.Hbond>
3.0000

> <Gold.PLP.Chemscore.CHOScore>
1.0643

> <Gold.PLP.Chemscore.Metal>
0.0000

> <Gold.Chemscore.Hbonds>
donor molecule, donor type, donor heavy atom, donor atom, acceptor molecule, acceptor atom, score
      L1  H    18    48       P1  7948  2.00
      P1  H  7997  8008       L1    14  1.00
      L1  C    11    38       P1  7948  1.00
      L1  C    11    38       P1  7957  0.07

> <Gold.PLP.Chemscore.Internal.Correction>
0.2464

> <Gold.Rescore>
     Score         DG    S(hbond)    S(metal)    S(lipo)     H(rot)  DE(clash)    DE(int)     intcor
     11.68     -13.01       2.06        0.00      61.72       2.56       0.12       1.21       ----

> <Gold.Chemscore.Fitness>
11.6778

> <Gold.Chemscore.DG>
-13.0075

> <Gold.Chemscore.ZeroCoef>
-5.4800

> <Gold.Chemscore.Hbond>
2.0566

> <Gold.Chemscore.Metal>
0.0000

> <Gold.Chemscore.Lipo>
61.7157

> <Gold.Chemscore.Internal_Hbond>
0.0000

> <Gold.Chemscore.DEClash>
0.1240

> <Gold.Chemscore.DEInternal>
1.2058

> <Gold.Chemscore.Rot>
2.5634

> <Gold.Chemscore.Internal.Correction>
   9.000000E+99

> <Gold.Chemscore.Hbonds>
donor molecule, donor type, donor heavy atom, donor atom, acceptor molecule, acceptor atom, score
      L1  H    18    48       P1  7948  1.00
      P1  H  7997  8008       L1    14  0.98

> <Gold.Chemscore.Hbond.Weighted>
-6.8692

> <Gold.Chemscore.Metal.Weighted>
-0.0000

> <Gold.Chemscore.Lipo.Weighted>
-7.2207

> <Gold.Chemscore.Internal_Hbond.Weighted>
0.0000

> <Gold.Chemscore.DEClash.Weighted>
0.1240

> <Gold.Chemscore.DEInternal.Weighted>
1.2058

> <Gold.Chemscore.Rot.Weighted>
6.5624

> <Gold.Chemscore.Internal.Correction.Weighted>
   9.000000E+99

> <Gold.Protein.RotatedTorsions>
[ 6907 6896 6895 6894 ] final   38.99 input  -60.11 | X-H torsion
[ 7974 7965 7964 7962 ] final  137.23 input  175.53 | X-H torsion
[ 8008 7997 7996 7995 ] final  -34.05 input   59.86 | X-H torsion
[ 10167 10162 10161 10158 ] final -119.75 input  -65.29 | X-H torsion
[ 10718 10713 10712 10709 ] final   16.70 input   66.30 | X-H torsion
[ 10763 10752 10751 10750 ] final  101.09 input  -60.55 | X-H torsion
[ 11005 11000 10999 10996 ] final  -65.83 input  -57.11 | X-H torsion

> <Gold.Protein.ActiveResidues>
 VAL166  LYS551  ARG553  GLY616  TRP617  ASP618  TYR619  PRO620  LYS621  CYS622 
 ASP623  PHE694  ASN695  SER759  ASP760  ASP761  ALA762  ILE779  LEU786  VAL792 
 PHE793  MET794  SER795  GLU796  ALA797  LYS798  CYS799  TRP800  GLU811  SER814 

> <Gold.Protein.RotatedAtoms>
  152.1637  134.8891  160.0539 H   0  0  0  0  0  0  0  0  0  0  0  0  # atno 6907 bound_to 6896
  151.9877  133.3775  159.4140 H   0  0  0  0  0  0  0  0  0  0  0  0  # atno 6908 bound_to 6896
  150.6891  134.3893  159.5113 H   0  0  0  0  0  0  0  0  0  0  0  0  # atno 6909 bound_to 6896
  144.9488  139.4843  143.5536 H   0  0  0  0  0  0  0  0  0  0  0  0  # atno 7974 bound_to 7965
  154.4131  140.1694  156.1987 H   0  0  0  0  0  0  0  0  0  0  0  0  # atno 8008 bound_to 7997
  155.9542  140.3398  155.6411 H   0  0  0  0  0  0  0  0  0  0  0  0  # atno 8009 bound_to 7997
  155.6831  140.0725  157.2468 H   0  0  0  0  0  0  0  0  0  0  0  0  # atno 8010 bound_to 7997
  140.0433  143.5132  152.2119 H   0  0  0  0  0  0  0  0  0  0  0  0  # atno 10167 bound_to 10162
  157.0716  130.6351  149.5807 H   0  0  0  0  0  0  0  0  0  0  0  0  # atno 10718 bound_to 10713
  153.3223  135.4056  155.1427 H   0  0  0  0  0  0  0  0  0  0  0  0  # atno 10763 bound_to 10752
  154.8603  135.3590  154.5580 H   0  0  0  0  0  0  0  0  0  0  0  0  # atno 10764 bound_to 10752
  153.6014  135.7071  153.5442 H   0  0  0  0  0  0  0  0  0  0  0  0  # atno 10765 bound_to 10752
  141.1465  133.6688  156.6046 H   0  0  0  0  0  0  0  0  0  0  0  0  # atno 11005 bound_to 11000
  146.3313  139.8559  142.8865 LP  0  0  0  0  0  0  0  0  0  0  0  0  # atno 17320 bound_to 7965
  145.2876  141.0157  143.3682 LP  0  0  0  0  0  0  0  0  0  0  0  0  # atno 17321 bound_to 7965
  139.6000  144.7579  151.3195 LP  0  0  0  0  0  0  0  0  0  0  0  0  # atno 17342 bound_to 10162
  140.7250  143.7028  150.7831 LP  0  0  0  0  0  0  0  0  0  0  0  0  # atno 17343 bound_to 10162
  155.9949  130.5014  150.7436 LP  0  0  0  0  0  0  0  0  0  0  0  0  # atno 17370 bound_to 10713
  157.4873  131.0908  151.0468 LP  0  0  0  0  0  0  0  0  0  0  0  0  # atno 17371 bound_to 10713
  140.3662  134.7645  157.4567 LP  0  0  0  0  0  0  0  0  0  0  0  0  # atno 17394 bound_to 11000
  140.0746  134.5814  155.8604 LP  0  0  0  0  0  0  0  0  0  0  0  0  # atno 17395 bound_to 11000

$$$$
