AV-unprocessed.smi:3039|AV-procd|sdf|11593|dock1
  -GOLD-   2272016573D 1   1.00000     0.00000
 Structure written by MMmdl.
 38 39  0  0  0  0  0  0  0  0  1 V2000
  149.8963  137.1133  159.8240 O   0  0  0  0  0  0  0  0  0  0  0  0
  149.0671  136.9223  158.9346 C   0  0  0  0  0  0  0  0  0  0  0  0
  147.8574  136.0240  159.1935 C   0  0  0  0  0  0  0  0  0  0  0  0
  147.3847  136.1844  160.6143 C   0  0  0  0  0  0  0  0  0  0  0  0
  147.0487  135.1710  161.5564 C   0  0  0  0  0  0  0  0  0  0  0  0
  146.6910  135.8754  162.6695 C   0  0  0  0  0  0  0  0  0  0  0  0
  146.8002  137.2089  162.4435 O   0  0  0  0  0  0  0  0  0  0  0  0
  147.2452  137.3963  161.1301 N   0  0  0  0  0  0  0  0  0  0  0  0
  149.1525  137.4663  157.7104 N   0  0  0  0  0  0  0  0  0  0  0  0
  150.2071  138.3607  157.2371 C   0  0  2  0  0  0  0  0  0  0  0  0
  149.9607  139.7713  157.8228 C   0  0  0  0  0  0  0  0  0  0  0  0
  150.7226  140.9237  157.1489 C   0  0  0  0  0  0  0  0  0  0  0  0
  149.9578  141.5139  155.9513 C   0  0  0  0  0  0  0  0  0  0  0  0
  149.9400  140.6309  154.6946 C   0  0  0  0  0  0  0  0  0  0  0  0
  149.3948  139.2054  154.9025 C   0  0  0  0  0  0  0  0  0  0  0  0
  150.3639  138.2930  155.6897 C   0  0  2  0  0  0  0  0  0  0  0  0
  150.4067  136.8520  155.1228 C   0  0  0  0  0  0  0  0  0  0  0  0
  151.5806  136.5844  154.3794 O   0  0  0  0  0  0  0  0  0  0  0  0
  147.0589  136.2810  158.4962 H   0  0  0  0  0  0  0  0  0  0  0  0
  148.1270  134.9874  158.9848 H   0  0  0  0  0  0  0  0  0  0  0  0
  147.0627  134.0981  161.4326 H   0  0  0  0  0  0  0  0  0  0  0  0
  146.3530  135.5865  163.6538 H   0  0  0  0  0  0  0  0  0  0  0  0
  148.4288  137.2376  157.0440 H   0  0  0  0  0  0  0  0  0  0  0  0
  151.1526  137.9980  157.6456 H   0  0  0  0  0  0  0  0  0  0  0  0
  148.8937  140.0000  157.8154 H   0  0  0  0  0  0  0  0  0  0  0  0
  150.2362  139.7484  158.8781 H   0  0  0  0  0  0  0  0  0  0  0  0
  150.8439  141.7195  157.8846 H   0  0  0  0  0  0  0  0  0  0  0  0
  151.7326  140.6226  156.8693 H   0  0  0  0  0  0  0  0  0  0  0  0
  148.9345  141.7470  156.2480 H   0  0  0  0  0  0  0  0  0  0  0  0
  150.4101  142.4704  155.6869 H   0  0  0  0  0  0  0  0  0  0  0  0
  149.3283  141.1290  153.9416 H   0  0  0  0  0  0  0  0  0  0  0  0
  150.9425  140.5824  154.2677 H   0  0  0  0  0  0  0  0  0  0  0  0
  148.4102  139.2258  155.3710 H   0  0  0  0  0  0  0  0  0  0  0  0
  149.2378  138.7822  153.9098 H   0  0  0  0  0  0  0  0  0  0  0  0
  151.3675  138.6710  155.4901 H   0  0  0  0  0  0  0  0  0  0  0  0
  150.3627  136.1327  155.9413 H   0  0  0  0  0  0  0  0  0  0  0  0
  149.5350  136.6622  154.4957 H   0  0  0  0  0  0  0  0  0  0  0  0
  151.3291  136.2505  153.5316 H   0  0  0  0  0  0  0  0  0  0  0  0
  1  2  2  0  0  0  0
  2  3  1  0  0  0  0
  2  9  1  0  0  0  0
  3  4  1  0  0  0  0
  3 19  1  0  0  0  0
  3 20  1  0  0  0  0
  4  8  2  0  0  0  0
  4  5  1  0  0  0  0
  5  6  2  0  0  0  0
  5 21  1  0  0  0  0
  6  7  1  0  0  0  0
  6 22  1  0  0  0  0
  7  8  1  0  0  0  0
  9 10  1  0  0  0  0
  9 23  1  0  0  0  0
 10 16  1  0  0  0  0
 10 11  1  0  0  0  0
 10 24  1  0  0  0  0
 11 12  1  0  0  0  0
 11 25  1  0  0  0  0
 11 26  1  0  0  0  0
 12 13  1  0  0  0  0
 12 27  1  0  0  0  0
 12 28  1  0  0  0  0
 13 14  1  0  0  0  0
 13 29  1  0  0  0  0
 13 30  1  0  0  0  0
 14 15  1  0  0  0  0
 14 31  1  0  0  0  0
 14 32  1  0  0  0  0
 15 16  1  0  0  0  0
 15 33  1  0  0  0  0
 15 34  1  0  0  0  0
 16 17  1  0  0  0  0
 16 35  1  0  0  0  0
 17 18  1  0  0  0  0
 17 36  1  0  0  0  0
 17 37  1  0  0  0  0
 18 38  1  0  0  0  0
M  END
> <s_m_source_file>
AV-unprocessed.smi

> <i_m_source_file_index>
3039

> <i_lp_mmshare_version>
43012

> <i_f3d_flags>
0

> <s_epik_input>
bjFvW2NIXVtjSF1jMVtDSDJdQyg9TylbTkhdW0NAQEhdMltDSDJdW0NIMl1bQ0gyXVtDSDJdW0NIMl1bQ0BIXTJbQ0gyXVtPSF0=

> <s_epik_cmdline>
J2VwaWtfcHl0aG9uJywgJy1waCcsICc3LjAnLCAnLXRuJywgJzgnLCAnLW1hJywgJzIwMCcsICctbWV0YWxfYmluZGluZycsICctaW1hZScsICc8aW5maWxlLm1hZT4nLCAnLW9tYWUnLCAnPG91dGZpbGUubWFlPic=

> <r_lp_tautomer_probability>
1

> <r_epik_Ionization_Penalty>
3.05817e-07

> <r_epik_Ionization_Penalty_Charging>
0

> <r_epik_Ionization_Penalty_Neutral>
3.05817e-07

> <r_epik_State_Penalty>
-0

> <r_epik_Charging_Adjusted_Penalty>
0

> <i_epik_Tot_Q>
0

> <i_epik_Tot_abs_Q>
0

> <r_epik_Metal_State_Penalty>
-0

> <b_epik_Metal_Only>
0

> <s_lp_Force_Field>
OPLS_2005

> <r_lp_Energy>
21.1275

> <b_lp_Chiralities_Consistent>
1

> <s_lp_Variant>
AV-unprocessed.smi:3039-3

> <Gold.Version>
5.8.1

> <Gold.Id.Protein>
6NUR|6NUR_protein|mol2

> <Gold.PLP.Fitness>
41.2447

> <Gold.PLP.PLP>
-31.7139

> <Gold.PLP.part.hbond>
-6.3293

> <Gold.PLP.part.metal>
0.0000

> <Gold.PLP.part.buried>
-4.5739

> <Gold.PLP.part.nonpolar>
-21.9906

> <Gold.PLP.part.repulsive>
0.0642

> <Gold.PLP.ligand.clash>
0.0000

> <Gold.PLP.ligand.torsion>
1.4783

> <Gold.PLP.Chemscore.Hbond>
4.1340

> <Gold.PLP.Chemscore.CHOScore>
0.0000

> <Gold.PLP.Chemscore.Metal>
0.0000

> <Gold.Chemscore.Hbonds>
donor molecule, donor type, donor heavy atom, donor atom, acceptor molecule, acceptor atom, score
      L1  H    18    38       P1  7949  0.93
      P1  H  6896  6908       L1     1  0.15
      P1  H  6931  6943       L1     8  0.25
      P1  H  6934  6947       L1     8  1.00
      P1  H 10752 10763       L1    18  0.65

> <Gold.PLP.Chemscore.Internal.Correction>
0.0853

> <Gold.Rescore>
     Score         DG    S(hbond)    S(metal)    S(lipo)     H(rot)  DE(clash)    DE(int)     intcor
     12.32     -15.39       2.53        0.00      61.91       2.26       0.01       3.06       ----

> <Gold.Chemscore.Fitness>
12.3228

> <Gold.Chemscore.DG>
-15.3932

> <Gold.Chemscore.ZeroCoef>
-5.4800

> <Gold.Chemscore.Hbond>
2.5326

> <Gold.Chemscore.Metal>
0.0000

> <Gold.Chemscore.Lipo>
61.9129

> <Gold.Chemscore.Internal_Hbond>
0.0000

> <Gold.Chemscore.DEClash>
0.0149

> <Gold.Chemscore.DEInternal>
3.0556

> <Gold.Chemscore.Rot>
2.2616

> <Gold.Chemscore.Internal.Correction>
   9.000000E+99

> <Gold.Chemscore.Hbonds>
donor molecule, donor type, donor heavy atom, donor atom, acceptor molecule, acceptor atom, score
      L1  H    18    38       P1  7949  0.58
      P1  H  6896  6908       L1     1  0.07
      P1  H  6931  6943       L1     8  0.01
      P1  H  6934  6947       L1     8  0.39
      P1  H 10752 10763       L1    18  0.06

> <Gold.Chemscore.Hbond.Weighted>
-8.4590

> <Gold.Chemscore.Metal.Weighted>
-0.0000

> <Gold.Chemscore.Lipo.Weighted>
-7.2438

> <Gold.Chemscore.Internal_Hbond.Weighted>
0.0000

> <Gold.Chemscore.DEClash.Weighted>
0.0149

> <Gold.Chemscore.DEInternal.Weighted>
3.0556

> <Gold.Chemscore.Rot.Weighted>
5.7896

> <Gold.Chemscore.Internal.Correction.Weighted>
   9.000000E+99

> <Gold.Protein.RotatedTorsions>
[ 6907 6896 6895 6894 ] final -147.17 input  -60.11 | X-H torsion
[ 7974 7965 7964 7962 ] final   -4.29 input  175.53 | X-H torsion
[ 8008 7997 7996 7995 ] final -157.56 input   59.86 | X-H torsion
[ 10167 10162 10161 10158 ] final  -45.73 input  -65.29 | X-H torsion
[ 10718 10713 10712 10709 ] final  174.74 input   66.30 | X-H torsion
[ 10763 10752 10751 10750 ] final   52.92 input  -60.55 | X-H torsion
[ 11005 11000 10999 10996 ] final   61.44 input  -57.11 | X-H torsion

> <Gold.Protein.ActiveResidues>
 VAL166  LYS551  ARG553  GLY616  TRP617  ASP618  TYR619  PRO620  LYS621  CYS622 
 ASP623  PHE694  ASN695  SER759  ASP760  ASP761  ALA762  ILE779  LEU786  VAL792 
 PHE793  MET794  SER795  GLU796  ALA797  LYS798  CYS799  TRP800  GLU811  SER814 

> <Gold.Protein.RotatedAtoms>
  151.1519  133.4902  159.2594 H   0  0  0  0  0  0  0  0  0  0  0  0  # atno 6907 bound_to 6896
  151.1545  135.0243  159.8693 H   0  0  0  0  0  0  0  0  0  0  0  0  # atno 6908 bound_to 6896
  152.5463  134.1399  159.8528 H   0  0  0  0  0  0  0  0  0  0  0  0  # atno 6909 bound_to 6896
  146.2375  140.1848  142.8332 H   0  0  0  0  0  0  0  0  0  0  0  0  # atno 7974 bound_to 7965
  155.7343  140.0806  157.2275 H   0  0  0  0  0  0  0  0  0  0  0  0  # atno 8008 bound_to 7997
  154.4029  140.1589  156.2598 H   0  0  0  0  0  0  0  0  0  0  0  0  # atno 8009 bound_to 7997
  155.9080  140.3405  155.6080 H   0  0  0  0  0  0  0  0  0  0  0  0  # atno 8010 bound_to 7997
  140.6846  143.2865  151.3682 H   0  0  0  0  0  0  0  0  0  0  0  0  # atno 10167 bound_to 10162
  156.9451  131.0013  151.2960 H   0  0  0  0  0  0  0  0  0  0  0  0  # atno 10718 bound_to 10713
  152.9792  135.5796  154.4657 H   0  0  0  0  0  0  0  0  0  0  0  0  # atno 10763 bound_to 10752
  154.4227  135.2772  155.1967 H   0  0  0  0  0  0  0  0  0  0  0  0  # atno 10764 bound_to 10752
  154.3709  135.6168  153.5793 H   0  0  0  0  0  0  0  0  0  0  0  0  # atno 10765 bound_to 10752
  140.0161  134.6222  155.9707 H   0  0  0  0  0  0  0  0  0  0  0  0  # atno 11005 bound_to 11000
  144.9905  140.8542  143.5342 LP  0  0  0  0  0  0  0  0  0  0  0  0  # atno 17320 bound_to 7965
  145.1854  139.2329  143.5271 LP  0  0  0  0  0  0  0  0  0  0  0  0  # atno 17321 bound_to 7965
  139.6194  144.0937  152.2377 LP  0  0  0  0  0  0  0  0  0  0  0  0  # atno 17342 bound_to 10162
  140.0377  144.6032  150.7437 LP  0  0  0  0  0  0  0  0  0  0  0  0  # atno 17343 bound_to 10162
  157.5759  130.8343  149.8455 LP  0  0  0  0  0  0  0  0  0  0  0  0  # atno 17370 bound_to 10713
  156.0387  130.3744  150.1491 LP  0  0  0  0  0  0  0  0  0  0  0  0  # atno 17371 bound_to 10713
  141.1744  133.6539  156.4771 LP  0  0  0  0  0  0  0  0  0  0  0  0  # atno 17394 bound_to 11000
  140.4468  134.6965  157.5020 LP  0  0  0  0  0  0  0  0  0  0  0  0  # atno 17395 bound_to 11000

$$$$
