#       Name:                AV-unprocessed.smi:3150
#       Creating user name   scv26
#       Creation time:       Fri Mar 27 17:42:12 2020


#       File generated by GOLD software.
#

@<TRIPOS>MOLECULE
AV-unprocessed.smi:3150
    37    38     1
SMALL
NO_CHARGES


@<TRIPOS>ATOM
      1 ****         0.3835   2.5498  -2.0239 C.3            1 S1                 0.0000
      2 ****         0.6051   1.1567  -1.4195 C.3            1 S1                 0.0000
      3 ****         1.8772   1.1577  -0.7759 O.3            1 S1                 0.0000
      4 ****         2.3758  -0.1283  -0.4285 C.3            1 S1                 0.0000
      5 ****         3.7381   0.0344   0.2101 C.3            1 S1                 0.0000
      6 ****         4.3008  -1.0505   1.1001 C.3            1 S1                 0.0000
      7 ****         3.8663   0.2630   1.6989 C.3            1 S1                 0.0000
      8 ****        -0.5079   0.8179  -0.4134 C.2            1 S1                 0.0000
      9 ****        -0.4640   1.3287   0.7094 O.2            1 S1                 0.0000
     10 ****        -1.4440  -0.0617  -0.9509 N.2            1 S1                 0.0000
     11 ****        -2.4685  -0.5209  -0.2849 C.2            1 S1                 0.0000
     12 ****        -2.7374  -0.1789   1.0519 N.pl3          1 S1                 0.0000
     13 ****        -3.8191  -0.6705   1.7514 C.2            1 S1                 0.0000
     14 ****        -4.6888  -1.5121   1.1902 C.2            1 S1                 0.0000
     15 ****        -4.4851  -1.9136  -0.1864 C.2            1 S1                 0.0000
     16 ****        -3.4050  -1.4481  -0.9456 C.2            1 S1                 0.0000
     17 ****        -3.2676  -1.8234  -2.1331 O.co2          1 S1                -1.0000
     18 ****        -0.5748   2.6085  -2.5414 H              1 S1                 0.0000
     19 ****         1.1634   2.7853  -2.7485 H              1 S1                 0.0000
     20 ****         0.3994   3.3254  -1.2573 H              1 S1                 0.0000
     21 ****         0.6183   0.4270  -2.2321 H              1 S1                 0.0000
     22 ****         1.7100  -0.6450   0.2641 H              1 S1                 0.0000
     23 ****         2.4756  -0.7480  -1.3205 H              1 S1                 0.0000
     24 ****         4.4591   0.5536  -0.4185 H              1 S1                 0.0000
     25 ****         3.6777  -1.9213   1.2952 H              1 S1                 0.0000
     26 ****         5.3693  -1.2464   1.0379 H              1 S1                 0.0000
     27 ****         4.6440   0.9452   2.0361 H              1 S1                 0.0000
     28 ****         2.9523   0.2697   2.2896 H              1 S1                 0.0000
     29 ****        -3.8966  -0.3220   2.7705 H              1 S1                 0.0000
     30 ****        -5.5306  -1.8884   1.7525 H              1 S1                 0.0000
     31 ****        -5.1962  -2.5954  -0.6305 H              1 S1                 0.0000
     32 ****        -2.1306   0.4520   1.5543 H              1 S1                 0.0000
     33 ****         1.8004   1.6975   0.0623 LP             1 S1                 0.0000
     34 ****         2.5361   1.5900  -1.3916 LP             1 S1                 0.0000
     35 ****         0.2841   1.9479   0.9481 LP             1 S1                 0.0000
     36 ****        -1.1765   1.1233   1.3803 LP             1 S1                 0.0000
     37 ****        -1.3250  -0.3577  -1.8987 LP             1 S1                 0.0000
@<TRIPOS>BOND
    1    1    2 1     
    2    1   18 1     
    3    1   19 1     
    4    1   20 1     
    5    2    3 1     
    6    2    8 1     
    7    2   21 1     
    8    3    4 1     
    9    4    5 1     
   10    4   22 1     
   11    4   23 1     
   12    5    7 1     
   13    5    6 1     
   14    5   24 1     
   15    6    7 1     
   16    6   25 1     
   17    6   26 1     
   18    7   27 1     
   19    7   28 1     
   20    8    9 2     
   21    8   10 1     
   22   10   11 2     
   23   11   16 1     
   24   11   12 1     
   25   12   32 1     
   26   12   13 1     
   27   13   29 1     
   28   13   14 2     
   29   14   30 1     
   30   14   15 1     
   31   15   16 2     
   32   15   31 1     
   33   16   17 ar    
   34    3   33 1     
   35    3   34 1     
   36    9   35 1     
   37    9   36 1     
   38   10   37 1     
@<TRIPOS>SUBSTRUCTURE
      1 S1             1
@<TRIPOS>SET
LONE_PAIRS      STATIC     ATOMS    <user>   **** ""
6 33 34 35 36 37 17
DONOR_HYDROGENS      STATIC     ATOMS    <user>   **** ""
1 32
ATOM$BLUE        STATIC     ATOMS    COLORGROUP SYSTEM
6 33 34 35 36 37 17
ATOM$RED        STATIC     ATOMS    COLORGROUP SYSTEM
1 32
