AV-unprocessed.smi:724|AV-procd|sdf|3507|dock9
  -GOLD-   22720 0503D 1   1.00000     0.00000
 Structure written by MMmdl.
 36 37  0  0  0  0  0  0  0  0  1 V2000
  147.5941  136.2779  163.3395 C   0  0  0  0  0  0  0  0  0  0  0  0
  146.9798  135.3856  162.2410 C   0  0  0  0  0  0  0  0  0  0  0  0
  147.7445  134.0467  162.1925 C   0  0  0  0  0  0  0  0  0  0  0  0
  145.4992  135.1051  162.5909 C   0  0  0  0  0  0  0  0  0  0  0  0
  147.1435  136.1035  160.8800 C   0  0  0  0  0  0  0  0  0  0  0  0
  146.6081  137.1994  160.7049 O   0  0  0  0  0  0  0  0  0  0  0  0
  147.8519  135.4896  159.9148 N   0  0  0  0  0  0  0  0  0  0  0  0
  148.0350  135.9795  158.5494 C   0  0  0  0  0  0  0  0  0  0  0  0
  149.0342  135.1260  157.7425 C   0  0  0  0  0  0  0  0  0  0  0  0
  150.1297  135.9189  157.1060 C   0  0  0  0  0  0  0  0  0  0  0  0
  149.9958  136.9255  156.2466 N   0  0  0  0  0  0  0  0  0  0  0  0
  151.2946  137.1511  155.9081 C   0  0  0  0  0  0  0  0  0  0  0  0
  151.7052  138.2084  154.9350 C   0  0  0  0  0  0  0  0  0  0  0  0
  153.1710  138.4741  154.6635 C   0  0  0  0  0  0  0  0  0  0  0  0
  152.3557  139.4882  155.4173 C   0  0  0  0  0  0  0  0  0  0  0  0
  152.1965  136.3981  156.5254 N   0  0  0  0  0  0  0  0  0  0  0  0
  151.4155  135.5472  157.3197 O   0  0  0  0  0  0  0  0  0  0  0  0
  147.5209  135.8047  164.3191 H   0  0  0  0  0  0  0  0  0  0  0  0
  147.0826  137.2393  163.4041 H   0  0  0  0  0  0  0  0  0  0  0  0
  148.6507  136.4802  163.1575 H   0  0  0  0  0  0  0  0  0  0  0  0
  148.8089  134.1925  162.0012 H   0  0  0  0  0  0  0  0  0  0  0  0
  147.3558  133.3930  161.4101 H   0  0  0  0  0  0  0  0  0  0  0  0
  147.6590  133.5093  163.1376 H   0  0  0  0  0  0  0  0  0  0  0  0
  145.4144  134.5984  163.5528 H   0  0  0  0  0  0  0  0  0  0  0  0
  145.0226  134.4632  161.8487 H   0  0  0  0  0  0  0  0  0  0  0  0
  144.9174  136.0255  162.6634 H   0  0  0  0  0  0  0  0  0  0  0  0
  148.2625  134.5935  160.1344 H   0  0  0  0  0  0  0  0  0  0  0  0
  147.0772  136.0160  158.0276 H   0  0  0  0  0  0  0  0  0  0  0  0
  148.3897  137.0091  158.5982 H   0  0  0  0  0  0  0  0  0  0  0  0
  149.4808  134.3697  158.3887 H   0  0  0  0  0  0  0  0  0  0  0  0
  148.5034  134.5851  156.9583 H   0  0  0  0  0  0  0  0  0  0  0  0
  151.0098  138.2680  154.1000 H   0  0  0  0  0  0  0  0  0  0  0  0
  153.9036  137.9010  155.2288 H   0  0  0  0  0  0  0  0  0  0  0  0
  153.4555  138.7153  153.6414 H   0  0  0  0  0  0  0  0  0  0  0  0
  152.0950  140.4093  154.9000 H   0  0  0  0  0  0  0  0  0  0  0  0
  152.5467  139.5901  156.4840 H   0  0  0  0  0  0  0  0  0  0  0  0
  1  2  1  0  0  0  0
  1 18  1  0  0  0  0
  1 19  1  0  0  0  0
  1 20  1  0  0  0  0
  2  3  1  0  0  0  0
  2  4  1  0  0  0  0
  2  5  1  0  0  0  0
  3 21  1  0  0  0  0
  3 22  1  0  0  0  0
  3 23  1  0  0  0  0
  4 24  1  0  0  0  0
  4 25  1  0  0  0  0
  4 26  1  0  0  0  0
  5  6  2  0  0  0  0
  5  7  1  0  0  0  0
  7  8  1  0  0  0  0
  7 27  1  0  0  0  0
  8  9  1  0  0  0  0
  8 28  1  0  0  0  0
  8 29  1  0  0  0  0
  9 10  1  0  0  0  0
  9 30  1  0  0  0  0
  9 31  1  0  0  0  0
 10 17  1  0  0  0  0
 10 11  2  0  0  0  0
 11 12  1  0  0  0  0
 12 13  1  0  0  0  0
 12 16  2  0  0  0  0
 13 15  1  0  0  0  0
 13 14  1  0  0  0  0
 13 32  1  0  0  0  0
 14 15  1  0  0  0  0
 14 33  1  0  0  0  0
 14 34  1  0  0  0  0
 15 35  1  0  0  0  0
 15 36  1  0  0  0  0
 16 17  1  0  0  0  0
M  END
> <s_m_source_file>
AV-unprocessed.smi

> <i_m_source_file_index>
724

> <i_lp_mmshare_version>
43012

> <i_f3d_flags>
0

> <s_epik_input>
W0NIM11DKFtDSDNdKShbQ0gzXSlDKD1PKVtOSF1bQ0gyXVtDSDJdYzFuYyhubzEpW0NIXTJbQ0gyXVtDSDJdMg==

> <s_epik_cmdline>
J2VwaWtfcHl0aG9uJywgJy1waCcsICc3LjAnLCAnLXRuJywgJzgnLCAnLW1hJywgJzIwMCcsICctbWV0YWxfYmluZGluZycsICctaW1hZScsICc8aW5maWxlLm1hZT4nLCAnLW9tYWUnLCAnPG91dGZpbGUubWFlPic=

> <r_lp_tautomer_probability>
1

> <r_epik_Ionization_Penalty>
2.89377e-08

> <r_epik_Ionization_Penalty_Charging>
0

> <r_epik_Ionization_Penalty_Neutral>
2.89377e-08

> <r_epik_State_Penalty>
-0

> <r_epik_Charging_Adjusted_Penalty>
0

> <i_epik_Tot_Q>
0

> <i_epik_Tot_abs_Q>
0

> <r_epik_Metal_State_Penalty>
-0

> <b_epik_Metal_Only>
0

> <s_lp_Force_Field>
OPLS_2005

> <r_lp_Energy>
6.75537

> <b_lp_Chiralities_Consistent>
1

> <s_lp_Variant>
AV-unprocessed.smi:724-1

> <Gold.Version>
5.8.1

> <Gold.Id.Protein>
6NUR|6NUR_protein|mol2

> <Gold.PLP.Fitness>
33.5442

> <Gold.PLP.PLP>
-30.3970

> <Gold.PLP.part.hbond>
-2.6713

> <Gold.PLP.part.metal>
0.0000

> <Gold.PLP.part.buried>
-3.8743

> <Gold.PLP.part.nonpolar>
-23.9023

> <Gold.PLP.part.repulsive>
0.1237

> <Gold.PLP.ligand.clash>
1.8603

> <Gold.PLP.ligand.torsion>
0.5811

> <Gold.PLP.Chemscore.Hbond>
2.0000

> <Gold.PLP.Chemscore.CHOScore>
0.0000

> <Gold.PLP.Chemscore.Metal>
0.0000

> <Gold.Chemscore.Hbonds>
donor molecule, donor type, donor heavy atom, donor atom, acceptor molecule, acceptor atom, score
      P1  H  6934  6947       L1     6  1.00
      P1  H 10752 10765       L1    16  1.00

> <Gold.PLP.Chemscore.Internal.Correction>
0.1697

> <Gold.Rescore>
     Score         DG    S(hbond)    S(metal)    S(lipo)     H(rot)  DE(clash)    DE(int)     intcor
     14.45     -15.06       1.96        0.00      67.77       1.91       0.10       0.51       ----

> <Gold.Chemscore.Fitness>
14.4500

> <Gold.Chemscore.DG>
-15.0582

> <Gold.Chemscore.ZeroCoef>
-5.4800

> <Gold.Chemscore.Hbond>
1.9599

> <Gold.Chemscore.Metal>
0.0000

> <Gold.Chemscore.Lipo>
67.7695

> <Gold.Chemscore.Internal_Hbond>
0.0000

> <Gold.Chemscore.DEClash>
0.0987

> <Gold.Chemscore.DEInternal>
0.5095

> <Gold.Chemscore.Rot>
1.9129

> <Gold.Chemscore.Internal.Correction>
   9.000000E+99

> <Gold.Chemscore.Hbonds>
donor molecule, donor type, donor heavy atom, donor atom, acceptor molecule, acceptor atom, score
      P1  H  6934  6947       L1     6  1.00
      P1  H 10752 10765       L1    16  0.57

> <Gold.Chemscore.Hbond.Weighted>
-6.5462

> <Gold.Chemscore.Metal.Weighted>
-0.0000

> <Gold.Chemscore.Lipo.Weighted>
-7.9290

> <Gold.Chemscore.Internal_Hbond.Weighted>
0.0000

> <Gold.Chemscore.DEClash.Weighted>
0.0987

> <Gold.Chemscore.DEInternal.Weighted>
0.5095

> <Gold.Chemscore.Rot.Weighted>
4.8970

> <Gold.Chemscore.Internal.Correction.Weighted>
   9.000000E+99

> <Gold.Protein.RotatedTorsions>
[ 6907 6896 6895 6894 ] final -141.26 input  -60.11 | X-H torsion
[ 7974 7965 7964 7962 ] final   98.58 input  175.53 | X-H torsion
[ 8008 7997 7996 7995 ] final -108.09 input   59.86 | X-H torsion
[ 10167 10162 10161 10158 ] final  -87.75 input  -65.29 | X-H torsion
[ 10718 10713 10712 10709 ] final   78.05 input   66.30 | X-H torsion
[ 10763 10752 10751 10750 ] final -143.04 input  -60.55 | X-H torsion
[ 11005 11000 10999 10996 ] final -177.82 input  -57.11 | X-H torsion

> <Gold.Protein.ActiveResidues>
 VAL166  LYS551  ARG553  GLY616  TRP617  ASP618  TYR619  PRO620  LYS621  CYS622 
 ASP623  PHE694  ASN695  SER759  ASP760  ASP761  ALA762  ILE779  LEU786  VAL792 
 PHE793  MET794  SER795  GLU796  ALA797  LYS798  CYS799  TRP800  GLU811  SER814 

> <Gold.Protein.RotatedAtoms>
  151.0715  133.5462  159.2626 H   0  0  0  0  0  0  0  0  0  0  0  0  # atno 6907 bound_to 6896
  151.2400  135.0584  159.9031 H   0  0  0  0  0  0  0  0  0  0  0  0  # atno 6908 bound_to 6896
  152.5412  134.0491  159.8156 H   0  0  0  0  0  0  0  0  0  0  0  0  # atno 6909 bound_to 6896
  145.4103  139.2335  143.3252 H   0  0  0  0  0  0  0  0  0  0  0  0  # atno 7974 bound_to 7965
  154.9390  140.0403  157.2087 H   0  0  0  0  0  0  0  0  0  0  0  0  # atno 8008 bound_to 7997
  154.8087  140.2864  155.5847 H   0  0  0  0  0  0  0  0  0  0  0  0  # atno 8009 bound_to 7997
  156.2969  140.2541  156.2971 H   0  0  0  0  0  0  0  0  0  0  0  0  # atno 8010 bound_to 7997
  140.3814  143.2747  151.9379 H   0  0  0  0  0  0  0  0  0  0  0  0  # atno 10167 bound_to 10162
  157.6731  130.9850  150.1729 H   0  0  0  0  0  0  0  0  0  0  0  0  # atno 10718 bound_to 10713
  154.8485  135.3479  154.6124 H   0  0  0  0  0  0  0  0  0  0  0  0  # atno 10763 bound_to 10752
  153.6733  135.6984  153.5145 H   0  0  0  0  0  0  0  0  0  0  0  0  # atno 10764 bound_to 10752
  153.2726  135.4288  155.0958 H   0  0  0  0  0  0  0  0  0  0  0  0  # atno 10765 bound_to 10752
  140.4367  134.6469  157.4738 H   0  0  0  0  0  0  0  0  0  0  0  0  # atno 11005 bound_to 11000
  146.2708  140.4813  142.8815 LP  0  0  0  0  0  0  0  0  0  0  0  0  # atno 17320 bound_to 7965
  144.8314  140.6712  143.6289 LP  0  0  0  0  0  0  0  0  0  0  0  0  # atno 17321 bound_to 7965
  139.4795  144.5815  151.7924 LP  0  0  0  0  0  0  0  0  0  0  0  0  # atno 17342 bound_to 10162
  140.4934  144.1277  150.5955 LP  0  0  0  0  0  0  0  0  0  0  0  0  # atno 17343 bound_to 10162
  156.2479  130.3697  149.8264 LP  0  0  0  0  0  0  0  0  0  0  0  0  # atno 17370 bound_to 10713
  156.6045  130.8561  151.3440 LP  0  0  0  0  0  0  0  0  0  0  0  0  # atno 17371 bound_to 10713
  140.0097  134.6709  155.9399 LP  0  0  0  0  0  0  0  0  0  0  0  0  # atno 17394 bound_to 11000
  141.1723  133.6538  156.4697 LP  0  0  0  0  0  0  0  0  0  0  0  0  # atno 17395 bound_to 11000

$$$$
