#       Name:                AV-unprocessed.smi:3282
#       Creating user name   scv26
#       Creation time:       Fri Mar 27 18:48:16 2020


#       File generated by GOLD software.
#

@<TRIPOS>MOLECULE
AV-unprocessed.smi:3282
    41    42     1
SMALL
NO_CHARGES


@<TRIPOS>ATOM
      1 ****        -4.4570   4.1823   0.3411 C.3            1 S1                 0.0000
      2 ****        -3.8438   2.7750   0.2600 C.3            1 S1                 0.0000
      3 ****        -2.3079   2.7718   0.1806 C.2            1 S1                 0.0000
      4 ****        -1.6855   3.8296   0.2876 O.2            1 S1                 0.0000
      5 ****        -1.6821   1.5913  -0.0083 N.am           1 S1                 0.0000
      6 ****        -2.3357   0.2901  -0.1325 C.3            1 S1                 0.0000
      7 ****        -1.2126  -0.7471  -0.1245 C.3            1 S1                 0.0000
      8 ****         0.0269   0.0196  -0.5848 C.3            1 S1                 0.0000
      9 ****         1.2596  -0.5076  -0.0086 N.am           1 S1                 0.0000
     10 ****         1.8941  -1.6084  -0.4365 C.2            1 S1                 0.0000
     11 ****         1.4913  -2.3053  -1.3685 O.2            1 S1                 0.0000
     12 ****         3.0069  -1.8408   0.2795 N.am           1 S1                 0.0000
     13 ****         3.9400  -2.8941   0.1067 C.2            1 S1                 0.0000
     14 ****         3.8883  -3.8590  -0.8130 N.2            1 S1                 0.0000
     15 ****         5.0169  -4.6299  -0.5750 C.2            1 S1                 0.0000
     16 ****         5.6930  -4.0823   0.4850 C.2            1 S1                 0.0000
     17 ****         5.0192  -2.9763   0.9291 O.3            1 S1                 0.0000
     18 ****        -0.2321   1.4585  -0.1260 C.3            1 S1                 0.0000
     19 ****        -5.5446   4.1256   0.3879 H              1 S1                 0.0000
     20 ****        -4.1964   4.7816  -0.5322 H              1 S1                 0.0000
     21 ****        -4.1179   4.7148   1.2302 H              1 S1                 0.0000
     22 ****        -4.1510   2.2002   1.1341 H              1 S1                 0.0000
     23 ****        -4.2466   2.2646  -0.6154 H              1 S1                 0.0000
     24 ****        -3.0445   0.1040   0.6755 H              1 S1                 0.0000
     25 ****        -2.8782   0.2524  -1.0782 H              1 S1                 0.0000
     26 ****        -1.0721  -1.1117   0.8943 H              1 S1                 0.0000
     27 ****        -1.4320  -1.6088  -0.7557 H              1 S1                 0.0000
     28 ****         0.0775   0.0033  -1.6753 H              1 S1                 0.0000
     29 ****         1.6587   0.0065   0.7632 H              1 S1                 0.0000
     30 ****         3.2146  -1.1907   1.0230 H              1 S1                 0.0000
     31 ****         5.2495  -5.4986  -1.1731 H              1 S1                 0.0000
     32 ****         6.6030  -4.3387   1.0071 H              1 S1                 0.0000
     33 ****         0.1879   2.1778  -0.8310 H              1 S1                 0.0000
     34 ****         0.2111   1.6497   0.8531 H              1 S1                 0.0000
     35 ****        -2.1789   4.6883   0.4258 LP             1 S1                 0.0000
     36 ****        -0.6868   3.8295   0.2363 LP             1 S1                 0.0000
     37 ****         0.6493  -2.0598  -1.8488 LP             1 S1                 0.0000
     38 ****         2.0063  -3.1167  -1.6450 LP             1 S1                 0.0000
     39 ****         3.1915  -3.9961  -1.5170 LP             1 S1                 0.0000
     40 ****         4.7330  -3.0930   1.8801 LP             1 S1                 0.0000
     41 ****         5.5888  -2.1581   0.8505 LP             1 S1                 0.0000
@<TRIPOS>BOND
    1    1    2 1     
    2    1   19 1     
    3    1   20 1     
    4    1   21 1     
    5    2    3 1     
    6    2   22 1     
    7    2   23 1     
    8    3    4 2     
    9    3    5 am    
   10    5   18 1     
   11    5    6 1     
   12    6    7 1     
   13    6   24 1     
   14    6   25 1     
   15    7    8 1     
   16    7   26 1     
   17    7   27 1     
   18    8    9 1     
   19    8   18 1     
   20    8   28 1     
   21    9   10 am    
   22    9   29 1     
   23   10   11 2     
   24   10   12 am    
   25   12   13 1     
   26   12   30 1     
   27   13   17 1     
   28   13   14 2     
   29   14   15 1     
   30   15   16 2     
   31   15   31 1     
   32   16   17 1     
   33   16   32 1     
   34   18   33 1     
   35   18   34 1     
   36    4   35 1     
   37    4   36 1     
   38   11   37 1     
   39   11   38 1     
   40   14   39 1     
   41   17   40 1     
   42   17   41 1     
@<TRIPOS>SUBSTRUCTURE
      1 S1             1
@<TRIPOS>SET
LONE_PAIRS      STATIC     ATOMS    <user>   **** ""
7 35 36 37 38 39 40 41
DONOR_HYDROGENS      STATIC     ATOMS    <user>   **** ""
2 29 30
ATOM$BLUE        STATIC     ATOMS    COLORGROUP SYSTEM
7 35 36 37 38 39 40 41
ATOM$RED        STATIC     ATOMS    COLORGROUP SYSTEM
2 29 30
