AV-unprocessed.smi:279|AV-procd|sdf|2096|dock3
  -GOLD-   2262021383D 1   1.00000     0.00000
 Structure written by MMmdl.
 50 54  0  0  0  0  0  0  0  0  1 V2000
  151.9416  130.0994  159.3221 O   0  0  0  0  0  0  0  0  0  0  0  0
  151.8786  130.4932  157.9065 S   0  0  0  0  0  0  0  0  0  0  0  0
  151.5350  131.8704  157.5203 O   0  0  0  0  0  0  0  0  0  0  0  0
  153.4288  130.0100  157.0700 C   0  0  0  0  0  0  0  0  0  0  0  0
  152.9892  129.5964  155.6625 C   0  0  0  0  0  0  0  0  0  0  0  0
  151.6558  128.8205  155.7654 C   0  0  2  0  0  0  0  0  0  0  0  0
  150.7305  128.9860  154.5493 C   0  0  0  0  0  0  0  0  0  0  0  0
  149.4032  129.2562  155.0839 N   0  0  0  0  0  0  0  0  0  0  0  0
  148.4017  129.6463  154.2480 C   0  0  0  0  0  0  0  0  0  0  0  0
  147.5563  128.6983  153.7604 N   0  0  0  0  0  0  0  0  0  0  0  0
  146.5560  129.0308  152.9405 C   0  0  0  0  0  0  0  0  0  0  0  0
  146.2258  130.2355  152.4755 N   0  0  0  0  0  0  0  0  0  0  0  0
  147.0760  131.1940  152.9409 C   0  0  0  0  0  0  0  0  0  0  0  0
  148.1770  130.9917  153.8244 C   0  0  0  0  0  0  0  0  0  0  0  0
  148.7979  132.2114  154.0739 N   0  0  0  0  0  0  0  0  0  0  0  0
  148.1015  133.0786  153.3925 C   0  0  0  0  0  0  0  0  0  0  0  0
  147.0639  132.5496  152.6613 N   0  0  0  0  0  0  0  0  0  0  0  0
  146.1193  133.2776  151.8657 C   0  0  0  0  0  0  0  0  0  0  0  0
  144.6359  133.3362  152.2449 C   0  0  0  0  0  0  0  0  0  0  0  0
  144.2688  133.3995  150.7444 C   0  0  0  0  0  0  0  0  0  0  0  0
  143.0252  132.6030  150.3029 C   0  0  0  0  0  0  0  0  0  0  0  0
  142.9883  132.3805  148.9072 O   0  0  0  0  0  0  0  0  0  0  0  0
  144.1094  134.8309  150.1968 C   0  0  0  0  0  0  0  0  0  0  0  0
  143.7436  134.8266  148.8318 O   0  0  0  0  0  0  0  0  0  0  0  0
  145.6507  132.7470  150.5073 C   0  0  0  0  0  0  0  0  0  0  0  0
  149.5590  129.9093  156.3762 C   0  0  0  0  0  0  0  0  0  0  0  0
  150.8334  129.3048  156.9706 C   0  0  2  0  0  0  0  0  0  0  0  0
  151.8753  127.7623  155.9146 H   0  0  0  0  0  0  0  0  0  0  0  0
  150.5937  128.4612  157.6189 H   0  0  0  0  0  0  0  0  0  0  0  0
  154.1401  130.8358  157.0801 H   0  0  0  0  0  0  0  0  0  0  0  0
  153.8581  129.1642  157.6074 H   0  0  0  0  0  0  0  0  0  0  0  0
  152.8410  130.5053  155.0780 H   0  0  0  0  0  0  0  0  0  0  0  0
  153.7570  129.0144  155.1522 H   0  0  0  0  0  0  0  0  0  0  0  0
  151.0414  129.8148  153.9118 H   0  0  0  0  0  0  0  0  0  0  0  0
  150.7359  128.0748  153.9516 H   0  0  0  0  0  0  0  0  0  0  0  0
  145.9320  128.2143  152.6080 H   0  0  0  0  0  0  0  0  0  0  0  0
  148.3322  134.1340  153.4021 H   0  0  0  0  0  0  0  0  0  0  0  0
  146.5297  134.2835  151.7632 H   0  0  0  0  0  0  0  0  0  0  0  0
  144.3030  132.4253  152.7446 H   0  0  0  0  0  0  0  0  0  0  0  0
  144.3557  134.2174  152.8229 H   0  0  0  0  0  0  0  0  0  0  0  0
  142.9926  131.6315  150.7967 H   0  0  0  0  0  0  0  0  0  0  0  0
  142.1074  133.1248  150.5749 H   0  0  0  0  0  0  0  0  0  0  0  0
  143.5194  133.0381  148.4844 H   0  0  0  0  0  0  0  0  0  0  0  0
  143.3565  135.3841  150.7592 H   0  0  0  0  0  0  0  0  0  0  0  0
  145.0354  135.3981  150.2912 H   0  0  0  0  0  0  0  0  0  0  0  0
  144.5261  134.9253  148.3110 H   0  0  0  0  0  0  0  0  0  0  0  0
  146.2085  133.1395  149.6567 H   0  0  0  0  0  0  0  0  0  0  0  0
  145.6173  131.6567  150.4775 H   0  0  0  0  0  0  0  0  0  0  0  0
  149.6543  130.9831  156.2154 H   0  0  0  0  0  0  0  0  0  0  0  0
  148.7006  129.7351  157.0260 H   0  0  0  0  0  0  0  0  0  0  0  0
  1  2  2  0  0  0  0
  2 27  1  0  0  0  0
  2  3  2  0  0  0  0
  2  4  1  0  0  0  0
  4  5  1  0  0  0  0
  4 30  1  0  0  0  0
  4 31  1  0  0  0  0
  5  6  1  0  0  0  0
  5 32  1  0  0  0  0
  5 33  1  0  0  0  0
  6 28  1  0  0  0  0
  6 27  1  0  0  0  0
  6  7  1  0  0  0  0
  7  8  1  0  0  0  0
  7 34  1  0  0  0  0
  7 35  1  0  0  0  0
  8  9  1  0  0  0  0
  8 26  1  0  0  0  0
  9 14  1  0  0  0  0
  9 10  2  0  0  0  0
 10 11  1  0  0  0  0
 11 12  2  0  0  0  0
 11 36  1  0  0  0  0
 12 13  1  0  0  0  0
 13 17  1  0  0  0  0
 13 14  2  0  0  0  0
 14 15  1  0  0  0  0
 15 16  2  0  0  0  0
 16 17  1  0  0  0  0
 16 37  1  0  0  0  0
 17 18  1  0  0  0  0
 18 25  1  0  0  0  0
 18 19  1  0  0  0  0
 18 38  1  0  0  0  0
 19 20  1  0  0  0  0
 19 39  1  0  0  0  0
 19 40  1  0  0  0  0
 20 21  1  0  0  0  0
 20 23  1  0  0  0  0
 20 25  1  0  0  0  0
 21 22  1  0  0  0  0
 21 41  1  0  0  0  0
 21 42  1  0  0  0  0
 22 43  1  0  0  0  0
 23 24  1  0  0  0  0
 23 44  1  0  0  0  0
 23 45  1  0  0  0  0
 24 46  1  0  0  0  0
 25 47  1  0  0  0  0
 25 48  1  0  0  0  0
 26 27  1  0  0  0  0
 26 49  1  0  0  0  0
 26 50  1  0  0  0  0
 27 29  1  0  0  0  0
M  END
> <s_m_source_file>
AV-unprocessed.smi

> <i_m_source_file_index>
279

> <i_lp_mmshare_version>
43012

> <i_f3d_flags>
0

> <s_epik_input>
W0NIMl0xW0NIMl1TKD1PKSg9TylbQ0BASF0oW0NAQEhdMTIpW0NIMl1OKFtDSDJdMiljKG5bY0hdbjMpYyhjMzQpbltjSF1uNFtDSF0oW0NIMl01KVtDSDJdQzUoW0NIMl1bT0hdKVtDSDJdW09IXQ==

> <s_epik_cmdline>
J2VwaWtfcHl0aG9uJywgJy1waCcsICc3LjAnLCAnLXRuJywgJzgnLCAnLW1hJywgJzIwMCcsICctbWV0YWxfYmluZGluZycsICctaW1hZScsICc8aW5maWxlLm1hZT4nLCAnLW9tYWUnLCAnPG91dGZpbGUubWFlPic=

> <r_lp_tautomer_probability>
1

> <r_epik_Ionization_Penalty>
0.000990948

> <r_epik_Ionization_Penalty_Charging>
0

> <r_epik_Ionization_Penalty_Neutral>
0.000990948

> <r_epik_State_Penalty>
0.000515994

> <r_epik_Charging_Adjusted_Penalty>
0.000515994

> <i_epik_Tot_Q>
0

> <i_epik_Tot_abs_Q>
0

> <r_epik_Metal_State_Penalty>
-0

> <b_epik_Metal_Only>
0

> <s_lp_Force_Field>
OPLS_2005

> <r_lp_Energy>
55.7342

> <b_lp_Chiralities_Consistent>
1

> <s_lp_Variant>
AV-unprocessed.smi:279-2

> <Gold.Version>
5.8.1

> <Gold.Id.Protein>
6NUR|6NUR_protein|mol2

> <Gold.PLP.Fitness>
53.4899

> <Gold.PLP.PLP>
-42.7064

> <Gold.PLP.part.hbond>
-4.6348

> <Gold.PLP.part.metal>
0.0000

> <Gold.PLP.part.buried>
-7.2516

> <Gold.PLP.part.nonpolar>
-32.2272

> <Gold.PLP.part.repulsive>
0.3323

> <Gold.PLP.ligand.clash>
0.0000

> <Gold.PLP.ligand.torsion>
0.9102

> <Gold.PLP.Chemscore.Hbond>
2.9600

> <Gold.PLP.Chemscore.CHOScore>
0.9847

> <Gold.PLP.Chemscore.Metal>
0.0000

> <Gold.Chemscore.Hbonds>
donor molecule, donor type, donor heavy atom, donor atom, acceptor molecule, acceptor atom, score
      L1  H    24    46       P1  7921  1.00
      P1  H  6896  6909       L1     3  0.47
      P1  H 10785 10796       L1    22  0.46
      L1  C    16    37       P1  7948  0.74

> <Gold.PLP.Chemscore.Internal.Correction>
0.7699

> <Gold.Rescore>
     Score         DG    S(hbond)    S(metal)    S(lipo)     H(rot)  DE(clash)    DE(int)     intcor
     11.93     -12.75       2.23        0.00      70.51       3.29       0.03       0.79       ----

> <Gold.Chemscore.Fitness>
11.9333

> <Gold.Chemscore.DG>
-12.7547

> <Gold.Chemscore.ZeroCoef>
-5.4800

> <Gold.Chemscore.Hbond>
2.2332

> <Gold.Chemscore.Metal>
0.0000

> <Gold.Chemscore.Lipo>
70.5091

> <Gold.Chemscore.Internal_Hbond>
0.0000

> <Gold.Chemscore.DEClash>
0.0331

> <Gold.Chemscore.DEInternal>
0.7884

> <Gold.Chemscore.Rot>
3.2944

> <Gold.Chemscore.Internal.Correction>
   9.000000E+99

> <Gold.Chemscore.Hbonds>
donor molecule, donor type, donor heavy atom, donor atom, acceptor molecule, acceptor atom, score
      L1  H    24    46       P1  7921  1.00
      P1  H  6896  6909       L1     3  0.39
      P1  H 10192 10197       L1    24  0.02
      P1  H 10785 10796       L1    22  0.20

> <Gold.Chemscore.Hbond.Weighted>
-7.4588

> <Gold.Chemscore.Metal.Weighted>
-0.0000

> <Gold.Chemscore.Lipo.Weighted>
-8.2496

> <Gold.Chemscore.Internal_Hbond.Weighted>
0.0000

> <Gold.Chemscore.DEClash.Weighted>
0.0331

> <Gold.Chemscore.DEInternal.Weighted>
0.7884

> <Gold.Chemscore.Rot.Weighted>
8.4337

> <Gold.Chemscore.Internal.Correction.Weighted>
   9.000000E+99

> <Gold.Protein.RotatedTorsions>
[ 6907 6896 6895 6894 ] final  -57.62 input  -60.11 | X-H torsion
[ 7974 7965 7964 7962 ] final -133.40 input  175.53 | X-H torsion
[ 8008 7997 7996 7995 ] final -140.23 input   59.86 | X-H torsion
[ 10167 10162 10161 10158 ] final  -42.47 input  -65.29 | X-H torsion
[ 10718 10713 10712 10709 ] final  176.58 input   66.30 | X-H torsion
[ 10763 10752 10751 10750 ] final  -53.53 input  -60.55 | X-H torsion
[ 11005 11000 10999 10996 ] final   60.27 input  -57.11 | X-H torsion

> <Gold.Protein.ActiveResidues>
 VAL166  LYS551  ARG553  GLY616  TRP617  ASP618  TYR619  PRO620  LYS621  CYS622 
 ASP623  PHE694  ASN695  SER759  ASP760  ASP761  ALA762  ILE779  LEU786  VAL792 
 PHE793  MET794  SER795  GLU796  ALA797  LYS798  CYS799  TRP800  GLU811  SER814 

> <Gold.Protein.RotatedAtoms>
  150.8072  134.7204  159.6654 H   0  0  0  0  0  0  0  0  0  0  0  0  # atno 6907 bound_to 6896
  152.4191  134.5984  160.0003 H   0  0  0  0  0  0  0  0  0  0  0  0  # atno 6908 bound_to 6896
  151.6204  133.3302  159.3123 H   0  0  0  0  0  0  0  0  0  0  0  0  # atno 6909 bound_to 6896
  144.9196  140.6998  143.4973 H   0  0  0  0  0  0  0  0  0  0  0  0  # atno 7974 bound_to 7965
  155.4579  140.0543  157.2994 H   0  0  0  0  0  0  0  0  0  0  0  0  # atno 8008 bound_to 7997
  154.4750  140.2057  155.9857 H   0  0  0  0  0  0  0  0  0  0  0  0  # atno 8009 bound_to 7997
  156.1117  140.3203  155.8086 H   0  0  0  0  0  0  0  0  0  0  0  0  # atno 8010 bound_to 7997
  140.6968  143.3036  151.3213 H   0  0  0  0  0  0  0  0  0  0  0  0  # atno 10167 bound_to 10162
  156.9180  130.9931  151.3009 H   0  0  0  0  0  0  0  0  0  0  0  0  # atno 10718 bound_to 10713
  154.1602  135.6476  153.4984 H   0  0  0  0  0  0  0  0  0  0  0  0  # atno 10763 bound_to 10752
  153.0112  135.5359  154.6718 H   0  0  0  0  0  0  0  0  0  0  0  0  # atno 10764 bound_to 10752
  154.6030  135.2945  155.0487 H   0  0  0  0  0  0  0  0  0  0  0  0  # atno 10765 bound_to 10752
  140.0244  134.6105  155.9594 H   0  0  0  0  0  0  0  0  0  0  0  0  # atno 11005 bound_to 11000
  145.3318  139.1757  143.4533 LP  0  0  0  0  0  0  0  0  0  0  0  0  # atno 17320 bound_to 7965
  146.3198  140.3348  142.8643 LP  0  0  0  0  0  0  0  0  0  0  0  0  # atno 17321 bound_to 7965
  139.6433  144.0497  152.2572 LP  0  0  0  0  0  0  0  0  0  0  0  0  # atno 17342 bound_to 10162
  140.0010  144.6293  150.7730 LP  0  0  0  0  0  0  0  0  0  0  0  0  # atno 17343 bound_to 10162
  157.5926  130.8454  149.8681 LP  0  0  0  0  0  0  0  0  0  0  0  0  # atno 17370 bound_to 10713
  156.0504  130.3719  150.1214 LP  0  0  0  0  0  0  0  0  0  0  0  0  # atno 17371 bound_to 10713
  141.1793  133.6544  156.4956 LP  0  0  0  0  0  0  0  0  0  0  0  0  # atno 17394 bound_to 11000
  140.4332  134.7082  157.4953 LP  0  0  0  0  0  0  0  0  0  0  0  0  # atno 17395 bound_to 11000

$$$$
