AV-unprocessed.smi:224|AV-procd|sdf|1717|dock9
  -GOLD-   2262020193D 1   1.00000     0.00000
 Structure written by MMmdl.
 56 59  0  0  0  0  0  0  0  0  2 V2000
  151.8023  141.9677  158.3618 C   0  0  0  0  0  0  0  0  0  0  0  0
  151.0190  141.9858  157.0428 C   0  0  2  0  0  0  0  0  0  0  0  0
  150.9465  143.3272  156.6019 O   0  0  0  0  0  0  0  0  0  0  0  0
  149.5918  141.4282  157.2147 C   0  0  0  0  0  0  0  0  0  0  0  0
  148.7452  141.6595  156.0098 N   0  3  1  0  0  0  0  0  0  0  0  0
  149.3076  140.9589  154.8204 C   0  0  0  0  0  0  0  0  0  0  0  0
  148.4927  141.2349  153.5504 C   0  0  0  0  0  0  0  0  0  0  0  0
  147.0991  140.8703  153.7619 N   0  0  0  0  0  0  0  0  0  0  0  0
  146.7681  139.5754  153.5105 C   0  0  0  0  0  0  0  0  0  0  0  0
  146.2300  139.2355  152.3088 N   0  0  0  0  0  0  0  0  0  0  0  0
  145.8839  137.9705  152.0543 C   0  0  0  0  0  0  0  0  0  0  0  0
  145.9914  136.9024  152.8453 N   0  0  0  0  0  0  0  0  0  0  0  0
  146.5476  137.2293  154.0464 C   0  0  0  0  0  0  0  0  0  0  0  0
  146.9572  138.5292  154.4589 C   0  0  0  0  0  0  0  0  0  0  0  0
  147.4783  138.4713  155.7463 N   0  0  0  0  0  0  0  0  0  0  0  0
  147.3720  137.2141  156.0792 C   0  0  0  0  0  0  0  0  0  0  0  0
  146.8350  136.3942  155.1128 N   0  0  0  0  0  0  0  0  0  0  0  0
  146.6031  134.9607  155.2143 C   0  0  0  0  0  0  0  0  0  0  0  0
  147.4321  134.1079  154.2196 C   0  0  1  0  0  0  0  0  0  0  0  0
  147.0555  134.4338  152.8945 O   0  0  0  0  0  0  0  0  0  0  0  0
  148.9474  134.2716  154.3624 C   0  0  0  0  0  0  0  0  0  0  0  0
  149.3495  133.0537  155.1814 C   0  0  0  0  0  0  0  0  0  0  0  0
  148.5172  132.0416  154.6450 O   0  0  0  0  0  0  0  0  0  0  0  0
  147.2218  132.5982  154.4578 C   0  0  0  0  0  0  0  0  0  0  0  0
  146.4899  141.5586  154.8959 C   0  0  0  0  0  0  0  0  0  0  0  0
  147.2878  141.3752  156.2118 C   0  0  2  0  0  0  0  0  0  0  0  0
  146.6469  142.2818  157.2832 C   0  0  0  0  0  0  0  0  0  0  0  0
  151.9113  140.9503  158.7388 H   0  0  0  0  0  0  0  0  0  0  0  0
  151.3012  142.5560  159.1316 H   0  0  0  0  0  0  0  0  0  0  0  0
  152.8044  142.3774  158.2299 H   0  0  0  0  0  0  0  0  0  0  0  0
  151.5776  141.4112  156.3046 H   0  0  0  0  0  0  0  0  0  0  0  0
  150.1393  143.4535  156.1280 H   0  0  0  0  0  0  0  0  0  0  0  0
  149.6267  140.3579  157.4252 H   0  0  0  0  0  0  0  0  0  0  0  0
  149.1664  141.8755  158.1096 H   0  0  0  0  0  0  0  0  0  0  0  0
  150.3387  141.2667  154.6508 H   0  0  0  0  0  0  0  0  0  0  0  0
  149.3300  139.8843  155.0101 H   0  0  0  0  0  0  0  0  0  0  0  0
  148.5408  142.2951  153.2989 H   0  0  0  0  0  0  0  0  0  0  0  0
  148.9328  140.7012  152.7093 H   0  0  0  0  0  0  0  0  0  0  0  0
  145.4607  137.7874  151.0776 H   0  0  0  0  0  0  0  0  0  0  0  0
  147.6900  136.8473  157.0445 H   0  0  0  0  0  0  0  0  0  0  0  0
  146.8192  134.6557  156.2391 H   0  0  0  0  0  0  0  0  0  0  0  0
  145.5380  134.7801  155.0627 H   0  0  0  0  0  0  0  0  0  0  0  0
  147.7274  134.9815  152.5183 H   0  0  0  0  0  0  0  0  0  0  0  0
  149.4359  134.2114  153.3883 H   0  0  0  0  0  0  0  0  0  0  0  0
  149.2616  135.2064  154.8229 H   0  0  0  0  0  0  0  0  0  0  0  0
  150.4058  132.8044  155.0788 H   0  0  0  0  0  0  0  0  0  0  0  0
  149.1259  133.1980  156.2397 H   0  0  0  0  0  0  0  0  0  0  0  0
  146.6373  132.4180  155.3612 H   0  0  0  0  0  0  0  0  0  0  0  0
  146.7098  132.0978  153.6349 H   0  0  0  0  0  0  0  0  0  0  0  0
  146.4442  142.6190  154.6441 H   0  0  0  0  0  0  0  0  0  0  0  0
  145.4538  141.2412  155.0241 H   0  0  0  0  0  0  0  0  0  0  0  0
  147.1948  140.3380  156.5361 H   0  0  0  0  0  0  0  0  0  0  0  0
  145.5639  142.1540  157.2977 H   0  0  0  0  0  0  0  0  0  0  0  0
  146.8485  143.3348  157.0833 H   0  0  0  0  0  0  0  0  0  0  0  0
  146.9875  142.0592  158.2928 H   0  0  0  0  0  0  0  0  0  0  0  0
  148.7979  142.6482  155.8121 H   0  0  0  0  0  0  0  0  0  0  0  0
  1  2  1  0  0  0  0
  1 28  1  0  0  0  0
  1 29  1  0  0  0  0
  1 30  1  0  0  0  0
  2  3  1  0  0  0  0
  2  4  1  0  0  0  0
  2 31  1  0  0  0  0
  3 32  1  0  0  0  0
  4  5  1  0  0  0  0
  4 33  1  0  0  0  0
  4 34  1  0  0  0  0
  5 26  1  0  0  0  0
  5  6  1  0  0  0  0
  5 56  1  0  0  0  0
  6  7  1  0  0  0  0
  6 35  1  0  0  0  0
  6 36  1  0  0  0  0
  7  8  1  0  0  0  0
  7 37  1  0  0  0  0
  7 38  1  0  0  0  0
  8  9  1  0  0  0  0
  8 25  1  0  0  0  0
  9 14  1  0  0  0  0
  9 10  2  0  0  0  0
 10 11  1  0  0  0  0
 11 12  2  0  0  0  0
 11 39  1  0  0  0  0
 12 13  1  0  0  0  0
 13 17  1  0  0  0  0
 13 14  2  0  0  0  0
 14 15  1  0  0  0  0
 15 16  2  0  0  0  0
 16 17  1  0  0  0  0
 16 40  1  0  0  0  0
 17 18  1  0  0  0  0
 18 19  1  0  0  0  0
 18 41  1  0  0  0  0
 18 42  1  0  0  0  0
 19 24  1  0  0  0  0
 19 20  1  0  0  0  0
 19 21  1  0  0  0  0
 20 43  1  0  0  0  0
 21 22  1  0  0  0  0
 21 44  1  0  0  0  0
 21 45  1  0  0  0  0
 22 23  1  0  0  0  0
 22 46  1  0  0  0  0
 22 47  1  0  0  0  0
 23 24  1  0  0  0  0
 24 48  1  0  0  0  0
 24 49  1  0  0  0  0
 25 26  1  0  0  0  0
 25 50  1  0  0  0  0
 25 51  1  0  0  0  0
 26 27  1  0  0  0  0
 26 52  1  0  0  0  0
 27 53  1  0  0  0  0
 27 54  1  0  0  0  0
 27 55  1  0  0  0  0
M  CHG  1   5   1
M  END
> <s_m_source_file>
AV-unprocessed.smi

> <i_m_source_file_index>
224

> <i_lp_mmshare_version>
43012

> <i_f3d_flags>
0

> <s_epik_input>
W0NIM11bQ0BIXShbT0hdKVtDSDJdTjFbQ0gyXVtDSDJdTihbQ0gyXVtDQEhdMVtDSDNdKWMobltjSF1uMiljKGMyMyluW2NIXW4zW0NIMl1bQ0BAXTQoW09IXSlbQ0gyXVtDSDJdT1tDSDJdNA==

> <s_epik_cmdline>
J2VwaWtfcHl0aG9uJywgJy1waCcsICc3LjAnLCAnLXRuJywgJzgnLCAnLW1hJywgJzIwMCcsICctbWV0YWxfYmluZGluZycsICctaW1hZScsICc8aW5maWxlLm1hZT4nLCAnLW9tYWUnLCAnPG91dGZpbGUubWFlPic=

> <r_lp_tautomer_probability>
1

> <r_epik_Ionization_Penalty>
0.00516958

> <r_epik_Ionization_Penalty_Charging>
0.00509693

> <r_epik_Ionization_Penalty_Neutral>
7.26542e-05

> <r_epik_State_Penalty>
-0

> <r_epik_Charging_Adjusted_Penalty>
0.00509693

> <i_epik_Tot_Q>
1

> <i_epik_Tot_abs_Q>
1

> <r_epik_Metal_State_Penalty>
-0

> <b_epik_Metal_Only>
0

> <s_lp_Force_Field>
OPLS_2005

> <r_lp_Energy>
50.0315

> <b_lp_Chiralities_Consistent>
1

> <s_lp_Variant>
AV-unprocessed.smi:224-11

> <Gold.Version>
5.8.1

> <Gold.Id.Protein>
6NUR|6NUR_protein|mol2

> <Gold.PLP.Fitness>
42.7897

> <Gold.PLP.PLP>
-28.1339

> <Gold.PLP.part.hbond>
-3.0000

> <Gold.PLP.part.metal>
0.0000

> <Gold.PLP.part.buried>
-4.6902

> <Gold.PLP.part.nonpolar>
-23.8454

> <Gold.PLP.part.repulsive>
2.1626

> <Gold.PLP.ligand.clash>
0.0000

> <Gold.PLP.ligand.torsion>
0.4390

> <Gold.PLP.Chemscore.Hbond>
4.0000

> <Gold.PLP.Chemscore.CHOScore>
1.0000

> <Gold.PLP.Chemscore.Metal>
0.0000

> <Gold.Chemscore.Hbonds>
donor molecule, donor type, donor heavy atom, donor atom, acceptor molecule, acceptor atom, score
      L1  H     3    32       P1  8028  0.85
      L1  H     5    56       P1  8028  1.79
      L1  H    20    43       P1  7948  1.00
      L1  C    11    39       P1 10171  1.00

> <Gold.PLP.Chemscore.Internal.Correction>
0.5338

> <Gold.Rescore>
     Score         DG    S(hbond)    S(metal)    S(lipo)     H(rot)  DE(clash)    DE(int)     intcor
     11.71     -14.09       2.94        0.00      63.27       3.36       0.88       1.50       ----

> <Gold.Chemscore.Fitness>
11.7062

> <Gold.Chemscore.DG>
-14.0901

> <Gold.Chemscore.ZeroCoef>
-5.4800

> <Gold.Chemscore.Hbond>
2.9377

> <Gold.Chemscore.Metal>
0.0000

> <Gold.Chemscore.Lipo>
63.2711

> <Gold.Chemscore.Internal_Hbond>
0.0000

> <Gold.Chemscore.DEClash>
0.8824

> <Gold.Chemscore.DEInternal>
1.5016

> <Gold.Chemscore.Rot>
3.3611

> <Gold.Chemscore.Internal.Correction>
   9.000000E+99

> <Gold.Chemscore.Hbonds>
donor molecule, donor type, donor heavy atom, donor atom, acceptor molecule, acceptor atom, score
      L1  H     3    32       P1  8028  0.83
      L1  H     5    56       P1  8028  0.86
      L1  H    20    43       P1  7948  0.96

> <Gold.Chemscore.Hbond.Weighted>
-9.8119

> <Gold.Chemscore.Metal.Weighted>
-0.0000

> <Gold.Chemscore.Lipo.Weighted>
-7.4027

> <Gold.Chemscore.Internal_Hbond.Weighted>
0.0000

> <Gold.Chemscore.DEClash.Weighted>
0.8824

> <Gold.Chemscore.DEInternal.Weighted>
1.5016

> <Gold.Chemscore.Rot.Weighted>
8.6045

> <Gold.Chemscore.Internal.Correction.Weighted>
   9.000000E+99

> <Gold.Protein.RotatedTorsions>
[ 6907 6896 6895 6894 ] final  111.65 input  -60.11 | X-H torsion
[ 7974 7965 7964 7962 ] final -152.53 input  175.53 | X-H torsion
[ 8008 7997 7996 7995 ] final -147.90 input   59.86 | X-H torsion
[ 10167 10162 10161 10158 ] final  -10.36 input  -65.29 | X-H torsion
[ 10718 10713 10712 10709 ] final    4.06 input   66.30 | X-H torsion
[ 10763 10752 10751 10750 ] final  167.01 input  -60.55 | X-H torsion
[ 11005 11000 10999 10996 ] final  174.49 input  -57.11 | X-H torsion

> <Gold.Protein.ActiveResidues>
 VAL166  LYS551  ARG553  GLY616  TRP617  ASP618  TYR619  PRO620  LYS621  CYS622 
 ASP623  PHE694  ASN695  SER759  ASP760  ASP761  ALA762  ILE779  LEU786  VAL792 
 PHE793  MET794  SER795  GLU796  ALA797  LYS798  CYS799  TRP800  GLU811  SER814 

> <Gold.Protein.RotatedAtoms>
  152.4958  133.8627  159.7258 H   0  0  0  0  0  0  0  0  0  0  0  0  # atno 6907 bound_to 6896
  150.9134  133.6960  159.2856 H   0  0  0  0  0  0  0  0  0  0  0  0  # atno 6908 bound_to 6896
  151.4361  135.1019  159.9709 H   0  0  0  0  0  0  0  0  0  0  0  0  # atno 6909 bound_to 6896
  144.7789  140.4649  143.5853 H   0  0  0  0  0  0  0  0  0  0  0  0  # atno 7974 bound_to 7965
  155.5829  140.0645  157.2778 H   0  0  0  0  0  0  0  0  0  0  0  0  # atno 8008 bound_to 7997
  154.4327  140.1849  156.1042 H   0  0  0  0  0  0  0  0  0  0  0  0  # atno 8009 bound_to 7997
  156.0291  140.3308  155.7124 H   0  0  0  0  0  0  0  0  0  0  0  0  # atno 8010 bound_to 7997
  140.7112  143.5756  150.9046 H   0  0  0  0  0  0  0  0  0  0  0  0  # atno 10167 bound_to 10162
  156.8870  130.5674  149.5651 H   0  0  0  0  0  0  0  0  0  0  0  0  # atno 10718 bound_to 10713
  154.3475  135.2753  155.2390 H   0  0  0  0  0  0  0  0  0  0  0  0  # atno 10763 bound_to 10752
  154.4634  135.5901  153.6275 H   0  0  0  0  0  0  0  0  0  0  0  0  # atno 10764 bound_to 10752
  152.9852  135.6070  154.3682 H   0  0  0  0  0  0  0  0  0  0  0  0  # atno 10765 bound_to 10752
  140.3519  134.7188  157.4273 H   0  0  0  0  0  0  0  0  0  0  0  0  # atno 11005 bound_to 11000
  145.6106  139.1513  143.3078 LP  0  0  0  0  0  0  0  0  0  0  0  0  # atno 17320 bound_to 7965
  146.1986  140.6222  142.9113 LP  0  0  0  0  0  0  0  0  0  0  0  0  # atno 17321 bound_to 7965
  139.9482  143.6302  152.3036 LP  0  0  0  0  0  0  0  0  0  0  0  0  # atno 17342 bound_to 10162
  139.6811  144.7655  151.1606 LP  0  0  0  0  0  0  0  0  0  0  0  0  # atno 17343 bound_to 10162
  156.0648  130.5693  150.9266 LP  0  0  0  0  0  0  0  0  0  0  0  0  # atno 17370 bound_to 10713
  157.6106  131.0936  150.8801 LP  0  0  0  0  0  0  0  0  0  0  0  0  # atno 17371 bound_to 10713
  140.0696  134.5881  155.8656 LP  0  0  0  0  0  0  0  0  0  0  0  0  # atno 17394 bound_to 11000
  141.2010  133.6615  156.5925 LP  0  0  0  0  0  0  0  0  0  0  0  0  # atno 17395 bound_to 11000

$$$$
