AV-unprocessed.smi:236|AV-procd|sdf|1813|dock4
  -GOLD-   2262020403D 1   1.00000     0.00000
 Structure written by MMmdl.
 58 62  0  0  0  0  0  0  0  0  1 V2000
  144.6875  137.7893  161.5016 C   0  0  0  0  0  0  0  0  0  0  0  0
  145.6503  136.7686  162.1266 C   0  0  2  0  0  0  0  0  0  0  0  0
  146.9855  137.2674  162.1288 O   0  0  0  0  0  0  0  0  0  0  0  0
  147.9096  136.2010  161.9287 C   0  0  0  0  0  0  0  0  0  0  0  0
  147.0802  134.9214  161.9771 C   0  0  0  0  0  0  0  0  0  0  0  0
  145.7270  135.3857  161.4518 C   0  0  1  0  0  0  0  0  0  0  0  0
  144.7184  134.5337  161.9622 O   0  0  0  0  0  0  0  0  0  0  0  0
  145.6335  135.4294  159.9021 C   0  0  0  0  0  0  0  0  0  0  0  0
  146.6575  136.2506  159.2755 N   0  0  0  0  0  0  0  0  0  0  0  0
  146.6866  137.6248  159.2060 C   0  0  0  0  0  0  0  0  0  0  0  0
  147.7155  138.1282  158.5809 N   0  0  0  0  0  0  0  0  0  0  0  0
  148.4634  137.0185  158.2028 C   0  0  0  0  0  0  0  0  0  0  0  0
  149.6859  136.8377  157.4935 C   0  0  0  0  0  0  0  0  0  0  0  0
  150.4262  137.8732  157.0181 N   0  0  0  0  0  0  0  0  0  0  0  0
  151.3400  137.6141  155.9076 C   0  0  0  0  0  0  0  0  0  0  0  0
  151.8534  138.9400  155.3247 C   0  0  0  0  0  0  0  0  0  0  0  0
  152.4404  139.7187  156.3618 O   0  0  0  0  0  0  0  0  0  0  0  0
  151.5006  140.0600  157.3781 C   0  0  2  0  0  0  0  0  0  0  0  0
  152.1984  140.9729  158.3940 C   0  0  0  0  0  0  0  0  0  0  0  0
  151.2255  141.5187  159.2695 O   0  0  0  0  0  0  0  0  0  0  0  0
  150.7724  142.7954  158.8543 C   0  0  0  0  0  0  0  0  0  0  0  0
  151.8206  143.8298  159.2044 C   0  0  0  0  0  0  0  0  0  0  0  0
  151.4968  145.3046  159.1255 C   0  0  0  0  0  0  0  0  0  0  0  0
  152.4459  144.6890  158.1288 C   0  0  0  0  0  0  0  0  0  0  0  0
  150.9937  138.7589  158.0307 C   0  0  0  0  0  0  0  0  0  0  0  0
  150.1026  135.5585  157.2897 N   0  0  0  0  0  0  0  0  0  0  0  0
  149.3868  134.5297  157.7525 C   0  0  0  0  0  0  0  0  0  0  0  0
  148.2387  134.5511  158.4310 N   0  0  0  0  0  0  0  0  0  0  0  0
  147.8082  135.8291  158.6323 C   0  0  0  0  0  0  0  0  0  0  0  0
  143.6712  137.3971  161.4628 H   0  0  0  0  0  0  0  0  0  0  0  0
  144.9859  138.0594  160.4886 H   0  0  0  0  0  0  0  0  0  0  0  0
  144.6662  138.7071  162.0893 H   0  0  0  0  0  0  0  0  0  0  0  0
  145.3774  136.6325  163.1750 H   0  0  0  0  0  0  0  0  0  0  0  0
  148.3749  136.3205  160.9498 H   0  0  0  0  0  0  0  0  0  0  0  0
  148.6984  136.2114  162.6809 H   0  0  0  0  0  0  0  0  0  0  0  0
  147.5293  134.0971  161.4245 H   0  0  0  0  0  0  0  0  0  0  0  0
  146.9904  134.5998  163.0163 H   0  0  0  0  0  0  0  0  0  0  0  0
  143.8807  134.9531  161.8379 H   0  0  0  0  0  0  0  0  0  0  0  0
  145.7108  134.4238  159.4873 H   0  0  0  0  0  0  0  0  0  0  0  0
  144.6592  135.8090  159.5924 H   0  0  0  0  0  0  0  0  0  0  0  0
  145.9111  138.2463  159.6298 H   0  0  0  0  0  0  0  0  0  0  0  0
  152.1799  137.0142  156.2608 H   0  0  0  0  0  0  0  0  0  0  0  0
  150.8351  137.0436  155.1270 H   0  0  0  0  0  0  0  0  0  0  0  0
  152.6020  138.7489  154.5559 H   0  0  0  0  0  0  0  0  0  0  0  0
  151.0433  139.4964  154.8505 H   0  0  0  0  0  0  0  0  0  0  0  0
  150.6578  140.5973  156.9387 H   0  0  0  0  0  0  0  0  0  0  0  0
  152.9166  140.3933  158.9759 H   0  0  0  0  0  0  0  0  0  0  0  0
  152.7502  141.7642  157.8841 H   0  0  0  0  0  0  0  0  0  0  0  0
  150.5895  142.8032  157.7785 H   0  0  0  0  0  0  0  0  0  0  0  0
  149.8390  143.0529  159.3570 H   0  0  0  0  0  0  0  0  0  0  0  0
  152.4788  143.5298  160.0177 H   0  0  0  0  0  0  0  0  0  0  0  0
  150.5093  145.5894  158.7672 H   0  0  0  0  0  0  0  0  0  0  0  0
  151.9207  145.9533  159.8893 H   0  0  0  0  0  0  0  0  0  0  0  0
  153.5033  144.9258  158.2281 H   0  0  0  0  0  0  0  0  0  0  0  0
  152.0909  144.5611  157.1082 H   0  0  0  0  0  0  0  0  0  0  0  0
  150.2669  139.0030  158.8037 H   0  0  0  0  0  0  0  0  0  0  0  0
  151.8176  138.2433  158.5261 H   0  0  0  0  0  0  0  0  0  0  0  0
  149.7913  133.5491  157.5491 H   0  0  0  0  0  0  0  0  0  0  0  0
  1  2  1  0  0  0  0
  1 30  1  0  0  0  0
  1 31  1  0  0  0  0
  1 32  1  0  0  0  0
  2  6  1  0  0  0  0
  2  3  1  0  0  0  0
  2 33  1  0  0  0  0
  3  4  1  0  0  0  0
  4  5  1  0  0  0  0
  4 34  1  0  0  0  0
  4 35  1  0  0  0  0
  5  6  1  0  0  0  0
  5 36  1  0  0  0  0
  5 37  1  0  0  0  0
  6  7  1  0  0  0  0
  6  8  1  0  0  0  0
  7 38  1  0  0  0  0
  8  9  1  0  0  0  0
  8 39  1  0  0  0  0
  8 40  1  0  0  0  0
  9 29  1  0  0  0  0
  9 10  1  0  0  0  0
 10 11  2  0  0  0  0
 10 41  1  0  0  0  0
 11 12  1  0  0  0  0
 12 29  2  0  0  0  0
 12 13  1  0  0  0  0
 13 14  1  0  0  0  0
 13 26  2  0  0  0  0
 14 25  1  0  0  0  0
 14 15  1  0  0  0  0
 15 16  1  0  0  0  0
 15 42  1  0  0  0  0
 15 43  1  0  0  0  0
 16 17  1  0  0  0  0
 16 44  1  0  0  0  0
 16 45  1  0  0  0  0
 17 18  1  0  0  0  0
 18 19  1  0  0  0  0
 18 25  1  0  0  0  0
 18 46  1  0  0  0  0
 19 20  1  0  0  0  0
 19 47  1  0  0  0  0
 19 48  1  0  0  0  0
 20 21  1  0  0  0  0
 21 22  1  0  0  0  0
 21 49  1  0  0  0  0
 21 50  1  0  0  0  0
 22 24  1  0  0  0  0
 22 23  1  0  0  0  0
 22 51  1  0  0  0  0
 23 24  1  0  0  0  0
 23 52  1  0  0  0  0
 23 53  1  0  0  0  0
 24 54  1  0  0  0  0
 24 55  1  0  0  0  0
 25 56  1  0  0  0  0
 25 57  1  0  0  0  0
 26 27  1  0  0  0  0
 27 28  2  0  0  0  0
 27 58  1  0  0  0  0
 28 29  1  0  0  0  0
M  END
> <s_m_source_file>
AV-unprocessed.smi

> <i_m_source_file_index>
236

> <i_lp_mmshare_version>
43012

> <i_f3d_flags>
0

> <s_epik_input>
W0NIMl0xW0NIMl1PW0NAQEhdKFtDSDNdKVtDQEBdMShbT0hdKVtDSDJdbihbY0hdbjIpYyhjMjMpbltjSF1uYzNONFtDSDJdW0NIMl1PW0NASF0oW0NIMl00KVtDSDJdT1tDSDJdW0NIXTVbQ0gyXVtDSDJdNQ==

> <s_epik_cmdline>
J2VwaWtfcHl0aG9uJywgJy1waCcsICc3LjAnLCAnLXRuJywgJzgnLCAnLW1hJywgJzIwMCcsICctbWV0YWxfYmluZGluZycsICctaW1hZScsICc8aW5maWxlLm1hZT4nLCAnLW9tYWUnLCAnPG91dGZpbGUubWFlPic=

> <r_lp_tautomer_probability>
1

> <r_epik_Ionization_Penalty>
7.21838e-05

> <r_epik_Ionization_Penalty_Charging>
0

> <r_epik_Ionization_Penalty_Neutral>
7.21838e-05

> <r_epik_State_Penalty>
-0

> <r_epik_Charging_Adjusted_Penalty>
0

> <i_epik_Tot_Q>
0

> <i_epik_Tot_abs_Q>
0

> <r_epik_Metal_State_Penalty>
-0

> <b_epik_Metal_Only>
0

> <s_lp_Force_Field>
OPLS_2005

> <r_lp_Energy>
47.7421

> <b_lp_Chiralities_Consistent>
1

> <s_lp_Variant>
AV-unprocessed.smi:236-5

> <Gold.Version>
5.8.1

> <Gold.Id.Protein>
6NUR|6NUR_protein|mol2

> <Gold.PLP.Fitness>
46.3614

> <Gold.PLP.PLP>
-42.9282

> <Gold.PLP.part.hbond>
-4.0000

> <Gold.PLP.part.metal>
0.0000

> <Gold.PLP.part.buried>
-3.7545

> <Gold.PLP.part.nonpolar>
-33.8176

> <Gold.PLP.part.repulsive>
0.0000

> <Gold.PLP.ligand.clash>
0.0000

> <Gold.PLP.ligand.torsion>
1.3512

> <Gold.PLP.Chemscore.Hbond>
1.6720

> <Gold.PLP.Chemscore.CHOScore>
0.0000

> <Gold.PLP.Chemscore.Metal>
0.0000

> <Gold.Chemscore.Hbonds>
donor molecule, donor type, donor heavy atom, donor atom, acceptor molecule, acceptor atom, score
      P1  H  6934  6947       L1     3  0.59
      P1  H  7997  8009       L1    17  1.00

> <Gold.PLP.Chemscore.Internal.Correction>
1.1197

> <Gold.Rescore>
     Score         DG    S(hbond)    S(metal)    S(lipo)     H(rot)  DE(clash)    DE(int)     intcor
     11.25     -16.34       1.56        0.00     111.09       2.87       0.81       4.28       ----

> <Gold.Chemscore.Fitness>
11.2487

> <Gold.Chemscore.DG>
-16.3386

> <Gold.Chemscore.ZeroCoef>
-5.4800

> <Gold.Chemscore.Hbond>
1.5559

> <Gold.Chemscore.Metal>
0.0000

> <Gold.Chemscore.Lipo>
111.0908

> <Gold.Chemscore.Internal_Hbond>
0.0000

> <Gold.Chemscore.DEClash>
0.8095

> <Gold.Chemscore.DEInternal>
4.2804

> <Gold.Chemscore.Rot>
2.8655

> <Gold.Chemscore.Internal.Correction>
   9.000000E+99

> <Gold.Chemscore.Hbonds>
donor molecule, donor type, donor heavy atom, donor atom, acceptor molecule, acceptor atom, score
      P1  H  6934  6947       L1     3  0.45
      P1  H  7997  8009       L1    17  0.98

> <Gold.Chemscore.Hbond.Weighted>
-5.1967

> <Gold.Chemscore.Metal.Weighted>
-0.0000

> <Gold.Chemscore.Lipo.Weighted>
-12.9976

> <Gold.Chemscore.Internal_Hbond.Weighted>
0.0000

> <Gold.Chemscore.DEClash.Weighted>
0.8095

> <Gold.Chemscore.DEInternal.Weighted>
4.2804

> <Gold.Chemscore.Rot.Weighted>
7.3358

> <Gold.Chemscore.Internal.Correction.Weighted>
   9.000000E+99

> <Gold.Protein.RotatedTorsions>
[ 6907 6896 6895 6894 ] final   25.90 input  -60.11 | X-H torsion
[ 7974 7965 7964 7962 ] final  -43.31 input  175.53 | X-H torsion
[ 8008 7997 7996 7995 ] final -168.02 input   59.86 | X-H torsion
[ 10167 10162 10161 10158 ] final -132.75 input  -65.29 | X-H torsion
[ 10718 10713 10712 10709 ] final  -52.88 input   66.30 | X-H torsion
[ 10763 10752 10751 10750 ] final  121.21 input  -60.55 | X-H torsion
[ 11005 11000 10999 10996 ] final  176.79 input  -57.11 | X-H torsion

> <Gold.Protein.ActiveResidues>
 VAL166  LYS551  ARG553  GLY616  TRP617  ASP618  TYR619  PRO620  LYS621  CYS622 
 ASP623  PHE694  ASN695  SER759  ASP760  ASP761  ALA762  ILE779  LEU786  VAL792 
 PHE793  MET794  SER795  GLU796  ALA797  LYS798  CYS799  TRP800  GLU811  SER814 

> <Gold.Protein.RotatedAtoms>
  151.9795  135.0036  160.0556 H   0  0  0  0  0  0  0  0  0  0  0  0  # atno 6907 bound_to 6896
  152.1710  133.4639  159.4917 H   0  0  0  0  0  0  0  0  0  0  0  0  # atno 6908 bound_to 6896
  150.6901  134.1871  159.4314 H   0  0  0  0  0  0  0  0  0  0  0  0  # atno 6909 bound_to 6896
  146.0031  140.7051  142.9261 H   0  0  0  0  0  0  0  0  0  0  0  0  # atno 7974 bound_to 7965
  155.8857  140.1016  157.1454 H   0  0  0  0  0  0  0  0  0  0  0  0  # atno 8008 bound_to 7997
  154.4009  140.1320  156.4316 H   0  0  0  0  0  0  0  0  0  0  0  0  # atno 8009 bound_to 7997
  155.7592  140.3463  155.5191 H   0  0  0  0  0  0  0  0  0  0  0  0  # atno 8010 bound_to 7997
  139.9054  143.6558  152.2586 H   0  0  0  0  0  0  0  0  0  0  0  0  # atno 10167 bound_to 10162
  156.1583  130.4150  149.9833 H   0  0  0  0  0  0  0  0  0  0  0  0  # atno 10718 bound_to 10713
  153.6106  135.3431  155.2977 H   0  0  0  0  0  0  0  0  0  0  0  0  # atno 10763 bound_to 10752
  154.8619  135.4249  154.2314 H   0  0  0  0  0  0  0  0  0  0  0  0  # atno 10764 bound_to 10752
  153.3164  135.7035  153.7142 H   0  0  0  0  0  0  0  0  0  0  0  0  # atno 10765 bound_to 10752
  140.3770  134.6980  157.4427 H   0  0  0  0  0  0  0  0  0  0  0  0  # atno 11005 bound_to 11000
  144.6926  140.3268  143.7223 LP  0  0  0  0  0  0  0  0  0  0  0  0  # atno 17320 bound_to 7965
  145.7457  139.1778  143.2350 LP  0  0  0  0  0  0  0  0  0  0  0  0  # atno 17321 bound_to 7965
  139.6989  144.7637  151.1308 LP  0  0  0  0  0  0  0  0  0  0  0  0  # atno 17342 bound_to 10162
  140.7697  143.5485  150.9231 LP  0  0  0  0  0  0  0  0  0  0  0  0  # atno 17343 bound_to 10162
  156.7670  130.9172  151.3643 LP  0  0  0  0  0  0  0  0  0  0  0  0  # atno 17370 bound_to 10713
  157.6713  130.9053  150.0046 LP  0  0  0  0  0  0  0  0  0  0  0  0  # atno 17371 bound_to 10713
  140.0508  134.6134  155.8865 LP  0  0  0  0  0  0  0  0  0  0  0  0  # atno 17394 bound_to 11000
  141.1936  133.6579  156.5555 LP  0  0  0  0  0  0  0  0  0  0  0  0  # atno 17395 bound_to 11000

$$$$
