AV-unprocessed.smi:3229|AV-procd|sdf|12327|dock8
  -GOLD-   2272018173D 1   1.00000     0.00000
 Structure written by MMmdl.
 35 36  0  0  0  0  0  0  0  0  1 V2000
  152.4930  143.7807  158.5350 C   0  0  0  0  0  0  0  0  0  0  0  0
  151.7150  142.4870  158.7995 C   0  0  0  0  0  0  0  0  0  0  0  0
  151.5249  141.6524  157.5760 C   0  0  0  0  0  0  0  0  0  0  0  0
  150.9818  142.0391  156.3758 C   0  0  0  0  0  0  0  0  0  0  0  0
  150.9406  141.0218  155.4204 N   0  0  0  0  0  0  0  0  0  0  0  0
  151.4357  139.8693  155.8796 C   0  0  0  0  0  0  0  0  0  0  0  0
  151.5443  138.6271  155.0540 C   0  0  0  0  0  0  0  0  0  0  0  0
  150.2675  138.2922  154.2576 C   0  0  0  0  0  0  0  0  0  0  0  0
  149.8809  136.8893  154.3701 N   0  0  0  0  0  0  0  0  0  0  0  0
  149.6198  136.2486  155.5201 C   0  0  0  0  0  0  0  0  0  0  0  0
  149.7100  136.7867  156.6240 O   0  0  0  0  0  0  0  0  0  0  0  0
  149.1578  134.7903  155.4032 C   0  0  2  0  0  0  0  0  0  0  0  0
  150.2210  133.8278  154.8644 C   0  0  0  0  0  0  0  0  0  0  0  0
  149.3667  132.7476  154.2403 C   0  0  0  0  0  0  0  0  0  0  0  0
  148.2232  133.5598  153.6417 C   0  0  0  0  0  0  0  0  0  0  0  0
  148.0631  134.6935  154.4902 O   0  0  0  0  0  0  0  0  0  0  0  0
  152.0108  139.9762  157.5387 S   0  0  0  0  0  0  0  0  0  0  0  0
  152.5987  144.3638  159.4500 H   0  0  0  0  0  0  0  0  0  0  0  0
  151.9816  144.4033  157.8002 H   0  0  0  0  0  0  0  0  0  0  0  0
  153.4941  143.5700  158.1581 H   0  0  0  0  0  0  0  0  0  0  0  0
  152.2349  141.9012  159.5581 H   0  0  0  0  0  0  0  0  0  0  0  0
  150.7420  142.7350  159.2251 H   0  0  0  0  0  0  0  0  0  0  0  0
  150.6017  143.0158  156.1152 H   0  0  0  0  0  0  0  0  0  0  0  0
  152.3839  138.7397  154.3677 H   0  0  0  0  0  0  0  0  0  0  0  0
  151.8004  137.7958  155.7122 H   0  0  0  0  0  0  0  0  0  0  0  0
  149.4383  138.8906  154.6353 H   0  0  0  0  0  0  0  0  0  0  0  0
  150.3914  138.5658  153.2088 H   0  0  0  0  0  0  0  0  0  0  0  0
  149.7781  136.3714  153.5091 H   0  0  0  0  0  0  0  0  0  0  0  0
  148.8116  134.4472  156.3794 H   0  0  0  0  0  0  0  0  0  0  0  0
  150.8391  134.3025  154.1002 H   0  0  0  0  0  0  0  0  0  0  0  0
  150.8769  133.4430  155.6461 H   0  0  0  0  0  0  0  0  0  0  0  0
  149.8998  132.1498  153.5005 H   0  0  0  0  0  0  0  0  0  0  0  0
  148.9874  132.0783  155.0137 H   0  0  0  0  0  0  0  0  0  0  0  0
  148.4895  133.9111  152.6440 H   0  0  0  0  0  0  0  0  0  0  0  0
  147.2999  132.9856  153.5629 H   0  0  0  0  0  0  0  0  0  0  0  0
  1  2  1  0  0  0  0
  1 18  1  0  0  0  0
  1 19  1  0  0  0  0
  1 20  1  0  0  0  0
  2  3  1  0  0  0  0
  2 21  1  0  0  0  0
  2 22  1  0  0  0  0
  3 17  1  0  0  0  0
  3  4  2  0  0  0  0
  4  5  1  0  0  0  0
  4 23  1  0  0  0  0
  5  6  2  0  0  0  0
  6  7  1  0  0  0  0
  6 17  1  0  0  0  0
  7  8  1  0  0  0  0
  7 24  1  0  0  0  0
  7 25  1  0  0  0  0
  8  9  1  0  0  0  0
  8 26  1  0  0  0  0
  8 27  1  0  0  0  0
  9 10  1  0  0  0  0
  9 28  1  0  0  0  0
 10 11  2  0  0  0  0
 10 12  1  0  0  0  0
 12 16  1  0  0  0  0
 12 13  1  0  0  0  0
 12 29  1  0  0  0  0
 13 14  1  0  0  0  0
 13 30  1  0  0  0  0
 13 31  1  0  0  0  0
 14 15  1  0  0  0  0
 14 32  1  0  0  0  0
 14 33  1  0  0  0  0
 15 16  1  0  0  0  0
 15 34  1  0  0  0  0
 15 35  1  0  0  0  0
M  END
> <s_m_source_file>
AV-unprocessed.smi

> <i_m_source_file_index>
3229

> <i_lp_mmshare_version>
43012

> <i_f3d_flags>
0

> <s_epik_input>
W0NIM11bQ0gyXWMxW2NIXW5jKHMxKVtDSDJdW0NIMl1bTkhdQyg9TylbQ0BASF0yW0NIMl1bQ0gyXVtDSDJdTzI=

> <s_epik_cmdline>
J2VwaWtfcHl0aG9uJywgJy1waCcsICc3LjAnLCAnLXRuJywgJzgnLCAnLW1hJywgJzIwMCcsICctbWV0YWxfYmluZGluZycsICctaW1hZScsICc8aW5maWxlLm1hZT4nLCAnLW9tYWUnLCAnPG91dGZpbGUubWFlPic=

> <r_epik_Ionization_Penalty>
0.000508191

> <r_epik_Ionization_Penalty_Charging>
0

> <r_epik_Ionization_Penalty_Neutral>
0.000508191

> <r_epik_State_Penalty>
0.000316483

> <r_epik_Charging_Adjusted_Penalty>
0.000316483

> <i_epik_Tot_Q>
0

> <i_epik_Tot_abs_Q>
0

> <r_epik_Metal_State_Penalty>
-0

> <b_epik_Metal_Only>
0

> <s_lp_Force_Field>
OPLS_2005

> <r_lp_Energy>
9.62318

> <b_lp_Chiralities_Consistent>
1

> <s_lp_Variant>
AV-unprocessed.smi:3229-1

> <Gold.Version>
5.8.1

> <Gold.Id.Protein>
6NUR|6NUR_protein|mol2

> <Gold.PLP.Fitness>
38.4260

> <Gold.PLP.PLP>
-31.6957

> <Gold.PLP.part.hbond>
-2.2588

> <Gold.PLP.part.metal>
0.0000

> <Gold.PLP.part.buried>
-2.9101

> <Gold.PLP.part.nonpolar>
-26.2296

> <Gold.PLP.part.repulsive>
0.5048

> <Gold.PLP.ligand.clash>
0.0000

> <Gold.PLP.ligand.torsion>
0.6390

> <Gold.PLP.Chemscore.Hbond>
1.6580

> <Gold.PLP.Chemscore.CHOScore>
1.0000

> <Gold.PLP.Chemscore.Metal>
0.0000

> <Gold.Chemscore.Hbonds>
donor molecule, donor type, donor heavy atom, donor atom, acceptor molecule, acceptor atom, score
      L1  H     9    28       P1  7948  0.98
      P1  H  7989  7998       L1     5  0.61
      L1  C     4    23       P1  8028  1.00

> <Gold.PLP.Chemscore.Internal.Correction>
0.0344

> <Gold.Rescore>
     Score         DG    S(hbond)    S(metal)    S(lipo)     H(rot)  DE(clash)    DE(int)     intcor
     14.28     -14.93       0.99        0.00      87.62       1.60       0.02       0.62       ----

> <Gold.Chemscore.Fitness>
14.2843

> <Gold.Chemscore.DG>
-14.9285

> <Gold.Chemscore.ZeroCoef>
-5.4800

> <Gold.Chemscore.Hbond>
0.9890

> <Gold.Chemscore.Metal>
0.0000

> <Gold.Chemscore.Lipo>
87.6193

> <Gold.Chemscore.Internal_Hbond>
0.0000

> <Gold.Chemscore.DEClash>
0.0197

> <Gold.Chemscore.DEInternal>
0.6245

> <Gold.Chemscore.Rot>
1.6040

> <Gold.Chemscore.Internal.Correction>
   9.000000E+99

> <Gold.Chemscore.Hbonds>
donor molecule, donor type, donor heavy atom, donor atom, acceptor molecule, acceptor atom, score
      L1  H     9    28       P1  7948  0.24
      P1  H  7989  7998       L1     5  0.11

> <Gold.Chemscore.Hbond.Weighted>
-3.3032

> <Gold.Chemscore.Metal.Weighted>
-0.0000

> <Gold.Chemscore.Lipo.Weighted>
-10.2515

> <Gold.Chemscore.Internal_Hbond.Weighted>
0.0000

> <Gold.Chemscore.DEClash.Weighted>
0.0197

> <Gold.Chemscore.DEInternal.Weighted>
0.6245

> <Gold.Chemscore.Rot.Weighted>
4.1062

> <Gold.Chemscore.Internal.Correction.Weighted>
   9.000000E+99

> <Gold.Protein.RotatedTorsions>
[ 6907 6896 6895 6894 ] final   67.80 input  -60.11 | X-H torsion
[ 7974 7965 7964 7962 ] final  178.00 input  175.53 | X-H torsion
[ 8008 7997 7996 7995 ] final  159.89 input   59.86 | X-H torsion
[ 10167 10162 10161 10158 ] final -141.02 input  -65.29 | X-H torsion
[ 10718 10713 10712 10709 ] final -134.95 input   66.30 | X-H torsion
[ 10763 10752 10751 10750 ] final   45.97 input  -60.55 | X-H torsion
[ 11005 11000 10999 10996 ] final -172.28 input  -57.11 | X-H torsion

> <Gold.Protein.ActiveResidues>
 VAL166  LYS551  ARG553  GLY616  TRP617  ASP618  TYR619  PRO620  LYS621  CYS622 
 ASP623  PHE694  ASN695  SER759  ASP760  ASP761  ALA762  ILE779  LEU786  VAL792 
 PHE793  MET794  SER795  GLU796  ALA797  LYS798  CYS799  TRP800  GLU811  SER814 

> <Gold.Protein.RotatedAtoms>
  152.4577  134.5256  159.9795 H   0  0  0  0  0  0  0  0  0  0  0  0  # atno 6907 bound_to 6896
  151.5312  133.3443  159.2926 H   0  0  0  0  0  0  0  0  0  0  0  0  # atno 6908 bound_to 6896
  150.8527  134.7887  159.7084 H   0  0  0  0  0  0  0  0  0  0  0  0  # atno 6909 bound_to 6896
  144.7161  140.0331  143.6438 H   0  0  0  0  0  0  0  0  0  0  0  0  # atno 7974 bound_to 7965
  156.2209  140.1819  156.7479 H   0  0  0  0  0  0  0  0  0  0  0  0  # atno 8008 bound_to 7997
  154.5864  140.0658  156.9205 H   0  0  0  0  0  0  0  0  0  0  0  0  # atno 8009 bound_to 7997
  155.2413  140.3322  155.4294 H   0  0  0  0  0  0  0  0  0  0  0  0  # atno 8010 bound_to 7997
  139.8225  143.7554  152.2666 H   0  0  0  0  0  0  0  0  0  0  0  0  # atno 10167 bound_to 10162
  156.2610  130.7209  151.1143 H   0  0  0  0  0  0  0  0  0  0  0  0  # atno 10718 bound_to 10713
  152.9817  135.6022  154.3524 H   0  0  0  0  0  0  0  0  0  0  0  0  # atno 10763 bound_to 10752
  154.3212  135.2769  155.2520 H   0  0  0  0  0  0  0  0  0  0  0  0  # atno 10764 bound_to 10752
  154.4686  135.5947  153.6361 H   0  0  0  0  0  0  0  0  0  0  0  0  # atno 10765 bound_to 10752
  140.4988  134.5914  157.4980 H   0  0  0  0  0  0  0  0  0  0  0  0  # atno 11005 bound_to 11000
  146.0086  139.3150  143.0884 LP  0  0  0  0  0  0  0  0  0  0  0  0  # atno 17320 bound_to 7965
  145.8709  140.9420  143.0651 LP  0  0  0  0  0  0  0  0  0  0  0  0  # atno 17321 bound_to 7965
  139.7737  144.7468  151.0188 LP  0  0  0  0  0  0  0  0  0  0  0  0  # atno 17342 bound_to 10162
  140.7812  143.4617  151.0268 LP  0  0  0  0  0  0  0  0  0  0  0  0  # atno 17343 bound_to 10162
  157.7250  131.0656  150.5970 LP  0  0  0  0  0  0  0  0  0  0  0  0  # atno 17370 bound_to 10713
  156.6058  130.4366  149.5879 LP  0  0  0  0  0  0  0  0  0  0  0  0  # atno 17371 bound_to 10713
  139.9726  134.7268  156.0012 LP  0  0  0  0  0  0  0  0  0  0  0  0  # atno 17394 bound_to 11000
  141.1446  133.6558  156.3831 LP  0  0  0  0  0  0  0  0  0  0  0  0  # atno 17395 bound_to 11000

$$$$
