AV-unprocessed.smi:610|AV-procd|sdf|3055|dock10
  -GOLD-   2262023583D 1   1.00000     0.00000
 Structure written by MMmdl.
 38 39  0  0  0  0  0  0  0  0  2 V2000
  147.7787  135.9995  154.9756 C   0  0  0  0  0  0  0  0  0  0  0  0
  147.8395  134.5892  154.3703 C   0  0  2  0  0  0  0  0  0  0  0  0
  149.2735  134.0256  154.3811 C   0  0  0  0  0  0  0  0  0  0  0  0
  149.2892  132.5747  154.3351 N   0  0  0  0  0  0  0  0  0  0  0  0
  148.9767  131.7669  153.2498 C   0  0  0  0  0  0  0  0  0  0  0  0
  149.1504  130.4660  153.6654 C   0  0  0  0  0  0  0  0  0  0  0  0
  149.5666  130.4500  154.9948 N   0  0  0  0  0  0  0  0  0  0  0  0
  149.6185  131.7336  155.3254 C   0  0  0  0  0  0  0  0  0  0  0  0
  147.3293  134.6111  153.0015 N   0  0  0  0  0  0  0  0  0  0  0  0
  146.0585  134.3872  152.6300 C   0  0  0  0  0  0  0  0  0  0  0  0
  145.1581  134.1868  153.4459 O   0  0  0  0  0  0  0  0  0  0  0  0
  145.7333  134.3512  151.1179 C   0  0  0  0  0  0  0  0  0  0  0  0
  146.2421  135.6064  150.5338 N   0  3  0  0  0  0  0  0  0  0  0  0
  146.3757  133.1238  150.4491 C   0  0  0  0  0  0  0  0  0  0  0  0
  145.3804  131.9754  150.6687 C   0  0  0  0  0  0  0  0  0  0  0  0
  144.0035  132.6323  150.8579 C   0  0  0  0  0  0  0  0  0  0  0  0
  144.2419  134.1470  150.7768 C   0  0  0  0  0  0  0  0  0  0  0  0
  148.1566  136.0030  155.9984 H   0  0  0  0  0  0  0  0  0  0  0  0
  146.7545  136.3731  155.0043 H   0  0  0  0  0  0  0  0  0  0  0  0
  148.3754  136.7061  154.3979 H   0  0  0  0  0  0  0  0  0  0  0  0
  147.2165  133.9309  154.9788 H   0  0  0  0  0  0  0  0  0  0  0  0
  149.8462  134.4111  153.5360 H   0  0  0  0  0  0  0  0  0  0  0  0
  149.7967  134.3412  155.2845 H   0  0  0  0  0  0  0  0  0  0  0  0
  148.6694  132.1735  152.2974 H   0  0  0  0  0  0  0  0  0  0  0  0
  149.0105  129.5478  153.1140 H   0  0  0  0  0  0  0  0  0  0  0  0
  149.9149  132.0703  156.3081 H   0  0  0  0  0  0  0  0  0  0  0  0
  148.0085  134.7771  152.2728 H   0  0  0  0  0  0  0  0  0  0  0  0
  146.2165  135.5481  149.5260 H   0  0  0  0  0  0  0  0  0  0  0  0
  147.1935  135.7522  150.8408 H   0  0  0  0  0  0  0  0  0  0  0  0
  146.4864  133.2994  149.3778 H   0  0  0  0  0  0  0  0  0  0  0  0
  147.3676  132.8817  150.8340 H   0  0  0  0  0  0  0  0  0  0  0  0
  145.3886  131.2749  149.8331 H   0  0  0  0  0  0  0  0  0  0  0  0
  145.6462  131.4144  151.5655 H   0  0  0  0  0  0  0  0  0  0  0  0
  143.2883  132.3031  150.1033 H   0  0  0  0  0  0  0  0  0  0  0  0
  143.5946  132.3617  151.8322 H   0  0  0  0  0  0  0  0  0  0  0  0
  143.5543  134.7147  151.4056 H   0  0  0  0  0  0  0  0  0  0  0  0
  144.0559  134.4734  149.7521 H   0  0  0  0  0  0  0  0  0  0  0  0
  145.6694  136.3783  150.8442 H   0  0  0  0  0  0  0  0  0  0  0  0
  1  2  1  0  0  0  0
  1 18  1  0  0  0  0
  1 19  1  0  0  0  0
  1 20  1  0  0  0  0
  2  3  1  0  0  0  0
  2  9  1  0  0  0  0
  2 21  1  0  0  0  0
  3  4  1  0  0  0  0
  3 22  1  0  0  0  0
  3 23  1  0  0  0  0
  4  8  1  0  0  0  0
  4  5  1  0  0  0  0
  5  6  2  0  0  0  0
  5 24  1  0  0  0  0
  6  7  1  0  0  0  0
  6 25  1  0  0  0  0
  7  8  2  0  0  0  0
  8 26  1  0  0  0  0
  9 10  1  0  0  0  0
  9 27  1  0  0  0  0
 10 11  2  0  0  0  0
 10 12  1  0  0  0  0
 12 17  1  0  0  0  0
 12 13  1  0  0  0  0
 12 14  1  0  0  0  0
 13 28  1  0  0  0  0
 13 29  1  0  0  0  0
 13 38  1  0  0  0  0
 14 15  1  0  0  0  0
 14 30  1  0  0  0  0
 14 31  1  0  0  0  0
 15 16  1  0  0  0  0
 15 32  1  0  0  0  0
 15 33  1  0  0  0  0
 16 17  1  0  0  0  0
 16 34  1  0  0  0  0
 16 35  1  0  0  0  0
 17 36  1  0  0  0  0
 17 37  1  0  0  0  0
M  CHG  1  13   1
M  END
> <s_m_source_file>
AV-unprocessed.smi

> <i_m_source_file_index>
610

> <i_lp_mmshare_version>
43012

> <i_f3d_flags>
0

> <s_epik_input>
W2NIXTFuW2NIXVtjSF1uMVtDSDJdW0NAQEhdKFtDSDNdKVtOSF1DKD1PKUMyKFtOSDJdKVtDSDJdW0NIMl1bQ0gyXVtDSDJdMg==

> <s_epik_cmdline>
J2VwaWtfcHl0aG9uJywgJy1waCcsICc3LjAnLCAnLXRuJywgJzgnLCAnLW1hJywgJzIwMCcsICctbWV0YWxfYmluZGluZycsICctaW1hZScsICc8aW5maWxlLm1hZT4nLCAnLW9tYWUnLCAnPG91dGZpbGUubWFlPic=

> <r_lp_tautomer_probability>
1

> <r_epik_Ionization_Penalty>
0.661147

> <r_epik_Ionization_Penalty_Charging>
0.661145

> <r_epik_Ionization_Penalty_Neutral>
1.19451e-06

> <r_epik_State_Penalty>
0.679243

> <r_epik_Charging_Adjusted_Penalty>
1.34039

> <i_epik_Tot_Q>
1

> <i_epik_Tot_abs_Q>
1

> <r_epik_Metal_State_Penalty>
0.372892

> <b_epik_Metal_Only>
0

> <s_lp_Force_Field>
OPLS_2005

> <r_lp_Energy>
25.3563

> <b_lp_Chiralities_Consistent>
1

> <s_lp_Variant>
AV-unprocessed.smi:610-3

> <Gold.Version>
5.8.1

> <Gold.Id.Protein>
6NUR|6NUR_protein|mol2

> <Gold.PLP.Fitness>
38.9140

> <Gold.PLP.PLP>
-27.1600

> <Gold.PLP.part.hbond>
-2.9975

> <Gold.PLP.part.metal>
0.0000

> <Gold.PLP.part.buried>
-1.0268

> <Gold.PLP.part.nonpolar>
-23.6229

> <Gold.PLP.part.repulsive>
0.2302

> <Gold.PLP.ligand.clash>
0.0000

> <Gold.PLP.ligand.torsion>
0.8333

> <Gold.PLP.Chemscore.Hbond>
3.7680

> <Gold.PLP.Chemscore.CHOScore>
0.6904

> <Gold.PLP.Chemscore.Metal>
0.0000

> <Gold.Chemscore.Hbonds>
donor molecule, donor type, donor heavy atom, donor atom, acceptor molecule, acceptor atom, score
      L1  H     9    27       P1  7948  0.66
      L1  H    13    28       P1  7921  1.00
      L1  H    13    29       P1  7948  2.00
      L1  C     5    24       P1 10747  0.78

> <Gold.PLP.Chemscore.Internal.Correction>
0.0454

> <Gold.Rescore>
     Score         DG    S(hbond)    S(metal)    S(lipo)     H(rot)  DE(clash)    DE(int)     intcor
     13.96     -15.37       2.42        0.00      59.22       2.00       0.66       0.75       ----

> <Gold.Chemscore.Fitness>
13.9641

> <Gold.Chemscore.DG>
-15.3729

> <Gold.Chemscore.ZeroCoef>
-5.4800

> <Gold.Chemscore.Hbond>
2.4184

> <Gold.Chemscore.Metal>
0.0000

> <Gold.Chemscore.Lipo>
59.2164

> <Gold.Chemscore.Internal_Hbond>
0.0000

> <Gold.Chemscore.DEClash>
0.6568

> <Gold.Chemscore.DEInternal>
0.7520

> <Gold.Chemscore.Rot>
1.9972

> <Gold.Chemscore.Internal.Correction>
   9.000000E+99

> <Gold.Chemscore.Hbonds>
donor molecule, donor type, donor heavy atom, donor atom, acceptor molecule, acceptor atom, score
      L1  H     9    27       P1  7948  0.33
      L1  H    13    28       P1  7921  0.78
      L1  H    13    29       P1  7948  0.70

> <Gold.Chemscore.Hbond.Weighted>
-8.0773

> <Gold.Chemscore.Metal.Weighted>
-0.0000

> <Gold.Chemscore.Lipo.Weighted>
-6.9283

> <Gold.Chemscore.Internal_Hbond.Weighted>
0.0000

> <Gold.Chemscore.DEClash.Weighted>
0.6568

> <Gold.Chemscore.DEInternal.Weighted>
0.7520

> <Gold.Chemscore.Rot.Weighted>
5.1127

> <Gold.Chemscore.Internal.Correction.Weighted>
   9.000000E+99

> <Gold.Protein.RotatedTorsions>
[ 6907 6896 6895 6894 ] final  136.87 input  -60.11 | X-H torsion
[ 7974 7965 7964 7962 ] final  -90.40 input  175.53 | X-H torsion
[ 8008 7997 7996 7995 ] final   34.12 input   59.86 | X-H torsion
[ 10167 10162 10161 10158 ] final -112.24 input  -65.29 | X-H torsion
[ 10718 10713 10712 10709 ] final -152.02 input   66.30 | X-H torsion
[ 10763 10752 10751 10750 ] final  -30.28 input  -60.55 | X-H torsion
[ 11005 11000 10999 10996 ] final   53.01 input  -57.11 | X-H torsion

> <Gold.Protein.ActiveResidues>
 VAL166  LYS551  ARG553  GLY616  TRP617  ASP618  TYR619  PRO620  LYS621  CYS622 
 ASP623  PHE694  ASN695  SER759  ASP760  ASP761  ALA762  ILE779  LEU786  VAL792 
 PHE793  MET794  SER795  GLU796  ALA797  LYS798  CYS799  TRP800  GLU811  SER814 

> <Gold.Protein.RotatedAtoms>
  152.2845  133.5502  159.5518 H   0  0  0  0  0  0  0  0  0  0  0  0  # atno 6907 bound_to 6896
  150.7209  134.0517  159.3809 H   0  0  0  0  0  0  0  0  0  0  0  0  # atno 6908 bound_to 6896
  151.8426  135.0585  160.0500 H   0  0  0  0  0  0  0  0  0  0  0  0  # atno 6909 bound_to 6896
  145.4270  140.9554  143.2149 H   0  0  0  0  0  0  0  0  0  0  0  0  # atno 7974 bound_to 7965
  155.1497  140.3273  155.4434 H   0  0  0  0  0  0  0  0  0  0  0  0  # atno 8008 bound_to 7997
  156.2578  140.1979  156.6559 H   0  0  0  0  0  0  0  0  0  0  0  0  # atno 8009 bound_to 7997
  154.6482  140.0561  156.9911 H   0  0  0  0  0  0  0  0  0  0  0  0  # atno 8010 bound_to 7997
  140.1249  143.4411  152.1666 H   0  0  0  0  0  0  0  0  0  0  0  0  # atno 10167 bound_to 10162
  156.4670  130.8240  151.2470 H   0  0  0  0  0  0  0  0  0  0  0  0  # atno 10718 bound_to 10713
  153.7784  135.6907  153.4893 H   0  0  0  0  0  0  0  0  0  0  0  0  # atno 10763 bound_to 10752
  153.1828  135.4500  155.0048 H   0  0  0  0  0  0  0  0  0  0  0  0  # atno 10764 bound_to 10752
  154.8091  135.3369  154.7289 H   0  0  0  0  0  0  0  0  0  0  0  0  # atno 10765 bound_to 10752
  140.0802  134.5348  155.8954 H   0  0  0  0  0  0  0  0  0  0  0  0  # atno 11005 bound_to 11000
  144.8207  139.5796  143.6988 LP  0  0  0  0  0  0  0  0  0  0  0  0  # atno 17320 bound_to 7965
  146.2627  139.6447  142.9351 LP  0  0  0  0  0  0  0  0  0  0  0  0  # atno 17321 bound_to 7965
  139.5550  144.7366  151.4322 LP  0  0  0  0  0  0  0  0  0  0  0  0  # atno 17342 bound_to 10162
  140.6851  143.7993  150.7174 LP  0  0  0  0  0  0  0  0  0  0  0  0  # atno 17343 bound_to 10162
  157.7494  131.0089  150.3245 LP  0  0  0  0  0  0  0  0  0  0  0  0  # atno 17370 bound_to 10713
  156.3658  130.3855  149.7215 LP  0  0  0  0  0  0  0  0  0  0  0  0  # atno 17371 bound_to 10713
  141.2044  133.6639  156.6119 LP  0  0  0  0  0  0  0  0  0  0  0  0  # atno 17394 bound_to 11000
  140.3498  134.7778  157.4459 LP  0  0  0  0  0  0  0  0  0  0  0  0  # atno 17395 bound_to 11000

$$$$
