AV-unprocessed.smi:33|AV-procd|sdf|200|dock6
  -GOLD-   2262015473D 1   1.00000     0.00000
 Structure written by MMmdl.
 67 72  0  0  0  0  0  0  0  0  1 V2000
  153.8177  140.4561  158.1743 O   0  0  0  0  0  0  0  0  0  0  0  0
  152.8698  141.1822  158.4804 C   0  0  0  0  0  0  0  0  0  0  0  0
  151.6883  141.1788  157.8327 O   0  0  0  0  0  0  0  0  0  0  0  0
  151.4306  140.2113  156.8284 C   0  0  0  0  0  0  0  0  0  0  0  0
  150.5558  140.8403  155.7317 C   0  0  1  0  0  0  0  0  0  0  0  0
  150.4476  139.9557  154.6185 O   0  0  0  0  0  0  0  0  0  0  0  0
  149.3136  139.1431  154.7288 C   0  0  1  0  0  0  0  0  0  0  0  0
  149.7537  137.7252  154.9417 N   0  0  0  0  0  0  0  0  0  0  0  0
  151.0281  137.1973  154.9660 C   0  0  0  0  0  0  0  0  0  0  0  0
  151.0947  135.9057  155.1496 N   0  0  0  0  0  0  0  0  0  0  0  0
  149.7665  135.5094  155.2402 C   0  0  0  0  0  0  0  0  0  0  0  0
  149.1134  134.2610  155.4328 C   0  0  0  0  0  0  0  0  0  0  0  0
  149.7814  133.0922  155.5889 N   0  0  0  0  0  0  0  0  0  0  0  0
  151.0275  133.1308  156.3690 C   0  0  0  0  0  0  0  0  0  0  0  0
  151.1899  134.0148  157.2124 O   0  0  0  0  0  0  0  0  0  0  0  0
  152.0779  132.0732  156.1790 C   0  0  0  0  0  0  0  0  0  0  0  0
  152.1465  131.3543  154.9655 C   0  0  0  0  0  0  0  0  0  0  0  0
  153.1215  130.3537  154.7869 C   0  0  0  0  0  0  0  0  0  0  0  0
  154.0211  130.0523  155.8271 C   0  0  0  0  0  0  0  0  0  0  0  0
  153.9393  130.7449  157.0499 C   0  0  0  0  0  0  0  0  0  0  0  0
  152.9654  131.7462  157.2289 C   0  0  0  0  0  0  0  0  0  0  0  0
  149.1952  131.8891  154.9767 C   0  0  0  0  0  0  0  0  0  0  0  0
  149.4571  130.7802  155.4461 O   0  0  0  0  0  0  0  0  0  0  0  0
  148.2372  132.0066  153.8245 C   0  0  0  0  0  0  0  0  0  0  0  0
  147.1493  131.1124  153.7170 C   0  0  0  0  0  0  0  0  0  0  0  0
  146.2555  131.2078  152.6326 C   0  0  0  0  0  0  0  0  0  0  0  0
  146.4537  132.1858  151.6396 C   0  0  0  0  0  0  0  0  0  0  0  0
  147.5523  133.0618  151.7253 C   0  0  0  0  0  0  0  0  0  0  0  0
  148.4470  132.9666  152.8086 C   0  0  0  0  0  0  0  0  0  0  0  0
  147.7546  134.2533  155.4592 N   0  0  0  0  0  0  0  0  0  0  0  0
  147.0784  135.3952  155.3025 C   0  0  0  0  0  0  0  0  0  0  0  0
  147.5537  136.6290  155.1163 N   0  0  0  0  0  0  0  0  0  0  0  0
  148.9180  136.6403  155.0947 C   0  0  0  0  0  0  0  0  0  0  0  0
  148.4552  139.6951  155.8911 C   0  0  1  0  0  0  0  0  0  0  0  0
  148.4519  138.8983  157.0634 O   0  0  0  0  0  0  0  0  0  0  0  0
  149.1048  141.0400  156.1685 C   0  0  2  0  0  0  0  0  0  0  0  0
  148.5379  141.9747  155.4037 F   0  0  0  0  0  0  0  0  0  0  0  0
  152.9109  142.1579  159.6075 C   0  0  0  0  0  0  0  0  0  0  0  0
  153.7563  141.9047  160.7129 C   0  0  0  0  0  0  0  0  0  0  0  0
  153.8124  142.8050  161.7945 C   0  0  0  0  0  0  0  0  0  0  0  0
  153.0230  143.9696  161.7845 C   0  0  0  0  0  0  0  0  0  0  0  0
  152.1783  144.2334  160.6906 C   0  0  0  0  0  0  0  0  0  0  0  0
  152.1216  143.3346  159.6074 C   0  0  0  0  0  0  0  0  0  0  0  0
  152.3601  139.8231  156.4110 H   0  0  0  0  0  0  0  0  0  0  0  0
  150.9070  139.3717  157.2869 H   0  0  0  0  0  0  0  0  0  0  0  0
  150.9956  141.7886  155.4198 H   0  0  0  0  0  0  0  0  0  0  0  0
  148.7846  139.1200  153.7752 H   0  0  0  0  0  0  0  0  0  0  0  0
  151.9175  137.7974  154.8419 H   0  0  0  0  0  0  0  0  0  0  0  0
  151.4614  131.5775  154.1601 H   0  0  0  0  0  0  0  0  0  0  0  0
  153.1785  129.8170  153.8515 H   0  0  0  0  0  0  0  0  0  0  0  0
  154.7689  129.2853  155.6893 H   0  0  0  0  0  0  0  0  0  0  0  0
  154.6227  130.5077  157.8518 H   0  0  0  0  0  0  0  0  0  0  0  0
  152.9089  132.2678  158.1736 H   0  0  0  0  0  0  0  0  0  0  0  0
  146.9870  130.3580  154.4734 H   0  0  0  0  0  0  0  0  0  0  0  0
  145.4177  130.5298  152.5627 H   0  0  0  0  0  0  0  0  0  0  0  0
  145.7674  132.2591  150.8089 H   0  0  0  0  0  0  0  0  0  0  0  0
  147.7100  133.8067  150.9592 H   0  0  0  0  0  0  0  0  0  0  0  0
  149.2896  133.6411  152.8604 H   0  0  0  0  0  0  0  0  0  0  0  0
  146.0024  135.3082  155.3324 H   0  0  0  0  0  0  0  0  0  0  0  0
  147.4230  139.8073  155.5573 H   0  0  0  0  0  0  0  0  0  0  0  0
  148.5162  137.9908  156.8058 H   0  0  0  0  0  0  0  0  0  0  0  0
  149.0019  141.3762  157.2012 H   0  0  0  0  0  0  0  0  0  0  0  0
  154.3706  141.0163  160.7439 H   0  0  0  0  0  0  0  0  0  0  0  0
  154.4612  142.6005  162.6334 H   0  0  0  0  0  0  0  0  0  0  0  0
  153.0652  144.6595  162.6144 H   0  0  0  0  0  0  0  0  0  0  0  0
  151.5711  145.1266  160.6821 H   0  0  0  0  0  0  0  0  0  0  0  0
  151.4615  143.5670  158.7846 H   0  0  0  0  0  0  0  0  0  0  0  0
  1  2  2  0  0  0  0
  2  3  1  0  0  0  0
  2 38  1  0  0  0  0
  3  4  1  0  0  0  0
  4  5  1  0  0  0  0
  4 44  1  0  0  0  0
  4 45  1  0  0  0  0
  5 36  1  0  0  0  0
  5  6  1  0  0  0  0
  5 46  1  0  0  0  0
  6  7  1  0  0  0  0
  7  8  1  0  0  0  0
  7 34  1  0  0  0  0
  7 47  1  0  0  0  0
  8 33  1  0  0  0  0
  8  9  1  0  0  0  0
  9 10  2  0  0  0  0
  9 48  1  0  0  0  0
 10 11  1  0  0  0  0
 11 33  2  0  0  0  0
 11 12  1  0  0  0  0
 12 13  1  0  0  0  0
 12 30  2  0  0  0  0
 13 14  1  0  0  0  0
 13 22  1  0  0  0  0
 14 15  2  0  0  0  0
 14 16  1  0  0  0  0
 16 21  1  0  0  0  0
 16 17  2  0  0  0  0
 17 18  1  0  0  0  0
 17 49  1  0  0  0  0
 18 19  2  0  0  0  0
 18 50  1  0  0  0  0
 19 20  1  0  0  0  0
 19 51  1  0  0  0  0
 20 21  2  0  0  0  0
 20 52  1  0  0  0  0
 21 53  1  0  0  0  0
 22 23  2  0  0  0  0
 22 24  1  0  0  0  0
 24 29  1  0  0  0  0
 24 25  2  0  0  0  0
 25 26  1  0  0  0  0
 25 54  1  0  0  0  0
 26 27  2  0  0  0  0
 26 55  1  0  0  0  0
 27 28  1  0  0  0  0
 27 56  1  0  0  0  0
 28 29  2  0  0  0  0
 28 57  1  0  0  0  0
 29 58  1  0  0  0  0
 30 31  1  0  0  0  0
 31 32  2  0  0  0  0
 31 59  1  0  0  0  0
 32 33  1  0  0  0  0
 34 35  1  0  0  0  0
 34 36  1  0  0  0  0
 34 60  1  0  0  0  0
 35 61  1  0  0  0  0
 36 37  1  0  0  0  0
 36 62  1  0  0  0  0
 38 43  1  0  0  0  0
 38 39  2  0  0  0  0
 39 40  1  0  0  0  0
 39 63  1  0  0  0  0
 40 41  2  0  0  0  0
 40 64  1  0  0  0  0
 41 42  1  0  0  0  0
 41 65  1  0  0  0  0
 42 43  2  0  0  0  0
 42 66  1  0  0  0  0
 43 67  1  0  0  0  0
M  END
> <s_m_source_file>
AV-unprocessed.smi

> <i_m_source_file_index>
33

> <i_lp_mmshare_version>
43012

> <i_f3d_flags>
0

> <s_epik_input>
W2NIXTFbY0hdW2NIXVtjSF1bY0hdYzFDKD1PKU9bQ0gyXVtDQEBIXTJPW0NASF0oW0NAQEhdKFtPSF0pW0NAQEhdMkYpbihbY0hdbjMpYyhjMzQpbltjSF1uYzROKEMoPU8pYzVbY0hdW2NIXVtjSF1bY0hdW2NIXTUpQyg9TyljNltjSF1bY0hdW2NIXVtjSF1bY0hdNg==

> <s_epik_cmdline>
J2VwaWtfcHl0aG9uJywgJy1waCcsICc3LjAnLCAnLXRuJywgJzgnLCAnLW1hJywgJzIwMCcsICctbWV0YWxfYmluZGluZycsICctaW1hZScsICc8aW5maWxlLm1hZT4nLCAnLW9tYWUnLCAnPG91dGZpbGUubWFlPic=

> <r_lp_tautomer_probability>
1

> <r_epik_Ionization_Penalty>
0.00067664

> <r_epik_Ionization_Penalty_Charging>
0

> <r_epik_Ionization_Penalty_Neutral>
0.00067664

> <r_epik_State_Penalty>
0.000428095

> <r_epik_Charging_Adjusted_Penalty>
0.000428095

> <i_epik_Tot_Q>
0

> <i_epik_Tot_abs_Q>
0

> <r_epik_Metal_State_Penalty>
-0

> <b_epik_Metal_Only>
0

> <s_epik_Chemistry_Notes>
This compound has an ester and may undergo hydrolysis at high or low pH. This compound contains an acetal/aminal-like group ( X-CH(R)-Y where X, Y are N, S, or O) that may be acid/base labile, releasing an aldehyde.

> <s_lp_Force_Field>
OPLS_2005

> <r_lp_Energy>
73.7321

> <b_lp_Chiralities_Consistent>
1

> <s_lp_Variant>
AV-unprocessed.smi:33-2

> <Gold.Version>
5.8.1

> <Gold.Id.Protein>
6NUR|6NUR_protein|mol2

> <Gold.PLP.Fitness>
68.0614

> <Gold.PLP.PLP>
-60.9492

> <Gold.PLP.part.hbond>
-3.0000

> <Gold.PLP.part.metal>
0.0000

> <Gold.PLP.part.buried>
-4.6679

> <Gold.PLP.part.nonpolar>
-55.3201

> <Gold.PLP.part.repulsive>
0.3261

> <Gold.PLP.ligand.clash>
0.0191

> <Gold.PLP.ligand.torsion>
2.5121

> <Gold.PLP.Chemscore.Hbond>
2.8040

> <Gold.PLP.Chemscore.CHOScore>
0.0000

> <Gold.PLP.Chemscore.Metal>
0.0000

> <Gold.Chemscore.Hbonds>
donor molecule, donor type, donor heavy atom, donor atom, acceptor molecule, acceptor atom, score
      P1  H  6896  6907       L1    15  0.30
      P1  H  7989  7998       L1     6  0.85
      P1  H  7997  8009       L1     1  0.51
      P1  H 10752 10764       L1    10  1.00

> <Gold.PLP.Chemscore.Internal.Correction>
3.7436

> <Gold.Rescore>
     Score         DG    S(hbond)    S(metal)    S(lipo)     H(rot)  DE(clash)    DE(int)     intcor
     12.45     -23.43       2.12        0.00     148.23       2.52       0.91      10.08       ----

> <Gold.Chemscore.Fitness>
12.4481

> <Gold.Chemscore.DG>
-23.4308

> <Gold.Chemscore.ZeroCoef>
-5.4800

> <Gold.Chemscore.Hbond>
2.1170

> <Gold.Chemscore.Metal>
0.0000

> <Gold.Chemscore.Lipo>
148.2317

> <Gold.Chemscore.Internal_Hbond>
0.0000

> <Gold.Chemscore.DEClash>
0.9069

> <Gold.Chemscore.DEInternal>
10.0757

> <Gold.Chemscore.Rot>
2.5247

> <Gold.Chemscore.Internal.Correction>
   9.000000E+99

> <Gold.Chemscore.Hbonds>
donor molecule, donor type, donor heavy atom, donor atom, acceptor molecule, acceptor atom, score
      P1  H  6896  6907       L1    15  0.30
      P1  H  7989  7998       L1     6  0.15
      P1  H  7997  8009       L1     1  0.51
      P1  H 10752 10764       L1    10  0.37

> <Gold.Chemscore.Hbond.Weighted>
-7.0709

> <Gold.Chemscore.Metal.Weighted>
-0.0000

> <Gold.Chemscore.Lipo.Weighted>
-17.3431

> <Gold.Chemscore.Internal_Hbond.Weighted>
0.0000

> <Gold.Chemscore.DEClash.Weighted>
0.9069

> <Gold.Chemscore.DEInternal.Weighted>
10.0757

> <Gold.Chemscore.Rot.Weighted>
6.4633

> <Gold.Chemscore.Internal.Correction.Weighted>
   9.000000E+99

> <Gold.Protein.RotatedTorsions>
[ 6907 6896 6895 6894 ] final -114.62 input  -60.11 | X-H torsion
[ 7974 7965 7964 7962 ] final   -4.26 input  175.53 | X-H torsion
[ 8008 7997 7996 7995 ] final  149.34 input   59.86 | X-H torsion
[ 10167 10162 10161 10158 ] final  129.46 input  -65.29 | X-H torsion
[ 10718 10713 10712 10709 ] final  -33.46 input   66.30 | X-H torsion
[ 10763 10752 10751 10750 ] final  -39.99 input  -60.55 | X-H torsion
[ 11005 11000 10999 10996 ] final   35.25 input  -57.11 | X-H torsion

> <Gold.Protein.ActiveResidues>
 VAL166  LYS551  ARG553  GLY616  TRP617  ASP618  TYR619  PRO620  LYS621  CYS622 
 ASP623  PHE694  ASN695  SER759  ASP760  ASP761  ALA762  ILE779  LEU786  VAL792 
 PHE793  MET794  SER795  GLU796  ALA797  LYS798  CYS799  TRP800  GLU811  SER814 

> <Gold.Protein.RotatedAtoms>
  150.7916  133.8774  159.3275 H   0  0  0  0  0  0  0  0  0  0  0  0  # atno 6907 bound_to 6896
  151.6611  135.0987  160.0189 H   0  0  0  0  0  0  0  0  0  0  0  0  # atno 6908 bound_to 6896
  152.3991  133.6752  159.6336 H   0  0  0  0  0  0  0  0  0  0  0  0  # atno 6909 bound_to 6896
  146.2375  140.1845  142.8332 H   0  0  0  0  0  0  0  0  0  0  0  0  # atno 7974 bound_to 7965
  156.2758  140.2104  156.5842 H   0  0  0  0  0  0  0  0  0  0  0  0  # atno 8008 bound_to 7997
  154.7034  140.0519  157.0503 H   0  0  0  0  0  0  0  0  0  0  0  0  # atno 8009 bound_to 7997
  155.0704  140.3176  155.4635 H   0  0  0  0  0  0  0  0  0  0  0  0  # atno 8010 bound_to 7997
  139.5476  144.6787  151.4423 H   0  0  0  0  0  0  0  0  0  0  0  0  # atno 10167 bound_to 10162
  156.3624  130.4326  149.7612 H   0  0  0  0  0  0  0  0  0  0  0  0  # atno 10718 bound_to 10713
  153.9386  135.6764  153.4744 H   0  0  0  0  0  0  0  0  0  0  0  0  # atno 10763 bound_to 10752
  153.0943  135.4859  154.8746 H   0  0  0  0  0  0  0  0  0  0  0  0  # atno 10764 bound_to 10752
  154.7389  135.3156  154.8720 H   0  0  0  0  0  0  0  0  0  0  0  0  # atno 10765 bound_to 10752
  140.2445  134.3375  155.7913 H   0  0  0  0  0  0  0  0  0  0  0  0  # atno 11005 bound_to 11000
  144.9908  140.8545  143.5341 LP  0  0  0  0  0  0  0  0  0  0  0  0  # atno 17320 bound_to 7965
  145.1851  139.2331  143.5272 LP  0  0  0  0  0  0  0  0  0  0  0  0  # atno 17321 bound_to 7965
  140.6730  143.8253  150.7022 LP  0  0  0  0  0  0  0  0  0  0  0  0  # atno 17342 bound_to 10162
  140.1683  143.4216  152.2019 LP  0  0  0  0  0  0  0  0  0  0  0  0  # atno 17343 bound_to 10162
  156.4771  130.8024  151.3039 LP  0  0  0  0  0  0  0  0  0  0  0  0  # atno 17370 bound_to 10713
  157.7475  131.0017  150.2974 LP  0  0  0  0  0  0  0  0  0  0  0  0  # atno 17371 bound_to 10713
  141.2207  133.7318  156.8939 LP  0  0  0  0  0  0  0  0  0  0  0  0  # atno 17394 bound_to 11000
  140.1619  134.9159  157.2726 LP  0  0  0  0  0  0  0  0  0  0  0  0  # atno 17395 bound_to 11000

$$$$
