#       Name:                AV-unprocessed.smi:1679
#       Creating user name   scv26
#       Creation time:       Fri Mar 27 07:48:30 2020


#       File generated by GOLD software.
#

@<TRIPOS>MOLECULE
AV-unprocessed.smi:1679
    53    54     1
SMALL
NO_CHARGES


@<TRIPOS>ATOM
      1 ****        -2.3603   0.6853  -1.3048 C.3            1 S1                 0.0000
      2 ****        -2.9639   0.9271   0.0888 C.3            1 S1                 0.0000
      3 ****        -4.5012   1.0202   0.0069 C.3            1 S1                 0.0000
      4 ****        -5.1323   1.2556   1.3874 C.3            1 S1                 0.0000
      5 ****        -4.7102   0.1629   2.3793 C.3            1 S1                 0.0000
      6 ****        -3.1805   0.0697   2.4785 C.3            1 S1                 0.0000
      7 ****        -2.5352  -0.1644   1.0959 C.3            1 S1                 0.0000
      8 ****        -1.1184  -0.1134   1.2094 O.3            1 S1                 0.0000
      9 ****        -0.5146  -1.3137   1.6703 C.3            1 S1                 0.0000
     10 ****         1.0080  -1.1506   1.6206 C.3            1 S1                 0.0000
     11 ****         1.4587  -0.9903   0.2451 N.am           1 S1                 0.0000
     12 ****         2.7426  -0.9366  -0.1338 C.2            1 S1                 0.0000
     13 ****         3.6822  -1.0459   0.6553 O.2            1 S1                 0.0000
     14 ****         2.9931  -0.7606  -1.6381 C.3            1 S1                 0.0000
     15 ****         4.2704  -0.0931  -1.9369 N.am           1 S1                 0.0000
     16 ****         5.3718  -0.9044  -2.2620 C.2            1 S1                 0.0000
     17 ****         6.5799  -0.3818  -2.5464 C.2            1 S1                 0.0000
     18 ****         6.7306   1.0678  -2.5115 C.2            1 S1                 0.0000
     19 ****         7.8252   1.5627  -2.7738 O.2            1 S1                 0.0000
     20 ****         5.6336   1.8122  -2.1856 N.pl3          1 S1                -1.0000
     21 ****         4.4114   1.2664  -1.8958 C.2            1 S1                 0.0000
     22 ****         3.4348   1.9566  -1.6012 O.2            1 S1                 0.0000
     23 ****        -2.6847  -0.2706  -1.7172 H              1 S1                 0.0000
     24 ****        -1.2704   0.6800  -1.2715 H              1 S1                 0.0000
     25 ****        -2.6596   1.4676  -2.0028 H              1 S1                 0.0000
     26 ****        -2.5896   1.8867   0.4494 H              1 S1                 0.0000
     27 ****        -4.7903   1.8274  -0.6672 H              1 S1                 0.0000
     28 ****        -4.9036   0.1018  -0.4229 H              1 S1                 0.0000
     29 ****        -4.8303   2.2326   1.7671 H              1 S1                 0.0000
     30 ****        -6.2190   1.2794   1.3005 H              1 S1                 0.0000
     31 ****        -5.1350   0.3685   3.3622 H              1 S1                 0.0000
     32 ****        -5.1159  -0.7982   2.0608 H              1 S1                 0.0000
     33 ****        -2.7889   0.9905   2.9129 H              1 S1                 0.0000
     34 ****        -2.9159  -0.7323   3.1672 H              1 S1                 0.0000
     35 ****        -2.8475  -1.1350   0.7052 H              1 S1                 0.0000
     36 ****        -0.8260  -1.5266   2.6928 H              1 S1                 0.0000
     37 ****        -0.8184  -2.1599   1.0520 H              1 S1                 0.0000
     38 ****         1.3164  -0.2872   2.2119 H              1 S1                 0.0000
     39 ****         1.4848  -2.0291   2.0579 H              1 S1                 0.0000
     40 ****         0.7461  -0.8903  -0.4631 H              1 S1                 0.0000
     41 ****         2.9611  -1.7464  -2.1040 H              1 S1                 0.0000
     42 ****         2.1668  -0.2052  -2.0864 H              1 S1                 0.0000
     43 ****         5.1770  -1.9669  -2.2598 H              1 S1                 0.0000
     44 ****         7.4167  -1.0192  -2.7914 H              1 S1                 0.0000
     45 ****        -0.8836   0.6186   1.8490 LP             1 S1                 0.0000
     46 ****        -0.7414   0.0983   0.3077 LP             1 S1                 0.0000
     47 ****         3.5035  -1.1818   1.6297 LP             1 S1                 0.0000
     48 ****         4.6236  -0.9987   0.3214 LP             1 S1                 0.0000
     49 ****         8.5978   0.9724  -3.0073 LP             1 S1                 0.0000
     50 ****         7.9428   2.5556  -2.7537 LP             1 S1                 0.0000
     51 ****         5.7273   2.8074  -2.1570 LP             1 S1                 0.0000
     52 ****         2.5580   1.5212  -1.3972 LP             1 S1                 0.0000
     53 ****         3.5187   2.9525  -1.5660 LP             1 S1                 0.0000
@<TRIPOS>BOND
    1    1    2 1     
    2    1   23 1     
    3    1   24 1     
    4    1   25 1     
    5    2    7 1     
    6    2    3 1     
    7    2   26 1     
    8    3    4 1     
    9    3   27 1     
   10    3   28 1     
   11    4    5 1     
   12    4   29 1     
   13    4   30 1     
   14    5    6 1     
   15    5   31 1     
   16    5   32 1     
   17    6    7 1     
   18    6   33 1     
   19    6   34 1     
   20    7    8 1     
   21    7   35 1     
   22    8    9 1     
   23    9   10 1     
   24    9   36 1     
   25    9   37 1     
   26   10   11 1     
   27   10   38 1     
   28   10   39 1     
   29   11   12 am    
   30   11   40 1     
   31   12   13 2     
   32   12   14 1     
   33   14   15 1     
   34   14   41 1     
   35   14   42 1     
   36   15   21 am    
   37   15   16 1     
   38   16   17 2     
   39   16   43 1     
   40   17   18 1     
   41   17   44 1     
   42   18   19 2     
   43   18   20 1     
   44   20   21 1     
   45   21   22 2     
   46    8   45 1     
   47    8   46 1     
   48   13   47 1     
   49   13   48 1     
   50   19   49 1     
   51   19   50 1     
   52   20   51 1     
   53   22   52 1     
   54   22   53 1     
@<TRIPOS>SUBSTRUCTURE
      1 S1             1
@<TRIPOS>SET
LONE_PAIRS      STATIC     ATOMS    <user>   **** ""
9 45 46 47 48 49 50 51 52 53
DONOR_HYDROGENS      STATIC     ATOMS    <user>   **** ""
1 40
ATOM$BLUE        STATIC     ATOMS    COLORGROUP SYSTEM
9 45 46 47 48 49 50 51 52 53
ATOM$RED        STATIC     ATOMS    COLORGROUP SYSTEM
1 40
