AV-unprocessed.smi:3287|AV-procd|sdf|12602|dock1
  -GOLD-   2272018523D 1   1.00000     0.00000
 Structure written by MMmdl.
 43 44  0  0  0  0  0  0  0  0  2 V2000
  152.5508  143.6129  161.8599 C   0  0  0  0  0  0  0  0  0  0  0  0
  151.8579  143.2017  160.5504 C   0  0  2  0  0  0  0  0  0  0  0  0
  152.8468  142.5695  159.5517 C   0  0  0  0  0  0  0  0  0  0  0  0
  152.1287  142.0832  158.2833 C   0  0  0  0  0  0  0  0  0  0  0  0
  151.3330  143.2142  157.6085 C   0  0  1  0  0  0  0  0  0  0  0  0
  150.6313  142.6874  156.4173 N   0  3  0  0  0  0  0  0  0  0  0  0
  149.8647  141.4411  156.6341 C   0  0  0  0  0  0  0  0  0  0  0  0
  149.6057  140.7029  155.3091 C   0  0  1  0  0  0  0  0  0  0  0  0
  149.5166  141.6551  154.2670 O   0  0  0  0  0  0  0  0  0  0  0  0
  150.6873  139.6694  155.0358 C   0  0  0  0  0  0  0  0  0  0  0  0
  150.4325  138.5416  154.2257 C   0  0  0  0  0  0  0  0  0  0  0  0
  151.4768  137.6219  154.0029 C   0  0  0  0  0  0  0  0  0  0  0  0
  152.7138  137.7647  154.5245 N   0  0  0  0  0  0  0  0  0  0  0  0
  152.9525  138.8455  155.2973 C   0  0  0  0  0  0  0  0  0  0  0  0
  151.9788  139.8241  155.5815 C   0  0  0  0  0  0  0  0  0  0  0  0
  150.3460  143.8464  158.6159 C   0  0  0  0  0  0  0  0  0  0  0  0
  151.0448  144.3489  159.8973 C   0  0  2  0  0  0  0  0  0  0  0  0
  151.8594  145.6320  159.6347 C   0  0  0  0  0  0  0  0  0  0  0  0
  153.3530  144.3302  161.6862 H   0  0  0  0  0  0  0  0  0  0  0  0
  152.9915  142.7471  162.3551 H   0  0  0  0  0  0  0  0  0  0  0  0
  151.8421  144.0622  162.5562 H   0  0  0  0  0  0  0  0  0  0  0  0
  151.1408  142.4242  160.8196 H   0  0  0  0  0  0  0  0  0  0  0  0
  153.6236  143.2864  159.2837 H   0  0  0  0  0  0  0  0  0  0  0  0
  153.3594  141.7285  160.0201 H   0  0  0  0  0  0  0  0  0  0  0  0
  152.8599  141.6731  157.5856 H   0  0  0  0  0  0  0  0  0  0  0  0
  151.4578  141.2626  158.5428 H   0  0  0  0  0  0  0  0  0  0  0  0
  152.0431  143.9699  157.2704 H   0  0  0  0  0  0  0  0  0  0  0  0
  149.9768  143.3922  156.1097 H   0  0  0  0  0  0  0  0  0  0  0  0
  150.3939  140.7879  157.3282 H   0  0  0  0  0  0  0  0  0  0  0  0
  148.9120  141.6972  157.0998 H   0  0  0  0  0  0  0  0  0  0  0  0
  148.6444  140.1898  155.3647 H   0  0  0  0  0  0  0  0  0  0  0  0
  148.8985  141.3390  153.6249 H   0  0  0  0  0  0  0  0  0  0  0  0
  149.4610  138.3802  153.7818 H   0  0  0  0  0  0  0  0  0  0  0  0
  151.3140  136.7492  153.3879 H   0  0  0  0  0  0  0  0  0  0  0  0
  153.9505  138.9344  155.7007 H   0  0  0  0  0  0  0  0  0  0  0  0
  152.2242  140.6713  156.2051 H   0  0  0  0  0  0  0  0  0  0  0  0
  149.7999  144.6717  158.1589 H   0  0  0  0  0  0  0  0  0  0  0  0
  149.5933  143.1060  158.8908 H   0  0  0  0  0  0  0  0  0  0  0  0
  150.2561  144.6278  160.5977 H   0  0  0  0  0  0  0  0  0  0  0  0
  152.7195  145.4510  158.9909 H   0  0  0  0  0  0  0  0  0  0  0  0
  152.2281  146.0678  160.5631 H   0  0  0  0  0  0  0  0  0  0  0  0
  151.2435  146.3918  159.1530 H   0  0  0  0  0  0  0  0  0  0  0  0
  151.3048  142.5349  155.6797 H   0  0  0  0  0  0  0  0  0  0  0  0
  1  2  1  0  0  0  0
  1 19  1  0  0  0  0
  1 20  1  0  0  0  0
  1 21  1  0  0  0  0
  2 17  1  0  0  0  0
  2  3  1  0  0  0  0
  2 22  1  0  0  0  0
  3  4  1  0  0  0  0
  3 23  1  0  0  0  0
  3 24  1  0  0  0  0
  4  5  1  0  0  0  0
  4 25  1  0  0  0  0
  4 26  1  0  0  0  0
  5  6  1  0  0  0  0
  5 16  1  0  0  0  0
  5 27  1  0  0  0  0
  6  7  1  0  0  0  0
  6 28  1  0  0  0  0
  6 43  1  0  0  0  0
  7  8  1  0  0  0  0
  7 29  1  0  0  0  0
  7 30  1  0  0  0  0
  8  9  1  0  0  0  0
  8 10  1  0  0  0  0
  8 31  1  0  0  0  0
  9 32  1  0  0  0  0
 10 15  1  0  0  0  0
 10 11  2  0  0  0  0
 11 12  1  0  0  0  0
 11 33  1  0  0  0  0
 12 13  2  0  0  0  0
 12 34  1  0  0  0  0
 13 14  1  0  0  0  0
 14 15  2  0  0  0  0
 14 35  1  0  0  0  0
 15 36  1  0  0  0  0
 16 17  1  0  0  0  0
 16 37  1  0  0  0  0
 16 38  1  0  0  0  0
 17 18  1  0  0  0  0
 17 39  1  0  0  0  0
 18 40  1  0  0  0  0
 18 41  1  0  0  0  0
 18 42  1  0  0  0  0
M  CHG  1   6   1
M  END
> <s_m_source_file>
AV-unprocessed.smi

> <i_m_source_file_index>
3287

> <i_lp_mmshare_version>
43012

> <i_f3d_flags>
0

> <s_epik_input>
W0NIM11bQ0BASF0xW0NIMl1bQ0gyXVtDQEhdKFtDSDJdW0NASF0xW0NIM10pW05IXVtDSDJdW0NASF0oW09IXSljMltjSF1bY0hdbltjSF1bY0hdMg==

> <s_epik_cmdline>
J2VwaWtfcHl0aG9uJywgJy1waCcsICc3LjAnLCAnLXRuJywgJzgnLCAnLW1hJywgJzIwMCcsICctbWV0YWxfYmluZGluZycsICctaW1hZScsICc8aW5maWxlLm1hZT4nLCAnLW9tYWUnLCAnPG91dGZpbGUubWFlPic=

> <r_lp_tautomer_probability>
1

> <r_epik_Ionization_Penalty>
0.00537262

> <r_epik_Ionization_Penalty_Charging>
0.00321624

> <r_epik_Ionization_Penalty_Neutral>
0.00215638

> <r_epik_State_Penalty>
-0

> <r_epik_Charging_Adjusted_Penalty>
0.00321624

> <i_epik_Tot_Q>
1

> <i_epik_Tot_abs_Q>
1

> <r_epik_Metal_State_Penalty>
-0

> <b_epik_Metal_Only>
0

> <s_lp_Force_Field>
OPLS_2005

> <r_lp_Energy>
17.6896

> <b_lp_Chiralities_Consistent>
1

> <s_lp_Variant>
AV-unprocessed.smi:3287-13

> <Gold.Version>
5.8.1

> <Gold.Id.Protein>
6NUR|6NUR_protein|mol2

> <Gold.PLP.Fitness>
54.0779

> <Gold.PLP.PLP>
-45.9962

> <Gold.PLP.part.hbond>
-4.0000

> <Gold.PLP.part.metal>
0.0000

> <Gold.PLP.part.buried>
-2.6480

> <Gold.PLP.part.nonpolar>
-39.9412

> <Gold.PLP.part.repulsive>
0.1619

> <Gold.PLP.ligand.clash>
0.0000

> <Gold.PLP.ligand.torsion>
1.2681

> <Gold.PLP.Chemscore.Hbond>
2.5230

> <Gold.PLP.Chemscore.CHOScore>
1.0000

> <Gold.PLP.Chemscore.Metal>
0.0000

> <Gold.Chemscore.Hbonds>
donor molecule, donor type, donor heavy atom, donor atom, acceptor molecule, acceptor atom, score
      L1  H     6    28       P1  8028  2.00
      P1  H  7989  7998       L1     9  0.02
      P1  H 10752 10765       L1    13  0.16
      L1  C    12    34       P1  7949  1.00

> <Gold.PLP.Chemscore.Internal.Correction>
0.0489

> <Gold.Rescore>
     Score         DG    S(hbond)    S(metal)    S(lipo)     H(rot)  DE(clash)    DE(int)     intcor
     20.87     -22.51       1.89        0.00     133.17       1.90       0.24       1.40       ----

> <Gold.Chemscore.Fitness>
20.8709

> <Gold.Chemscore.DG>
-22.5089

> <Gold.Chemscore.ZeroCoef>
-5.4800

> <Gold.Chemscore.Hbond>
1.8923

> <Gold.Chemscore.Metal>
0.0000

> <Gold.Chemscore.Lipo>
133.1743

> <Gold.Chemscore.Internal_Hbond>
0.0000

> <Gold.Chemscore.DEClash>
0.2362

> <Gold.Chemscore.DEInternal>
1.4018

> <Gold.Chemscore.Rot>
1.9035

> <Gold.Chemscore.Internal.Correction>
   9.000000E+99

> <Gold.Chemscore.Hbonds>
donor molecule, donor type, donor heavy atom, donor atom, acceptor molecule, acceptor atom, score
      L1  H     6    28       P1  8028  1.00
      P1  H 10752 10765       L1    13  0.01

> <Gold.Chemscore.Hbond.Weighted>
-6.3204

> <Gold.Chemscore.Metal.Weighted>
-0.0000

> <Gold.Chemscore.Lipo.Weighted>
-15.5814

> <Gold.Chemscore.Internal_Hbond.Weighted>
0.0000

> <Gold.Chemscore.DEClash.Weighted>
0.2362

> <Gold.Chemscore.DEInternal.Weighted>
1.4018

> <Gold.Chemscore.Rot.Weighted>
4.8729

> <Gold.Chemscore.Internal.Correction.Weighted>
   9.000000E+99

> <Gold.Protein.RotatedTorsions>
[ 6907 6896 6895 6894 ] final  153.20 input  -60.11 | X-H torsion
[ 7974 7965 7964 7962 ] final  160.14 input  175.53 | X-H torsion
[ 8008 7997 7996 7995 ] final  -75.64 input   59.86 | X-H torsion
[ 10167 10162 10161 10158 ] final   -0.85 input  -65.29 | X-H torsion
[ 10718 10713 10712 10709 ] final -148.74 input   66.30 | X-H torsion
[ 10763 10752 10751 10750 ] final  177.86 input  -60.55 | X-H torsion
[ 11005 11000 10999 10996 ] final -105.70 input  -57.11 | X-H torsion

> <Gold.Protein.ActiveResidues>
 VAL166  LYS551  ARG553  GLY616  TRP617  ASP618  TYR619  PRO620  LYS621  CYS622 
 ASP623  PHE694  ASN695  SER759  ASP760  ASP761  ALA762  ILE779  LEU786  VAL792 
 PHE793  MET794  SER795  GLU796  ALA797  LYS798  CYS799  TRP800  GLU811  SER814 

> <Gold.Protein.RotatedAtoms>
  152.0760  133.4129  159.4479 H   0  0  0  0  0  0  0  0  0  0  0  0  # atno 6907 bound_to 6896
  150.6863  134.3037  159.4726 H   0  0  0  0  0  0  0  0  0  0  0  0  # atno 6908 bound_to 6896
  152.0874  134.9430  160.0623 H   0  0  0  0  0  0  0  0  0  0  0  0  # atno 6909 bound_to 6896
  144.7753  139.7715  143.6281 H   0  0  0  0  0  0  0  0  0  0  0  0  # atno 7974 bound_to 7965
  154.5435  140.0740  156.8549 H   0  0  0  0  0  0  0  0  0  0  0  0  # atno 8008 bound_to 7997
  155.3134  140.3391  155.4225 H   0  0  0  0  0  0  0  0  0  0  0  0  # atno 8009 bound_to 7997
  156.1896  140.1681  156.8104 H   0  0  0  0  0  0  0  0  0  0  0  0  # atno 8010 bound_to 7997
  140.6785  143.6845  150.8078 H   0  0  0  0  0  0  0  0  0  0  0  0  # atno 10167 bound_to 10162
  156.4241  130.8043  151.2267 H   0  0  0  0  0  0  0  0  0  0  0  0  # atno 10718 bound_to 10713
  154.5001  135.2783  155.1428 H   0  0  0  0  0  0  0  0  0  0  0  0  # atno 10763 bound_to 10752
  154.3065  135.6237  153.5450 H   0  0  0  0  0  0  0  0  0  0  0  0  # atno 10764 bound_to 10752
  152.9901  135.5709  154.5441 H   0  0  0  0  0  0  0  0  0  0  0  0  # atno 10765 bound_to 10752
  141.1040  133.8830  157.1767 H   0  0  0  0  0  0  0  0  0  0  0  0  # atno 11005 bound_to 11000
  146.1928  139.5177  142.9794 LP  0  0  0  0  0  0  0  0  0  0  0  0  # atno 17320 bound_to 7965
  145.6205  141.0323  143.1917 LP  0  0  0  0  0  0  0  0  0  0  0  0  # atno 17321 bound_to 7965
  140.0542  143.5219  152.2659 LP  0  0  0  0  0  0  0  0  0  0  0  0  # atno 17342 bound_to 10162
  139.6092  144.7604  151.2991 LP  0  0  0  0  0  0  0  0  0  0  0  0  # atno 17343 bound_to 10162
  157.7508  131.0219  150.3769 LP  0  0  0  0  0  0  0  0  0  0  0  0  # atno 17370 bound_to 10713
  156.4092  130.3931  149.6903 LP  0  0  0  0  0  0  0  0  0  0  0  0  # atno 17371 bound_to 10713
  139.9903  135.0067  156.9959 LP  0  0  0  0  0  0  0  0  0  0  0  0  # atno 17394 bound_to 11000
  140.4949  134.1156  155.7239 LP  0  0  0  0  0  0  0  0  0  0  0  0  # atno 17395 bound_to 11000

$$$$
