AV-unprocessed.smi:3303|AV-procd|sdf|12679|dock6
  -GOLD-   2272019 13D 1   1.00000     0.00000
 Structure written by MMmdl.
 44 45  0  0  0  0  0  0  0  0  2 V2000
  147.6423  141.4017  154.5856 C   0  0  0  0  0  0  0  0  0  0  0  0
  149.1328  141.2538  154.9337 C   0  0  2  0  0  0  0  0  0  0  0  0
  149.6589  139.8355  154.6357 C   0  0  0  0  0  0  0  0  0  0  0  0
  151.1046  139.7810  154.8553 N   0  0  0  0  0  0  0  0  0  0  0  0
  151.6503  138.5180  154.3733 C   0  0  0  0  0  0  0  0  0  0  0  0
  151.4998  140.0851  156.2391 C   0  0  2  0  0  0  0  0  0  0  0  0
  151.1303  138.9877  157.2643 C   0  0  0  0  0  0  0  0  0  0  0  0
  150.9775  141.4894  156.6253 C   0  0  0  0  0  0  0  0  0  0  0  0
  149.4646  141.6858  156.3783 C   0  0  2  0  0  0  0  0  0  0  0  0
  148.6275  140.9644  157.3666 N   0  3  0  0  0  0  0  0  0  0  0  0
  147.4154  141.6790  157.8169 C   0  0  0  0  0  0  0  0  0  0  0  0
  147.7842  142.9040  158.6639 C   0  0  0  0  0  0  0  0  0  0  0  0
  146.7993  143.1333  159.7942 C   0  0  0  0  0  0  0  0  0  0  0  0
  146.8970  144.2757  160.6169 C   0  0  0  0  0  0  0  0  0  0  0  0
  145.9631  144.4329  161.6596 C   0  0  0  0  0  0  0  0  0  0  0  0
  144.9746  143.4462  161.8388 C   0  0  0  0  0  0  0  0  0  0  0  0
  144.9624  142.3421  160.9634 C   0  0  0  0  0  0  0  0  0  0  0  0
  145.8536  142.1815  159.9610 N   0  0  0  0  0  0  0  0  0  0  0  0
  147.0214  140.7125  155.1586 H   0  0  0  0  0  0  0  0  0  0  0  0
  147.4682  141.1958  153.5290 H   0  0  0  0  0  0  0  0  0  0  0  0
  147.2909  142.4147  154.7839 H   0  0  0  0  0  0  0  0  0  0  0  0
  149.6675  141.9354  154.2692 H   0  0  0  0  0  0  0  0  0  0  0  0
  149.1438  139.0879  155.2391 H   0  0  0  0  0  0  0  0  0  0  0  0
  149.4519  139.5914  153.5928 H   0  0  0  0  0  0  0  0  0  0  0  0
  152.7290  138.4810  154.5279 H   0  0  0  0  0  0  0  0  0  0  0  0
  151.4661  138.4108  153.3038 H   0  0  0  0  0  0  0  0  0  0  0  0
  151.1981  137.6635  154.8774 H   0  0  0  0  0  0  0  0  0  0  0  0
  152.5887  140.1503  156.2419 H   0  0  0  0  0  0  0  0  0  0  0  0
  151.3765  139.3098  158.2766 H   0  0  0  0  0  0  0  0  0  0  0  0
  151.6908  138.0699  157.0861 H   0  0  0  0  0  0  0  0  0  0  0  0
  150.0726  138.7302  157.2525 H   0  0  0  0  0  0  0  0  0  0  0  0
  151.2500  141.7264  157.6532 H   0  0  0  0  0  0  0  0  0  0  0  0
  151.5122  142.2217  156.0184 H   0  0  0  0  0  0  0  0  0  0  0  0
  149.2316  142.7476  156.4722 H   0  0  0  0  0  0  0  0  0  0  0  0
  148.3261  140.1017  156.9367 H   0  0  0  0  0  0  0  0  0  0  0  0
  146.8310  141.9957  156.9532 H   0  0  0  0  0  0  0  0  0  0  0  0
  146.7915  141.0005  158.4002 H   0  0  0  0  0  0  0  0  0  0  0  0
  148.7862  142.7849  159.0785 H   0  0  0  0  0  0  0  0  0  0  0  0
  147.8154  143.7970  158.0374 H   0  0  0  0  0  0  0  0  0  0  0  0
  147.6678  145.0152  160.4568 H   0  0  0  0  0  0  0  0  0  0  0  0
  146.0048  145.2940  162.3102 H   0  0  0  0  0  0  0  0  0  0  0  0
  144.2427  143.5331  162.6280 H   0  0  0  0  0  0  0  0  0  0  0  0
  144.2184  141.5671  161.0724 H   0  0  0  0  0  0  0  0  0  0  0  0
  149.1975  140.7392  158.1696 H   0  0  0  0  0  0  0  0  0  0  0  0
  1  2  1  0  0  0  0
  1 19  1  0  0  0  0
  1 20  1  0  0  0  0
  1 21  1  0  0  0  0
  2  9  1  0  0  0  0
  2  3  1  0  0  0  0
  2 22  1  0  0  0  0
  3  4  1  0  0  0  0
  3 23  1  0  0  0  0
  3 24  1  0  0  0  0
  4  5  1  0  0  0  0
  4  6  1  0  0  0  0
  5 25  1  0  0  0  0
  5 26  1  0  0  0  0
  5 27  1  0  0  0  0
  6  7  1  0  0  0  0
  6  8  1  0  0  0  0
  6 28  1  0  0  0  0
  7 29  1  0  0  0  0
  7 30  1  0  0  0  0
  7 31  1  0  0  0  0
  8  9  1  0  0  0  0
  8 32  1  0  0  0  0
  8 33  1  0  0  0  0
  9 10  1  0  0  0  0
  9 34  1  0  0  0  0
 10 11  1  0  0  0  0
 10 35  1  0  0  0  0
 10 44  1  0  0  0  0
 11 12  1  0  0  0  0
 11 36  1  0  0  0  0
 11 37  1  0  0  0  0
 12 13  1  0  0  0  0
 12 38  1  0  0  0  0
 12 39  1  0  0  0  0
 13 18  1  0  0  0  0
 13 14  2  0  0  0  0
 14 15  1  0  0  0  0
 14 40  1  0  0  0  0
 15 16  2  0  0  0  0
 15 41  1  0  0  0  0
 16 17  1  0  0  0  0
 16 42  1  0  0  0  0
 17 18  2  0  0  0  0
 17 43  1  0  0  0  0
M  CHG  1  10   1
M  END
> <s_m_source_file>
AV-unprocessed.smi

> <i_m_source_file_index>
3303

> <i_lp_mmshare_version>
43012

> <i_f3d_flags>
0

> <s_epik_input>
W0NIM11bQ0BASF0xW0NIMl1OKFtDSDNdKVtDQEBIXShbQ0gzXSlbQ0gyXVtDQEhdMVtOSF1bQ0gyXVtDSDJdYzJbY0hdW2NIXVtjSF1bY0hdbjI=

> <s_epik_cmdline>
J2VwaWtfcHl0aG9uJywgJy1waCcsICc3LjAnLCAnLXRuJywgJzgnLCAnLW1hJywgJzIwMCcsICctbWV0YWxfYmluZGluZycsICctaW1hZScsICc8aW5maWxlLm1hZT4nLCAnLW9tYWUnLCAnPG91dGZpbGUubWFlPic=

> <r_epik_Ionization_Penalty>
1.37325

> <r_epik_Ionization_Penalty_Charging>
0.000251572

> <r_epik_Ionization_Penalty_Neutral>
1.373

> <r_epik_State_Penalty>
1.46343

> <r_epik_Charging_Adjusted_Penalty>
1.46368

> <i_epik_Tot_Q>
1

> <i_epik_Tot_abs_Q>
1

> <r_epik_Metal_State_Penalty>
1.46331

> <b_epik_Metal_Only>
0

> <s_lp_Force_Field>
OPLS_2005

> <r_lp_Energy>
24.8082

> <b_lp_Chiralities_Consistent>
1

> <s_lp_Variant>
AV-unprocessed.smi:3303-23

> <Gold.Version>
5.8.1

> <Gold.Id.Protein>
6NUR|6NUR_protein|mol2

> <Gold.PLP.Fitness>
38.8287

> <Gold.PLP.PLP>
-34.5949

> <Gold.PLP.part.hbond>
-2.0000

> <Gold.PLP.part.metal>
0.0000

> <Gold.PLP.part.buried>
-5.9604

> <Gold.PLP.part.nonpolar>
-27.8514

> <Gold.PLP.part.repulsive>
0.1400

> <Gold.PLP.ligand.clash>
0.0000

> <Gold.PLP.ligand.torsion>
0.8131

> <Gold.PLP.Chemscore.Hbond>
1.9500

> <Gold.PLP.Chemscore.CHOScore>
0.0000

> <Gold.PLP.Chemscore.Metal>
0.0000

> <Gold.Chemscore.Hbonds>
donor molecule, donor type, donor heavy atom, donor atom, acceptor molecule, acceptor atom, score
      P1  H  6934  6946       L1    18  0.90
      P1  H  7989  7998       L1     4  0.90

> <Gold.PLP.Chemscore.Internal.Correction>
0.0100

> <Gold.Rescore>
     Score         DG    S(hbond)    S(metal)    S(lipo)     H(rot)  DE(clash)    DE(int)     intcor
     12.39     -13.27       0.58        0.00      79.22       1.33       0.01       0.87       ----

> <Gold.Chemscore.Fitness>
12.3934

> <Gold.Chemscore.DG>
-13.2708

> <Gold.Chemscore.ZeroCoef>
-5.4800

> <Gold.Chemscore.Hbond>
0.5766

> <Gold.Chemscore.Metal>
0.0000

> <Gold.Chemscore.Lipo>
79.2246

> <Gold.Chemscore.Internal_Hbond>
0.0000

> <Gold.Chemscore.DEClash>
0.0085

> <Gold.Chemscore.DEInternal>
0.8689

> <Gold.Chemscore.Rot>
1.3298

> <Gold.Chemscore.Internal.Correction>
   9.000000E+99

> <Gold.Chemscore.Hbonds>
donor molecule, donor type, donor heavy atom, donor atom, acceptor molecule, acceptor atom, score
      P1  H  6934  6946       L1    18  0.05
      P1  H  7989  7998       L1     4  0.05

> <Gold.Chemscore.Hbond.Weighted>
-1.9258

> <Gold.Chemscore.Metal.Weighted>
-0.0000

> <Gold.Chemscore.Lipo.Weighted>
-9.2693

> <Gold.Chemscore.Internal_Hbond.Weighted>
0.0000

> <Gold.Chemscore.DEClash.Weighted>
0.0085

> <Gold.Chemscore.DEInternal.Weighted>
0.8689

> <Gold.Chemscore.Rot.Weighted>
3.4043

> <Gold.Chemscore.Internal.Correction.Weighted>
   9.000000E+99

> <Gold.Protein.RotatedTorsions>
[ 6907 6896 6895 6894 ] final  160.61 input  -60.11 | X-H torsion
[ 7974 7965 7964 7962 ] final  -84.60 input  175.53 | X-H torsion
[ 8008 7997 7996 7995 ] final -115.91 input   59.86 | X-H torsion
[ 10167 10162 10161 10158 ] final  -34.82 input  -65.29 | X-H torsion
[ 10718 10713 10712 10709 ] final -120.56 input   66.30 | X-H torsion
[ 10763 10752 10751 10750 ] final -134.75 input  -60.55 | X-H torsion
[ 11005 11000 10999 10996 ] final  -79.66 input  -57.11 | X-H torsion

> <Gold.Protein.ActiveResidues>
 VAL166  LYS551  ARG553  GLY616  TRP617  ASP618  TYR619  PRO620  LYS621  CYS622 
 ASP623  PHE694  ASN695  SER759  ASP760  ASP761  ALA762  ILE779  LEU786  VAL792 
 PHE793  MET794  SER795  GLU796  ALA797  LYS798  CYS799  TRP800  GLU811  SER814 

> <Gold.Protein.RotatedAtoms>
  151.9680  133.3716  159.4060 H   0  0  0  0  0  0  0  0  0  0  0  0  # atno 6907 bound_to 6896
  150.6953  134.4170  159.5197 H   0  0  0  0  0  0  0  0  0  0  0  0  # atno 6908 bound_to 6896
  152.1870  134.8705  160.0572 H   0  0  0  0  0  0  0  0  0  0  0  0  # atno 6909 bound_to 6896
  145.5045  140.9545  143.1741 H   0  0  0  0  0  0  0  0  0  0  0  0  # atno 7974 bound_to 7965
  155.0595  140.0393  157.2571 H   0  0  0  0  0  0  0  0  0  0  0  0  # atno 8008 bound_to 7997
  154.7071  140.2685  155.6639 H   0  0  0  0  0  0  0  0  0  0  0  0  # atno 8009 bound_to 7997
  156.2778  140.2729  156.1701 H   0  0  0  0  0  0  0  0  0  0  0  0  # atno 8010 bound_to 7997
  140.7178  143.3521  151.2135 H   0  0  0  0  0  0  0  0  0  0  0  0  # atno 10167 bound_to 10162
  156.1268  130.6365  150.9556 H   0  0  0  0  0  0  0  0  0  0  0  0  # atno 10718 bound_to 10713
  154.8714  135.3725  154.4786 H   0  0  0  0  0  0  0  0  0  0  0  0  # atno 10763 bound_to 10752
  153.5441  135.7026  153.5627 H   0  0  0  0  0  0  0  0  0  0  0  0  # atno 10764 bound_to 10752
  153.3776  135.4005  155.1798 H   0  0  0  0  0  0  0  0  0  0  0  0  # atno 10765 bound_to 10752
  141.1667  133.7116  156.8156 H   0  0  0  0  0  0  0  0  0  0  0  0  # atno 11005 bound_to 11000
  144.7761  139.6626  143.7174 LP  0  0  0  0  0  0  0  0  0  0  0  0  # atno 17320 bound_to 7965
  146.2205  139.5627  142.9621 LP  0  0  0  0  0  0  0  0  0  0  0  0  # atno 17321 bound_to 7965
  139.7054  143.9464  152.2924 LP  0  0  0  0  0  0  0  0  0  0  0  0  # atno 17342 bound_to 10162
  139.9171  144.6822  150.8500 LP  0  0  0  0  0  0  0  0  0  0  0  0  # atno 17343 bound_to 10162
  157.6449  131.0905  150.8174 LP  0  0  0  0  0  0  0  0  0  0  0  0  # atno 17370 bound_to 10713
  156.8264  130.5001  149.5337 LP  0  0  0  0  0  0  0  0  0  0  0  0  # atno 17371 bound_to 10713
  140.2156  134.8795  157.3322 LP  0  0  0  0  0  0  0  0  0  0  0  0  # atno 17394 bound_to 11000
  140.2041  134.4218  155.7647 LP  0  0  0  0  0  0  0  0  0  0  0  0  # atno 17395 bound_to 11000

$$$$
