#       Name:                AV-unprocessed.smi:2884
#       Creating user name   scv26
#       Creation time:       Fri Mar 27 15:55:36 2020


#       File generated by GOLD software.
#

@<TRIPOS>MOLECULE
AV-unprocessed.smi:2884
    47    48     1
SMALL
NO_CHARGES


@<TRIPOS>ATOM
      1 ****         0.2765  -1.1667   4.8166 C.3            1 S1                 0.0000
      2 ****        -1.0916  -0.4825   4.9318 C.3            1 S1                 0.0000
      3 ****        -2.1599  -1.1380   4.0485 C.3            1 S1                 0.0000
      4 ****        -1.7893  -0.9458   2.6872 O.3            1 S1                 0.0000
      5 ****        -2.5908  -1.5104   1.6416 C.3            1 S1                 0.0000
      6 ****        -1.8008  -1.1115   0.3698 C.3            1 S1                 0.0000
      7 ****        -0.4398  -1.6349   0.3760 N.pl3          1 S1                 0.0000
      8 ****         0.1399  -2.6170  -0.4182 C.2            1 S1                 0.0000
      9 ****         1.4991  -3.0148  -0.2778 C.2            1 S1                 0.0000
     10 ****         2.0032  -3.9587  -1.0663 N.pl3          1 S1                 1.0000
     11 ****         1.3115  -4.5749  -1.9987 N.pl3          1 S1                -1.0000
     12 ****        -0.0035  -4.2864  -2.2320 C.2            1 S1                 0.0000
     13 ****        -0.6733  -4.8473  -3.0970 O.2            1 S1                 0.0000
     14 ****        -0.6007  -3.2432  -1.3779 C.2            1 S1                 0.0000
     15 ****        -2.2635  -2.8242  -1.6292 Cl             1 S1                 0.0000
     16 ****        -2.7425  -3.0523   1.7732 C.3            1 S1                 0.0000
     17 ****        -3.6501  -3.6481   0.6822 C.3            1 S1                 0.0000
     18 ****        -5.0322  -2.9763   0.6841 C.3            1 S1                 0.0000
     19 ****        -4.9181  -1.4500   0.5439 C.3            1 S1                 0.0000
     20 ****        -3.9963  -0.8536   1.6245 C.3            1 S1                 0.0000
     21 ****         2.9951  -4.1947  -0.9072 H              1 S1                 0.0000
     22 ****         1.0056  -0.6898   5.4717 H              1 S1                 0.0000
     23 ****         0.6615  -1.1134   3.7977 H              1 S1                 0.0000
     24 ****         0.2155  -2.2186   5.0967 H              1 S1                 0.0000
     25 ****        -1.4178  -0.5169   5.9716 H              1 S1                 0.0000
     26 ****        -0.9983   0.5729   4.6739 H              1 S1                 0.0000
     27 ****        -2.2318  -2.1933   4.3063 H              1 S1                 0.0000
     28 ****        -3.1241  -0.6767   4.2578 H              1 S1                 0.0000
     29 ****        -2.3273  -1.4184  -0.5306 H              1 S1                 0.0000
     30 ****        -1.7299  -0.0248   0.3132 H              1 S1                 0.0000
     31 ****         0.1062  -1.3328   1.1709 H              1 S1                 0.0000
     32 ****         2.1678  -2.5840   0.4556 H              1 S1                 0.0000
     33 ****        -1.7688  -3.5424   1.7602 H              1 S1                 0.0000
     34 ****        -3.1935  -3.3083   2.7308 H              1 S1                 0.0000
     35 ****        -3.1875  -3.5379  -0.2978 H              1 S1                 0.0000
     36 ****        -3.7627  -4.7205   0.8441 H              1 S1                 0.0000
     37 ****        -5.6438  -3.3799  -0.1233 H              1 S1                 0.0000
     38 ****        -5.5509  -3.2169   1.6130 H              1 S1                 0.0000
     39 ****        -4.5500  -1.1969  -0.4504 H              1 S1                 0.0000
     40 ****        -5.9088  -1.0008   0.6196 H              1 S1                 0.0000
     41 ****        -4.4919  -0.9950   2.5840 H              1 S1                 0.0000
     42 ****        -3.9078   0.2243   1.4845 H              1 S1                 0.0000
     43 ****        -0.8693  -1.3234   2.5820 LP             1 S1                 0.0000
     44 ****        -1.7642   0.0416   2.5311 LP             1 S1                 0.0000
     45 ****         1.7607  -5.2752  -2.5534 LP             1 S1                 0.0000
     46 ****        -0.2584  -5.5530  -3.6713 LP             1 S1                 0.0000
     47 ****        -1.6330  -4.5978  -3.2262 LP             1 S1                 0.0000
@<TRIPOS>BOND
    1    1    2 1     
    2    1   22 1     
    3    1   23 1     
    4    1   24 1     
    5    2    3 1     
    6    2   25 1     
    7    2   26 1     
    8    3    4 1     
    9    3   27 1     
   10    3   28 1     
   11    4    5 1     
   12    5   20 1     
   13    5    6 1     
   14    5   16 1     
   15    6   29 1     
   16    6   30 1     
   17    6    7 1     
   18    7    8 1     
   19    7   31 1     
   20    8   14 2     
   21    8    9 1     
   22    9   32 1     
   23    9   10 2     
   24   10   11 1     
   25   10   21 1     
   26   11   12 1     
   27   12   13 2     
   28   12   14 1     
   29   14   15 1     
   30   16   17 1     
   31   16   33 1     
   32   16   34 1     
   33   17   18 1     
   34   17   35 1     
   35   17   36 1     
   36   18   19 1     
   37   18   37 1     
   38   18   38 1     
   39   19   20 1     
   40   19   39 1     
   41   19   40 1     
   42   20   41 1     
   43   20   42 1     
   44    4   43 1     
   45    4   44 1     
   46   11   45 1     
   47   13   46 1     
   48   13   47 1     
@<TRIPOS>SUBSTRUCTURE
      1 S1             1
@<TRIPOS>SET
LONE_PAIRS      STATIC     ATOMS    <user>   **** ""
5 43 44 45 46 47
DONOR_HYDROGENS      STATIC     ATOMS    <user>   **** ""
2 31 21
ATOM$BLUE        STATIC     ATOMS    COLORGROUP SYSTEM
5 43 44 45 46 47
ATOM$RED        STATIC     ATOMS    COLORGROUP SYSTEM
2 31 21
