AV-unprocessed.smi:1274|AV-procd|sdf|5341|dock3
  -GOLD-   22720 4473D 1   1.00000     0.00000
 Structure written by MMmdl.
 36 37  0  0  0  0  0  0  0  0  2 V2000
  150.3132  139.3868  158.0978 O   0  0  0  0  0  0  0  0  0  0  0  0
  151.7806  139.3227  158.1959 S   0  0  0  0  0  0  0  0  0  0  0  0
  152.3677  138.2565  159.0244 O   0  0  0  0  0  0  0  0  0  0  0  0
  152.5085  139.5204  156.7626 N   0  5  0  0  0  0  0  0  0  0  0  0
  151.7155  139.4706  155.5469 C   0  0  0  0  0  0  0  0  0  0  0  0
  150.8020  140.7129  155.4595 C   0  0  0  0  0  0  0  0  0  0  0  0
  149.4860  140.4829  154.7222 C   0  0  0  0  0  0  0  0  0  0  0  0
  149.1134  139.1922  154.2866 C   0  0  0  0  0  0  0  0  0  0  0  0
  147.8917  139.0283  153.6061 C   0  0  0  0  0  0  0  0  0  0  0  0
  147.0920  140.1664  153.3832 C   0  0  0  0  0  0  0  0  0  0  0  0
  147.4381  141.4080  153.7862 N   0  0  0  0  0  0  0  0  0  0  0  0
  148.6101  141.5553  154.4412 C   0  0  0  0  0  0  0  0  0  0  0  0
  152.3007  140.8194  158.9139 N   0  0  0  0  0  0  0  0  0  0  0  0
  151.3259  141.9301  158.9333 C   0  0  0  0  0  0  0  0  0  0  0  0
  152.0056  143.2767  159.2355 C   0  0  0  0  0  0  0  0  0  0  0  0
  152.8114  143.2153  160.5353 C   0  0  0  0  0  0  0  0  0  0  0  0
  153.8257  142.0726  160.4440 C   0  0  0  0  0  0  0  0  0  0  0  0
  153.1295  140.7368  160.1397 C   0  0  0  0  0  0  0  0  0  0  0  0
  152.3395  139.4293  154.6534 H   0  0  0  0  0  0  0  0  0  0  0  0
  151.0954  138.5742  155.5178 H   0  0  0  0  0  0  0  0  0  0  0  0
  150.5709  141.0562  156.4684 H   0  0  0  0  0  0  0  0  0  0  0  0
  151.3378  141.5353  154.9830 H   0  0  0  0  0  0  0  0  0  0  0  0
  149.7508  138.3411  154.4776 H   0  0  0  0  0  0  0  0  0  0  0  0
  147.5755  138.0538  153.2652 H   0  0  0  0  0  0  0  0  0  0  0  0
  146.1491  140.0774  152.8643 H   0  0  0  0  0  0  0  0  0  0  0  0
  148.8564  142.5603  154.7510 H   0  0  0  0  0  0  0  0  0  0  0  0
  150.8220  141.9983  157.9697 H   0  0  0  0  0  0  0  0  0  0  0  0
  150.5589  141.7138  159.6778 H   0  0  0  0  0  0  0  0  0  0  0  0
  152.6647  143.5450  158.4088 H   0  0  0  0  0  0  0  0  0  0  0  0
  151.2548  144.0645  159.3001 H   0  0  0  0  0  0  0  0  0  0  0  0
  153.3226  144.1626  160.7088 H   0  0  0  0  0  0  0  0  0  0  0  0
  152.1431  143.0551  161.3822 H   0  0  0  0  0  0  0  0  0  0  0  0
  154.5562  142.2889  159.6634 H   0  0  0  0  0  0  0  0  0  0  0  0
  154.3841  141.9949  161.3770 H   0  0  0  0  0  0  0  0  0  0  0  0
  152.4924  140.4447  160.9753 H   0  0  0  0  0  0  0  0  0  0  0  0
  153.8836  139.9572  160.0387 H   0  0  0  0  0  0  0  0  0  0  0  0
  1  2  2  0  0  0  0
  2  3  2  0  0  0  0
  2  4  1  0  0  0  0
  2 13  1  0  0  0  0
  4  5  1  0  0  0  0
  5  6  1  0  0  0  0
  5 19  1  0  0  0  0
  5 20  1  0  0  0  0
  6  7  1  0  0  0  0
  6 21  1  0  0  0  0
  6 22  1  0  0  0  0
  7 12  1  0  0  0  0
  7  8  2  0  0  0  0
  8  9  1  0  0  0  0
  8 23  1  0  0  0  0
  9 10  2  0  0  0  0
  9 24  1  0  0  0  0
 10 11  1  0  0  0  0
 10 25  1  0  0  0  0
 11 12  2  0  0  0  0
 12 26  1  0  0  0  0
 13 18  1  0  0  0  0
 13 14  1  0  0  0  0
 14 15  1  0  0  0  0
 14 27  1  0  0  0  0
 14 28  1  0  0  0  0
 15 16  1  0  0  0  0
 15 29  1  0  0  0  0
 15 30  1  0  0  0  0
 16 17  1  0  0  0  0
 16 31  1  0  0  0  0
 16 32  1  0  0  0  0
 17 18  1  0  0  0  0
 17 33  1  0  0  0  0
 17 34  1  0  0  0  0
 18 35  1  0  0  0  0
 18 36  1  0  0  0  0
M  CHG  1   4  -1
M  END
> <s_m_source_file>
AV-unprocessed.smi

> <i_m_source_file_index>
1274

> <i_lp_mmshare_version>
43012

> <i_f3d_flags>
0

> <s_epik_input>
W0NIMl0xW0NIMl1bQ0gyXVtDSDJdW0NIMl1OMVMoPU8pKD1PKVtOSF1bQ0gyXVtDSDJdYzJbY0hdW2NIXVtjSF1uW2NIXTI=

> <s_epik_cmdline>
J2VwaWtfcHl0aG9uJywgJy1waCcsICc3LjAnLCAnLXRuJywgJzgnLCAnLW1hJywgJzIwMCcsICctbWV0YWxfYmluZGluZycsICctaW1hZScsICc8aW5maWxlLm1hZT4nLCAnLW9tYWUnLCAnPG91dGZpbGUubWFlPic=

> <r_epik_Ionization_Penalty>
1.98317

> <r_epik_Ionization_Penalty_Charging>
1.95606

> <r_epik_Ionization_Penalty_Neutral>
0.027117

> <r_epik_State_Penalty>
2.28376

> <r_epik_Charging_Adjusted_Penalty>
4.23982

> <i_epik_Tot_Q>
-1

> <i_epik_Tot_abs_Q>
1

> <r_epik_Metal_State_Penalty>
0.598332

> <b_epik_Metal_Only>
0

> <s_lp_Force_Field>
OPLS_2005

> <r_lp_Energy>
4.69546

> <b_lp_Chiralities_Consistent>
1

> <s_lp_Variant>
AV-unprocessed.smi:1274-2

> <Gold.Version>
5.8.1

> <Gold.Id.Protein>
6NUR|6NUR_protein|mol2

> <Gold.PLP.Fitness>
46.8607

> <Gold.PLP.PLP>
-35.6937

> <Gold.PLP.part.hbond>
-1.0000

> <Gold.PLP.part.metal>
0.0000

> <Gold.PLP.part.buried>
-1.2315

> <Gold.PLP.part.nonpolar>
-32.8779

> <Gold.PLP.part.repulsive>
0.1693

> <Gold.PLP.ligand.clash>
0.0000

> <Gold.PLP.ligand.torsion>
1.2040

> <Gold.PLP.Chemscore.Hbond>
2.0000

> <Gold.PLP.Chemscore.CHOScore>
2.0000

> <Gold.PLP.Chemscore.Metal>
0.0000

> <Gold.Chemscore.Hbonds>
donor molecule, donor type, donor heavy atom, donor atom, acceptor molecule, acceptor atom, score
      P1  H  7997  8010       L1     4  2.00
      L1  C    10    25       P1 10175  1.00
      L1  C    12    26       P1  8028  1.00

> <Gold.PLP.Chemscore.Internal.Correction>
1.5749

> <Gold.Rescore>
     Score         DG    S(hbond)    S(metal)    S(lipo)     H(rot)  DE(clash)    DE(int)     intcor
     15.08     -16.47       0.95        0.00      98.73       1.45       0.22       1.16       ----

> <Gold.Chemscore.Fitness>
15.0843

> <Gold.Chemscore.DG>
-16.4656

> <Gold.Chemscore.ZeroCoef>
-5.4800

> <Gold.Chemscore.Hbond>
0.9452

> <Gold.Chemscore.Metal>
0.0000

> <Gold.Chemscore.Lipo>
98.7336

> <Gold.Chemscore.Internal_Hbond>
0.0000

> <Gold.Chemscore.DEClash>
0.2215

> <Gold.Chemscore.DEInternal>
1.1598

> <Gold.Chemscore.Rot>
1.4544

> <Gold.Chemscore.Internal.Correction>
   9.000000E+99

> <Gold.Chemscore.Hbonds>
donor molecule, donor type, donor heavy atom, donor atom, acceptor molecule, acceptor atom, score
      P1  H  7997  8010       L1     4  0.87

> <Gold.Chemscore.Hbond.Weighted>
-3.1569

> <Gold.Chemscore.Metal.Weighted>
-0.0000

> <Gold.Chemscore.Lipo.Weighted>
-11.5518

> <Gold.Chemscore.Internal_Hbond.Weighted>
0.0000

> <Gold.Chemscore.DEClash.Weighted>
0.2215

> <Gold.Chemscore.DEInternal.Weighted>
1.1598

> <Gold.Chemscore.Rot.Weighted>
3.7232

> <Gold.Chemscore.Internal.Correction.Weighted>
   9.000000E+99

> <Gold.Protein.RotatedTorsions>
[ 6907 6896 6895 6894 ] final  -17.20 input  -60.11 | X-H torsion
[ 7974 7965 7964 7962 ] final  100.33 input  175.53 | X-H torsion
[ 8008 7997 7996 7995 ] final   68.37 input   59.86 | X-H torsion
[ 10167 10162 10161 10158 ] final  167.47 input  -65.29 | X-H torsion
[ 10718 10713 10712 10709 ] final  -31.47 input   66.30 | X-H torsion
[ 10763 10752 10751 10750 ] final -113.54 input  -60.55 | X-H torsion
[ 11005 11000 10999 10996 ] final -128.19 input  -57.11 | X-H torsion

> <Gold.Protein.ActiveResidues>
 VAL166  LYS551  ARG553  GLY616  TRP617  ASP618  TYR619  PRO620  LYS621  CYS622 
 ASP623  PHE694  ASN695  SER759  ASP760  ASP761  ALA762  ILE779  LEU786  VAL792 
 PHE793  MET794  SER795  GLU796  ALA797  LYS798  CYS799  TRP800  GLU811  SER814 

> <Gold.Protein.RotatedAtoms>
  151.2970  135.0758  159.9224 H   0  0  0  0  0  0  0  0  0  0  0  0  # atno 6907 bound_to 6896
  152.5305  133.9873  159.7844 H   0  0  0  0  0  0  0  0  0  0  0  0  # atno 6908 bound_to 6896
  151.0152  133.5876  159.2708 H   0  0  0  0  0  0  0  0  0  0  0  0  # atno 6909 bound_to 6896
  145.3870  139.2369  143.3372 H   0  0  0  0  0  0  0  0  0  0  0  0  # atno 7974 bound_to 7965
  155.7072  140.3495  155.4958 H   0  0  0  0  0  0  0  0  0  0  0  0  # atno 8008 bound_to 7997
  155.9388  140.1097  157.1095 H   0  0  0  0  0  0  0  0  0  0  0  0  # atno 8009 bound_to 7997
  154.4098  140.1217  156.4886 H   0  0  0  0  0  0  0  0  0  0  0  0  # atno 8010 bound_to 7997
  139.4946  144.3918  151.9508 H   0  0  0  0  0  0  0  0  0  0  0  0  # atno 10167 bound_to 10162
  156.3869  130.4366  149.7425 H   0  0  0  0  0  0  0  0  0  0  0  0  # atno 10718 bound_to 10713
  154.8401  135.4450  154.1365 H   0  0  0  0  0  0  0  0  0  0  0  0  # atno 10763 bound_to 10752
  153.2562  135.6931  153.7633 H   0  0  0  0  0  0  0  0  0  0  0  0  # atno 10764 bound_to 10752
  153.6927  135.3384  155.3181 H   0  0  0  0  0  0  0  0  0  0  0  0  # atno 10765 bound_to 10752
  140.9536  134.1031  157.4037 H   0  0  0  0  0  0  0  0  0  0  0  0  # atno 11005 bound_to 11000
  146.2815  140.4547  142.8774 LP  0  0  0  0  0  0  0  0  0  0  0  0  # atno 17320 bound_to 7965
  144.8467  140.6939  143.6194 LP  0  0  0  0  0  0  0  0  0  0  0  0  # atno 17321 bound_to 7965
  140.3356  144.3265  150.5978 LP  0  0  0  0  0  0  0  0  0  0  0  0  # atno 17342 bound_to 10162
  140.5609  143.2192  151.7767 LP  0  0  0  0  0  0  0  0  0  0  0  0  # atno 17343 bound_to 10162
  156.4493  130.7899  151.2920 LP  0  0  0  0  0  0  0  0  0  0  0  0  # atno 17370 bound_to 10713
  157.7496  131.0100  150.3290 LP  0  0  0  0  0  0  0  0  0  0  0  0  # atno 17371 bound_to 10713
  139.8855  135.0073  156.6440 LP  0  0  0  0  0  0  0  0  0  0  0  0  # atno 17394 bound_to 11000
  140.7567  133.8852  155.8387 LP  0  0  0  0  0  0  0  0  0  0  0  0  # atno 17395 bound_to 11000

$$$$
