AV-unprocessed.smi:35|AV-procd|sdf|257|dock1
  -GOLD-   2262016 23D 1   1.00000     0.00000
 Structure written by MMmdl.
 29 30  0  0  0  0  0  0  0  0  1 V2000
  140.2792  135.2328  154.0087 O   0  0  0  0  0  0  0  0  0  0  0  0
  141.4450  135.6027  153.8876 C   0  0  0  0  0  0  0  0  0  0  0  0
  142.4959  134.7021  154.0873 N   0  0  0  0  0  0  0  0  0  0  0  0
  143.8555  135.0037  153.9801 C   0  0  0  0  0  0  0  0  0  0  0  0
  144.6949  134.1234  154.1644 O   0  0  0  0  0  0  0  0  0  0  0  0
  144.1943  136.3343  153.6459 N   0  0  0  0  0  0  0  0  0  0  0  0
  145.6463  136.7457  153.5299 C   0  0  2  0  0  0  0  0  0  0  0  0
  145.8272  137.8824  154.3150 O   0  0  0  0  0  0  0  0  0  0  0  0
  146.7109  138.7747  153.6552 C   0  0  2  0  0  0  0  0  0  0  0  0
  146.4734  140.1988  154.1820 C   0  0  0  0  0  0  0  0  0  0  0  0
  145.1611  140.3301  154.6847 O   0  0  0  0  0  0  0  0  0  0  0  0
  146.3926  138.5728  152.1686 C   0  0  1  0  0  0  0  0  0  0  0  0
  147.5174  138.8861  151.3706 O   0  0  0  0  0  0  0  0  0  0  0  0
  146.0724  137.0845  152.0820 C   0  0  2  0  0  0  0  0  0  0  0  0
  145.0789  136.8394  151.1019 O   0  0  0  0  0  0  0  0  0  0  0  0
  143.1842  137.2622  153.4321 C   0  0  0  0  0  0  0  0  0  0  0  0
  141.8710  136.9530  153.5368 C   0  0  0  0  0  0  0  0  0  0  0  0
  140.5856  138.4192  153.1875 Br  0  0  0  0  0  0  0  0  0  0  0  0
  142.2504  133.7524  154.3270 H   0  0  0  0  0  0  0  0  0  0  0  0
  146.2528  135.9492  153.9633 H   0  0  0  0  0  0  0  0  0  0  0  0
  147.7279  138.4454  153.8790 H   0  0  0  0  0  0  0  0  0  0  0  0
  147.1946  140.4560  154.9584 H   0  0  0  0  0  0  0  0  0  0  0  0
  146.5990  140.9206  153.3747 H   0  0  0  0  0  0  0  0  0  0  0  0
  144.5871  140.5621  153.9708 H   0  0  0  0  0  0  0  0  0  0  0  0
  145.5309  139.1759  151.8774 H   0  0  0  0  0  0  0  0  0  0  0  0
  148.0112  139.5682  151.7989 H   0  0  0  0  0  0  0  0  0  0  0  0
  146.9645  136.4987  151.8542 H   0  0  0  0  0  0  0  0  0  0  0  0
  144.7446  137.6707  150.8010 H   0  0  0  0  0  0  0  0  0  0  0  0
  143.4524  138.2741  153.1634 H   0  0  0  0  0  0  0  0  0  0  0  0
  1  2  2  0  0  0  0
  2 17  1  0  0  0  0
  2  3  1  0  0  0  0
  3 19  1  0  0  0  0
  3  4  1  0  0  0  0
  4  5  2  0  0  0  0
  4  6  1  0  0  0  0
  6  7  1  0  0  0  0
  6 16  1  0  0  0  0
  7 14  1  0  0  0  0
  7  8  1  0  0  0  0
  7 20  1  0  0  0  0
  8  9  1  0  0  0  0
  9 10  1  0  0  0  0
  9 12  1  0  0  0  0
  9 21  1  0  0  0  0
 10 11  1  0  0  0  0
 10 22  1  0  0  0  0
 10 23  1  0  0  0  0
 11 24  1  0  0  0  0
 12 13  1  0  0  0  0
 12 14  1  0  0  0  0
 12 25  1  0  0  0  0
 13 26  1  0  0  0  0
 14 15  1  0  0  0  0
 14 27  1  0  0  0  0
 15 28  1  0  0  0  0
 16 17  2  0  0  0  0
 16 29  1  0  0  0  0
 17 18  1  0  0  0  0
M  END
> <s_m_source_file>
AV-unprocessed.smi

> <i_m_source_file_index>
35

> <i_lp_mmshare_version>
43012

> <i_f3d_flags>
0

> <s_epik_input>
Tz1jMVtuSF1jKD1PKW4oW2NIXWMxQnIpW0NAQEhdMk9bQ0BASF0oW0NIMl1bT0hdKVtDQEBIXShbT0hdKVtDQEhdMltPSF0=

> <s_epik_cmdline>
J2VwaWtfcHl0aG9uJywgJy1waCcsICc3LjAnLCAnLXRuJywgJzgnLCAnLW1hJywgJzIwMCcsICctbWV0YWxfYmluZGluZycsICctaW1hZScsICc8aW5maWxlLm1hZT4nLCAnLW9tYWUnLCAnPG91dGZpbGUubWFlPic=

> <r_lp_tautomer_probability>
0.999537

> <r_epik_Ionization_Penalty>
0.10812

> <r_epik_Ionization_Penalty_Charging>
0.108119

> <r_epik_Ionization_Penalty_Neutral>
4.93006e-07

> <r_epik_State_Penalty>
0.0979238

> <r_epik_Charging_Adjusted_Penalty>
0.206043

> <i_epik_Tot_Q>
0

> <i_epik_Tot_abs_Q>
0

> <r_epik_Metal_State_Penalty>
3.07911

> <b_epik_Metal_Only>
0

> <s_epik_Chemistry_Notes>
This compound contains an acetal/aminal-like group ( X-CH(R)-Y where X, Y are N, S, or O) that may be acid/base labile, releasing an aldehyde.

> <s_lp_Force_Field>
OPLS_2005

> <r_lp_Energy>
32.3775

> <b_lp_Chiralities_Consistent>
1

> <s_lp_Variant>
AV-unprocessed.smi:35-11

> <Gold.Version>
5.8.1

> <Gold.Id.Protein>
6NUR|6NUR_protein|mol2

> <Gold.PLP.Fitness>
40.2843

> <Gold.PLP.PLP>
-23.1081

> <Gold.PLP.part.hbond>
-7.2167

> <Gold.PLP.part.metal>
0.0000

> <Gold.PLP.part.buried>
0.0147

> <Gold.PLP.part.nonpolar>
-17.0499

> <Gold.PLP.part.repulsive>
0.4124

> <Gold.PLP.ligand.clash>
0.0000

> <Gold.PLP.ligand.torsion>
0.5718

> <Gold.PLP.Chemscore.Hbond>
5.0445

> <Gold.PLP.Chemscore.CHOScore>
1.0000

> <Gold.PLP.Chemscore.Metal>
0.0000

> <Gold.Chemscore.Hbonds>
donor molecule, donor type, donor heavy atom, donor atom, acceptor molecule, acceptor atom, score
      L1  H     3    19       P1 10957  0.91
      L1  H    11    24       P1 10175  1.00
      L1  H    13    26       P1  7957  0.37
      L1  H    15    28       P1 10171  1.00
      P1  H  7954  7966       L1    13  0.83
      P1  H 11000 11005       L1     1  1.00
      L1  C    16    29       P1 10175  1.00

> <Gold.PLP.Chemscore.Internal.Correction>
0.1864

> <Gold.Rescore>
     Score         DG    S(hbond)    S(metal)    S(lipo)     H(rot)  DE(clash)    DE(int)     intcor
     15.47     -16.74       4.87        0.00      37.43       3.67       0.35       0.92       ----

> <Gold.Chemscore.Fitness>
15.4735

> <Gold.Chemscore.DG>
-16.7434

> <Gold.Chemscore.ZeroCoef>
-5.4800

> <Gold.Chemscore.Hbond>
4.8740

> <Gold.Chemscore.Metal>
0.0000

> <Gold.Chemscore.Lipo>
37.4337

> <Gold.Chemscore.Internal_Hbond>
0.0000

> <Gold.Chemscore.DEClash>
0.3474

> <Gold.Chemscore.DEInternal>
0.9225

> <Gold.Chemscore.Rot>
3.6701

> <Gold.Chemscore.Internal.Correction>
   9.000000E+99

> <Gold.Chemscore.Hbonds>
donor molecule, donor type, donor heavy atom, donor atom, acceptor molecule, acceptor atom, score
      L1  H     3    19       P1 10957  0.86
      L1  H    11    24       P1 10175  1.00
      L1  H    13    26       P1  7957  0.36
      L1  H    15    28       P1 10171  0.96
      P1  H  7954  7966       L1    13  0.82
      P1  H 11000 11005       L1     1  0.50

> <Gold.Chemscore.Hbond.Weighted>
-16.2791

> <Gold.Chemscore.Metal.Weighted>
-0.0000

> <Gold.Chemscore.Lipo.Weighted>
-4.3797

> <Gold.Chemscore.Internal_Hbond.Weighted>
0.0000

> <Gold.Chemscore.DEClash.Weighted>
0.3474

> <Gold.Chemscore.DEInternal.Weighted>
0.9225

> <Gold.Chemscore.Rot.Weighted>
9.3955

> <Gold.Chemscore.Internal.Correction.Weighted>
   9.000000E+99

> <Gold.Protein.RotatedTorsions>
[ 6907 6896 6895 6894 ] final   17.94 input  -60.11 | X-H torsion
[ 7974 7965 7964 7962 ] final  -89.15 input  175.53 | X-H torsion
[ 8008 7997 7996 7995 ] final -122.75 input   59.86 | X-H torsion
[ 10167 10162 10161 10158 ] final -106.76 input  -65.29 | X-H torsion
[ 10718 10713 10712 10709 ] final  151.92 input   66.30 | X-H torsion
[ 10763 10752 10751 10750 ] final   15.51 input  -60.55 | X-H torsion
[ 11005 11000 10999 10996 ] final   38.56 input  -57.11 | X-H torsion

> <Gold.Protein.ActiveResidues>
 VAL166  LYS551  ARG553  GLY616  TRP617  ASP618  TYR619  PRO620  LYS621  CYS622 
 ASP623  PHE694  ASN695  SER759  ASP760  ASP761  ALA762  ILE779  LEU786  VAL792 
 PHE793  MET794  SER795  GLU796  ALA797  LYS798  CYS799  TRP800  GLU811  SER814 

> <Gold.Protein.RotatedAtoms>
  151.8575  135.0536  160.0465 H   0  0  0  0  0  0  0  0  0  0  0  0  # atno 6907 bound_to 6896
  152.2688  133.5359  159.5435 H   0  0  0  0  0  0  0  0  0  0  0  0  # atno 6908 bound_to 6896
  150.7144  134.0642  159.3884 H   0  0  0  0  0  0  0  0  0  0  0  0  # atno 6909 bound_to 6896
  145.4436  140.9559  143.2061 H   0  0  0  0  0  0  0  0  0  0  0  0  # atno 7974 bound_to 7965
  155.1693  140.0408  157.2859 H   0  0  0  0  0  0  0  0  0  0  0  0  # atno 8008 bound_to 7997
  154.6281  140.2517  155.7440 H   0  0  0  0  0  0  0  0  0  0  0  0  # atno 8009 bound_to 7997
  156.2470  140.2881  156.0620 H   0  0  0  0  0  0  0  0  0  0  0  0  # atno 8010 bound_to 7997
  140.1843  143.3942  152.1257 H   0  0  0  0  0  0  0  0  0  0  0  0  # atno 10167 bound_to 10162
  157.2645  131.0804  151.1643 H   0  0  0  0  0  0  0  0  0  0  0  0  # atno 10718 bound_to 10713
  153.1519  135.6780  153.8870 H   0  0  0  0  0  0  0  0  0  0  0  0  # atno 10763 bound_to 10752
  153.8293  135.3120  155.3418 H   0  0  0  0  0  0  0  0  0  0  0  0  # atno 10764 bound_to 10752
  154.7868  135.4857  154.0051 H   0  0  0  0  0  0  0  0  0  0  0  0  # atno 10765 bound_to 10752
  140.2114  134.3750  155.8047 H   0  0  0  0  0  0  0  0  0  0  0  0  # atno 11005 bound_to 11000
  144.8106  139.5970  143.7031 LP  0  0  0  0  0  0  0  0  0  0  0  0  # atno 17320 bound_to 7965
  146.2543  139.6267  142.9406 LP  0  0  0  0  0  0  0  0  0  0  0  0  # atno 17321 bound_to 7965
  139.5283  144.7129  151.5149 LP  0  0  0  0  0  0  0  0  0  0  0  0  # atno 17342 bound_to 10162
  140.6499  143.8718  150.6775 LP  0  0  0  0  0  0  0  0  0  0  0  0  # atno 17343 bound_to 10162
  157.3139  130.6903  149.6231 LP  0  0  0  0  0  0  0  0  0  0  0  0  # atno 17370 bound_to 10713
  155.9663  130.4355  150.5095 LP  0  0  0  0  0  0  0  0  0  0  0  0  # atno 17371 bound_to 10713
  141.2226  133.7145  156.8425 LP  0  0  0  0  0  0  0  0  0  0  0  0  # atno 17394 bound_to 11000
  140.1946  134.8941  157.3100 LP  0  0  0  0  0  0  0  0  0  0  0  0  # atno 17395 bound_to 11000

$$$$
