AV-unprocessed.smi:2140|AV-procd|sdf|8714|dock1
  -GOLD-   2272011473D 1   1.00000     0.00000
 Structure written by MMmdl.
 39 40  0  0  0  0  0  0  0  0  1 V2000
  147.1566  140.4997  153.1641 C   0  0  0  0  0  0  0  0  0  0  0  0
  147.8503  141.7036  153.8512 C   0  0  2  0  0  0  0  0  0  0  0  0
  148.8473  141.1737  154.9209 C   0  0  0  0  0  0  0  0  0  0  0  0
  149.3367  142.2215  155.8147 N   0  0  0  0  0  0  0  0  0  0  0  0
  150.0057  142.0239  156.9600 C   0  0  0  0  0  0  0  0  0  0  0  0
  150.2979  140.9109  157.3959 O   0  0  0  0  0  0  0  0  0  0  0  0
  150.2924  143.1920  157.5598 N   0  0  0  0  0  0  0  0  0  0  0  0
  150.9960  143.4098  158.7747 C   0  0  0  0  0  0  0  0  0  0  0  0
  151.7295  142.3346  159.3167 C   0  0  0  0  0  0  0  0  0  0  0  0
  152.4217  142.5176  160.5287 C   0  0  0  0  0  0  0  0  0  0  0  0
  152.3445  143.7736  161.1608 C   0  0  0  0  0  0  0  0  0  0  0  0
  151.6343  144.8086  160.6651 N   0  0  0  0  0  0  0  0  0  0  0  0
  150.9744  144.6269  159.5005 C   0  0  0  0  0  0  0  0  0  0  0  0
  146.8833  142.6891  154.3917 N   0  0  0  0  0  0  0  0  0  0  0  0
  146.0244  143.2706  153.3531 C   0  0  0  0  0  0  0  0  0  0  0  0
  144.9953  144.2676  153.9132 C   0  0  0  0  0  0  0  0  0  0  0  0
  144.2010  143.6312  154.9042 O   0  0  0  0  0  0  0  0  0  0  0  0
  144.9887  143.1259  155.9729 C   0  0  0  0  0  0  0  0  0  0  0  0
  146.0153  142.1177  155.4283 C   0  0  0  0  0  0  0  0  0  0  0  0
  147.8691  139.7611  152.8002 H   0  0  0  0  0  0  0  0  0  0  0  0
  146.5885  140.7961  152.2838 H   0  0  0  0  0  0  0  0  0  0  0  0
  146.4786  139.9909  153.8499 H   0  0  0  0  0  0  0  0  0  0  0  0
  148.4446  142.2044  153.0851 H   0  0  0  0  0  0  0  0  0  0  0  0
  148.3705  140.4555  155.5845 H   0  0  0  0  0  0  0  0  0  0  0  0
  149.6685  140.6430  154.4364 H   0  0  0  0  0  0  0  0  0  0  0  0
  149.1427  143.1731  155.5400 H   0  0  0  0  0  0  0  0  0  0  0  0
  149.9124  144.0199  157.1251 H   0  0  0  0  0  0  0  0  0  0  0  0
  151.7675  141.3816  158.8092 H   0  0  0  0  0  0  0  0  0  0  0  0
  152.9975  141.7142  160.9639 H   0  0  0  0  0  0  0  0  0  0  0  0
  152.8628  143.9498  162.0917 H   0  0  0  0  0  0  0  0  0  0  0  0
  150.4040  145.4802  159.1684 H   0  0  0  0  0  0  0  0  0  0  0  0
  146.6180  143.8125  152.6197 H   0  0  0  0  0  0  0  0  0  0  0  0
  145.5029  142.4761  152.8172 H   0  0  0  0  0  0  0  0  0  0  0  0
  145.4934  145.1403  154.3384 H   0  0  0  0  0  0  0  0  0  0  0  0
  144.3459  144.6276  153.1153 H   0  0  0  0  0  0  0  0  0  0  0  0
  145.4888  143.9477  156.4880 H   0  0  0  0  0  0  0  0  0  0  0  0
  144.3345  142.6440  156.6997 H   0  0  0  0  0  0  0  0  0  0  0  0
  145.4915  141.2460  155.0332 H   0  0  0  0  0  0  0  0  0  0  0  0
  146.6045  141.7762  156.2774 H   0  0  0  0  0  0  0  0  0  0  0  0
  1  2  1  0  0  0  0
  1 20  1  0  0  0  0
  1 21  1  0  0  0  0
  1 22  1  0  0  0  0
  2  3  1  0  0  0  0
  2 14  1  0  0  0  0
  2 23  1  0  0  0  0
  3  4  1  0  0  0  0
  3 24  1  0  0  0  0
  3 25  1  0  0  0  0
  4  5  1  0  0  0  0
  4 26  1  0  0  0  0
  5  6  2  0  0  0  0
  5  7  1  0  0  0  0
  7  8  1  0  0  0  0
  7 27  1  0  0  0  0
  8 13  1  0  0  0  0
  8  9  2  0  0  0  0
  9 10  1  0  0  0  0
  9 28  1  0  0  0  0
 10 11  2  0  0  0  0
 10 29  1  0  0  0  0
 11 12  1  0  0  0  0
 11 30  1  0  0  0  0
 12 13  2  0  0  0  0
 13 31  1  0  0  0  0
 14 19  1  0  0  0  0
 14 15  1  0  0  0  0
 15 16  1  0  0  0  0
 15 32  1  0  0  0  0
 15 33  1  0  0  0  0
 16 17  1  0  0  0  0
 16 34  1  0  0  0  0
 16 35  1  0  0  0  0
 17 18  1  0  0  0  0
 18 19  1  0  0  0  0
 18 36  1  0  0  0  0
 18 37  1  0  0  0  0
 19 38  1  0  0  0  0
 19 39  1  0  0  0  0
M  END
> <s_m_source_file>
AV-unprocessed.smi

> <i_m_source_file_index>
2140

> <i_lp_mmshare_version>
43012

> <i_f3d_flags>
0

> <s_epik_input>
W0NIMl0xW0NIMl1PW0NIMl1bQ0gyXU4xW0NASF0oW0NIM10pW0NIMl1bTkhdQyg9TylbTkhdYzJbY0hdW2NIXVtjSF1uW2NIXTI=

> <s_epik_cmdline>
J2VwaWtfcHl0aG9uJywgJy1waCcsICc3LjAnLCAnLXRuJywgJzgnLCAnLW1hJywgJzIwMCcsICctbWV0YWxfYmluZGluZycsICctaW1hZScsICc8aW5maWxlLm1hZT4nLCAnLW9tYWUnLCAnPG91dGZpbGUubWFlPic=

> <r_epik_Ionization_Penalty>
0.270748

> <r_epik_Ionization_Penalty_Charging>
0

> <r_epik_Ionization_Penalty_Neutral>
0.270748

> <r_epik_State_Penalty>
0.268258

> <r_epik_Charging_Adjusted_Penalty>
0.268258

> <i_epik_Tot_Q>
0

> <i_epik_Tot_abs_Q>
0

> <r_epik_Metal_State_Penalty>
0.264828

> <b_epik_Metal_Only>
0

> <s_lp_Force_Field>
OPLS_2005

> <r_lp_Energy>
32.9676

> <b_lp_Chiralities_Consistent>
1

> <s_lp_Variant>
AV-unprocessed.smi:2140-1

> <Gold.Version>
5.8.1

> <Gold.Id.Protein>
6NUR|6NUR_protein|mol2

> <Gold.PLP.Fitness>
44.0453

> <Gold.PLP.PLP>
-38.6577

> <Gold.PLP.part.hbond>
-2.0000

> <Gold.PLP.part.metal>
0.0000

> <Gold.PLP.part.buried>
-7.6301

> <Gold.PLP.part.nonpolar>
-29.4783

> <Gold.PLP.part.repulsive>
0.7846

> <Gold.PLP.ligand.clash>
0.0000

> <Gold.PLP.ligand.torsion>
0.2505

> <Gold.PLP.Chemscore.Hbond>
1.9440

> <Gold.PLP.Chemscore.CHOScore>
0.0000

> <Gold.PLP.Chemscore.Metal>
0.0000

> <Gold.Chemscore.Hbonds>
donor molecule, donor type, donor heavy atom, donor atom, acceptor molecule, acceptor atom, score
      L1  H     4    26       P1  8028  1.00
      L1  H     7    27       P1  8028  0.94

> <Gold.PLP.Chemscore.Internal.Correction>
0.0566

> <Gold.Rescore>
     Score         DG    S(hbond)    S(metal)    S(lipo)     H(rot)  DE(clash)    DE(int)     intcor
     17.74     -19.51       1.90        0.00      97.83       1.47       0.12       1.64       ----

> <Gold.Chemscore.Fitness>
17.7417

> <Gold.Chemscore.DG>
-19.5069

> <Gold.Chemscore.ZeroCoef>
-5.4800

> <Gold.Chemscore.Hbond>
1.9008

> <Gold.Chemscore.Metal>
0.0000

> <Gold.Chemscore.Lipo>
97.8305

> <Gold.Chemscore.Internal_Hbond>
0.0000

> <Gold.Chemscore.DEClash>
0.1225

> <Gold.Chemscore.DEInternal>
1.6427

> <Gold.Chemscore.Rot>
1.4719

> <Gold.Chemscore.Internal.Correction>
   9.000000E+99

> <Gold.Chemscore.Hbonds>
donor molecule, donor type, donor heavy atom, donor atom, acceptor molecule, acceptor atom, score
      L1  H     4    26       P1  8028  0.96
      L1  H     7    27       P1  8028  0.75

> <Gold.Chemscore.Hbond.Weighted>
-6.3488

> <Gold.Chemscore.Metal.Weighted>
-0.0000

> <Gold.Chemscore.Lipo.Weighted>
-11.4462

> <Gold.Chemscore.Internal_Hbond.Weighted>
0.0000

> <Gold.Chemscore.DEClash.Weighted>
0.1225

> <Gold.Chemscore.DEInternal.Weighted>
1.6427

> <Gold.Chemscore.Rot.Weighted>
3.7681

> <Gold.Chemscore.Internal.Correction.Weighted>
   9.000000E+99

> <Gold.Protein.RotatedTorsions>
[ 6907 6896 6895 6894 ] final  172.27 input  -60.11 | X-H torsion
[ 7974 7965 7964 7962 ] final  134.61 input  175.53 | X-H torsion
[ 8008 7997 7996 7995 ] final  147.39 input   59.86 | X-H torsion
[ 10167 10162 10161 10158 ] final -154.48 input  -65.29 | X-H torsion
[ 10718 10713 10712 10709 ] final  -59.59 input   66.30 | X-H torsion
[ 10763 10752 10751 10750 ] final  167.00 input  -60.55 | X-H torsion
[ 11005 11000 10999 10996 ] final  -13.30 input  -57.11 | X-H torsion

> <Gold.Protein.ActiveResidues>
 VAL166  LYS551  ARG553  GLY616  TRP617  ASP618  TYR619  PRO620  LYS621  CYS622 
 ASP623  PHE694  ASN695  SER759  ASP760  ASP761  ALA762  ILE779  LEU786  VAL792 
 PHE793  MET794  SER795  GLU796  ALA797  LYS798  CYS799  TRP800  GLU811  SER814 

> <Gold.Protein.RotatedAtoms>
  151.7869  133.3355  159.3487 H   0  0  0  0  0  0  0  0  0  0  0  0  # atno 6907 bound_to 6896
  150.7406  134.5879  159.5981 H   0  0  0  0  0  0  0  0  0  0  0  0  # atno 6908 bound_to 6896
  152.3237  134.7349  160.0358 H   0  0  0  0  0  0  0  0  0  0  0  0  # atno 6909 bound_to 6896
  144.9746  139.4569  143.5416 H   0  0  0  0  0  0  0  0  0  0  0  0  # atno 7974 bound_to 7965
  156.2826  140.2157  156.5530 H   0  0  0  0  0  0  0  0  0  0  0  0  # atno 8008 bound_to 7997
  154.7275  140.0498  157.0719 H   0  0  0  0  0  0  0  0  0  0  0  0  # atno 8009 bound_to 7997
  155.0396  140.3144  155.4732 H   0  0  0  0  0  0  0  0  0  0  0  0  # atno 8010 bound_to 7997
  139.7010  143.9263  152.2428 H   0  0  0  0  0  0  0  0  0  0  0  0  # atno 10167 bound_to 10162
  156.1051  130.4181  150.0736 H   0  0  0  0  0  0  0  0  0  0  0  0  # atno 10718 bound_to 10713
  154.3473  135.2753  155.2391 H   0  0  0  0  0  0  0  0  0  0  0  0  # atno 10763 bound_to 10752
  154.4635  135.5901  153.6276 H   0  0  0  0  0  0  0  0  0  0  0  0  # atno 10764 bound_to 10752
  152.9852  135.6071  154.3680 H   0  0  0  0  0  0  0  0  0  0  0  0  # atno 10765 bound_to 10752
  140.7747  133.8411  155.9238 H   0  0  0  0  0  0  0  0  0  0  0  0  # atno 11005 bound_to 11000
  146.3392  139.8980  142.8799 LP  0  0  0  0  0  0  0  0  0  0  0  0  # atno 17320 bound_to 7965
  145.2509  141.0043  143.3882 LP  0  0  0  0  0  0  0  0  0  0  0  0  # atno 17321 bound_to 7965
  139.9105  144.6859  150.8567 LP  0  0  0  0  0  0  0  0  0  0  0  0  # atno 17342 bound_to 10162
  140.7709  143.3447  151.2136 LP  0  0  0  0  0  0  0  0  0  0  0  0  # atno 17343 bound_to 10162
  156.8714  130.9525  151.3609 LP  0  0  0  0  0  0  0  0  0  0  0  0  # atno 17370 bound_to 10713
  157.6226  130.8667  149.9135 LP  0  0  0  0  0  0  0  0  0  0  0  0  # atno 17371 bound_to 10713
  140.9540  134.1741  157.4706 LP  0  0  0  0  0  0  0  0  0  0  0  0  # atno 17394 bound_to 11000
  139.8751  134.9920  156.5576 LP  0  0  0  0  0  0  0  0  0  0  0  0  # atno 17395 bound_to 11000

$$$$
