AV-unprocessed.smi:2355|AV-procd|sdf|9385|dock6
  -GOLD-   2272013 13D 1   1.00000     0.00000
 Structure written by MMmdl.
 48 49  0  0  0  0  0  0  0  0  1 V2000
  152.1016  145.9210  160.2421 C   0  0  0  0  0  0  0  0  0  0  0  0
  151.9911  144.5290  159.6565 C   0  0  0  0  0  0  0  0  0  0  0  0
  152.7416  143.4605  160.1834 C   0  0  0  0  0  0  0  0  0  0  0  0
  152.5938  142.1899  159.5933 C   0  0  0  0  0  0  0  0  0  0  0  0
  153.3727  140.9971  160.1060 C   0  0  0  0  0  0  0  0  0  0  0  0
  151.7685  141.9531  158.5514 N   0  0  0  0  0  0  0  0  0  0  0  0
  151.0395  142.9742  158.0365 C   0  0  0  0  0  0  0  0  0  0  0  0
  150.1401  142.8295  156.9469 N   0  0  0  0  0  0  0  0  0  0  0  0
  149.4503  141.7357  156.5786 C   0  0  0  0  0  0  0  0  0  0  0  0
  149.5116  140.6363  157.1304 O   0  0  0  0  0  0  0  0  0  0  0  0
  148.6689  141.9927  155.5195 N   0  0  0  0  0  0  0  0  0  0  0  0
  147.7502  141.0474  154.8847 C   0  0  2  0  0  0  0  0  0  0  0  0
  148.2944  140.6421  153.5030 C   0  0  0  0  0  0  0  0  0  0  0  0
  146.2965  141.6168  154.8709 C   0  0  2  0  0  0  0  0  0  0  0  0
  146.2643  142.9621  154.0998 C   0  0  0  0  0  0  0  0  0  0  0  0
  145.6820  141.7191  156.2194 N   0  0  0  0  0  0  0  0  0  0  0  0
  145.8434  140.4924  157.0086 C   0  0  0  0  0  0  0  0  0  0  0  0
  145.2219  140.5969  158.4123 C   0  0  0  0  0  0  0  0  0  0  0  0
  145.7851  141.7017  159.1054 O   0  0  0  0  0  0  0  0  0  0  0  0
  145.5796  142.9248  158.4129 C   0  0  0  0  0  0  0  0  0  0  0  0
  146.2071  142.8387  157.0111 C   0  0  0  0  0  0  0  0  0  0  0  0
  151.1299  144.2800  158.5687 C   0  0  0  0  0  0  0  0  0  0  0  0
  152.7882  145.9427  161.0889 H   0  0  0  0  0  0  0  0  0  0  0  0
  151.1256  146.2645  160.5858 H   0  0  0  0  0  0  0  0  0  0  0  0
  152.4669  146.6191  159.4884 H   0  0  0  0  0  0  0  0  0  0  0  0
  153.4127  143.6103  161.0165 H   0  0  0  0  0  0  0  0  0  0  0  0
  153.9290  141.2466  161.0101 H   0  0  0  0  0  0  0  0  0  0  0  0
  154.0827  140.6574  159.3515 H   0  0  0  0  0  0  0  0  0  0  0  0
  152.6978  140.1727  160.3388 H   0  0  0  0  0  0  0  0  0  0  0  0
  149.9916  143.6604  156.3939 H   0  0  0  0  0  0  0  0  0  0  0  0
  148.6852  142.9265  155.1367 H   0  0  0  0  0  0  0  0  0  0  0  0
  147.7399  140.1100  155.4389 H   0  0  0  0  0  0  0  0  0  0  0  0
  147.5829  140.0124  152.9684 H   0  0  0  0  0  0  0  0  0  0  0  0
  149.2186  140.0727  153.6078 H   0  0  0  0  0  0  0  0  0  0  0  0
  148.5239  141.5034  152.8762 H   0  0  0  0  0  0  0  0  0  0  0  0
  145.6973  140.9130  154.2910 H   0  0  0  0  0  0  0  0  0  0  0  0
  146.7406  142.8918  153.1239 H   0  0  0  0  0  0  0  0  0  0  0  0
  146.7640  143.7559  154.6558 H   0  0  0  0  0  0  0  0  0  0  0  0
  145.2486  143.2913  153.8868 H   0  0  0  0  0  0  0  0  0  0  0  0
  145.3651  139.6499  156.5131 H   0  0  0  0  0  0  0  0  0  0  0  0
  146.9029  140.2480  157.0993 H   0  0  0  0  0  0  0  0  0  0  0  0
  144.1387  140.7100  158.3480 H   0  0  0  0  0  0  0  0  0  0  0  0
  145.4151  139.6864  158.9797 H   0  0  0  0  0  0  0  0  0  0  0  0
  144.5120  143.1399  158.3451 H   0  0  0  0  0  0  0  0  0  0  0  0
  146.0336  143.7365  158.9816 H   0  0  0  0  0  0  0  0  0  0  0  0
  147.2911  142.7538  157.1013 H   0  0  0  0  0  0  0  0  0  0  0  0
  146.0012  143.7886  156.5221 H   0  0  0  0  0  0  0  0  0  0  0  0
  150.5441  145.0854  158.1493 H   0  0  0  0  0  0  0  0  0  0  0  0
  1  2  1  0  0  0  0
  1 23  1  0  0  0  0
  1 24  1  0  0  0  0
  1 25  1  0  0  0  0
  2 22  1  0  0  0  0
  2  3  2  0  0  0  0
  3  4  1  0  0  0  0
  3 26  1  0  0  0  0
  4  5  1  0  0  0  0
  4  6  2  0  0  0  0
  5 27  1  0  0  0  0
  5 28  1  0  0  0  0
  5 29  1  0  0  0  0
  6  7  1  0  0  0  0
  7  8  1  0  0  0  0
  7 22  2  0  0  0  0
  8  9  1  0  0  0  0
  8 30  1  0  0  0  0
  9 10  2  0  0  0  0
  9 11  1  0  0  0  0
 11 12  1  0  0  0  0
 11 31  1  0  0  0  0
 12 13  1  0  0  0  0
 12 14  1  0  0  0  0
 12 32  1  0  0  0  0
 13 33  1  0  0  0  0
 13 34  1  0  0  0  0
 13 35  1  0  0  0  0
 14 15  1  0  0  0  0
 14 16  1  0  0  0  0
 14 36  1  0  0  0  0
 15 37  1  0  0  0  0
 15 38  1  0  0  0  0
 15 39  1  0  0  0  0
 16 21  1  0  0  0  0
 16 17  1  0  0  0  0
 17 18  1  0  0  0  0
 17 40  1  0  0  0  0
 17 41  1  0  0  0  0
 18 19  1  0  0  0  0
 18 42  1  0  0  0  0
 18 43  1  0  0  0  0
 19 20  1  0  0  0  0
 20 21  1  0  0  0  0
 20 44  1  0  0  0  0
 20 45  1  0  0  0  0
 21 46  1  0  0  0  0
 21 47  1  0  0  0  0
 22 48  1  0  0  0  0
M  END
> <s_m_source_file>
AV-unprocessed.smi

> <i_m_source_file_index>
2355

> <i_lp_mmshare_version>
43012

> <i_f3d_flags>
0

> <s_epik_input>
W0NIM11jMVtjSF1jKFtDSDNdKW5jKFtjSF0xKVtOSF1DKD1PKVtOSF1bQ0BIXShbQ0gzXSlbQ0BIXShbQ0gzXSlOMltDSDJdW0NIMl1PW0NIMl1bQ0gyXTI=

> <s_epik_cmdline>
J2VwaWtfcHl0aG9uJywgJy1waCcsICc3LjAnLCAnLXRuJywgJzgnLCAnLW1hJywgJzIwMCcsICctbWV0YWxfYmluZGluZycsICctaW1hZScsICc8aW5maWxlLm1hZT4nLCAnLW9tYWUnLCAnPG91dGZpbGUubWFlPic=

> <r_epik_Ionization_Penalty>
0.266238

> <r_epik_Ionization_Penalty_Charging>
0

> <r_epik_Ionization_Penalty_Neutral>
0.266238

> <r_epik_State_Penalty>
0.257924

> <r_epik_Charging_Adjusted_Penalty>
0.257924

> <i_epik_Tot_Q>
0

> <i_epik_Tot_abs_Q>
0

> <r_epik_Metal_State_Penalty>
0.257904

> <b_epik_Metal_Only>
0

> <s_lp_Force_Field>
OPLS_2005

> <r_lp_Energy>
36.7742

> <b_lp_Chiralities_Consistent>
1

> <s_lp_Variant>
AV-unprocessed.smi:2355-1

> <Gold.Version>
5.8.1

> <Gold.Id.Protein>
6NUR|6NUR_protein|mol2

> <Gold.PLP.Fitness>
46.7866

> <Gold.PLP.PLP>
-39.1222

> <Gold.PLP.part.hbond>
-3.0000

> <Gold.PLP.part.metal>
0.0000

> <Gold.PLP.part.buried>
-3.5375

> <Gold.PLP.part.nonpolar>
-34.2504

> <Gold.PLP.part.repulsive>
0.2261

> <Gold.PLP.ligand.clash>
0.0000

> <Gold.PLP.ligand.torsion>
0.4141

> <Gold.PLP.Chemscore.Hbond>
2.7920

> <Gold.PLP.Chemscore.CHOScore>
0.0000

> <Gold.PLP.Chemscore.Metal>
0.0000

> <Gold.Chemscore.Hbonds>
donor molecule, donor type, donor heavy atom, donor atom, acceptor molecule, acceptor atom, score
      L1  H     8    30       P1  8028  0.98
      L1  H    11    31       P1  8028  0.85
      P1  H  6934  6946       L1    19  0.73

> <Gold.PLP.Chemscore.Internal.Correction>
0.1166

> <Gold.Rescore>
     Score         DG    S(hbond)    S(metal)    S(lipo)     H(rot)  DE(clash)    DE(int)     intcor
     18.33     -21.48       2.56        0.00      94.27       1.40       1.40       1.75       ----

> <Gold.Chemscore.Fitness>
18.3270

> <Gold.Chemscore.DG>
-21.4791

> <Gold.Chemscore.ZeroCoef>
-5.4800

> <Gold.Chemscore.Hbond>
2.5621

> <Gold.Chemscore.Metal>
0.0000

> <Gold.Chemscore.Lipo>
94.2678

> <Gold.Chemscore.Internal_Hbond>
0.0000

> <Gold.Chemscore.DEClash>
1.4015

> <Gold.Chemscore.DEInternal>
1.7506

> <Gold.Chemscore.Rot>
1.4015

> <Gold.Chemscore.Internal.Correction>
   9.000000E+99

> <Gold.Chemscore.Hbonds>
donor molecule, donor type, donor heavy atom, donor atom, acceptor molecule, acceptor atom, score
      L1  H     8    30       P1  8028  0.93
      L1  H    11    31       P1  8028  0.83
      P1  H  6934  6946       L1    19  0.35

> <Gold.Chemscore.Hbond.Weighted>
-8.5576

> <Gold.Chemscore.Metal.Weighted>
-0.0000

> <Gold.Chemscore.Lipo.Weighted>
-11.0293

> <Gold.Chemscore.Internal_Hbond.Weighted>
0.0000

> <Gold.Chemscore.DEClash.Weighted>
1.4015

> <Gold.Chemscore.DEInternal.Weighted>
1.7506

> <Gold.Chemscore.Rot.Weighted>
3.5878

> <Gold.Chemscore.Internal.Correction.Weighted>
   9.000000E+99

> <Gold.Protein.RotatedTorsions>
[ 6907 6896 6895 6894 ] final  -28.55 input  -60.11 | X-H torsion
[ 7974 7965 7964 7962 ] final  -69.92 input  175.53 | X-H torsion
[ 8008 7997 7996 7995 ] final  110.42 input   59.86 | X-H torsion
[ 10167 10162 10161 10158 ] final  -79.27 input  -65.29 | X-H torsion
[ 10718 10713 10712 10709 ] final   25.43 input   66.30 | X-H torsion
[ 10763 10752 10751 10750 ] final   53.40 input  -60.55 | X-H torsion
[ 11005 11000 10999 10996 ] final -106.96 input  -57.11 | X-H torsion

> <Gold.Protein.ActiveResidues>
 VAL166  LYS551  ARG553  GLY616  TRP617  ASP618  TYR619  PRO620  LYS621  CYS622 
 ASP623  PHE694  ASN695  SER759  ASP760  ASP761  ALA762  ILE779  LEU786  VAL792 
 PHE793  MET794  SER795  GLU796  ALA797  LYS798  CYS799  TRP800  GLU811  SER814 

> <Gold.Protein.RotatedAtoms>
  151.1314  135.0132  159.8583 H   0  0  0  0  0  0  0  0  0  0  0  0  # atno 6907 bound_to 6896
  152.5451  134.1606  159.8566 H   0  0  0  0  0  0  0  0  0  0  0  0  # atno 6908 bound_to 6896
  151.1673  133.4761  159.2627 H   0  0  0  0  0  0  0  0  0  0  0  0  # atno 6909 bound_to 6896
  145.6975  140.9129  143.0748 H   0  0  0  0  0  0  0  0  0  0  0  0  # atno 7974 bound_to 7965
  156.2052  140.3039  155.9611 H   0  0  0  0  0  0  0  0  0  0  0  0  # atno 8008 bound_to 7997
  155.2859  140.0440  157.3036 H   0  0  0  0  0  0  0  0  0  0  0  0  # atno 8009 bound_to 7997
  154.5623  140.2324  155.8325 H   0  0  0  0  0  0  0  0  0  0  0  0  # atno 8010 bound_to 7997
  140.4608  143.2454  151.8351 H   0  0  0  0  0  0  0  0  0  0  0  0  # atno 10167 bound_to 10162
  157.1932  130.6855  149.6158 H   0  0  0  0  0  0  0  0  0  0  0  0  # atno 10718 bound_to 10713
  152.9795  135.5780  154.4736 H   0  0  0  0  0  0  0  0  0  0  0  0  # atno 10763 bound_to 10752
  154.4295  135.2773  155.1924 H   0  0  0  0  0  0  0  0  0  0  0  0  # atno 10764 bound_to 10752
  154.3638  135.6183  153.5758 H   0  0  0  0  0  0  0  0  0  0  0  0  # atno 10765 bound_to 10752
  141.0978  133.8939  157.1918 H   0  0  0  0  0  0  0  0  0  0  0  0  # atno 11005 bound_to 11000
  144.6978  139.8904  143.7452 LP  0  0  0  0  0  0  0  0  0  0  0  0  # atno 17320 bound_to 7965
  146.0827  139.3815  143.0454 LP  0  0  0  0  0  0  0  0  0  0  0  0  # atno 17321 bound_to 7965
  139.4806  144.5009  151.9061 LP  0  0  0  0  0  0  0  0  0  0  0  0  # atno 17342 bound_to 10162
  140.4095  144.2388  150.5889 LP  0  0  0  0  0  0  0  0  0  0  0  0  # atno 17343 bound_to 10162
  155.9709  130.4607  150.6084 LP  0  0  0  0  0  0  0  0  0  0  0  0  # atno 17370 bound_to 10713
  157.3840  131.0785  151.1452 LP  0  0  0  0  0  0  0  0  0  0  0  0  # atno 17371 bound_to 10713
  139.9820  135.0095  156.9773 LP  0  0  0  0  0  0  0  0  0  0  0  0  # atno 17394 bound_to 11000
  140.5096  134.1015  155.7267 LP  0  0  0  0  0  0  0  0  0  0  0  0  # atno 17395 bound_to 11000

$$$$
