AV-unprocessed.smi:2844|AV-procd|sdf|10940|dock3
  -GOLD-   2272015383D 1   1.00000     0.00000
 Structure written by MMmdl.
 38 40  0  0  0  0  0  0  0  0  1 V2000
  152.5006  143.8985  161.6762 C   0  0  0  0  0  0  0  0  0  0  0  0
  152.2607  143.0352  160.4502 C   0  0  0  0  0  0  0  0  0  0  0  0
  152.7796  141.7212  160.4234 C   0  0  0  0  0  0  0  0  0  0  0  0
  152.5773  140.8853  159.3034 C   0  0  0  0  0  0  0  0  0  0  0  0
  152.9866  139.5841  159.0672 N   0  0  0  0  0  0  0  0  0  0  0  0
  152.4901  139.3635  157.8534 C   0  0  0  0  0  0  0  0  0  0  0  0
  151.8074  140.3698  157.2740 N   0  0  0  0  0  0  0  0  0  0  0  0
  151.1786  140.3657  155.9654 C   0  0  0  0  0  0  0  0  0  0  0  0
  149.9973  141.3506  155.8768 C   0  0  1  0  0  0  0  0  0  0  0  0
  150.4333  142.5683  155.2997 O   0  0  0  0  0  0  0  0  0  0  0  0
  148.8277  140.7727  155.0566 C   0  0  0  0  0  0  0  0  0  0  0  0
  147.7171  141.7001  154.9308 N   0  0  0  0  0  0  0  0  0  0  0  0
  147.3047  142.3913  153.8078 C   0  0  0  0  0  0  0  0  0  0  0  0
  146.2270  143.1209  154.2070 C   0  0  0  0  0  0  0  0  0  0  0  0
  145.2853  144.1886  153.2332 Cl  0  0  0  0  0  0  0  0  0  0  0  0
  146.0315  142.8285  155.5807 C   0  0  0  0  0  0  0  0  0  0  0  0
  146.9377  141.9626  156.0111 N   0  0  0  0  0  0  0  0  0  0  0  0
  151.8372  141.4051  158.2015 C   0  0  0  0  0  0  0  0  0  0  0  0
  151.3174  142.7115  158.2152 C   0  0  0  0  0  0  0  0  0  0  0  0
  151.5269  143.5325  159.3431 C   0  0  0  0  0  0  0  0  0  0  0  0
  150.9592  144.9408  159.3507 C   0  0  0  0  0  0  0  0  0  0  0  0
  153.0518  143.3550  162.4442 H   0  0  0  0  0  0  0  0  0  0  0  0
  151.5534  144.2196  162.1098 H   0  0  0  0  0  0  0  0  0  0  0  0
  153.0795  144.7836  161.4120 H   0  0  0  0  0  0  0  0  0  0  0  0
  153.3391  141.3423  161.2661 H   0  0  0  0  0  0  0  0  0  0  0  0
  152.6326  138.4159  157.3546 H   0  0  0  0  0  0  0  0  0  0  0  0
  151.9330  140.6018  155.2135 H   0  0  0  0  0  0  0  0  0  0  0  0
  150.8383  139.3508  155.7568 H   0  0  0  0  0  0  0  0  0  0  0  0
  149.6461  141.5711  156.8858 H   0  0  0  0  0  0  0  0  0  0  0  0
  150.0042  143.2835  155.7435 H   0  0  0  0  0  0  0  0  0  0  0  0
  149.1647  140.4981  154.0560 H   0  0  0  0  0  0  0  0  0  0  0  0
  148.4572  139.8582  155.5220 H   0  0  0  0  0  0  0  0  0  0  0  0
  147.8014  142.3069  152.8526 H   0  0  0  0  0  0  0  0  0  0  0  0
  145.2821  143.2036  156.2621 H   0  0  0  0  0  0  0  0  0  0  0  0
  150.7617  143.0773  157.3643 H   0  0  0  0  0  0  0  0  0  0  0  0
  150.4367  145.1645  158.4202 H   0  0  0  0  0  0  0  0  0  0  0  0
  151.7565  145.6745  159.4712 H   0  0  0  0  0  0  0  0  0  0  0  0
  150.2499  145.0615  160.1698 H   0  0  0  0  0  0  0  0  0  0  0  0
  1  2  1  0  0  0  0
  1 22  1  0  0  0  0
  1 23  1  0  0  0  0
  1 24  1  0  0  0  0
  2 20  1  0  0  0  0
  2  3  2  0  0  0  0
  3  4  1  0  0  0  0
  3 25  1  0  0  0  0
  4 18  2  0  0  0  0
  4  5  1  0  0  0  0
  5  6  2  0  0  0  0
  6  7  1  0  0  0  0
  6 26  1  0  0  0  0
  7  8  1  0  0  0  0
  7 18  1  0  0  0  0
  8  9  1  0  0  0  0
  8 27  1  0  0  0  0
  8 28  1  0  0  0  0
  9 10  1  0  0  0  0
  9 11  1  0  0  0  0
  9 29  1  0  0  0  0
 10 30  1  0  0  0  0
 11 12  1  0  0  0  0
 11 31  1  0  0  0  0
 11 32  1  0  0  0  0
 12 17  1  0  0  0  0
 12 13  1  0  0  0  0
 13 14  2  0  0  0  0
 13 33  1  0  0  0  0
 14 15  1  0  0  0  0
 14 16  1  0  0  0  0
 16 17  2  0  0  0  0
 16 34  1  0  0  0  0
 18 19  1  0  0  0  0
 19 20  2  0  0  0  0
 19 35  1  0  0  0  0
 20 21  1  0  0  0  0
 21 36  1  0  0  0  0
 21 37  1  0  0  0  0
 21 38  1  0  0  0  0
M  END
> <s_m_source_file>
AV-unprocessed.smi

> <i_m_source_file_index>
2844

> <i_lp_mmshare_version>
43012

> <i_f3d_flags>
0

> <s_epik_input>
W0NIM11jKFtjSF0xKWMoW0NIM10pW2NIXWMoYzEyKW4oW2NIXW4yKVtDSDJdW0NASF0oW09IXSlbQ0gyXW4zW2NIXWMoQ2wpW2NIXW4z

> <s_epik_cmdline>
J2VwaWtfcHl0aG9uJywgJy1waCcsICc3LjAnLCAnLXRuJywgJzgnLCAnLW1hJywgJzIwMCcsICctbWV0YWxfYmluZGluZycsICctaW1hZScsICc8aW5maWxlLm1hZT4nLCAnLW9tYWUnLCAnPG91dGZpbGUubWFlPic=

> <r_lp_tautomer_probability>
1

> <r_epik_Ionization_Penalty>
0.1021

> <r_epik_Ionization_Penalty_Charging>
0

> <r_epik_Ionization_Penalty_Neutral>
0.1021

> <r_epik_State_Penalty>
0.0920694

> <r_epik_Charging_Adjusted_Penalty>
0.0920694

> <i_epik_Tot_Q>
0

> <i_epik_Tot_abs_Q>
0

> <r_epik_Metal_State_Penalty>
0.0784292

> <b_epik_Metal_Only>
0

> <s_lp_Force_Field>
OPLS_2005

> <r_lp_Energy>
10.226

> <b_lp_Chiralities_Consistent>
1

> <s_lp_Variant>
AV-unprocessed.smi:2844-2

> <Gold.Version>
5.8.1

> <Gold.Id.Protein>
6NUR|6NUR_protein|mol2

> <Gold.PLP.Fitness>
46.9697

> <Gold.PLP.PLP>
-46.0324

> <Gold.PLP.part.hbond>
-1.9320

> <Gold.PLP.part.metal>
0.0000

> <Gold.PLP.part.buried>
-2.4423

> <Gold.PLP.part.nonpolar>
-41.6409

> <Gold.PLP.part.repulsive>
0.1259

> <Gold.PLP.ligand.clash>
0.0000

> <Gold.PLP.ligand.torsion>
1.0117

> <Gold.PLP.Chemscore.Hbond>
0.9760

> <Gold.PLP.Chemscore.CHOScore>
0.0000

> <Gold.PLP.Chemscore.Metal>
0.0000

> <Gold.Chemscore.Hbonds>
donor molecule, donor type, donor heavy atom, donor atom, acceptor molecule, acceptor atom, score
      L1  H    10    30       P1  8028  0.96

> <Gold.PLP.Chemscore.Internal.Correction>
0.0328

> <Gold.Rescore>
     Score         DG    S(hbond)    S(metal)    S(lipo)     H(rot)  DE(clash)    DE(int)     intcor
     14.48     -16.78       0.86        0.00     119.13       2.15       0.16       2.15       ----

> <Gold.Chemscore.Fitness>
14.4776

> <Gold.Chemscore.DG>
-16.7846

> <Gold.Chemscore.ZeroCoef>
-5.4800

> <Gold.Chemscore.Hbond>
0.8621

> <Gold.Chemscore.Metal>
0.0000

> <Gold.Chemscore.Lipo>
119.1281

> <Gold.Chemscore.Internal_Hbond>
0.0000

> <Gold.Chemscore.DEClash>
0.1552

> <Gold.Chemscore.DEInternal>
2.1519

> <Gold.Chemscore.Rot>
2.1534

> <Gold.Chemscore.Internal.Correction>
   9.000000E+99

> <Gold.Chemscore.Hbonds>
donor molecule, donor type, donor heavy atom, donor atom, acceptor molecule, acceptor atom, score
      L1  H    10    30       P1  8028  0.92

> <Gold.Chemscore.Hbond.Weighted>
-2.8794

> <Gold.Chemscore.Metal.Weighted>
-0.0000

> <Gold.Chemscore.Lipo.Weighted>
-13.9380

> <Gold.Chemscore.Internal_Hbond.Weighted>
0.0000

> <Gold.Chemscore.DEClash.Weighted>
0.1552

> <Gold.Chemscore.DEInternal.Weighted>
2.1519

> <Gold.Chemscore.Rot.Weighted>
5.5127

> <Gold.Chemscore.Internal.Correction.Weighted>
   9.000000E+99

> <Gold.Protein.RotatedTorsions>
[ 6907 6896 6895 6894 ] final  -27.05 input  -60.11 | X-H torsion
[ 7974 7965 7964 7962 ] final   72.97 input  175.53 | X-H torsion
[ 8008 7997 7996 7995 ] final  -63.41 input   59.86 | X-H torsion
[ 10167 10162 10161 10158 ] final  -41.09 input  -65.29 | X-H torsion
[ 10718 10713 10712 10709 ] final  -57.54 input   66.30 | X-H torsion
[ 10763 10752 10751 10750 ] final  141.06 input  -60.55 | X-H torsion
[ 11005 11000 10999 10996 ] final  151.11 input  -57.11 | X-H torsion

> <Gold.Protein.ActiveResidues>
 VAL166  LYS551  ARG553  GLY616  TRP617  ASP618  TYR619  PRO620  LYS621  CYS622 
 ASP623  PHE694  ASN695  SER759  ASP760  ASP761  ALA762  ILE779  LEU786  VAL792 
 PHE793  MET794  SER795  GLU796  ALA797  LYS798  CYS799  TRP800  GLU811  SER814 

> <Gold.Protein.RotatedAtoms>
  151.1523  135.0233  159.8673 H   0  0  0  0  0  0  0  0  0  0  0  0  # atno 6907 bound_to 6896
  152.5452  134.1374  159.8475 H   0  0  0  0  0  0  0  0  0  0  0  0  # atno 6908 bound_to 6896
  151.1461  133.4893  159.2628 H   0  0  0  0  0  0  0  0  0  0  0  0  # atno 6909 bound_to 6896
  145.7467  139.2743  143.1455 H   0  0  0  0  0  0  0  0  0  0  0  0  # atno 7974 bound_to 7965
  154.4553  140.0975  156.6738 H   0  0  0  0  0  0  0  0  0  0  0  0  # atno 8008 bound_to 7997
  155.5158  140.3477  155.4378 H   0  0  0  0  0  0  0  0  0  0  0  0  # atno 8009 bound_to 7997
  156.0764  140.1362  156.9754 H   0  0  0  0  0  0  0  0  0  0  0  0  # atno 8010 bound_to 7997
  140.7014  143.3115  151.3016 H   0  0  0  0  0  0  0  0  0  0  0  0  # atno 10167 bound_to 10162
  156.1202  130.4167  150.0455 H   0  0  0  0  0  0  0  0  0  0  0  0  # atno 10718 bound_to 10713
  153.9331  135.2988  155.3445 H   0  0  0  0  0  0  0  0  0  0  0  0  # atno 10763 bound_to 10752
  154.7516  135.4977  153.9303 H   0  0  0  0  0  0  0  0  0  0  0  0  # atno 10764 bound_to 10752
  153.1081  135.6752  153.9654 H   0  0  0  0  0  0  0  0  0  0  0  0  # atno 10765 bound_to 10752
  140.1190  134.8876  157.2044 H   0  0  0  0  0  0  0  0  0  0  0  0  # atno 11005 bound_to 11000
  146.0396  140.8178  142.9835 LP  0  0  0  0  0  0  0  0  0  0  0  0  # atno 17320 bound_to 7965
  144.6858  140.2890  143.7281 LP  0  0  0  0  0  0  0  0  0  0  0  0  # atno 17321 bound_to 7965
  139.6539  144.0311  152.2646 LP  0  0  0  0  0  0  0  0  0  0  0  0  # atno 17342 bound_to 10162
  139.9856  144.6397  150.7860 LP  0  0  0  0  0  0  0  0  0  0  0  0  # atno 17343 bound_to 10162
  156.8395  130.9421  151.3632 LP  0  0  0  0  0  0  0  0  0  0  0  0  # atno 17370 bound_to 10713
  157.6386  130.8787  149.9405 LP  0  0  0  0  0  0  0  0  0  0  0  0  # atno 17371 bound_to 10713
  140.2991  134.3153  155.7294 LP  0  0  0  0  0  0  0  0  0  0  0  0  # atno 17394 bound_to 11000
  141.2147  133.7581  156.9614 LP  0  0  0  0  0  0  0  0  0  0  0  0  # atno 17395 bound_to 11000

$$$$
