AV-unprocessed.smi:1762|AV-procd|sdf|7116|dock3
  -GOLD-   22720 8343D 1   1.00000     0.00000
 Structure written by MMmdl.
 53 54  0  0  0  0  0  0  0  0  2 V2000
  148.7626  134.1684  154.8253 C   0  0  0  0  0  0  0  0  0  0  0  0
  148.0865  135.0679  155.8759 C   0  0  1  0  0  0  0  0  0  0  0  0
  148.4418  136.5609  155.7254 C   0  0  0  0  0  0  0  0  0  0  0  0
  147.7559  137.1748  154.5540 N   0  3  2  0  0  0  0  0  0  0  0  0
  148.0943  138.6167  154.2939 C   0  0  2  0  0  0  0  0  0  0  0  0
  148.3698  139.3663  155.6155 C   0  0  0  0  0  0  0  0  0  0  0  0
  147.4811  139.4777  156.4611 O   0  0  0  0  0  0  0  0  0  0  0  0
  149.6019  139.8701  155.7796 N   0  0  0  0  0  0  0  0  0  0  0  0
  150.0396  140.6001  156.9613 C   0  0  0  0  0  0  0  0  0  0  0  0
  150.9482  141.7731  156.5687 C   0  0  0  0  0  0  0  0  0  0  0  0
  151.5599  142.4549  157.7782 C   0  0  0  0  0  0  0  0  0  0  0  0
  152.0215  141.6975  158.8759 C   0  0  0  0  0  0  0  0  0  0  0  0
  152.5886  142.3792  159.9700 C   0  0  0  0  0  0  0  0  0  0  0  0
  152.6719  143.7842  159.9248 C   0  0  0  0  0  0  0  0  0  0  0  0
  152.1829  144.4481  158.7820 C   0  0  0  0  0  0  0  0  0  0  0  0
  151.6376  143.8040  157.7272 N   0  0  0  0  0  0  0  0  0  0  0  0
  147.0309  139.3844  153.4370 C   0  0  0  0  0  0  0  0  0  0  0  0
  146.7631  138.7271  152.0685 C   0  0  0  0  0  0  0  0  0  0  0  0
  147.3375  140.8857  153.2520 C   0  0  0  0  0  0  0  0  0  0  0  0
  146.2902  136.9328  154.6771 C   0  0  0  0  0  0  0  0  0  0  0  0
  145.9854  135.4295  154.7853 C   0  0  2  0  0  0  0  0  0  0  0  0
  144.4889  135.1604  154.9781 C   0  0  0  0  0  0  0  0  0  0  0  0
  146.6727  134.8914  155.9086 O   0  0  0  0  0  0  0  0  0  0  0  0
  149.8479  134.2140  154.9193 H   0  0  0  0  0  0  0  0  0  0  0  0
  148.5153  134.4628  153.8056 H   0  0  0  0  0  0  0  0  0  0  0  0
  148.4655  133.1274  154.9554 H   0  0  0  0  0  0  0  0  0  0  0  0
  148.4507  134.7384  156.8496 H   0  0  0  0  0  0  0  0  0  0  0  0
  148.1554  137.1028  156.6283 H   0  0  0  0  0  0  0  0  0  0  0  0
  149.5248  136.6283  155.6459 H   0  0  0  0  0  0  0  0  0  0  0  0
  149.0217  138.6114  153.7174 H   0  0  0  0  0  0  0  0  0  0  0  0
  150.2790  139.7412  155.0414 H   0  0  0  0  0  0  0  0  0  0  0  0
  149.1646  140.9661  157.5007 H   0  0  0  0  0  0  0  0  0  0  0  0
  150.5736  139.9244  157.6316 H   0  0  0  0  0  0  0  0  0  0  0  0
  151.7512  141.4228  155.9182 H   0  0  0  0  0  0  0  0  0  0  0  0
  150.3835  142.5066  155.9914 H   0  0  0  0  0  0  0  0  0  0  0  0
  151.9460  140.6199  158.8810 H   0  0  0  0  0  0  0  0  0  0  0  0
  152.9538  141.8344  160.8281 H   0  0  0  0  0  0  0  0  0  0  0  0
  153.1014  144.3397  160.7453 H   0  0  0  0  0  0  0  0  0  0  0  0
  152.2319  145.5248  158.7133 H   0  0  0  0  0  0  0  0  0  0  0  0
  146.0731  139.3086  153.9500 H   0  0  0  0  0  0  0  0  0  0  0  0
  147.6147  138.8188  151.3938 H   0  0  0  0  0  0  0  0  0  0  0  0
  145.9103  139.1936  151.5743 H   0  0  0  0  0  0  0  0  0  0  0  0
  146.5348  137.6666  152.1781 H   0  0  0  0  0  0  0  0  0  0  0  0
  148.2212  141.0436  152.6336 H   0  0  0  0  0  0  0  0  0  0  0  0
  147.5078  141.3906  154.2026 H   0  0  0  0  0  0  0  0  0  0  0  0
  146.5063  141.3931  152.7615 H   0  0  0  0  0  0  0  0  0  0  0  0
  145.9093  137.4585  155.5544 H   0  0  0  0  0  0  0  0  0  0  0  0
  145.7464  137.3255  153.8184 H   0  0  0  0  0  0  0  0  0  0  0  0
  146.3044  134.9227  153.8743 H   0  0  0  0  0  0  0  0  0  0  0  0
  143.9089  135.5452  154.1388 H   0  0  0  0  0  0  0  0  0  0  0  0
  144.1160  135.6329  155.8874 H   0  0  0  0  0  0  0  0  0  0  0  0
  144.2920  134.0907  155.0541 H   0  0  0  0  0  0  0  0  0  0  0  0
  148.0688  136.6655  153.7393 H   0  0  0  0  0  0  0  0  0  0  0  0
  1  2  1  0  0  0  0
  1 24  1  0  0  0  0
  1 25  1  0  0  0  0
  1 26  1  0  0  0  0
  2 23  1  0  0  0  0
  2  3  1  0  0  0  0
  2 27  1  0  0  0  0
  3  4  1  0  0  0  0
  3 28  1  0  0  0  0
  3 29  1  0  0  0  0
  4  5  1  0  0  0  0
  4 20  1  0  0  0  0
  4 53  1  0  0  0  0
  5  6  1  0  0  0  0
  5 17  1  0  0  0  0
  5 30  1  0  0  0  0
  6  7  2  0  0  0  0
  6  8  1  0  0  0  0
  8  9  1  0  0  0  0
  8 31  1  0  0  0  0
  9 10  1  0  0  0  0
  9 32  1  0  0  0  0
  9 33  1  0  0  0  0
 10 11  1  0  0  0  0
 10 34  1  0  0  0  0
 10 35  1  0  0  0  0
 11 16  1  0  0  0  0
 11 12  2  0  0  0  0
 12 13  1  0  0  0  0
 12 36  1  0  0  0  0
 13 14  2  0  0  0  0
 13 37  1  0  0  0  0
 14 15  1  0  0  0  0
 14 38  1  0  0  0  0
 15 16  2  0  0  0  0
 15 39  1  0  0  0  0
 17 18  1  0  0  0  0
 17 19  1  0  0  0  0
 17 40  1  0  0  0  0
 18 41  1  0  0  0  0
 18 42  1  0  0  0  0
 18 43  1  0  0  0  0
 19 44  1  0  0  0  0
 19 45  1  0  0  0  0
 19 46  1  0  0  0  0
 20 21  1  0  0  0  0
 20 47  1  0  0  0  0
 20 48  1  0  0  0  0
 21 22  1  0  0  0  0
 21 23  1  0  0  0  0
 21 49  1  0  0  0  0
 22 50  1  0  0  0  0
 22 51  1  0  0  0  0
 22 52  1  0  0  0  0
M  CHG  1   4   1
M  END
> <s_m_source_file>
AV-unprocessed.smi

> <i_m_source_file_index>
1762

> <i_lp_mmshare_version>
43012

> <i_f3d_flags>
0

> <s_epik_input>
W0NIM11bQ0BASF0xW0NIMl1OKFtDSDJdW0NASF0oTzEpW0NIM10pW0NAQEhdKFtDSF0oW0NIM10pW0NIM10pQyg9TylbTkhdW0NIMl1bQ0gyXWMyW2NIXVtjSF1bY0hdW2NIXW4y

> <s_epik_cmdline>
J2VwaWtfcHl0aG9uJywgJy1waCcsICc3LjAnLCAnLXRuJywgJzgnLCAnLW1hJywgJzIwMCcsICctbWV0YWxfYmluZGluZycsICctaW1hZScsICc8aW5maWxlLm1hZT4nLCAnLW9tYWUnLCAnPG91dGZpbGUubWFlPic=

> <r_epik_Ionization_Penalty>
2.27005

> <r_epik_Ionization_Penalty_Charging>
2.24983

> <r_epik_Ionization_Penalty_Neutral>
0.0202209

> <r_epik_State_Penalty>
2.40228

> <r_epik_Charging_Adjusted_Penalty>
4.65211

> <i_epik_Tot_Q>
1

> <i_epik_Tot_abs_Q>
1

> <r_epik_Metal_State_Penalty>
2.40762

> <b_epik_Metal_Only>
0

> <s_lp_Force_Field>
OPLS_2005

> <r_lp_Energy>
24.3613

> <b_lp_Chiralities_Consistent>
1

> <s_lp_Variant>
AV-unprocessed.smi:1762-18

> <Gold.Version>
5.8.1

> <Gold.Id.Protein>
6NUR|6NUR_protein|mol2

> <Gold.PLP.Fitness>
41.3426

> <Gold.PLP.PLP>
-37.3080

> <Gold.PLP.part.hbond>
-1.0000

> <Gold.PLP.part.metal>
0.0000

> <Gold.PLP.part.buried>
-4.4062

> <Gold.PLP.part.nonpolar>
-32.7258

> <Gold.PLP.part.repulsive>
0.2397

> <Gold.PLP.ligand.clash>
0.0000

> <Gold.PLP.ligand.torsion>
1.1498

> <Gold.PLP.Chemscore.Hbond>
2.0000

> <Gold.PLP.Chemscore.CHOScore>
0.0000

> <Gold.PLP.Chemscore.Metal>
0.0000

> <Gold.Chemscore.Hbonds>
donor molecule, donor type, donor heavy atom, donor atom, acceptor molecule, acceptor atom, score
      L1  H     4    53       P1  7948  1.56

> <Gold.PLP.Chemscore.Internal.Correction>
0.3342

> <Gold.Rescore>
     Score         DG    S(hbond)    S(metal)    S(lipo)     H(rot)  DE(clash)    DE(int)     intcor
     16.99     -17.94       1.00        0.00     114.33       1.66       0.05       0.90       ----

> <Gold.Chemscore.Fitness>
16.9944

> <Gold.Chemscore.DG>
-17.9378

> <Gold.Chemscore.ZeroCoef>
-5.4800

> <Gold.Chemscore.Hbond>
1.0000

> <Gold.Chemscore.Metal>
0.0000

> <Gold.Chemscore.Lipo>
114.3286

> <Gold.Chemscore.Internal_Hbond>
0.0000

> <Gold.Chemscore.DEClash>
0.0462

> <Gold.Chemscore.DEInternal>
0.8972

> <Gold.Chemscore.Rot>
1.6635

> <Gold.Chemscore.Internal.Correction>
   9.000000E+99

> <Gold.Chemscore.Hbonds>
donor molecule, donor type, donor heavy atom, donor atom, acceptor molecule, acceptor atom, score
      L1  H     4    53       P1  7948  0.76

> <Gold.Chemscore.Hbond.Weighted>
-3.3399

> <Gold.Chemscore.Metal.Weighted>
-0.0000

> <Gold.Chemscore.Lipo.Weighted>
-13.3764

> <Gold.Chemscore.Internal_Hbond.Weighted>
0.0000

> <Gold.Chemscore.DEClash.Weighted>
0.0462

> <Gold.Chemscore.DEInternal.Weighted>
0.8972

> <Gold.Chemscore.Rot.Weighted>
4.2586

> <Gold.Chemscore.Internal.Correction.Weighted>
   9.000000E+99

> <Gold.Protein.RotatedTorsions>
[ 6907 6896 6895 6894 ] final   31.90 input  -60.11 | X-H torsion
[ 7974 7965 7964 7962 ] final  -11.03 input  175.53 | X-H torsion
[ 8008 7997 7996 7995 ] final  -67.53 input   59.86 | X-H torsion
[ 10167 10162 10161 10158 ] final  -23.11 input  -65.29 | X-H torsion
[ 10718 10713 10712 10709 ] final   15.62 input   66.30 | X-H torsion
[ 10763 10752 10751 10750 ] final   35.59 input  -60.55 | X-H torsion
[ 11005 11000 10999 10996 ] final -124.32 input  -57.11 | X-H torsion

> <Gold.Protein.ActiveResidues>
 VAL166  LYS551  ARG553  GLY616  TRP617  ASP618  TYR619  PRO620  LYS621  CYS622 
 ASP623  PHE694  ASN695  SER759  ASP760  ASP761  ALA762  ILE779  LEU786  VAL792 
 PHE793  MET794  SER795  GLU796  ALA797  LYS798  CYS799  TRP800  GLU811  SER814 

> <Gold.Protein.RotatedAtoms>
  152.0668  134.9559  160.0574 H   0  0  0  0  0  0  0  0  0  0  0  0  # atno 6907 bound_to 6896
  152.0901  133.4191  159.4548 H   0  0  0  0  0  0  0  0  0  0  0  0  # atno 6908 bound_to 6896
  150.6837  134.2801  159.4667 H   0  0  0  0  0  0  0  0  0  0  0  0  # atno 6909 bound_to 6896
  146.2201  140.2851  142.8365 H   0  0  0  0  0  0  0  0  0  0  0  0  # atno 7974 bound_to 7965
  154.4806  140.0891  156.7369 H   0  0  0  0  0  0  0  0  0  0  0  0  # atno 8008 bound_to 7997
  155.4480  140.3456  155.4279 H   0  0  0  0  0  0  0  0  0  0  0  0  # atno 8009 bound_to 7997
  156.1186  140.1467  156.9226 H   0  0  0  0  0  0  0  0  0  0  0  0  # atno 8010 bound_to 7997
  140.7287  143.4473  151.0568 H   0  0  0  0  0  0  0  0  0  0  0  0  # atno 10167 bound_to 10162
  157.0561  130.6289  149.5777 H   0  0  0  0  0  0  0  0  0  0  0  0  # atno 10718 bound_to 10713
  153.0112  135.6329  154.1851 H   0  0  0  0  0  0  0  0  0  0  0  0  # atno 10763 bound_to 10752
  154.1593  135.2824  155.3115 H   0  0  0  0  0  0  0  0  0  0  0  0  # atno 10764 bound_to 10752
  154.5993  135.5592  153.7419 H   0  0  0  0  0  0  0  0  0  0  0  0  # atno 10765 bound_to 10752
  140.9850  134.0619  157.3721 H   0  0  0  0  0  0  0  0  0  0  0  0  # atno 11005 bound_to 11000
  144.9168  140.7822  143.5773 LP  0  0  0  0  0  0  0  0  0  0  0  0  # atno 17320 bound_to 7965
  145.2785  139.1927  143.4803 LP  0  0  0  0  0  0  0  0  0  0  0  0  # atno 17321 bound_to 7965
  139.8146  143.7904  152.3173 LP  0  0  0  0  0  0  0  0  0  0  0  0  # atno 17342 bound_to 10162
  139.7965  144.7390  150.9883 LP  0  0  0  0  0  0  0  0  0  0  0  0  # atno 17343 bound_to 10162
  155.9993  130.5068  150.7601 LP  0  0  0  0  0  0  0  0  0  0  0  0  # atno 17370 bound_to 10713
  157.4992  131.0917  151.0335 LP  0  0  0  0  0  0  0  0  0  0  0  0  # atno 17371 bound_to 10713
  139.8967  135.0147  156.7063 LP  0  0  0  0  0  0  0  0  0  0  0  0  # atno 17394 bound_to 11000
  140.7128  133.9208  155.8095 LP  0  0  0  0  0  0  0  0  0  0  0  0  # atno 17395 bound_to 11000

$$$$
