#       Name:                AV-unprocessed.smi:1703
#       Creating user name   scv26
#       Creation time:       Fri Mar 27 08:05:51 2020


#       File generated by GOLD software.
#

@<TRIPOS>MOLECULE
AV-unprocessed.smi:1703
    56    58     1
SMALL
NO_CHARGES


@<TRIPOS>ATOM
      1 ****        -2.1197   3.6659  -2.7702 C.3            1 S1                 0.0000
      2 ****        -2.1982   2.9873  -1.3984 C.3            1 S1                 0.0000
      3 ****        -1.6771   1.5381  -1.4349 C.3            1 S1                 0.0000
      4 ****        -1.8383   0.8994  -0.1059 N.4            1 S1                 1.0000
      5 ****        -1.2972  -0.4823  -0.0346 C.3            1 S1                 0.0000
      6 ****         0.2391  -0.5080   0.0875 C.3            1 S1                 0.0000
      7 ****         0.6082   0.1243   1.2985 O.3            1 S1                 0.0000
      8 ****         0.7911  -1.9477   0.0667 C.3            1 S1                 0.0000
      9 ****         2.2446  -1.9955   0.1594 N.pl3          1 S1                 0.0000
     10 ****         3.1514  -1.9432  -0.8490 C.2            1 S1                 0.0000
     11 ****         2.7453  -1.8326  -2.2866 C.3            1 S1                 0.0000
     12 ****         2.2886  -3.0572  -2.8193 O.3            1 S1                 0.0000
     13 ****         4.4318  -2.0010  -0.4819 N.2            1 S1                 0.0000
     14 ****         4.3498  -2.1052   0.8927 C.ar           1 S1                 0.0000
     15 ****         5.3676  -2.2024   1.8683 C.ar           1 S1                 0.0000
     16 ****         5.0383  -2.2990   3.2361 C.ar           1 S1                 0.0000
     17 ****         3.6897  -2.3016   3.6472 C.ar           1 S1                 0.0000
     18 ****         2.6600  -2.2069   2.6916 C.ar           1 S1                 0.0000
     19 ****         2.9939  -2.1079   1.3272 C.ar           1 S1                 0.0000
     20 ****        -3.2499   0.9835   0.3374 C.3            1 S1                 0.0000
     21 ****        -3.7326   2.4466   0.3246 C.3            1 S1                 0.0000
     22 ****        -5.2128   2.5711   0.7019 C.3            1 S1                 0.0000
     23 ****        -3.5601   2.9814  -0.9833 O.3            1 S1                 0.0000
     24 ****        -1.0922   3.7007  -3.1334 H              1 S1                 0.0000
     25 ****        -2.4884   4.6908  -2.7194 H              1 S1                 0.0000
     26 ****        -2.7183   3.1332  -3.5098 H              1 S1                 0.0000
     27 ****        -1.6090   3.5712  -0.6888 H              1 S1                 0.0000
     28 ****        -2.2205   0.9611  -2.1852 H              1 S1                 0.0000
     29 ****        -0.6288   1.5397  -1.7320 H              1 S1                 0.0000
     30 ****        -1.7213  -0.9978   0.8287 H              1 S1                 0.0000
     31 ****        -1.6224  -1.0431  -0.9124 H              1 S1                 0.0000
     32 ****         0.6905   0.0498  -0.7318 H              1 S1                 0.0000
     33 ****         0.3169  -0.4108   2.0212 H              1 S1                 0.0000
     34 ****         0.3729  -2.5260   0.8918 H              1 S1                 0.0000
     35 ****         0.4787  -2.4593  -0.8436 H              1 S1                 0.0000
     36 ****         1.9678  -1.0770  -2.3955 H              1 S1                 0.0000
     37 ****         3.5974  -1.4931  -2.8763 H              1 S1                 0.0000
     38 ****         2.1007  -2.9340  -3.7372 H              1 S1                 0.0000
     39 ****         6.4034  -2.2023   1.5634 H              1 S1                 0.0000
     40 ****         5.8244  -2.3717   3.9731 H              1 S1                 0.0000
     41 ****         3.4465  -2.3763   4.6969 H              1 S1                 0.0000
     42 ****         1.6270  -2.2079   3.0052 H              1 S1                 0.0000
     43 ****        -3.8736   0.3716  -0.3166 H              1 S1                 0.0000
     44 ****        -3.3440   0.5766   1.3452 H              1 S1                 0.0000
     45 ****        -3.1451   3.0342   1.0325 H              1 S1                 0.0000
     46 ****        -5.3978   2.1764   1.7012 H              1 S1                 0.0000
     47 ****        -5.8467   2.0246   0.0030 H              1 S1                 0.0000
     48 ****        -5.5306   3.6141   0.6936 H              1 S1                 0.0000
     49 ****        -1.3021   1.4465   0.5530 H              1 S1                 0.0000
     50 ****         0.1780   1.0254   1.3522 LP             1 S1                 0.0000
     51 ****         1.6023   0.2269   1.3351 LP             1 S1                 0.0000
     52 ****         1.4588  -3.3445  -2.3409 LP             1 S1                 0.0000
     53 ****         2.9951  -3.7565  -2.7107 LP             1 S1                 0.0000
     54 ****         5.2484  -1.9753  -1.0585 LP             1 S1                 0.0000
     55 ****        -4.0886   2.4285  -1.6275 LP             1 S1                 0.0000
     56 ****        -3.9015   3.9213  -0.9924 LP             1 S1                 0.0000
@<TRIPOS>BOND
    1    1    2 1     
    2    1   24 1     
    3    1   25 1     
    4    1   26 1     
    5    2   23 1     
    6    2    3 1     
    7    2   27 1     
    8    3    4 1     
    9    3   28 1     
   10    3   29 1     
   11    4    5 1     
   12    4   20 1     
   13    4   49 1     
   14    5    6 1     
   15    5   30 1     
   16    5   31 1     
   17    6    7 1     
   18    6    8 1     
   19    6   32 1     
   20    7   33 1     
   21    8    9 1     
   22    8   34 1     
   23    8   35 1     
   24    9   19 1     
   25    9   10 1     
   26   10   11 1     
   27   10   13 2     
   28   11   12 1     
   29   11   36 1     
   30   11   37 1     
   31   12   38 1     
   32   13   14 1     
   33   14   19 ar    
   34   14   15 ar    
   35   15   16 ar    
   36   15   39 1     
   37   16   17 ar    
   38   16   40 1     
   39   17   18 ar    
   40   17   41 1     
   41   18   19 ar    
   42   18   42 1     
   43   20   21 1     
   44   20   43 1     
   45   20   44 1     
   46   21   22 1     
   47   21   23 1     
   48   21   45 1     
   49   22   46 1     
   50   22   47 1     
   51   22   48 1     
   52    7   50 1     
   53    7   51 1     
   54   12   52 1     
   55   12   53 1     
   56   13   54 1     
   57   23   55 1     
   58   23   56 1     
@<TRIPOS>SUBSTRUCTURE
      1 S1             1
@<TRIPOS>SET
LONE_PAIRS      STATIC     ATOMS    <user>   **** ""
7 50 51 52 53 54 55 56
DONOR_HYDROGENS      STATIC     ATOMS    <user>   **** ""
3 49 33 38
ATOM$BLUE        STATIC     ATOMS    COLORGROUP SYSTEM
7 50 51 52 53 54 55 56
ATOM$RED        STATIC     ATOMS    COLORGROUP SYSTEM
3 49 33 38
