#       Name:                AV-unprocessed.smi:1940
#       Creating user name   scv26
#       Creation time:       Fri Mar 27 09:58:50 2020


#       File generated by GOLD software.
#

@<TRIPOS>MOLECULE
AV-unprocessed.smi:1940
    54    56     1
SMALL
NO_CHARGES


@<TRIPOS>ATOM
      1 ****        -4.5497  -2.4091   0.2505 C.3            1 S1                 0.0000
      2 ****        -4.0373  -1.6015  -0.9550 C.3            1 S1                 0.0000
      3 ****        -2.5773  -1.5602  -0.9354 N.am           1 S1                 0.0000
      4 ****        -1.8333  -0.6930  -0.2347 C.2            1 S1                 0.0000
      5 ****        -2.3096   0.1702   0.5016 O.2            1 S1                 0.0000
      6 ****        -0.5224  -0.8886  -0.4590 N.am           1 S1                 0.0000
      7 ****         0.5892  -0.1932   0.0902 C.ar           1 S1                 0.0000
      8 ****         1.8426  -0.3662  -0.5322 C.ar           1 S1                 0.0000
      9 ****         2.9795   0.2917  -0.0203 C.ar           1 S1                 0.0000
     10 ****         2.8612   1.1189   1.1251 C.ar           1 S1                 0.0000
     11 ****         3.9409   1.8241   1.7041 N.pl3          1 S1                 0.0000
     12 ****         4.0179   1.8105   3.1688 C.3            1 S1                 0.0000
     13 ****         4.9362   2.9262   3.6959 C.3            1 S1                 0.0000
     14 ****         6.3157   2.8717   3.0254 C.3            1 S1                 0.0000
     15 ****         6.1546   2.9295   1.5005 C.3            1 S1                 0.0000
     16 ****         5.2231   1.8139   0.9967 C.3            1 S1                 0.0000
     17 ****         1.6374   1.2446   1.6934 N.pl3          1 S1                 1.0000
     18 ****         0.5227   0.6348   1.2358 C.ar           1 S1                 0.0000
     19 ****        -4.5053  -2.1951  -2.2977 C.3            1 S1                 0.0000
     20 ****        -6.0217  -2.2163  -2.4937 C.3            1 S1                 0.0000
     21 ****        -6.1340  -2.2627  -3.9998 C.3            1 S1                 0.0000
     22 ****        -4.9905  -1.3489  -4.4292 C.3            1 S1                 0.0000
     23 ****        -4.0210  -1.4101  -3.3858 O.3            1 S1                 0.0000
     24 ****        -5.6388  -2.4201   0.2872 H              1 S1                 0.0000
     25 ****        -4.2014  -1.9811   1.1910 H              1 S1                 0.0000
     26 ****        -4.2078  -3.4436   0.2094 H              1 S1                 0.0000
     27 ****        -4.4216  -0.5822  -0.8819 H              1 S1                 0.0000
     28 ****        -2.1019  -2.2305  -1.5216 H              1 S1                 0.0000
     29 ****        -0.2949  -1.5983  -1.1398 H              1 S1                 0.0000
     30 ****         1.9373  -0.9993  -1.4025 H              1 S1                 0.0000
     31 ****         3.9262   0.1372  -0.5151 H              1 S1                 0.0000
     32 ****         3.0359   1.9298   3.6259 H              1 S1                 0.0000
     33 ****         4.3958   0.8381   3.4868 H              1 S1                 0.0000
     34 ****         4.4764   3.8973   3.5067 H              1 S1                 0.0000
     35 ****         5.0429   2.8405   4.7776 H              1 S1                 0.0000
     36 ****         6.9363   3.6989   3.3712 H              1 S1                 0.0000
     37 ****         6.8301   1.9526   3.3092 H              1 S1                 0.0000
     38 ****         5.7479   3.9004   1.2146 H              1 S1                 0.0000
     39 ****         7.1285   2.8480   1.0172 H              1 S1                 0.0000
     40 ****         5.6966   0.8404   1.1306 H              1 S1                 0.0000
     41 ****         5.0668   1.9571  -0.0728 H              1 S1                 0.0000
     42 ****        -0.3669   0.8320   1.8143 H              1 S1                 0.0000
     43 ****        -4.1163  -3.2075  -2.4207 H              1 S1                 0.0000
     44 ****        -6.5036  -3.0643  -2.0064 H              1 S1                 0.0000
     45 ****        -6.4734  -1.2989  -2.1135 H              1 S1                 0.0000
     46 ****        -5.9576  -3.2787  -4.3556 H              1 S1                 0.0000
     47 ****        -7.1054  -1.9338  -4.3697 H              1 S1                 0.0000
     48 ****        -4.5629  -1.6462  -5.3870 H              1 S1                 0.0000
     49 ****        -5.3367  -0.3187  -4.5184 H              1 S1                 0.0000
     50 ****         1.5505   1.8389   2.5181 H              1 S1                 0.0000
     51 ****        -3.3014   0.2511   0.6008 LP             1 S1                 0.0000
     52 ****        -1.7049   0.7908   1.0008 LP             1 S1                 0.0000
     53 ****        -3.1817  -1.8220  -3.7405 LP             1 S1                 0.0000
     54 ****        -3.8270  -0.4839  -3.0624 LP             1 S1                 0.0000
@<TRIPOS>BOND
    1    1    2 1     
    2    1   24 1     
    3    1   25 1     
    4    1   26 1     
    5    2    3 1     
    6    2   19 1     
    7    2   27 1     
    8    3    4 am    
    9    3   28 1     
   10    4    5 2     
   11    4    6 am    
   12    6    7 1     
   13    6   29 1     
   14    7   18 ar    
   15    7    8 ar    
   16    8    9 ar    
   17    8   30 1     
   18    9   10 ar    
   19    9   31 1     
   20   10   11 1     
   21   10   17 ar    
   22   11   16 1     
   23   11   12 1     
   24   12   13 1     
   25   12   32 1     
   26   12   33 1     
   27   13   14 1     
   28   13   34 1     
   29   13   35 1     
   30   14   15 1     
   31   14   36 1     
   32   14   37 1     
   33   15   16 1     
   34   15   38 1     
   35   15   39 1     
   36   16   40 1     
   37   16   41 1     
   38   17   18 ar    
   39   17   50 1     
   40   18   42 1     
   41   19   23 1     
   42   19   20 1     
   43   19   43 1     
   44   20   21 1     
   45   20   44 1     
   46   20   45 1     
   47   21   22 1     
   48   21   46 1     
   49   21   47 1     
   50   22   23 1     
   51   22   48 1     
   52   22   49 1     
   53    5   51 1     
   54    5   52 1     
   55   23   53 1     
   56   23   54 1     
@<TRIPOS>SUBSTRUCTURE
      1 S1             1
@<TRIPOS>SET
LONE_PAIRS      STATIC     ATOMS    <user>   **** ""
4 51 52 53 54
DONOR_HYDROGENS      STATIC     ATOMS    <user>   **** ""
3 28 29 50
ATOM$BLUE        STATIC     ATOMS    COLORGROUP SYSTEM
4 51 52 53 54
ATOM$RED        STATIC     ATOMS    COLORGROUP SYSTEM
3 28 29 50
