AV-unprocessed.smi:2762|AV-procd|sdf|10636|dock7
  -GOLD-   2272015 83D 1   1.00000     0.00000
 Structure written by MMmdl.
 39 40  0  0  0  0  0  0  0  0  1 V2000
  145.5393  138.2433  154.0514 O   0  0  0  0  0  0  0  0  0  0  0  0
  146.5142  137.7197  153.5111 C   0  0  0  0  0  0  0  0  0  0  0  0
  147.7511  138.2364  153.5523 N   0  0  0  0  0  0  0  0  0  0  0  0
  148.1370  139.4469  154.2710 C   0  0  0  0  0  0  0  0  0  0  0  0
  149.6230  139.7898  154.0460 C   0  0  0  0  0  0  0  0  0  0  0  0
  150.5400  139.3443  155.0953 N   0  0  0  0  0  0  0  0  0  0  0  0
  151.0370  140.4472  155.9153 C   0  0  0  0  0  0  0  0  0  0  0  0
  152.0037  139.9558  157.0063 C   0  0  0  0  0  0  0  0  0  0  0  0
  153.0816  139.2450  156.4056 O   0  0  0  0  0  0  0  0  0  0  0  0
  152.6414  138.1358  155.6287 C   0  0  0  0  0  0  0  0  0  0  0  0
  151.6767  138.6236  154.5341 C   0  0  0  0  0  0  0  0  0  0  0  0
  146.4907  136.5715  152.8118 N   0  0  0  0  0  0  0  0  0  0  0  0
  145.3922  135.6964  152.5989 C   0  0  0  0  0  0  0  0  0  0  0  0
  145.6269  134.6576  151.6703 C   0  0  0  0  0  0  0  0  0  0  0  0
  144.6035  133.7253  151.3907 C   0  0  0  0  0  0  0  0  0  0  0  0
  144.8101  132.5958  150.3937 C   0  0  0  0  0  0  0  0  0  0  0  0
  144.5405  131.4230  150.9677 F   0  0  0  0  0  0  0  0  0  0  0  0
  143.9876  132.7671  149.3594 F   0  0  0  0  0  0  0  0  0  0  0  0
  146.0645  132.5631  149.9422 F   0  0  0  0  0  0  0  0  0  0  0  0
  143.3675  133.8729  152.0509 C   0  0  0  0  0  0  0  0  0  0  0  0
  143.2172  134.9352  152.9603 C   0  0  0  0  0  0  0  0  0  0  0  0
  144.1982  135.8208  153.2291 N   0  0  0  0  0  0  0  0  0  0  0  0
  148.4892  137.7392  153.0762 H   0  0  0  0  0  0  0  0  0  0  0  0
  147.5261  140.2607  153.8801 H   0  0  0  0  0  0  0  0  0  0  0  0
  147.8898  139.3783  155.3309 H   0  0  0  0  0  0  0  0  0  0  0  0
  149.9247  139.3454  153.0965 H   0  0  0  0  0  0  0  0  0  0  0  0
  149.7246  140.8677  153.9121 H   0  0  0  0  0  0  0  0  0  0  0  0
  151.5454  141.1779  155.2847 H   0  0  0  0  0  0  0  0  0  0  0  0
  150.2104  140.9706  156.3933 H   0  0  0  0  0  0  0  0  0  0  0  0
  152.4020  140.8002  157.5688 H   0  0  0  0  0  0  0  0  0  0  0  0
  151.4852  139.3119  157.7185 H   0  0  0  0  0  0  0  0  0  0  0  0
  153.5072  137.6471  155.1817 H   0  0  0  0  0  0  0  0  0  0  0  0
  152.1551  137.4017  156.2730 H   0  0  0  0  0  0  0  0  0  0  0  0
  151.3245  137.7671  153.9584 H   0  0  0  0  0  0  0  0  0  0  0  0
  152.2164  139.2673  153.8377 H   0  0  0  0  0  0  0  0  0  0  0  0
  147.3663  136.2756  152.4070 H   0  0  0  0  0  0  0  0  0  0  0  0
  146.5848  134.5790  151.1770 H   0  0  0  0  0  0  0  0  0  0  0  0
  142.5525  133.1891  151.8654 H   0  0  0  0  0  0  0  0  0  0  0  0
  142.2847  135.0783  153.4858 H   0  0  0  0  0  0  0  0  0  0  0  0
  1  2  2  0  0  0  0
  2  3  1  0  0  0  0
  2 12  1  0  0  0  0
  3  4  1  0  0  0  0
  3 23  1  0  0  0  0
  4  5  1  0  0  0  0
  4 24  1  0  0  0  0
  4 25  1  0  0  0  0
  5  6  1  0  0  0  0
  5 26  1  0  0  0  0
  5 27  1  0  0  0  0
  6 11  1  0  0  0  0
  6  7  1  0  0  0  0
  7  8  1  0  0  0  0
  7 28  1  0  0  0  0
  7 29  1  0  0  0  0
  8  9  1  0  0  0  0
  8 30  1  0  0  0  0
  8 31  1  0  0  0  0
  9 10  1  0  0  0  0
 10 11  1  0  0  0  0
 10 32  1  0  0  0  0
 10 33  1  0  0  0  0
 11 34  1  0  0  0  0
 11 35  1  0  0  0  0
 12 13  1  0  0  0  0
 12 36  1  0  0  0  0
 13 22  1  0  0  0  0
 13 14  2  0  0  0  0
 14 15  1  0  0  0  0
 14 37  1  0  0  0  0
 15 16  1  0  0  0  0
 15 20  2  0  0  0  0
 16 17  1  0  0  0  0
 16 18  1  0  0  0  0
 16 19  1  0  0  0  0
 20 21  1  0  0  0  0
 20 38  1  0  0  0  0
 21 22  2  0  0  0  0
 21 39  1  0  0  0  0
M  END
> <s_m_source_file>
AV-unprocessed.smi

> <i_m_source_file_index>
2762

> <i_lp_mmshare_version>
43012

> <i_f3d_flags>
0

> <s_epik_input>
bjFbY0hdW2NIXWMoQyhGKShGKUYpW2NIXWMxW05IXUMoPU8pW05IXVtDSDJdW0NIMl1OMltDSDJdW0NIMl1PW0NIMl1bQ0gyXTI=

> <s_epik_cmdline>
J2VwaWtfcHl0aG9uJywgJy1waCcsICc3LjAnLCAnLXRuJywgJzgnLCAnLW1hJywgJzIwMCcsICctbWV0YWxfYmluZGluZycsICctaW1hZScsICc8aW5maWxlLm1hZT4nLCAnLW9tYWUnLCAnPG91dGZpbGUubWFlPic=

> <r_epik_Ionization_Penalty>
0.266026

> <r_epik_Ionization_Penalty_Charging>
0

> <r_epik_Ionization_Penalty_Neutral>
0.266026

> <r_epik_State_Penalty>
0.257924

> <r_epik_Charging_Adjusted_Penalty>
0.257924

> <i_epik_Tot_Q>
0

> <i_epik_Tot_abs_Q>
0

> <r_epik_Metal_State_Penalty>
0.257924

> <b_epik_Metal_Only>
0

> <s_lp_Force_Field>
OPLS_2005

> <r_lp_Energy>
26.9092

> <b_lp_Chiralities_Consistent>
1

> <s_lp_Variant>
AV-unprocessed.smi:2762-1

> <Gold.Version>
5.8.1

> <Gold.Id.Protein>
6NUR|6NUR_protein|mol2

> <Gold.PLP.Fitness>
45.3387

> <Gold.PLP.PLP>
-38.4775

> <Gold.PLP.part.hbond>
-3.0000

> <Gold.PLP.part.metal>
0.0000

> <Gold.PLP.part.buried>
-4.4512

> <Gold.PLP.part.nonpolar>
-32.4883

> <Gold.PLP.part.repulsive>
0.3665

> <Gold.PLP.ligand.clash>
0.0000

> <Gold.PLP.ligand.torsion>
1.0265

> <Gold.PLP.Chemscore.Hbond>
2.9440

> <Gold.PLP.Chemscore.CHOScore>
0.0000

> <Gold.PLP.Chemscore.Metal>
0.0000

> <Gold.Chemscore.Hbonds>
donor molecule, donor type, donor heavy atom, donor atom, acceptor molecule, acceptor atom, score
      L1  H     3    23       P1  7948  0.94
      L1  H    12    36       P1  7948  1.00
      P1  H  7997  8010       L1     9  0.94

> <Gold.PLP.Chemscore.Internal.Correction>
0.0822

> <Gold.Rescore>
     Score         DG    S(hbond)    S(metal)    S(lipo)     H(rot)  DE(clash)    DE(int)     intcor
     16.16     -18.79       2.87        0.00      67.51       1.63       0.28       2.35       ----

> <Gold.Chemscore.Fitness>
16.1603

> <Gold.Chemscore.DG>
-18.7906

> <Gold.Chemscore.ZeroCoef>
-5.4800

> <Gold.Chemscore.Hbond>
2.8670

> <Gold.Chemscore.Metal>
0.0000

> <Gold.Chemscore.Lipo>
67.5088

> <Gold.Chemscore.Internal_Hbond>
0.0000

> <Gold.Chemscore.DEClash>
0.2831

> <Gold.Chemscore.DEInternal>
2.3471

> <Gold.Chemscore.Rot>
1.6265

> <Gold.Chemscore.Internal.Correction>
   9.000000E+99

> <Gold.Chemscore.Hbonds>
donor molecule, donor type, donor heavy atom, donor atom, acceptor molecule, acceptor atom, score
      L1  H     3    23       P1  7948  0.89
      L1  H    12    36       P1  7948  1.00
      P1  H  7997  8010       L1     9  0.55

> <Gold.Chemscore.Hbond.Weighted>
-9.5758

> <Gold.Chemscore.Metal.Weighted>
-0.0000

> <Gold.Chemscore.Lipo.Weighted>
-7.8985

> <Gold.Chemscore.Internal_Hbond.Weighted>
0.0000

> <Gold.Chemscore.DEClash.Weighted>
0.2831

> <Gold.Chemscore.DEInternal.Weighted>
2.3471

> <Gold.Chemscore.Rot.Weighted>
4.1638

> <Gold.Chemscore.Internal.Correction.Weighted>
   9.000000E+99

> <Gold.Protein.RotatedTorsions>
[ 6907 6896 6895 6894 ] final -165.25 input  -60.11 | X-H torsion
[ 7974 7965 7964 7962 ] final   31.65 input  175.53 | X-H torsion
[ 8008 7997 7996 7995 ] final   50.93 input   59.86 | X-H torsion
[ 10167 10162 10161 10158 ] final  177.13 input  -65.29 | X-H torsion
[ 10718 10713 10712 10709 ] final   94.53 input   66.30 | X-H torsion
[ 10763 10752 10751 10750 ] final  -93.22 input  -60.55 | X-H torsion
[ 11005 11000 10999 10996 ] final -113.73 input  -57.11 | X-H torsion

> <Gold.Protein.ActiveResidues>
 VAL166  LYS551  ARG553  GLY616  TRP617  ASP618  TYR619  PRO620  LYS621  CYS622 
 ASP623  PHE694  ASN695  SER759  ASP760  ASP761  ALA762  ILE779  LEU786  VAL792 
 PHE793  MET794  SER795  GLU796  ALA797  LYS798  CYS799  TRP800  GLU811  SER814 

> <Gold.Protein.RotatedAtoms>
  151.4247  133.3688  159.2760 H   0  0  0  0  0  0  0  0  0  0  0  0  # atno 6907 bound_to 6896
  150.9268  134.8686  159.7536 H   0  0  0  0  0  0  0  0  0  0  0  0  # atno 6908 bound_to 6896
  152.5009  134.4189  159.9526 H   0  0  0  0  0  0  0  0  0  0  0  0  # atno 6909 bound_to 6896
  146.1537  139.6629  142.9081 H   0  0  0  0  0  0  0  0  0  0  0  0  # atno 7974 bound_to 7965
  155.4269  140.3449  155.4276 H   0  0  0  0  0  0  0  0  0  0  0  0  # atno 8008 bound_to 7997
  156.1360  140.1528  156.9025 H   0  0  0  0  0  0  0  0  0  0  0  0  # atno 8009 bound_to 7997
  154.4932  140.0835  156.7620 H   0  0  0  0  0  0  0  0  0  0  0  0  # atno 8010 bound_to 7997
  139.5241  144.2835  152.0526 H   0  0  0  0  0  0  0  0  0  0  0  0  # atno 10167 bound_to 10162
  157.6947  131.0515  150.4201 H   0  0  0  0  0  0  0  0  0  0  0  0  # atno 10718 bound_to 10713
  154.6938  135.5202  153.8429 H   0  0  0  0  0  0  0  0  0  0  0  0  # atno 10763 bound_to 10752
  153.0651  135.6582  154.0381 H   0  0  0  0  0  0  0  0  0  0  0  0  # atno 10764 bound_to 10752
  154.0251  135.2990  155.3355 H   0  0  0  0  0  0  0  0  0  0  0  0  # atno 10765 bound_to 10752
  141.0596  133.9556  157.2691 H   0  0  0  0  0  0  0  0  0  0  0  0  # atno 11005 bound_to 11000
  145.4761  141.0437  143.2671 LP  0  0  0  0  0  0  0  0  0  0  0  0  # atno 17320 bound_to 7965
  144.7936  139.6279  143.7102 LP  0  0  0  0  0  0  0  0  0  0  0  0  # atno 17321 bound_to 7965
  140.2289  144.4389  150.6309 LP  0  0  0  0  0  0  0  0  0  0  0  0  # atno 17342 bound_to 10162
  140.6369  143.2196  151.6376 LP  0  0  0  0  0  0  0  0  0  0  0  0  # atno 17343 bound_to 10162
  156.4577  130.4025  149.6596 LP  0  0  0  0  0  0  0  0  0  0  0  0  # atno 17370 bound_to 10713
  156.3722  130.7536  151.2521 LP  0  0  0  0  0  0  0  0  0  0  0  0  # atno 17371 bound_to 10713
  139.9421  135.0189  156.8740 LP  0  0  0  0  0  0  0  0  0  0  0  0  # atno 17394 bound_to 11000
  140.5895  134.0276  155.7494 LP  0  0  0  0  0  0  0  0  0  0  0  0  # atno 17395 bound_to 11000

$$$$
