AV-unprocessed.smi:246|AV-procd|sdf|1880|dock10
  -GOLD-   2262020523D 1   1.00000     0.00000
 Structure written by MMmdl.
 57 60  0  0  0  0  0  0  0  0  1 V2000
  153.0414  142.7743  162.4984 C   0  0  0  0  0  0  0  0  0  0  0  0
  153.0591  142.1916  161.0787 C   0  0  0  0  0  0  0  0  0  0  0  0
  151.8962  142.5495  160.3452 O   0  0  0  0  0  0  0  0  0  0  0  0
  151.7191  141.8253  159.1362 C   0  0  0  0  0  0  0  0  0  0  0  0
  151.0059  142.7260  158.1239 C   0  0  0  0  0  0  0  0  0  0  0  0
  149.8577  142.0520  157.6306 O   0  0  0  0  0  0  0  0  0  0  0  0
  149.9356  141.7283  156.2499 C   0  0  1  0  0  0  0  0  0  0  0  0
  150.8845  140.5665  155.9625 C   0  0  0  0  0  0  0  0  0  0  0  0
  150.3431  140.0158  154.6458 C   0  0  0  0  0  0  0  0  0  0  0  0
  148.9012  140.2490  154.6690 N   0  0  0  0  0  0  0  0  0  0  0  0
  148.1030  139.1570  154.6772 C   0  0  0  0  0  0  0  0  0  0  0  0
  147.9891  138.3986  155.8001 N   0  0  0  0  0  0  0  0  0  0  0  0
  147.1818  137.3334  155.8077 C   0  0  0  0  0  0  0  0  0  0  0  0
  146.4154  136.8595  154.8226 N   0  0  0  0  0  0  0  0  0  0  0  0
  146.5266  137.6224  153.6971 C   0  0  0  0  0  0  0  0  0  0  0  0
  147.3360  138.7822  153.5432 C   0  0  0  0  0  0  0  0  0  0  0  0
  147.1887  139.3010  152.2633 N   0  0  0  0  0  0  0  0  0  0  0  0
  146.3447  138.4877  151.6883 C   0  0  0  0  0  0  0  0  0  0  0  0
  145.9099  137.4413  152.4713 N   0  0  0  0  0  0  0  0  0  0  0  0
  144.9748  136.3986  152.0866 C   0  0  0  0  0  0  0  0  0  0  0  0
  145.5521  135.3828  151.0739 C   0  0  2  0  0  0  0  0  0  0  0  0
  145.0223  135.7584  149.8185 O   0  0  0  0  0  0  0  0  0  0  0  0
  145.1558  133.9068  151.3128 C   0  0  2  0  0  0  0  0  0  0  0  0
  145.8356  132.8704  150.4102 C   0  0  0  0  0  0  0  0  0  0  0  0
  144.8239  131.7397  150.2969 C   0  0  0  0  0  0  0  0  0  0  0  0
  143.5515  132.3222  150.9089 C   0  0  0  0  0  0  0  0  0  0  0  0
  143.7941  133.7192  150.9527 O   0  0  0  0  0  0  0  0  0  0  0  0
  148.5938  141.1935  155.7404 C   0  0  0  0  0  0  0  0  0  0  0  0
  150.2191  142.6004  155.6576 H   0  0  0  0  0  0  0  0  0  0  0  0
  153.8923  142.4095  163.0738 H   0  0  0  0  0  0  0  0  0  0  0  0
  152.1337  142.4845  163.0281 H   0  0  0  0  0  0  0  0  0  0  0  0
  153.0954  143.8626  162.4927 H   0  0  0  0  0  0  0  0  0  0  0  0
  153.9638  142.4843  160.5441 H   0  0  0  0  0  0  0  0  0  0  0  0
  153.0796  141.1036  161.1467 H   0  0  0  0  0  0  0  0  0  0  0  0
  152.6684  141.4769  158.7292 H   0  0  0  0  0  0  0  0  0  0  0  0
  151.1032  140.9466  159.3327 H   0  0  0  0  0  0  0  0  0  0  0  0
  150.6931  143.6500  158.6124 H   0  0  0  0  0  0  0  0  0  0  0  0
  151.6906  142.9970  157.3196 H   0  0  0  0  0  0  0  0  0  0  0  0
  151.9302  140.8672  155.8959 H   0  0  0  0  0  0  0  0  0  0  0  0
  150.7954  139.8093  156.7428 H   0  0  0  0  0  0  0  0  0  0  0  0
  150.7583  140.5763  153.8077 H   0  0  0  0  0  0  0  0  0  0  0  0
  150.6176  138.9702  154.4999 H   0  0  0  0  0  0  0  0  0  0  0  0
  147.1450  136.7822  156.7358 H   0  0  0  0  0  0  0  0  0  0  0  0
  146.0196  138.6255  150.6672 H   0  0  0  0  0  0  0  0  0  0  0  0
  144.6225  135.8837  152.9812 H   0  0  0  0  0  0  0  0  0  0  0  0
  144.1047  136.8973  151.6569 H   0  0  0  0  0  0  0  0  0  0  0  0
  146.6374  135.4782  151.0266 H   0  0  0  0  0  0  0  0  0  0  0  0
  145.5653  135.3873  149.1398 H   0  0  0  0  0  0  0  0  0  0  0  0
  145.2973  133.6312  152.3600 H   0  0  0  0  0  0  0  0  0  0  0  0
  146.0167  133.2883  149.4193 H   0  0  0  0  0  0  0  0  0  0  0  0
  146.7880  132.5276  150.8130 H   0  0  0  0  0  0  0  0  0  0  0  0
  144.6722  131.4667  149.2519 H   0  0  0  0  0  0  0  0  0  0  0  0
  145.1450  130.8472  150.8350 H   0  0  0  0  0  0  0  0  0  0  0  0
  142.6591  132.0902  150.3275 H   0  0  0  0  0  0  0  0  0  0  0  0
  143.4062  131.9490  151.9238 H   0  0  0  0  0  0  0  0  0  0  0  0
  148.0608  140.6922  156.5510 H   0  0  0  0  0  0  0  0  0  0  0  0
  147.9559  141.9998  155.3778 H   0  0  0  0  0  0  0  0  0  0  0  0
  1  2  1  0  0  0  0
  1 30  1  0  0  0  0
  1 31  1  0  0  0  0
  1 32  1  0  0  0  0
  2  3  1  0  0  0  0
  2 33  1  0  0  0  0
  2 34  1  0  0  0  0
  3  4  1  0  0  0  0
  4  5  1  0  0  0  0
  4 35  1  0  0  0  0
  4 36  1  0  0  0  0
  5  6  1  0  0  0  0
  5 37  1  0  0  0  0
  5 38  1  0  0  0  0
  6  7  1  0  0  0  0
  7 29  1  0  0  0  0
  7 28  1  0  0  0  0
  7  8  1  0  0  0  0
  8  9  1  0  0  0  0
  8 39  1  0  0  0  0
  8 40  1  0  0  0  0
  9 10  1  0  0  0  0
  9 41  1  0  0  0  0
  9 42  1  0  0  0  0
 10 11  1  0  0  0  0
 10 28  1  0  0  0  0
 11 16  1  0  0  0  0
 11 12  2  0  0  0  0
 12 13  1  0  0  0  0
 13 14  2  0  0  0  0
 13 43  1  0  0  0  0
 14 15  1  0  0  0  0
 15 19  1  0  0  0  0
 15 16  2  0  0  0  0
 16 17  1  0  0  0  0
 17 18  2  0  0  0  0
 18 19  1  0  0  0  0
 18 44  1  0  0  0  0
 19 20  1  0  0  0  0
 20 21  1  0  0  0  0
 20 45  1  0  0  0  0
 20 46  1  0  0  0  0
 21 22  1  0  0  0  0
 21 23  1  0  0  0  0
 21 47  1  0  0  0  0
 22 48  1  0  0  0  0
 23 27  1  0  0  0  0
 23 24  1  0  0  0  0
 23 49  1  0  0  0  0
 24 25  1  0  0  0  0
 24 50  1  0  0  0  0
 24 51  1  0  0  0  0
 25 26  1  0  0  0  0
 25 52  1  0  0  0  0
 25 53  1  0  0  0  0
 26 27  1  0  0  0  0
 26 54  1  0  0  0  0
 26 55  1  0  0  0  0
 28 56  1  0  0  0  0
 28 57  1  0  0  0  0
M  END
> <s_m_source_file>
AV-unprocessed.smi

> <i_m_source_file_index>
246

> <i_lp_mmshare_version>
43012

> <i_f3d_flags>
0

> <s_epik_input>
W0NIM11bQ0gyXU9bQ0gyXVtDSDJdT1tDQEhdMVtDSDJdW0NIMl1OKFtDSDJdMSljKG5bY0hdbjIpYyhjMjMpbltjSF1uM1tDSDJdW0NASF0oW09IXSlbQ0BASF00W0NIMl1bQ0gyXVtDSDJdTzQ=

> <s_epik_cmdline>
J2VwaWtfcHl0aG9uJywgJy1waCcsICc3LjAnLCAnLXRuJywgJzgnLCAnLW1hJywgJzIwMCcsICctbWV0YWxfYmluZGluZycsICctaW1hZScsICc8aW5maWxlLm1hZT4nLCAnLW9tYWUnLCAnPG91dGZpbGUubWFlPic=

> <r_lp_tautomer_probability>
1

> <r_epik_Ionization_Penalty>
0.0024631

> <r_epik_Ionization_Penalty_Charging>
0

> <r_epik_Ionization_Penalty_Neutral>
0.0024631

> <r_epik_State_Penalty>
0.00162428

> <r_epik_Charging_Adjusted_Penalty>
0.00162428

> <i_epik_Tot_Q>
0

> <i_epik_Tot_abs_Q>
0

> <r_epik_Metal_State_Penalty>
-0

> <b_epik_Metal_Only>
0

> <s_lp_Force_Field>
OPLS_2005

> <r_lp_Energy>
54.9549

> <b_lp_Chiralities_Consistent>
1

> <s_lp_Variant>
AV-unprocessed.smi:246-1

> <Gold.Version>
5.8.1

> <Gold.Id.Protein>
6NUR|6NUR_protein|mol2

> <Gold.PLP.Fitness>
50.0105

> <Gold.PLP.PLP>
-47.3966

> <Gold.PLP.part.hbond>
-2.3280

> <Gold.PLP.part.metal>
0.0000

> <Gold.PLP.part.buried>
-6.1605

> <Gold.PLP.part.nonpolar>
-43.3586

> <Gold.PLP.part.repulsive>
3.2366

> <Gold.PLP.ligand.clash>
0.0000

> <Gold.PLP.ligand.torsion>
2.0028

> <Gold.PLP.Chemscore.Hbond>
1.0000

> <Gold.PLP.Chemscore.CHOScore>
1.0000

> <Gold.PLP.Chemscore.Metal>
0.0000

> <Gold.Chemscore.Hbonds>
donor molecule, donor type, donor heavy atom, donor atom, acceptor molecule, acceptor atom, score
      L1  H    22    48       P1  7921  1.00
      L1  C    18    44       P1 10171  1.00

> <Gold.PLP.Chemscore.Internal.Correction>
0.6197

> <Gold.Rescore>
     Score         DG    S(hbond)    S(metal)    S(lipo)     H(rot)  DE(clash)    DE(int)     intcor
     10.84     -13.10       1.01        0.00     110.13       3.37       0.30       1.96       ----

> <Gold.Chemscore.Fitness>
10.8442

> <Gold.Chemscore.DG>
-13.0977

> <Gold.Chemscore.ZeroCoef>
-5.4800

> <Gold.Chemscore.Hbond>
1.0088

> <Gold.Chemscore.Metal>
0.0000

> <Gold.Chemscore.Lipo>
110.1325

> <Gold.Chemscore.Internal_Hbond>
0.0000

> <Gold.Chemscore.DEClash>
0.2962

> <Gold.Chemscore.DEInternal>
1.9574

> <Gold.Chemscore.Rot>
3.3739

> <Gold.Chemscore.Internal.Correction>
   9.000000E+99

> <Gold.Chemscore.Hbonds>
donor molecule, donor type, donor heavy atom, donor atom, acceptor molecule, acceptor atom, score
      L1  H    22    48       P1  7921  1.00

> <Gold.Chemscore.Hbond.Weighted>
-3.3694

> <Gold.Chemscore.Metal.Weighted>
-0.0000

> <Gold.Chemscore.Lipo.Weighted>
-12.8855

> <Gold.Chemscore.Internal_Hbond.Weighted>
0.0000

> <Gold.Chemscore.DEClash.Weighted>
0.2962

> <Gold.Chemscore.DEInternal.Weighted>
1.9574

> <Gold.Chemscore.Rot.Weighted>
8.6371

> <Gold.Chemscore.Internal.Correction.Weighted>
   9.000000E+99

> <Gold.Protein.RotatedTorsions>
[ 6907 6896 6895 6894 ] final  -79.32 input  -60.11 | X-H torsion
[ 7974 7965 7964 7962 ] final  -23.75 input  175.53 | X-H torsion
[ 8008 7997 7996 7995 ] final   50.42 input   59.86 | X-H torsion
[ 10167 10162 10161 10158 ] final  116.55 input  -65.29 | X-H torsion
[ 10718 10713 10712 10709 ] final   20.14 input   66.30 | X-H torsion
[ 10763 10752 10751 10750 ] final  -69.70 input  -60.55 | X-H torsion
[ 11005 11000 10999 10996 ] final  137.81 input  -57.11 | X-H torsion

> <Gold.Protein.ActiveResidues>
 VAL166  LYS551  ARG553  GLY616  TRP617  ASP618  TYR619  PRO620  LYS621  CYS622 
 ASP623  PHE694  ASN695  SER759  ASP760  ASP761  ALA762  ILE779  LEU786  VAL792 
 PHE793  MET794  SER795  GLU796  ALA797  LYS798  CYS799  TRP800  GLU811  SER814 

> <Gold.Protein.RotatedAtoms>
  150.6952  134.4139  159.5174 H   0  0  0  0  0  0  0  0  0  0  0  0  # atno 6907 bound_to 6896
  152.1893  134.8683  160.0528 H   0  0  0  0  0  0  0  0  0  0  0  0  # atno 6908 bound_to 6896
  151.9644  133.3671  159.4084 H   0  0  0  0  0  0  0  0  0  0  0  0  # atno 6909 bound_to 6896
  146.1597  140.4658  142.8576 H   0  0  0  0  0  0  0  0  0  0  0  0  # atno 7974 bound_to 7965
  155.4185  140.3445  155.4269 H   0  0  0  0  0  0  0  0  0  0  0  0  # atno 8008 bound_to 7997
  156.1407  140.1541  156.8956 H   0  0  0  0  0  0  0  0  0  0  0  0  # atno 8009 bound_to 7997
  154.4969  140.0825  156.7695 H   0  0  0  0  0  0  0  0  0  0  0  0  # atno 8010 bound_to 7997
  139.6239  144.7105  151.2575 H   0  0  0  0  0  0  0  0  0  0  0  0  # atno 10167 bound_to 10162
  157.1202  130.6546  149.5922 H   0  0  0  0  0  0  0  0  0  0  0  0  # atno 10718 bound_to 10713
  154.4072  135.6017  153.5931 H   0  0  0  0  0  0  0  0  0  0  0  0  # atno 10763 bound_to 10752
  152.9789  135.5920  154.4113 H   0  0  0  0  0  0  0  0  0  0  0  0  # atno 10764 bound_to 10752
  154.3920  135.2842  155.2127 H   0  0  0  0  0  0  0  0  0  0  0  0  # atno 10765 bound_to 10752
  140.0140  134.9426  157.0336 H   0  0  0  0  0  0  0  0  0  0  0  0  # atno 11005 bound_to 11000
  144.8011  140.6214  143.6478 LP  0  0  0  0  0  0  0  0  0  0  0  0  # atno 17320 bound_to 7965
  145.4619  139.1512  143.3862 LP  0  0  0  0  0  0  0  0  0  0  0  0  # atno 17321 bound_to 7965
  140.7399  143.6604  150.8169 LP  0  0  0  0  0  0  0  0  0  0  0  0  # atno 17342 bound_to 10162
  140.0219  143.5533  152.2797 LP  0  0  0  0  0  0  0  0  0  0  0  0  # atno 17343 bound_to 10162
  155.9830  130.4847  150.6911 LP  0  0  0  0  0  0  0  0  0  0  0  0  # atno 17370 bound_to 10713
  157.4483  131.0869  151.0873 LP  0  0  0  0  0  0  0  0  0  0  0  0  # atno 17371 bound_to 10713
  140.4505  134.1588  155.7181 LP  0  0  0  0  0  0  0  0  0  0  0  0  # atno 17394 bound_to 11000
  141.1730  133.8571  157.1511 LP  0  0  0  0  0  0  0  0  0  0  0  0  # atno 17395 bound_to 11000

$$$$
