AV-unprocessed.smi:47|AV-procd|sdf|425|dock3
  -GOLD-   2262016303D 1   1.00000     0.00000
 Structure written by MMmdl.
 32 34  0  0  0  0  0  0  0  0  2 V2000
  146.1422  140.0037  153.4952 O   0  0  0  0  0  0  0  0  0  0  0  0
  147.1129  141.0117  153.6819 C   0  0  1  0  0  0  0  0  0  0  0  0
  146.7872  141.9172  154.8750 C   0  0  0  0  0  0  0  0  0  0  0  0
  148.0853  142.3427  155.4365 N   0  3  0  0  0  0  0  0  0  0  0  0
  149.1626  141.6172  154.7324 C   0  0  1  0  0  0  0  0  0  0  0  0
  150.2728  141.2100  155.6488 C   0  0  0  0  0  0  0  0  0  0  0  0
  151.0693  140.1912  155.3449 N   0  0  0  0  0  0  0  0  0  0  0  0
  151.8761  140.1388  156.4247 N   0  0  0  0  0  0  0  0  0  0  0  0
  151.5325  141.0840  157.3092 C   0  0  0  0  0  0  0  0  0  0  0  0
  152.1973  141.3047  158.5955 C   0  0  0  0  0  0  0  0  0  0  0  0
  152.0971  142.5551  159.2490 C   0  0  0  0  0  0  0  0  0  0  0  0
  152.7366  142.7684  160.4855 C   0  0  0  0  0  0  0  0  0  0  0  0
  153.4837  141.7351  161.0810 C   0  0  0  0  0  0  0  0  0  0  0  0
  153.5904  140.4874  160.4388 C   0  0  0  0  0  0  0  0  0  0  0  0
  152.9507  140.2727  159.2024 C   0  0  0  0  0  0  0  0  0  0  0  0
  150.4987  141.7986  156.8617 N   0  0  0  0  0  0  0  0  0  0  0  0
  148.4784  140.4352  154.0413 C   0  0  0  0  0  0  0  0  0  0  0  0
  147.1953  141.6111  152.7741 H   0  0  0  0  0  0  0  0  0  0  0  0
  149.5556  142.2921  153.9698 H   0  0  0  0  0  0  0  0  0  0  0  0
  152.6188  139.4608  156.5205 H   0  0  0  0  0  0  0  0  0  0  0  0
  145.3559  140.3992  153.1498 H   0  0  0  0  0  0  0  0  0  0  0  0
  146.1730  142.7721  154.5906 H   0  0  0  0  0  0  0  0  0  0  0  0
  146.2552  141.3638  155.6501 H   0  0  0  0  0  0  0  0  0  0  0  0
  148.2164  143.3389  155.3350 H   0  0  0  0  0  0  0  0  0  0  0  0
  151.5287  143.3627  158.8115 H   0  0  0  0  0  0  0  0  0  0  0  0
  152.6534  143.7261  160.9779 H   0  0  0  0  0  0  0  0  0  0  0  0
  153.9744  141.8995  162.0292 H   0  0  0  0  0  0  0  0  0  0  0  0
  154.1640  139.6937  160.8947 H   0  0  0  0  0  0  0  0  0  0  0  0
  153.0467  139.3076  158.7272 H   0  0  0  0  0  0  0  0  0  0  0  0
  148.3545  139.6119  154.7478 H   0  0  0  0  0  0  0  0  0  0  0  0
  149.0350  140.0600  153.1819 H   0  0  0  0  0  0  0  0  0  0  0  0
  148.1103  142.0946  156.4157 H   0  0  0  0  0  0  0  0  0  0  0  0
  1  2  1  0  0  0  0
  1 21  1  0  0  0  0
  2 18  1  0  0  0  0
  2 17  1  0  0  0  0
  2  3  1  0  0  0  0
  3  4  1  0  0  0  0
  3 22  1  0  0  0  0
  3 23  1  0  0  0  0
  4  5  1  0  0  0  0
  4 24  1  0  0  0  0
  4 32  1  0  0  0  0
  5 19  1  0  0  0  0
  5  6  1  0  0  0  0
  5 17  1  0  0  0  0
  6 16  1  0  0  0  0
  6  7  2  0  0  0  0
  7  8  1  0  0  0  0
  8 20  1  0  0  0  0
  8  9  1  0  0  0  0
  9 10  1  0  0  0  0
  9 16  2  0  0  0  0
 10 15  1  0  0  0  0
 10 11  2  0  0  0  0
 11 12  1  0  0  0  0
 11 25  1  0  0  0  0
 12 13  2  0  0  0  0
 12 26  1  0  0  0  0
 13 14  1  0  0  0  0
 13 27  1  0  0  0  0
 14 15  2  0  0  0  0
 14 28  1  0  0  0  0
 15 29  1  0  0  0  0
 17 30  1  0  0  0  0
 17 31  1  0  0  0  0
M  CHG  1   4   1
M  END
> <s_m_source_file>
AV-unprocessed.smi

> <i_m_source_file_index>
47

> <i_lp_mmshare_version>
43012

> <i_f3d_flags>
0

> <s_epik_input>
W09IXVtDQEhdMVtDSDJdW05IXVtDQEBIXShbQ0gyXTEpYzJuW25IXWMobjIpLWMzW2NIXVtjSF1bY0hdW2NIXVtjSF0z

> <s_epik_cmdline>
J2VwaWtfcHl0aG9uJywgJy1waCcsICc3LjAnLCAnLXRuJywgJzgnLCAnLW1hJywgJzIwMCcsICctbWV0YWxfYmluZGluZycsICctaW1hZScsICc8aW5maWxlLm1hZT4nLCAnLW9tYWUnLCAnPG91dGZpbGUubWFlPic=

> <r_lp_tautomer_probability>
0.948284

> <r_epik_Ionization_Penalty>
0.163822

> <r_epik_Ionization_Penalty_Charging>
0.0371552

> <r_epik_Ionization_Penalty_Neutral>
0.126667

> <r_epik_State_Penalty>
0.318338

> <r_epik_Charging_Adjusted_Penalty>
0.355493

> <i_epik_Tot_Q>
1

> <i_epik_Tot_abs_Q>
1

> <r_epik_Metal_State_Penalty>
0.81572

> <b_epik_Metal_Only>
0

> <s_lp_Force_Field>
OPLS_2005

> <r_lp_Energy>
24.6024

> <b_lp_Chiralities_Consistent>
1

> <s_lp_Variant>
AV-unprocessed.smi:47-3

> <Gold.Version>
5.8.1

> <Gold.Id.Protein>
6NUR|6NUR_protein|mol2

> <Gold.PLP.Fitness>
47.2160

> <Gold.PLP.PLP>
-36.8485

> <Gold.PLP.part.hbond>
-3.0000

> <Gold.PLP.part.metal>
0.0000

> <Gold.PLP.part.buried>
-3.2920

> <Gold.PLP.part.nonpolar>
-30.0584

> <Gold.PLP.part.repulsive>
0.3759

> <Gold.PLP.ligand.clash>
0.0000

> <Gold.PLP.ligand.torsion>
0.8219

> <Gold.PLP.Chemscore.Hbond>
4.0000

> <Gold.PLP.Chemscore.CHOScore>
0.0000

> <Gold.PLP.Chemscore.Metal>
0.0000

> <Gold.Chemscore.Hbonds>
donor molecule, donor type, donor heavy atom, donor atom, acceptor molecule, acceptor atom, score
      L1  H     1    21       P1 10175  1.00
      L1  H     4    24       P1  8028  2.00
      P1  H  7989  7998       L1     7  0.83

> <Gold.PLP.Chemscore.Internal.Correction>
0.0112

> <Gold.Rescore>
     Score         DG    S(hbond)    S(metal)    S(lipo)     H(rot)  DE(clash)    DE(int)     intcor
     17.99     -18.45       2.33        0.00      77.02       1.50       0.01       0.46       ----

> <Gold.Chemscore.Fitness>
17.9873

> <Gold.Chemscore.DG>
-18.4548

> <Gold.Chemscore.ZeroCoef>
-5.4800

> <Gold.Chemscore.Hbond>
2.3337

> <Gold.Chemscore.Metal>
0.0000

> <Gold.Chemscore.Lipo>
77.0216

> <Gold.Chemscore.Internal_Hbond>
0.0000

> <Gold.Chemscore.DEClash>
0.0098

> <Gold.Chemscore.DEInternal>
0.4578

> <Gold.Chemscore.Rot>
1.4966

> <Gold.Chemscore.Internal.Correction>
   9.000000E+99

> <Gold.Chemscore.Hbonds>
donor molecule, donor type, donor heavy atom, donor atom, acceptor molecule, acceptor atom, score
      L1  H     1    21       P1 10175  0.96
      L1  H     4    24       P1  8028  0.84
      P1  H  7989  7998       L1     7  0.13

> <Gold.Chemscore.Hbond.Weighted>
-7.7945

> <Gold.Chemscore.Metal.Weighted>
-0.0000

> <Gold.Chemscore.Lipo.Weighted>
-9.0115

> <Gold.Chemscore.Internal_Hbond.Weighted>
0.0000

> <Gold.Chemscore.DEClash.Weighted>
0.0098

> <Gold.Chemscore.DEInternal.Weighted>
0.4578

> <Gold.Chemscore.Rot.Weighted>
3.8312

> <Gold.Chemscore.Internal.Correction.Weighted>
   9.000000E+99

> <Gold.Protein.RotatedTorsions>
[ 6907 6896 6895 6894 ] final   96.88 input  -60.11 | X-H torsion
[ 7974 7965 7964 7962 ] final   77.33 input  175.53 | X-H torsion
[ 8008 7997 7996 7995 ] final -122.74 input   59.86 | X-H torsion
[ 10167 10162 10161 10158 ] final  -13.08 input  -65.29 | X-H torsion
[ 10718 10713 10712 10709 ] final   97.88 input   66.30 | X-H torsion
[ 10763 10752 10751 10750 ] final   82.19 input  -60.55 | X-H torsion
[ 11005 11000 10999 10996 ] final   30.28 input  -57.11 | X-H torsion

> <Gold.Protein.ActiveResidues>
 VAL166  LYS551  ARG553  GLY616  TRP617  ASP618  TYR619  PRO620  LYS621  CYS622 
 ASP623  PHE694  ASN695  SER759  ASP760  ASP761  ALA762  ILE779  LEU786  VAL792 
 PHE793  MET794  SER795  GLU796  ALA797  LYS798  CYS799  TRP800  GLU811  SER814 

> <Gold.Protein.RotatedAtoms>
  152.5430  134.0819  159.8238 H   0  0  0  0  0  0  0  0  0  0  0  0  # atno 6907 bound_to 6896
  151.0919  133.5302  159.2622 H   0  0  0  0  0  0  0  0  0  0  0  0  # atno 6908 bound_to 6896
  151.2089  135.0482  159.8957 H   0  0  0  0  0  0  0  0  0  0  0  0  # atno 6909 bound_to 6896
  145.6914  139.2554  143.1757 H   0  0  0  0  0  0  0  0  0  0  0  0  # atno 7974 bound_to 7965
  155.1692  140.0407  157.2859 H   0  0  0  0  0  0  0  0  0  0  0  0  # atno 8008 bound_to 7997
  154.6281  140.2517  155.7439 H   0  0  0  0  0  0  0  0  0  0  0  0  # atno 8009 bound_to 7997
  156.2470  140.2881  156.0621 H   0  0  0  0  0  0  0  0  0  0  0  0  # atno 8010 bound_to 7997
  140.7175  143.5464  150.9350 H   0  0  0  0  0  0  0  0  0  0  0  0  # atno 10167 bound_to 10162
  157.6905  131.0623  150.4712 H   0  0  0  0  0  0  0  0  0  0  0  0  # atno 10718 bound_to 10713
  153.1181  135.4737  154.9150 H   0  0  0  0  0  0  0  0  0  0  0  0  # atno 10763 bound_to 10752
  154.7549  135.3116  154.8491 H   0  0  0  0  0  0  0  0  0  0  0  0  # atno 10764 bound_to 10752
  153.9062  135.6870  153.4806 H   0  0  0  0  0  0  0  0  0  0  0  0  # atno 10765 bound_to 10752
  140.2960  134.2810  155.7764 H   0  0  0  0  0  0  0  0  0  0  0  0  # atno 11005 bound_to 11000
  146.0878  140.7691  142.9610 LP  0  0  0  0  0  0  0  0  0  0  0  0  # atno 17320 bound_to 7965
  144.6995  140.3590  143.7167 LP  0  0  0  0  0  0  0  0  0  0  0  0  # atno 17321 bound_to 7965
  139.9188  143.6631  152.3101 LP  0  0  0  0  0  0  0  0  0  0  0  0  # atno 17342 bound_to 10162
  139.7040  144.7631  151.1224 LP  0  0  0  0  0  0  0  0  0  0  0  0  # atno 17343 bound_to 10162
  156.5049  130.4126  149.6332 LP  0  0  0  0  0  0  0  0  0  0  0  0  # atno 17370 bound_to 10713
  156.3293  130.7323  151.2249 LP  0  0  0  0  0  0  0  0  0  0  0  0  # atno 17371 bound_to 10713
  141.2137  133.7615  156.9696 LP  0  0  0  0  0  0  0  0  0  0  0  0  # atno 17394 bound_to 11000
  140.1152  134.9452  157.2124 LP  0  0  0  0  0  0  0  0  0  0  0  0  # atno 17395 bound_to 11000

$$$$
