AV-unprocessed.smi:2430|AV-procd|sdf|9584|dock2
  -GOLD-   2272013213D 1   1.00000     0.00000
 Structure written by MMmdl.
 46 47  0  0  0  0  0  0  0  0  1 V2000
  151.6230  145.2561  158.9203 C   0  0  0  0  0  0  0  0  0  0  0  0
  152.1238  143.8943  158.4279 C   0  0  2  0  0  0  0  0  0  0  0  0
  151.0373  143.1236  157.6550 C   0  0  0  0  0  0  0  0  0  0  0  0
  151.4998  141.7815  157.3118 N   0  0  0  0  0  0  0  0  0  0  0  0
  150.7732  141.0359  156.3544 C   0  0  0  0  0  0  0  0  0  0  0  0
  149.5690  141.5144  155.7785 C   0  0  0  0  0  0  0  0  0  0  0  0
  148.9043  140.7260  154.8205 C   0  0  0  0  0  0  0  0  0  0  0  0
  149.4519  139.4843  154.4463 C   0  0  0  0  0  0  0  0  0  0  0  0
  148.7482  138.7028  153.4904 N   0  0  0  0  0  0  0  0  0  0  0  0
  147.4244  138.6524  153.2624 C   0  0  0  0  0  0  0  0  0  0  0  0
  146.5681  139.2685  153.8967 O   0  0  0  0  0  0  0  0  0  0  0  0
  147.1380  137.8190  152.2522 N   0  0  0  0  0  0  0  0  0  0  0  0
  145.7963  137.5392  151.7533 C   0  0  0  0  0  0  0  0  0  0  0  0
  145.4891  136.0329  151.7705 C   0  0  0  0  0  0  0  0  0  0  0  0
  144.3433  135.6594  150.8212 C   0  0  0  0  0  0  0  0  0  0  0  0
  144.7033  135.9660  149.4916 O   0  0  0  0  0  0  0  0  0  0  0  0
  150.6491  139.0809  155.0819 C   0  0  0  0  0  0  0  0  0  0  0  0
  151.2884  139.8336  156.0014 N   0  0  0  0  0  0  0  0  0  0  0  0
  152.0518  141.0378  158.4440 C   0  0  0  0  0  0  0  0  0  0  0  0
  153.1029  141.8811  159.1900 C   0  0  2  0  0  0  0  0  0  0  0  0
  153.6005  141.1856  160.4612 C   0  0  0  0  0  0  0  0  0  0  0  0
  152.5268  143.1300  159.5601 O   0  0  0  0  0  0  0  0  0  0  0  0
  151.3105  145.8846  158.0859 H   0  0  0  0  0  0  0  0  0  0  0  0
  152.4071  145.7871  159.4604 H   0  0  0  0  0  0  0  0  0  0  0  0
  150.7721  145.1442  159.5929 H   0  0  0  0  0  0  0  0  0  0  0  0
  152.9876  144.0577  157.7808 H   0  0  0  0  0  0  0  0  0  0  0  0
  150.1282  143.0465  158.2530 H   0  0  0  0  0  0  0  0  0  0  0  0
  150.7935  143.6820  156.7508 H   0  0  0  0  0  0  0  0  0  0  0  0
  149.1345  142.4629  156.0544 H   0  0  0  0  0  0  0  0  0  0  0  0
  147.9834  141.0765  154.3775 H   0  0  0  0  0  0  0  0  0  0  0  0
  149.3173  138.0748  152.9421 H   0  0  0  0  0  0  0  0  0  0  0  0
  147.9027  137.3484  151.7906 H   0  0  0  0  0  0  0  0  0  0  0  0
  145.0839  138.0705  152.3852 H   0  0  0  0  0  0  0  0  0  0  0  0
  145.6785  137.9427  150.7460 H   0  0  0  0  0  0  0  0  0  0  0  0
  146.3829  135.4724  151.4924 H   0  0  0  0  0  0  0  0  0  0  0  0
  145.2350  135.7257  152.7862 H   0  0  0  0  0  0  0  0  0  0  0  0
  144.1155  134.5956  150.8912 H   0  0  0  0  0  0  0  0  0  0  0  0
  143.4363  136.2069  151.0791 H   0  0  0  0  0  0  0  0  0  0  0  0
  144.3845  136.8315  149.2853 H   0  0  0  0  0  0  0  0  0  0  0  0
  151.1130  138.1283  154.8808 H   0  0  0  0  0  0  0  0  0  0  0  0
  151.2353  140.7712  159.1163 H   0  0  0  0  0  0  0  0  0  0  0  0
  152.5178  140.1058  158.1243 H   0  0  0  0  0  0  0  0  0  0  0  0
  153.9592  142.0608  158.5374 H   0  0  0  0  0  0  0  0  0  0  0  0
  154.0635  140.2265  160.2276 H   0  0  0  0  0  0  0  0  0  0  0  0
  152.7815  141.0018  161.1571 H   0  0  0  0  0  0  0  0  0  0  0  0
  154.3431  141.7967  160.9744 H   0  0  0  0  0  0  0  0  0  0  0  0
  1  2  1  0  0  0  0
  1 23  1  0  0  0  0
  1 24  1  0  0  0  0
  1 25  1  0  0  0  0
  2 22  1  0  0  0  0
  2  3  1  0  0  0  0
  2 26  1  0  0  0  0
  3  4  1  0  0  0  0
  3 27  1  0  0  0  0
  3 28  1  0  0  0  0
  4  5  1  0  0  0  0
  4 19  1  0  0  0  0
  5 18  1  0  0  0  0
  5  6  2  0  0  0  0
  6  7  1  0  0  0  0
  6 29  1  0  0  0  0
  7  8  2  0  0  0  0
  7 30  1  0  0  0  0
  8  9  1  0  0  0  0
  8 17  1  0  0  0  0
  9 10  1  0  0  0  0
  9 31  1  0  0  0  0
 10 11  2  0  0  0  0
 10 12  1  0  0  0  0
 12 13  1  0  0  0  0
 12 32  1  0  0  0  0
 13 14  1  0  0  0  0
 13 33  1  0  0  0  0
 13 34  1  0  0  0  0
 14 15  1  0  0  0  0
 14 35  1  0  0  0  0
 14 36  1  0  0  0  0
 15 16  1  0  0  0  0
 15 37  1  0  0  0  0
 15 38  1  0  0  0  0
 16 39  1  0  0  0  0
 17 18  2  0  0  0  0
 17 40  1  0  0  0  0
 19 20  1  0  0  0  0
 19 41  1  0  0  0  0
 19 42  1  0  0  0  0
 20 21  1  0  0  0  0
 20 22  1  0  0  0  0
 20 43  1  0  0  0  0
 21 44  1  0  0  0  0
 21 45  1  0  0  0  0
 21 46  1  0  0  0  0
M  END
> <s_m_source_file>
AV-unprocessed.smi

> <i_m_source_file_index>
2430

> <i_lp_mmshare_version>
43012

> <i_f3d_flags>
0

> <s_epik_input>
W0NIM11bQ0BASF0xW0NIMl1OKFtDSDJdW0NASF0oTzEpW0NIM10pYzJbY0hdW2NIXWMoW2NIXW4yKVtOSF1DKD1PKVtOSF1bQ0gyXVtDSDJdW0NIMl1bT0hd

> <s_epik_cmdline>
J2VwaWtfcHl0aG9uJywgJy1waCcsICc3LjAnLCAnLXRuJywgJzgnLCAnLW1hJywgJzIwMCcsICctbWV0YWxfYmluZGluZycsICctaW1hZScsICc8aW5maWxlLm1hZT4nLCAnLW9tYWUnLCAnPG91dGZpbGUubWFlPic=

> <r_lp_tautomer_probability>
1

> <r_epik_Ionization_Penalty>
0.00269907

> <r_epik_Ionization_Penalty_Charging>
0

> <r_epik_Ionization_Penalty_Neutral>
0.00269907

> <r_epik_State_Penalty>
0.00185337

> <r_epik_Charging_Adjusted_Penalty>
0.00185337

> <i_epik_Tot_Q>
0

> <i_epik_Tot_abs_Q>
0

> <r_epik_Metal_State_Penalty>
-0

> <b_epik_Metal_Only>
0

> <s_lp_Force_Field>
OPLS_2005

> <r_lp_Energy>
18.4655

> <b_lp_Chiralities_Consistent>
1

> <s_lp_Variant>
AV-unprocessed.smi:2430-2

> <Gold.Version>
5.8.1

> <Gold.Id.Protein>
6NUR|6NUR_protein|mol2

> <Gold.PLP.Fitness>
51.9939

> <Gold.PLP.PLP>
-45.2208

> <Gold.PLP.part.hbond>
-4.6527

> <Gold.PLP.part.metal>
0.0000

> <Gold.PLP.part.buried>
-4.0490

> <Gold.PLP.part.nonpolar>
-38.5112

> <Gold.PLP.part.repulsive>
0.3291

> <Gold.PLP.ligand.clash>
0.0000

> <Gold.PLP.ligand.torsion>
0.5790

> <Gold.PLP.Chemscore.Hbond>
2.4851

> <Gold.PLP.Chemscore.CHOScore>
0.0000

> <Gold.PLP.Chemscore.Metal>
0.0000

> <Gold.Chemscore.Hbonds>
donor molecule, donor type, donor heavy atom, donor atom, acceptor molecule, acceptor atom, score
      L1  H     9    31       P1  7948  0.54
      L1  H    12    32       P1  7948  0.92
      L1  H    16    39       P1 10171  1.00

> <Gold.PLP.Chemscore.Internal.Correction>
0.4758

> <Gold.Rescore>
     Score         DG    S(hbond)    S(metal)    S(lipo)     H(rot)  DE(clash)    DE(int)     intcor
     19.03     -20.90       2.80        0.00     102.94       2.33       0.03       1.84       ----

> <Gold.Chemscore.Fitness>
19.0280

> <Gold.Chemscore.DG>
-20.9046

> <Gold.Chemscore.ZeroCoef>
-5.4800

> <Gold.Chemscore.Hbond>
2.8016

> <Gold.Chemscore.Metal>
0.0000

> <Gold.Chemscore.Lipo>
102.9395

> <Gold.Chemscore.Internal_Hbond>
0.0000

> <Gold.Chemscore.DEClash>
0.0344

> <Gold.Chemscore.DEInternal>
1.8422

> <Gold.Chemscore.Rot>
2.3346

> <Gold.Chemscore.Internal.Correction>
   9.000000E+99

> <Gold.Chemscore.Hbonds>
donor molecule, donor type, donor heavy atom, donor atom, acceptor molecule, acceptor atom, score
      L1  H     9    31       P1  7948  0.51
      L1  H    12    32       P1  7948  0.84
      L1  H    16    39       P1 10171  0.97

> <Gold.Chemscore.Hbond.Weighted>
-9.3572

> <Gold.Chemscore.Metal.Weighted>
-0.0000

> <Gold.Chemscore.Lipo.Weighted>
-12.0439

> <Gold.Chemscore.Internal_Hbond.Weighted>
0.0000

> <Gold.Chemscore.DEClash.Weighted>
0.0344

> <Gold.Chemscore.DEInternal.Weighted>
1.8422

> <Gold.Chemscore.Rot.Weighted>
5.9766

> <Gold.Chemscore.Internal.Correction.Weighted>
   9.000000E+99

> <Gold.Protein.RotatedTorsions>
[ 6907 6896 6895 6894 ] final -136.34 input  -60.11 | X-H torsion
[ 7974 7965 7964 7962 ] final  -16.36 input  175.53 | X-H torsion
[ 8008 7997 7996 7995 ] final -124.41 input   59.86 | X-H torsion
[ 10167 10162 10161 10158 ] final   78.46 input  -65.29 | X-H torsion
[ 10718 10713 10712 10709 ] final -114.83 input   66.30 | X-H torsion
[ 10763 10752 10751 10750 ] final  151.47 input  -60.55 | X-H torsion
[ 11005 11000 10999 10996 ] final   37.34 input  -57.11 | X-H torsion

> <Gold.Protein.ActiveResidues>
 VAL166  LYS551  ARG553  GLY616  TRP617  ASP618  TYR619  PRO620  LYS621  CYS622 
 ASP623  PHE694  ASN695  SER759  ASP760  ASP761  ALA762  ILE779  LEU786  VAL792 
 PHE793  MET794  SER795  GLU796  ALA797  LYS798  CYS799  TRP800  GLU811  SER814 

> <Gold.Protein.RotatedAtoms>
  151.0088  133.5985  159.2685 H   0  0  0  0  0  0  0  0  0  0  0  0  # atno 6907 bound_to 6896
  151.3144  135.0801  159.9293 H   0  0  0  0  0  0  0  0  0  0  0  0  # atno 6908 bound_to 6896
  152.5294  133.9747  159.7833 H   0  0  0  0  0  0  0  0  0  0  0  0  # atno 6909 bound_to 6896
  146.1991  140.3625  142.8430 H   0  0  0  0  0  0  0  0  0  0  0  0  # atno 7974 bound_to 7965
  155.1965  140.0414  157.2910 H   0  0  0  0  0  0  0  0  0  0  0  0  # atno 8008 bound_to 7997
  154.6103  140.2475  155.7649 H   0  0  0  0  0  0  0  0  0  0  0  0  # atno 8009 bound_to 7997
  156.2375  140.2916  156.0363 H   0  0  0  0  0  0  0  0  0  0  0  0  # atno 8010 bound_to 7997
  139.9707  144.5896  150.7988 H   0  0  0  0  0  0  0  0  0  0  0  0  # atno 10167 bound_to 10162
  156.0855  130.6048  150.8826 H   0  0  0  0  0  0  0  0  0  0  0  0  # atno 10718 bound_to 10713
  154.1043  135.2843  155.3245 H   0  0  0  0  0  0  0  0  0  0  0  0  # atno 10763 bound_to 10752
  154.6534  135.5361  153.7932 H   0  0  0  0  0  0  0  0  0  0  0  0  # atno 10764 bound_to 10752
  153.0368  135.6516  154.1205 H   0  0  0  0  0  0  0  0  0  0  0  0  # atno 10765 bound_to 10752
  140.2236  134.3612  155.7994 H   0  0  0  0  0  0  0  0  0  0  0  0  # atno 11005 bound_to 11000
  144.8643  140.7184  143.6087 LP  0  0  0  0  0  0  0  0  0  0  0  0  # atno 17320 bound_to 7965
  145.3545  139.1697  143.4416 LP  0  0  0  0  0  0  0  0  0  0  0  0  # atno 17321 bound_to 7965
  140.7523  143.2987  151.3136 LP  0  0  0  0  0  0  0  0  0  0  0  0  # atno 17342 bound_to 10162
  139.6483  144.0409  152.2608 LP  0  0  0  0  0  0  0  0  0  0  0  0  # atno 17343 bound_to 10162
  157.5988  131.0942  150.8995 LP  0  0  0  0  0  0  0  0  0  0  0  0  # atno 17370 bound_to 10713
  156.9157  130.5297  149.5279 LP  0  0  0  0  0  0  0  0  0  0  0  0  # atno 17371 bound_to 10713
  141.2222  133.7207  156.8616 LP  0  0  0  0  0  0  0  0  0  0  0  0  # atno 17394 bound_to 11000
  140.1824  134.9024  157.2964 LP  0  0  0  0  0  0  0  0  0  0  0  0  # atno 17395 bound_to 11000

$$$$
