AV-unprocessed.smi:1878|AV-procd|sdf|7629|dock6
  -GOLD-   22720 9353D 1   1.00000     0.00000
 Structure written by MMmdl.
 35 36  0  0  0  0  0  0  0  0  3 V2000
  139.6099  136.2827  155.0574 O   0  0  0  0  0  0  0  0  0  0  0  0
  139.8140  137.3464  154.4611 C   0  0  0  0  0  0  0  0  0  0  0  0
  139.1108  138.5046  154.5662 N   0  5  0  0  0  0  0  0  0  0  0  0
  138.6718  139.3158  153.4268 C   0  0  0  0  0  0  0  0  0  0  0  0
  137.8890  140.5527  153.9056 C   0  0  0  0  0  0  0  0  0  0  0  0
  137.3342  141.1537  152.8528 F   0  0  0  0  0  0  0  0  0  0  0  0
  136.9187  140.1993  154.7504 F   0  0  0  0  0  0  0  0  0  0  0  0
  138.7014  141.4221  154.5089 F   0  0  0  0  0  0  0  0  0  0  0  0
  140.8164  137.4449  153.5694 N   0  0  0  0  0  0  0  0  0  0  0  0
  141.7782  136.4706  153.1902 C   0  0  0  0  0  0  0  0  0  0  0  0
  142.9384  136.9162  152.5226 C   0  0  0  0  0  0  0  0  0  0  0  0
  143.9263  135.9858  152.1403 C   0  0  0  0  0  0  0  0  0  0  0  0
  143.7452  134.6169  152.4472 C   0  0  0  0  0  0  0  0  0  0  0  0
  144.6581  133.6103  152.1036 N   0  0  0  0  0  0  0  0  0  0  0  0
  145.8848  134.0561  151.4642 C   0  0  0  0  0  0  0  0  0  0  0  0
  146.5002  132.7965  150.8501 C   0  0  0  0  0  0  0  0  0  0  0  0
  145.3227  131.8292  150.6770 C   0  0  0  0  0  0  0  0  0  0  0  0
  144.1113  132.5767  151.2416 C   0  0  0  0  0  0  0  0  0  0  0  0
  142.6278  134.2324  153.1015 N   0  3  0  0  0  0  0  0  0  0  0  0
  141.6575  135.0908  153.4836 C   0  0  0  0  0  0  0  0  0  0  0  0
  139.5199  139.6478  152.8261 H   0  0  0  0  0  0  0  0  0  0  0  0
  138.0390  138.7408  152.7490 H   0  0  0  0  0  0  0  0  0  0  0  0
  140.8502  138.3146  153.0579 H   0  0  0  0  0  0  0  0  0  0  0  0
  143.0683  137.9642  152.2949 H   0  0  0  0  0  0  0  0  0  0  0  0
  144.8056  136.3265  151.6141 H   0  0  0  0  0  0  0  0  0  0  0  0
  145.6735  134.7866  150.6827 H   0  0  0  0  0  0  0  0  0  0  0  0
  146.5578  134.5203  152.1857 H   0  0  0  0  0  0  0  0  0  0  0  0
  147.0057  133.0113  149.9083 H   0  0  0  0  0  0  0  0  0  0  0  0
  147.2354  132.3655  151.5308 H   0  0  0  0  0  0  0  0  0  0  0  0
  145.1679  131.5470  149.6351 H   0  0  0  0  0  0  0  0  0  0  0  0
  145.5051  130.9159  151.2446 H   0  0  0  0  0  0  0  0  0  0  0  0
  143.4509  131.9101  151.7972 H   0  0  0  0  0  0  0  0  0  0  0  0
  143.5340  133.0251  150.4316 H   0  0  0  0  0  0  0  0  0  0  0  0
  140.8334  134.6399  154.0160 H   0  0  0  0  0  0  0  0  0  0  0  0
  142.5111  133.2433  153.3222 H   0  0  0  0  0  0  0  0  0  0  0  0
  1  2  2  0  0  0  0
  2  3  1  0  0  0  0
  2  9  1  0  0  0  0
  3  4  1  0  0  0  0
  4  5  1  0  0  0  0
  4 21  1  0  0  0  0
  4 22  1  0  0  0  0
  5  6  1  0  0  0  0
  5  7  1  0  0  0  0
  5  8  1  0  0  0  0
  9 10  1  0  0  0  0
  9 23  1  0  0  0  0
 10 20  1  0  0  0  0
 10 11  2  0  0  0  0
 11 12  1  0  0  0  0
 11 24  1  0  0  0  0
 12 13  2  0  0  0  0
 12 25  1  0  0  0  0
 13 14  1  0  0  0  0
 13 19  1  0  0  0  0
 14 18  1  0  0  0  0
 14 15  1  0  0  0  0
 15 16  1  0  0  0  0
 15 26  1  0  0  0  0
 15 27  1  0  0  0  0
 16 17  1  0  0  0  0
 16 28  1  0  0  0  0
 16 29  1  0  0  0  0
 17 18  1  0  0  0  0
 17 30  1  0  0  0  0
 17 31  1  0  0  0  0
 18 32  1  0  0  0  0
 18 33  1  0  0  0  0
 19 20  2  0  0  0  0
 19 35  1  0  0  0  0
 20 34  1  0  0  0  0
M  CHG  1   3  -1
M  CHG  1  19   1
M  END
> <s_m_source_file>
AV-unprocessed.smi

> <i_m_source_file_index>
1878

> <i_lp_mmshare_version>
43012

> <i_f3d_flags>
0

> <s_epik_input>
RkMoRikoRilbQ0gyXVtOSF1DKD1PKVtOSF1jMVtjSF1bY0hdYyhuW2NIXTEpTjJbQ0gyXVtDSDJdW0NIMl1bQ0gyXTI=

> <s_epik_cmdline>
J2VwaWtfcHl0aG9uJywgJy1waCcsICc3LjAnLCAnLXRuJywgJzgnLCAnLW1hJywgJzIwMCcsICctbWV0YWxfYmluZGluZycsICctaW1hZScsICc8aW5maWxlLm1hZT4nLCAnLW9tYWUnLCAnPG91dGZpbGUubWFlPic=

> <r_lp_tautomer_probability>
0.999994

> <r_epik_Ionization_Penalty>
8.03425

> <r_epik_Ionization_Penalty_Charging>
8.03425

> <r_epik_Ionization_Penalty_Neutral>
2.43273e-06

> <r_epik_State_Penalty>
7.63947

> <r_epik_Charging_Adjusted_Penalty>
15.6737

> <i_epik_Tot_Q>
0

> <i_epik_Tot_abs_Q>
2

> <r_epik_Metal_State_Penalty>
3.63831

> <b_epik_Metal_Only>
1

> <s_lp_Force_Field>
OPLS_2005

> <r_lp_Energy>
42.9348

> <b_lp_Chiralities_Consistent>
1

> <s_lp_Variant>
AV-unprocessed.smi:1878-4

> <Gold.Version>
5.8.1

> <Gold.Id.Protein>
6NUR|6NUR_protein|mol2

> <Gold.PLP.Fitness>
42.3897

> <Gold.PLP.PLP>
-34.3663

> <Gold.PLP.part.hbond>
-2.0000

> <Gold.PLP.part.metal>
0.0000

> <Gold.PLP.part.buried>
-7.0717

> <Gold.PLP.part.nonpolar>
-25.1244

> <Gold.PLP.part.repulsive>
0.2124

> <Gold.PLP.ligand.clash>
0.0000

> <Gold.PLP.ligand.torsion>
0.5123

> <Gold.PLP.Chemscore.Hbond>
3.0000

> <Gold.PLP.Chemscore.CHOScore>
0.0000

> <Gold.PLP.Chemscore.Metal>
0.0000

> <Gold.Chemscore.Hbonds>
donor molecule, donor type, donor heavy atom, donor atom, acceptor molecule, acceptor atom, score
      L1  H    19    35       P1 10957  1.72
      P1  H 11000 11005       L1     1  1.00

> <Gold.PLP.Chemscore.Internal.Correction>
0.0480

> <Gold.Rescore>
     Score         DG    S(hbond)    S(metal)    S(lipo)     H(rot)  DE(clash)    DE(int)     intcor
     14.23     -16.01       1.98        0.00      62.54       1.33       0.03       1.75       ----

> <Gold.Chemscore.Fitness>
14.2265

> <Gold.Chemscore.DG>
-16.0074

> <Gold.Chemscore.ZeroCoef>
-5.4800

> <Gold.Chemscore.Hbond>
1.9817

> <Gold.Chemscore.Metal>
0.0000

> <Gold.Chemscore.Lipo>
62.5442

> <Gold.Chemscore.Internal_Hbond>
0.0000

> <Gold.Chemscore.DEClash>
0.0324

> <Gold.Chemscore.DEInternal>
1.7484

> <Gold.Chemscore.Rot>
1.3317

> <Gold.Chemscore.Internal.Correction>
   9.000000E+99

> <Gold.Chemscore.Hbonds>
donor molecule, donor type, donor heavy atom, donor atom, acceptor molecule, acceptor atom, score
      L1  H    19    35       P1 10957  0.72
      P1  H 11000 11005       L1     1  0.99

> <Gold.Chemscore.Hbond.Weighted>
-6.6189

> <Gold.Chemscore.Metal.Weighted>
-0.0000

> <Gold.Chemscore.Lipo.Weighted>
-7.3177

> <Gold.Chemscore.Internal_Hbond.Weighted>
0.0000

> <Gold.Chemscore.DEClash.Weighted>
0.0324

> <Gold.Chemscore.DEInternal.Weighted>
1.7484

> <Gold.Chemscore.Rot.Weighted>
3.4092

> <Gold.Chemscore.Internal.Correction.Weighted>
   9.000000E+99

> <Gold.Protein.RotatedTorsions>
[ 6907 6896 6895 6894 ] final   45.94 input  -60.11 | X-H torsion
[ 7974 7965 7964 7962 ] final  145.55 input  175.53 | X-H torsion
[ 8008 7997 7996 7995 ] final  -75.50 input   59.86 | X-H torsion
[ 10167 10162 10161 10158 ] final -144.60 input  -65.29 | X-H torsion
[ 10718 10713 10712 10709 ] final -104.67 input   66.30 | X-H torsion
[ 10763 10752 10751 10750 ] final  -91.58 input  -60.55 | X-H torsion
[ 11005 11000 10999 10996 ] final   89.29 input  -57.11 | X-H torsion

> <Gold.Protein.ActiveResidues>
 VAL166  LYS551  ARG553  GLY616  TRP617  ASP618  TYR619  PRO620  LYS621  CYS622 
 ASP623  PHE694  ASN695  SER759  ASP760  ASP761  ALA762  ILE779  LEU786  VAL792 
 PHE793  MET794  SER795  GLU796  ALA797  LYS798  CYS799  TRP800  GLU811  SER814 

> <Gold.Protein.RotatedAtoms>
  152.2505  134.8138  160.0446 H   0  0  0  0  0  0  0  0  0  0  0  0  # atno 6907 bound_to 6896
  151.8820  133.3492  159.3777 H   0  0  0  0  0  0  0  0  0  0  0  0  # atno 6908 bound_to 6896
  150.7082  134.4936  159.5571 H   0  0  0  0  0  0  0  0  0  0  0  0  # atno 6909 bound_to 6896
  144.8743  139.5797  143.5872 H   0  0  0  0  0  0  0  0  0  0  0  0  # atno 7974 bound_to 7965
  154.5422  140.0743  156.8529 H   0  0  0  0  0  0  0  0  0  0  0  0  # atno 8008 bound_to 7997
  155.3158  140.3393  155.4224 H   0  0  0  0  0  0  0  0  0  0  0  0  # atno 8009 bound_to 7997
  156.1885  140.1677  156.8125 H   0  0  0  0  0  0  0  0  0  0  0  0  # atno 8010 bound_to 7997
  139.7884  143.8001  152.2647 H   0  0  0  0  0  0  0  0  0  0  0  0  # atno 10167 bound_to 10162
  156.0314  130.5526  150.7430 H   0  0  0  0  0  0  0  0  0  0  0  0  # atno 10718 bound_to 10713
  154.6775  135.5262  153.8219 H   0  0  0  0  0  0  0  0  0  0  0  0  # atno 10763 bound_to 10752
  153.0542  135.6544  154.0628 H   0  0  0  0  0  0  0  0  0  0  0  0  # atno 10764 bound_to 10752
  154.0519  135.2968  155.3319 H   0  0  0  0  0  0  0  0  0  0  0  0  # atno 10765 bound_to 10752
  139.8878  134.8542  156.3121 H   0  0  0  0  0  0  0  0  0  0  0  0  # atno 11005 bound_to 11000
  146.2952  139.7256  142.9132 LP  0  0  0  0  0  0  0  0  0  0  0  0  # atno 17320 bound_to 7965
  145.4072  141.0392  143.3037 LP  0  0  0  0  0  0  0  0  0  0  0  0  # atno 17321 bound_to 7965
  139.8085  144.7345  150.9729 LP  0  0  0  0  0  0  0  0  0  0  0  0  # atno 17342 bound_to 10162
  140.7820  143.4274  151.0747 LP  0  0  0  0  0  0  0  0  0  0  0  0  # atno 17343 bound_to 10162
  157.4994  131.0917  151.0333 LP  0  0  0  0  0  0  0  0  0  0  0  0  # atno 17370 bound_to 10713
  157.0718  130.5867  149.5404 LP  0  0  0  0  0  0  0  0  0  0  0  0  # atno 17371 bound_to 10713
  140.9843  133.7248  156.0718 LP  0  0  0  0  0  0  0  0  0  0  0  0  # atno 17394 bound_to 11000
  140.7709  134.3834  157.5508 LP  0  0  0  0  0  0  0  0  0  0  0  0  # atno 17395 bound_to 11000

$$$$
