AV-unprocessed.smi:1239|AV-procd|sdf|5187|dock4
  -GOLD-   22720 4273D 1   1.00000     0.00000
 Structure written by MMmdl.
 47 48  0  0  0  0  0  0  0  0  1 V2000
  153.5247  136.4468  164.4182 C   0  0  0  0  0  0  0  0  0  0  0  0
  154.5032  135.6133  163.5598 C   0  0  2  0  0  0  0  0  0  0  0  0
  154.5696  136.2538  162.1504 C   0  0  0  0  0  0  0  0  0  0  0  0
  154.5838  137.7135  162.2197 N   0  0  0  0  0  0  0  0  0  0  0  0
  153.9763  138.5408  161.3579 C   0  0  0  0  0  0  0  0  0  0  0  0
  153.3156  138.1545  160.3941 O   0  0  0  0  0  0  0  0  0  0  0  0
  154.2042  139.8264  161.6778 N   0  0  0  0  0  0  0  0  0  0  0  0
  153.7315  140.9986  161.0266 C   0  0  0  0  0  0  0  0  0  0  0  0
  153.3160  142.0791  161.8275 C   0  0  0  0  0  0  0  0  0  0  0  0
  152.8282  143.2480  161.2128 C   0  0  0  0  0  0  0  0  0  0  0  0
  152.7585  143.3088  159.7990 C   0  0  0  0  0  0  0  0  0  0  0  0
  152.2812  144.4604  159.1319 N   0  0  0  0  0  0  0  0  0  0  0  0
  151.9479  145.6574  159.8974 C   0  0  0  0  0  0  0  0  0  0  0  0
  152.1041  144.4504  157.6853 C   0  0  0  0  0  0  0  0  0  0  0  0
  153.1445  142.2605  159.0314 N   0  0  0  0  0  0  0  0  0  0  0  0
  153.6121  141.1419  159.6243 C   0  0  0  0  0  0  0  0  0  0  0  0
  154.1984  134.1653  163.5540 N   0  0  0  0  0  0  0  0  0  0  0  0
  155.2476  133.3723  162.9059 C   0  0  0  0  0  0  0  0  0  0  0  0
  154.9435  131.8641  162.9197 C   0  0  0  0  0  0  0  0  0  0  0  0
  154.7528  131.4262  164.2584 O   0  0  0  0  0  0  0  0  0  0  0  0
  153.6957  132.1221  164.9054 C   0  0  0  0  0  0  0  0  0  0  0  0
  153.9926  133.6316  164.9039 C   0  0  0  0  0  0  0  0  0  0  0  0
  153.7109  137.5151  164.3044 H   0  0  0  0  0  0  0  0  0  0  0  0
  153.6274  136.2334  165.4816 H   0  0  0  0  0  0  0  0  0  0  0  0
  152.4874  136.2629  164.1358 H   0  0  0  0  0  0  0  0  0  0  0  0
  155.4922  135.7443  164.0020 H   0  0  0  0  0  0  0  0  0  0  0  0
  155.4547  135.8800  161.6331 H   0  0  0  0  0  0  0  0  0  0  0  0
  153.7338  135.9397  161.5266 H   0  0  0  0  0  0  0  0  0  0  0  0
  155.1133  138.1209  162.9766 H   0  0  0  0  0  0  0  0  0  0  0  0
  154.8327  139.9856  162.4516 H   0  0  0  0  0  0  0  0  0  0  0  0
  153.3728  142.0192  162.9046 H   0  0  0  0  0  0  0  0  0  0  0  0
  152.5191  144.0721  161.8377 H   0  0  0  0  0  0  0  0  0  0  0  0
  152.8269  146.0333  160.4221 H   0  0  0  0  0  0  0  0  0  0  0  0
  151.1727  145.4386  160.6324 H   0  0  0  0  0  0  0  0  0  0  0  0
  151.5791  146.4542  159.2516 H   0  0  0  0  0  0  0  0  0  0  0  0
  151.3799  143.6897  157.3933 H   0  0  0  0  0  0  0  0  0  0  0  0
  153.0503  144.2435  157.1846 H   0  0  0  0  0  0  0  0  0  0  0  0
  151.7407  145.4121  157.3232 H   0  0  0  0  0  0  0  0  0  0  0  0
  153.8718  140.3483  158.9418 H   0  0  0  0  0  0  0  0  0  0  0  0
  155.3660  133.6704  161.8656 H   0  0  0  0  0  0  0  0  0  0  0  0
  156.2048  133.5524  163.3978 H   0  0  0  0  0  0  0  0  0  0  0  0
  154.0549  131.6436  162.3262 H   0  0  0  0  0  0  0  0  0  0  0  0
  155.7698  131.3074  162.4777 H   0  0  0  0  0  0  0  0  0  0  0  0
  152.7500  131.9140  164.4027 H   0  0  0  0  0  0  0  0  0  0  0  0
  153.6021  131.7557  165.9278 H   0  0  0  0  0  0  0  0  0  0  0  0
  154.8735  133.8268  165.5173 H   0  0  0  0  0  0  0  0  0  0  0  0
  153.1544  134.1299  165.3883 H   0  0  0  0  0  0  0  0  0  0  0  0
  1  2  1  0  0  0  0
  1 23  1  0  0  0  0
  1 24  1  0  0  0  0
  1 25  1  0  0  0  0
  2  3  1  0  0  0  0
  2 17  1  0  0  0  0
  2 26  1  0  0  0  0
  3  4  1  0  0  0  0
  3 27  1  0  0  0  0
  3 28  1  0  0  0  0
  4  5  1  0  0  0  0
  4 29  1  0  0  0  0
  5  6  2  0  0  0  0
  5  7  1  0  0  0  0
  7  8  1  0  0  0  0
  7 30  1  0  0  0  0
  8 16  1  0  0  0  0
  8  9  2  0  0  0  0
  9 10  1  0  0  0  0
  9 31  1  0  0  0  0
 10 11  2  0  0  0  0
 10 32  1  0  0  0  0
 11 12  1  0  0  0  0
 11 15  1  0  0  0  0
 12 13  1  0  0  0  0
 12 14  1  0  0  0  0
 13 33  1  0  0  0  0
 13 34  1  0  0  0  0
 13 35  1  0  0  0  0
 14 36  1  0  0  0  0
 14 37  1  0  0  0  0
 14 38  1  0  0  0  0
 15 16  2  0  0  0  0
 16 39  1  0  0  0  0
 17 22  1  0  0  0  0
 17 18  1  0  0  0  0
 18 19  1  0  0  0  0
 18 40  1  0  0  0  0
 18 41  1  0  0  0  0
 19 20  1  0  0  0  0
 19 42  1  0  0  0  0
 19 43  1  0  0  0  0
 20 21  1  0  0  0  0
 21 22  1  0  0  0  0
 21 44  1  0  0  0  0
 21 45  1  0  0  0  0
 22 46  1  0  0  0  0
 22 47  1  0  0  0  0
M  END
> <s_m_source_file>
AV-unprocessed.smi

> <i_m_source_file_index>
1239

> <i_lp_mmshare_version>
43012

> <i_f3d_flags>
0

> <s_epik_input>
W0NIMl0xW0NIMl1PW0NIMl1bQ0gyXU4xW0NASF0oW0NIM10pW0NIMl1bTkhdQyg9TylbTkhdYzJbY0hdW2NIXWMoTihbQ0gzXSlbQ0gzXSluW2NIXTI=

> <s_epik_cmdline>
J2VwaWtfcHl0aG9uJywgJy1waCcsICc3LjAnLCAnLXRuJywgJzgnLCAnLW1hJywgJzIwMCcsICctbWV0YWxfYmluZGluZycsICctaW1hZScsICc8aW5maWxlLm1hZT4nLCAnLW9tYWUnLCAnPG91dGZpbGUubWFlPic=

> <r_lp_tautomer_probability>
1

> <r_epik_Ionization_Penalty>
0.87526

> <r_epik_Ionization_Penalty_Charging>
0

> <r_epik_Ionization_Penalty_Neutral>
0.87526

> <r_epik_State_Penalty>
0.859346

> <r_epik_Charging_Adjusted_Penalty>
0.859346

> <i_epik_Tot_Q>
0

> <i_epik_Tot_abs_Q>
0

> <r_epik_Metal_State_Penalty>
0.538105

> <b_epik_Metal_Only>
0

> <s_lp_Force_Field>
OPLS_2005

> <r_lp_Energy>
39.6376

> <b_lp_Chiralities_Consistent>
1

> <s_lp_Variant>
AV-unprocessed.smi:1239-3

> <Gold.Version>
5.8.1

> <Gold.Id.Protein>
6NUR|6NUR_protein|mol2

> <Gold.PLP.Fitness>
49.7012

> <Gold.PLP.PLP>
-51.0070

> <Gold.PLP.part.hbond>
0.0000

> <Gold.PLP.part.metal>
0.0000

> <Gold.PLP.part.buried>
-5.6858

> <Gold.PLP.part.nonpolar>
-45.1570

> <Gold.PLP.part.repulsive>
0.0362

> <Gold.PLP.ligand.clash>
0.0204

> <Gold.PLP.ligand.torsion>
0.6717

> <Gold.PLP.Chemscore.Hbond>
0.0000

> <Gold.PLP.Chemscore.CHOScore>
0.0000

> <Gold.PLP.Chemscore.Metal>
0.0000

> <Gold.PLP.Chemscore.Internal.Correction>
0.0580

> <Gold.Rescore>
     Score         DG    S(hbond)    S(metal)    S(lipo)     H(rot)  DE(clash)    DE(int)     intcor
     14.44     -15.19       0.00        0.00     114.45       1.44       0.02       0.73       ----

> <Gold.Chemscore.Fitness>
14.4438

> <Gold.Chemscore.DG>
-15.1919

> <Gold.Chemscore.ZeroCoef>
-5.4800

> <Gold.Chemscore.Hbond>
0.0000

> <Gold.Chemscore.Metal>
0.0000

> <Gold.Chemscore.Lipo>
114.4485

> <Gold.Chemscore.Internal_Hbond>
0.0000

> <Gold.Chemscore.DEClash>
0.0163

> <Gold.Chemscore.DEInternal>
0.7317

> <Gold.Chemscore.Rot>
1.4370

> <Gold.Chemscore.Internal.Correction>
   9.000000E+99

> <Gold.Chemscore.Hbond.Weighted>
-0.0000

> <Gold.Chemscore.Metal.Weighted>
-0.0000

> <Gold.Chemscore.Lipo.Weighted>
-13.3905

> <Gold.Chemscore.Internal_Hbond.Weighted>
0.0000

> <Gold.Chemscore.DEClash.Weighted>
0.0163

> <Gold.Chemscore.DEInternal.Weighted>
0.7317

> <Gold.Chemscore.Rot.Weighted>
3.6786

> <Gold.Chemscore.Internal.Correction.Weighted>
   9.000000E+99

> <Gold.Protein.RotatedTorsions>
[ 6907 6896 6895 6894 ] final   40.00 input  -60.11 | X-H torsion
[ 7974 7965 7964 7962 ] final -102.67 input  175.53 | X-H torsion
[ 8008 7997 7996 7995 ] final    1.67 input   59.86 | X-H torsion
[ 10167 10162 10161 10158 ] final  179.87 input  -65.29 | X-H torsion
[ 10718 10713 10712 10709 ] final  124.68 input   66.30 | X-H torsion
[ 10763 10752 10751 10750 ] final    4.97 input  -60.55 | X-H torsion
[ 11005 11000 10999 10996 ] final -127.28 input  -57.11 | X-H torsion

> <Gold.Protein.ActiveResidues>
 VAL166  LYS551  ARG553  GLY616  TRP617  ASP618  TYR619  PRO620  LYS621  CYS622 
 ASP623  PHE694  ASN695  SER759  ASP760  ASP761  ALA762  ILE779  LEU786  VAL792 
 PHE793  MET794  SER795  GLU796  ALA797  LYS798  CYS799  TRP800  GLU811  SER814 

> <Gold.Protein.RotatedAtoms>
  152.1769  134.8787  160.0529 H   0  0  0  0  0  0  0  0  0  0  0  0  # atno 6907 bound_to 6896
  151.9726  133.3726  159.4085 H   0  0  0  0  0  0  0  0  0  0  0  0  # atno 6908 bound_to 6896
  150.6911  134.4047  159.5178 H   0  0  0  0  0  0  0  0  0  0  0  0  # atno 6909 bound_to 6896
  145.2658  140.9283  143.3015 H   0  0  0  0  0  0  0  0  0  0  0  0  # atno 7974 bound_to 7965
  154.6824  140.2635  155.6894 H   0  0  0  0  0  0  0  0  0  0  0  0  # atno 8008 bound_to 7997
  156.2702  140.2807  156.1296 H   0  0  0  0  0  0  0  0  0  0  0  0  # atno 8009 bound_to 7997
  155.1012  140.0374  157.2687 H   0  0  0  0  0  0  0  0  0  0  0  0  # atno 8010 bound_to 7997
  139.5355  144.2510  152.0785 H   0  0  0  0  0  0  0  0  0  0  0  0  # atno 10167 bound_to 10162
  157.5565  131.1091  150.8612 H   0  0  0  0  0  0  0  0  0  0  0  0  # atno 10718 bound_to 10713
  153.2649  135.6927  153.7540 H   0  0  0  0  0  0  0  0  0  0  0  0  # atno 10763 bound_to 10752
  153.6585  135.3364  155.3121 H   0  0  0  0  0  0  0  0  0  0  0  0  # atno 10764 bound_to 10752
  154.8443  135.4471  154.1652 H   0  0  0  0  0  0  0  0  0  0  0  0  # atno 10765 bound_to 10752
  140.9612  134.0933  157.3966 H   0  0  0  0  0  0  0  0  0  0  0  0  # atno 11005 bound_to 11000
  144.9378  139.4223  143.6463 LP  0  0  0  0  0  0  0  0  0  0  0  0  # atno 17320 bound_to 7965
  146.3261  139.8323  142.8906 LP  0  0  0  0  0  0  0  0  0  0  0  0  # atno 17321 bound_to 7965
  140.1980  144.4686  150.6446 LP  0  0  0  0  0  0  0  0  0  0  0  0  # atno 17342 bound_to 10162
  140.6559  143.2237  151.5970 LP  0  0  0  0  0  0  0  0  0  0  0  0  # atno 17343 bound_to 10162
  156.9122  130.5285  149.5280 LP  0  0  0  0  0  0  0  0  0  0  0  0  # atno 17370 bound_to 10713
  156.0623  130.5673  150.9219 LP  0  0  0  0  0  0  0  0  0  0  0  0  # atno 17371 bound_to 10713
  139.8879  135.0093  156.6587 LP  0  0  0  0  0  0  0  0  0  0  0  0  # atno 17394 bound_to 11000
  140.7464  133.8934  155.8315 LP  0  0  0  0  0  0  0  0  0  0  0  0  # atno 17395 bound_to 11000

$$$$
