AV-unprocessed.smi:110|AV-procd|sdf|1064|dock2
  -GOLD-   2262018143D 1   1.00000     0.00000
 Structure written by MMmdl.
 46 50  0  0  0  0  0  0  0  0  1 V2000
  151.2327  132.8765  157.6910 O   0  0  0  0  0  0  0  0  0  0  0  0
  150.9560  133.1884  156.3420 C   0  0  0  0  0  0  0  0  0  0  0  0
  150.6338  134.6785  156.0995 C   0  0  2  0  0  0  0  0  0  0  0  0
  149.6177  135.1816  156.9545 O   0  0  0  0  0  0  0  0  0  0  0  0
  149.2490  136.4553  156.5109 C   0  0  1  0  0  0  0  0  0  0  0  0
  149.9840  137.4654  157.3385 N   0  0  0  0  0  0  0  0  0  0  0  0
  150.4256  137.3800  158.6418 C   0  0  0  0  0  0  0  0  0  0  0  0
  151.0384  138.4409  159.0925 N   0  0  0  0  0  0  0  0  0  0  0  0
  150.9919  139.3412  158.0343 C   0  0  0  0  0  0  0  0  0  0  0  0
  151.4569  140.6720  157.8287 C   0  0  0  0  0  0  0  0  0  0  0  0
  152.1200  141.4082  158.7508 N   0  0  0  0  0  0  0  0  0  0  0  0
  152.8833  140.7180  159.8006 C   0  0  0  0  0  0  0  0  0  0  0  0
  153.1149  141.7223  160.9455 C   0  0  0  0  0  0  0  0  0  0  0  0
  152.5188  142.9625  160.3622 C   0  0  0  0  0  0  0  0  0  0  0  0
  152.4920  144.2457  160.9359 C   0  0  0  0  0  0  0  0  0  0  0  0
  151.8954  145.2911  160.1991 C   0  0  0  0  0  0  0  0  0  0  0  0
  151.3529  145.0425  158.9168 C   0  0  0  0  0  0  0  0  0  0  0  0
  151.3932  143.7453  158.3597 C   0  0  0  0  0  0  0  0  0  0  0  0
  151.9707  142.7007  159.1105 C   0  0  0  0  0  0  0  0  0  0  0  0
  151.2655  141.2219  156.6023 N   0  0  0  0  0  0  0  0  0  0  0  0
  150.6247  140.5373  155.6509 C   0  0  0  0  0  0  0  0  0  0  0  0
  150.1191  139.3041  155.7082 N   0  0  0  0  0  0  0  0  0  0  0  0
  150.3362  138.7324  156.9274 C   0  0  0  0  0  0  0  0  0  0  0  0
  149.6832  136.5707  155.0308 C   0  0  2  0  0  0  0  0  0  0  0  0
  148.6299  136.9668  154.1719 O   0  0  0  0  0  0  0  0  0  0  0  0
  150.2257  135.1749  154.7063 C   0  0  2  0  0  0  0  0  0  0  0  0
  149.2457  134.3454  154.1067 O   0  0  0  0  0  0  0  0  0  0  0  0
  151.5429  135.2203  156.3670 H   0  0  0  0  0  0  0  0  0  0  0  0
  148.1929  136.6538  156.6986 H   0  0  0  0  0  0  0  0  0  0  0  0
  150.4939  137.2963  154.9465 H   0  0  0  0  0  0  0  0  0  0  0  0
  151.0835  135.2225  154.0348 H   0  0  0  0  0  0  0  0  0  0  0  0
  151.8866  132.1944  157.7144 H   0  0  0  0  0  0  0  0  0  0  0  0
  151.8080  132.8886  155.7312 H   0  0  0  0  0  0  0  0  0  0  0  0
  150.1113  132.5764  156.0251 H   0  0  0  0  0  0  0  0  0  0  0  0
  150.2865  136.5030  159.2569 H   0  0  0  0  0  0  0  0  0  0  0  0
  152.3446  139.8387  160.1568 H   0  0  0  0  0  0  0  0  0  0  0  0
  153.8358  140.3810  159.3897 H   0  0  0  0  0  0  0  0  0  0  0  0
  152.5853  141.4360  161.8545 H   0  0  0  0  0  0  0  0  0  0  0  0
  154.1735  141.8590  161.1682 H   0  0  0  0  0  0  0  0  0  0  0  0
  152.9199  144.4277  161.9107 H   0  0  0  0  0  0  0  0  0  0  0  0
  151.8604  146.2881  160.6131 H   0  0  0  0  0  0  0  0  0  0  0  0
  150.9086  145.8519  158.3566 H   0  0  0  0  0  0  0  0  0  0  0  0
  150.9910  143.5663  157.3736 H   0  0  0  0  0  0  0  0  0  0  0  0
  150.5010  141.0502  154.7085 H   0  0  0  0  0  0  0  0  0  0  0  0
  148.9012  136.8219  153.2786 H   0  0  0  0  0  0  0  0  0  0  0  0
  148.9770  134.7402  153.2906 H   0  0  0  0  0  0  0  0  0  0  0  0
  1  2  1  0  0  0  0
  1 32  1  0  0  0  0
  2  3  1  0  0  0  0
  2 33  1  0  0  0  0
  2 34  1  0  0  0  0
  3 28  1  0  0  0  0
  3 26  1  0  0  0  0
  3  4  1  0  0  0  0
  4  5  1  0  0  0  0
  5 29  1  0  0  0  0
  5  6  1  0  0  0  0
  5 24  1  0  0  0  0
  6 23  1  0  0  0  0
  6  7  1  0  0  0  0
  7  8  2  0  0  0  0
  7 35  1  0  0  0  0
  8  9  1  0  0  0  0
  9 23  2  0  0  0  0
  9 10  1  0  0  0  0
 10 11  1  0  0  0  0
 10 20  2  0  0  0  0
 11 19  1  0  0  0  0
 11 12  1  0  0  0  0
 12 13  1  0  0  0  0
 12 36  1  0  0  0  0
 12 37  1  0  0  0  0
 13 14  1  0  0  0  0
 13 38  1  0  0  0  0
 13 39  1  0  0  0  0
 14 19  2  0  0  0  0
 14 15  1  0  0  0  0
 15 16  2  0  0  0  0
 15 40  1  0  0  0  0
 16 17  1  0  0  0  0
 16 41  1  0  0  0  0
 17 18  2  0  0  0  0
 17 42  1  0  0  0  0
 18 19  1  0  0  0  0
 18 43  1  0  0  0  0
 20 21  1  0  0  0  0
 21 22  2  0  0  0  0
 21 44  1  0  0  0  0
 22 23  1  0  0  0  0
 24 30  1  0  0  0  0
 24 25  1  0  0  0  0
 24 26  1  0  0  0  0
 25 45  1  0  0  0  0
 26 31  1  0  0  0  0
 26 27  1  0  0  0  0
 27 46  1  0  0  0  0
M  END
> <s_m_source_file>
AV-unprocessed.smi

> <i_m_source_file_index>
110

> <i_lp_mmshare_version>
43012

> <i_f3d_flags>
0

> <s_epik_input>
W09IXVtDSDJdW0NASF0xT1tDQEhdKFtDQEhdKFtPSF0pW0NAQEhdMVtPSF0pbihbY0hdbjIpYyhjMjMpbltjSF1uYzNOKFtDSDJdW0NIMl00KWMoYzQ1KVtjSF1bY0hdW2NIXVtjSF01

> <s_epik_cmdline>
J2VwaWtfcHl0aG9uJywgJy1waCcsICc3LjAnLCAnLXRuJywgJzgnLCAnLW1hJywgJzIwMCcsICctbWV0YWxfYmluZGluZycsICctaW1hZScsICc8aW5maWxlLm1hZT4nLCAnLW9tYWUnLCAnPG91dGZpbGUubWFlPic=

> <r_lp_tautomer_probability>
1

> <r_epik_Ionization_Penalty>
0.00068475

> <r_epik_Ionization_Penalty_Charging>
0

> <r_epik_Ionization_Penalty_Neutral>
0.00068475

> <r_epik_State_Penalty>
0.000417442

> <r_epik_Charging_Adjusted_Penalty>
0.000417442

> <i_epik_Tot_Q>
0

> <i_epik_Tot_abs_Q>
0

> <r_epik_Metal_State_Penalty>
-0

> <b_epik_Metal_Only>
0

> <s_epik_Chemistry_Notes>
This compound contains an acetal/aminal-like group ( X-CH(R)-Y where X, Y are N, S, or O) that may be acid/base labile, releasing an aldehyde.

> <s_lp_Force_Field>
OPLS_2005

> <r_lp_Energy>
64.7575

> <b_lp_Chiralities_Consistent>
1

> <s_lp_Variant>
AV-unprocessed.smi:110-2

> <Gold.Version>
5.8.1

> <Gold.Id.Protein>
6NUR|6NUR_protein|mol2

> <Gold.PLP.Fitness>
53.8774

> <Gold.PLP.PLP>
-47.6217

> <Gold.PLP.part.hbond>
-2.7168

> <Gold.PLP.part.metal>
0.0000

> <Gold.PLP.part.buried>
-6.7522

> <Gold.PLP.part.nonpolar>
-37.0599

> <Gold.PLP.part.repulsive>
0.0504

> <Gold.PLP.ligand.clash>
0.0000

> <Gold.PLP.ligand.torsion>
1.2726

> <Gold.PLP.Chemscore.Hbond>
2.9000

> <Gold.PLP.Chemscore.CHOScore>
0.0000

> <Gold.PLP.Chemscore.Metal>
0.0000

> <Gold.Chemscore.Hbonds>
donor molecule, donor type, donor heavy atom, donor atom, acceptor molecule, acceptor atom, score
      L1  H    25    45       P1  7948  0.98
      L1  H    27    46       P1  7948  0.85
      P1  H  6896  6908       L1     1  1.00

> <Gold.PLP.Chemscore.Internal.Correction>
0.1010

> <Gold.Rescore>
     Score         DG    S(hbond)    S(metal)    S(lipo)     H(rot)  DE(clash)    DE(int)     intcor
     12.89     -16.52       2.03        0.00     110.47       3.38       0.09       3.54       ----

> <Gold.Chemscore.Fitness>
12.8857

> <Gold.Chemscore.DG>
-16.5222

> <Gold.Chemscore.ZeroCoef>
-5.4800

> <Gold.Chemscore.Hbond>
2.0297

> <Gold.Chemscore.Metal>
0.0000

> <Gold.Chemscore.Lipo>
110.4720

> <Gold.Chemscore.Internal_Hbond>
0.0000

> <Gold.Chemscore.DEClash>
0.0933

> <Gold.Chemscore.DEInternal>
3.5432

> <Gold.Chemscore.Rot>
3.3837

> <Gold.Chemscore.Internal.Correction>
   9.000000E+99

> <Gold.Chemscore.Hbonds>
donor molecule, donor type, donor heavy atom, donor atom, acceptor molecule, acceptor atom, score
      L1  H    25    45       P1  7948  0.92
      L1  H    27    46       P1  7948  0.14
      P1  H  6896  6908       L1     1  0.28

> <Gold.Chemscore.Hbond.Weighted>
-6.7791

> <Gold.Chemscore.Metal.Weighted>
-0.0000

> <Gold.Chemscore.Lipo.Weighted>
-12.9252

> <Gold.Chemscore.Internal_Hbond.Weighted>
0.0000

> <Gold.Chemscore.DEClash.Weighted>
0.0933

> <Gold.Chemscore.DEInternal.Weighted>
3.5432

> <Gold.Chemscore.Rot.Weighted>
8.6622

> <Gold.Chemscore.Internal.Correction.Weighted>
   9.000000E+99

> <Gold.Protein.RotatedTorsions>
[ 6907 6896 6895 6894 ] final   83.76 input  -60.11 | X-H torsion
[ 7974 7965 7964 7962 ] final -103.20 input  175.53 | X-H torsion
[ 8008 7997 7996 7995 ] final  -61.21 input   59.86 | X-H torsion
[ 10167 10162 10161 10158 ] final  177.91 input  -65.29 | X-H torsion
[ 10718 10713 10712 10709 ] final   -1.22 input   66.30 | X-H torsion
[ 10763 10752 10751 10750 ] final -175.91 input  -60.55 | X-H torsion
[ 11005 11000 10999 10996 ] final  -64.18 input  -57.11 | X-H torsion

> <Gold.Protein.ActiveResidues>
 VAL166  LYS551  ARG553  GLY616  TRP617  ASP618  TYR619  PRO620  LYS621  CYS622 
 ASP623  PHE694  ASN695  SER759  ASP760  ASP761  ALA762  ILE779  LEU786  VAL792 
 PHE793  MET794  SER795  GLU796  ALA797  LYS798  CYS799  TRP800  GLU811  SER814 

> <Gold.Protein.RotatedAtoms>
  152.5335  134.2845  159.9019 H   0  0  0  0  0  0  0  0  0  0  0  0  # atno 6907 bound_to 6896
  151.2799  133.4208  159.2634 H   0  0  0  0  0  0  0  0  0  0  0  0  # atno 6908 bound_to 6896
  151.0293  134.9543  159.8159 H   0  0  0  0  0  0  0  0  0  0  0  0  # atno 6909 bound_to 6896
  145.2589  140.9263  143.3052 H   0  0  0  0  0  0  0  0  0  0  0  0  # atno 7974 bound_to 7965
  154.4436  140.1023  156.6394 H   0  0  0  0  0  0  0  0  0  0  0  0  # atno 8008 bound_to 7997
  155.5518  140.3486  155.4451 H   0  0  0  0  0  0  0  0  0  0  0  0  # atno 8009 bound_to 7997
  156.0524  140.1307  157.0025 H   0  0  0  0  0  0  0  0  0  0  0  0  # atno 8010 bound_to 7997
  139.5272  144.2742  152.0602 H   0  0  0  0  0  0  0  0  0  0  0  0  # atno 10167 bound_to 10162
  156.8088  130.5417  149.5711 H   0  0  0  0  0  0  0  0  0  0  0  0  # atno 10718 bound_to 10713
  154.5787  135.2834  155.0755 H   0  0  0  0  0  0  0  0  0  0  0  0  # atno 10763 bound_to 10752
  154.2099  135.6409  153.5116 H   0  0  0  0  0  0  0  0  0  0  0  0  # atno 10764 bound_to 10752
  153.0081  135.5489  154.6434 H   0  0  0  0  0  0  0  0  0  0  0  0  # atno 10765 bound_to 10752
  141.1417  133.6662  156.5794 H   0  0  0  0  0  0  0  0  0  0  0  0  # atno 11005 bound_to 11000
  144.9436  139.4161  143.6437 LP  0  0  0  0  0  0  0  0  0  0  0  0  # atno 17320 bound_to 7965
  146.3281  139.8408  142.8891 LP  0  0  0  0  0  0  0  0  0  0  0  0  # atno 17321 bound_to 7965
  140.2200  144.4476  150.6346 LP  0  0  0  0  0  0  0  0  0  0  0  0  # atno 17342 bound_to 10162
  140.6425  143.2206  151.6259 LP  0  0  0  0  0  0  0  0  0  0  0  0  # atno 17343 bound_to 10162
  156.1057  130.6002  150.9966 LP  0  0  0  0  0  0  0  0  0  0  0  0  # atno 17370 bound_to 10713
  157.6516  131.0896  150.8037 LP  0  0  0  0  0  0  0  0  0  0  0  0  # atno 17371 bound_to 10713
  140.3850  134.7490  157.4685 LP  0  0  0  0  0  0  0  0  0  0  0  0  # atno 17394 bound_to 11000
  140.0609  134.5997  155.8750 LP  0  0  0  0  0  0  0  0  0  0  0  0  # atno 17395 bound_to 11000

$$$$
