AV-unprocessed.smi:3121|AV-procd|sdf|11895|dock5
  -GOLD-   2272017283D 1   1.00000     0.00000
 Structure written by MMmdl.
 24 25  0  0  0  0  0  0  0  0  2 V2000
  153.8356  141.4883  160.7653 C   0  0  0  0  0  0  0  0  0  0  0  0
  153.0946  142.6849  160.7351 C   0  0  0  0  0  0  0  0  0  0  0  0
  152.2425  142.9278  159.6403 C   0  0  0  0  0  0  0  0  0  0  0  0
  152.1662  141.9591  158.6160 C   0  0  0  0  0  0  0  0  0  0  0  0
  151.2667  142.1796  157.4079 C   0  0  1  0  0  0  0  0  0  0  0  0
  151.3154  141.0971  156.3327 C   0  0  0  0  0  0  0  0  0  0  0  0
  150.0303  141.3464  155.5301 C   0  0  0  0  0  0  0  0  0  0  0  0
  149.1132  142.1047  156.4106 N   0  3  0  0  0  0  0  0  0  0  0  0
  149.7738  142.2860  157.7160 C   0  0  0  0  0  0  0  0  0  0  0  0
  152.8773  140.8081  158.6406 N   0  0  0  0  0  0  0  0  0  0  0  0
  153.6920  140.5843  159.6946 C   0  0  0  0  0  0  0  0  0  0  0  0
  154.4995  141.2693  161.5886 H   0  0  0  0  0  0  0  0  0  0  0  0
  153.1793  143.4040  161.5366 H   0  0  0  0  0  0  0  0  0  0  0  0
  151.6647  143.8392  159.5926 H   0  0  0  0  0  0  0  0  0  0  0  0
  151.5686  143.1177  156.9378 H   0  0  0  0  0  0  0  0  0  0  0  0
  152.2194  141.1399  155.7246 H   0  0  0  0  0  0  0  0  0  0  0  0
  151.2652  140.1070  156.7877 H   0  0  0  0  0  0  0  0  0  0  0  0
  150.2394  141.9493  154.6459 H   0  0  0  0  0  0  0  0  0  0  0  0
  149.5739  140.4132  155.1992 H   0  0  0  0  0  0  0  0  0  0  0  0
  148.9494  143.0111  155.9960 H   0  0  0  0  0  0  0  0  0  0  0  0
  149.4523  141.4754  158.3715 H   0  0  0  0  0  0  0  0  0  0  0  0
  149.5003  143.2311  158.1859 H   0  0  0  0  0  0  0  0  0  0  0  0
  154.2464  139.6575  159.6842 H   0  0  0  0  0  0  0  0  0  0  0  0
  148.2347  141.6190  156.5236 H   0  0  0  0  0  0  0  0  0  0  0  0
  1 11  1  0  0  0  0
  1  2  2  0  0  0  0
  1 12  1  0  0  0  0
  2  3  1  0  0  0  0
  2 13  1  0  0  0  0
  3  4  2  0  0  0  0
  3 14  1  0  0  0  0
  4  5  1  0  0  0  0
  4 10  1  0  0  0  0
  5  9  1  0  0  0  0
  5  6  1  0  0  0  0
  5 15  1  0  0  0  0
  6  7  1  0  0  0  0
  6 16  1  0  0  0  0
  6 17  1  0  0  0  0
  7  8  1  0  0  0  0
  7 18  1  0  0  0  0
  7 19  1  0  0  0  0
  8  9  1  0  0  0  0
  8 20  1  0  0  0  0
  8 24  1  0  0  0  0
  9 21  1  0  0  0  0
  9 22  1  0  0  0  0
 10 11  2  0  0  0  0
 11 23  1  0  0  0  0
M  CHG  1   8   1
M  END
> <s_m_source_file>
AV-unprocessed.smi

> <i_m_source_file_index>
3121

> <i_lp_mmshare_version>
43012

> <i_f3d_flags>
0

> <s_epik_input>
bjFbY0hdW2NIXVtjSF1bY0hdYzFbQ0BASF0yW0NIMl1bQ0gyXVtOSF1bQ0gyXTI=

> <s_epik_cmdline>
J2VwaWtfcHl0aG9uJywgJy1waCcsICc3LjAnLCAnLXRuJywgJzgnLCAnLW1hJywgJzIwMCcsICctbWV0YWxfYmluZGluZycsICctaW1hZScsICc8aW5maWxlLm1hZT4nLCAnLW9tYWUnLCAnPG91dGZpbGUubWFlPic=

> <r_lp_tautomer_probability>
1

> <r_epik_Ionization_Penalty>
0.00154319

> <r_epik_Ionization_Penalty_Charging>
0.000126521

> <r_epik_Ionization_Penalty_Neutral>
0.00141667

> <r_epik_State_Penalty>
-0

> <r_epik_Charging_Adjusted_Penalty>
0.000126521

> <i_epik_Tot_Q>
1

> <i_epik_Tot_abs_Q>
1

> <r_epik_Metal_State_Penalty>
-0

> <b_epik_Metal_Only>
0

> <s_lp_Force_Field>
OPLS_2005

> <r_lp_Energy>
22.4968

> <b_lp_Chiralities_Consistent>
1

> <s_lp_Variant>
AV-unprocessed.smi:3121-2

> <Gold.Version>
5.8.1

> <Gold.Id.Protein>
6NUR|6NUR_protein|mol2

> <Gold.PLP.Fitness>
32.3029

> <Gold.PLP.PLP>
-26.3278

> <Gold.PLP.part.hbond>
-1.2139

> <Gold.PLP.part.metal>
0.0000

> <Gold.PLP.part.buried>
-2.8375

> <Gold.PLP.part.nonpolar>
-22.1164

> <Gold.PLP.part.repulsive>
0.0374

> <Gold.PLP.ligand.clash>
0.0000

> <Gold.PLP.ligand.torsion>
0.0125

> <Gold.PLP.Chemscore.Hbond>
2.0000

> <Gold.PLP.Chemscore.CHOScore>
0.0000

> <Gold.PLP.Chemscore.Metal>
0.0000

> <Gold.Chemscore.Hbonds>
donor molecule, donor type, donor heavy atom, donor atom, acceptor molecule, acceptor atom, score
      L1  H     8    20       P1  8028  2.00

> <Gold.PLP.Chemscore.Internal.Correction>
0.0003

> <Gold.Rescore>
     Score         DG    S(hbond)    S(metal)    S(lipo)     H(rot)  DE(clash)    DE(int)     intcor
     15.51     -15.52       1.00        0.00      79.15       1.00       0.00       0.01       ----

> <Gold.Chemscore.Fitness>
15.5066

> <Gold.Chemscore.DG>
-15.5202

> <Gold.Chemscore.ZeroCoef>
-5.4800

> <Gold.Chemscore.Hbond>
0.9998

> <Gold.Chemscore.Metal>
0.0000

> <Gold.Chemscore.Lipo>
79.1511

> <Gold.Chemscore.Internal_Hbond>
0.0000

> <Gold.Chemscore.DEClash>
0.0038

> <Gold.Chemscore.DEInternal>
0.0097

> <Gold.Chemscore.Rot>
1.0000

> <Gold.Chemscore.Internal.Correction>
   9.000000E+99

> <Gold.Chemscore.Hbonds>
donor molecule, donor type, donor heavy atom, donor atom, acceptor molecule, acceptor atom, score
      L1  H     8    20       P1  8028  1.00

> <Gold.Chemscore.Hbond.Weighted>
-3.3395

> <Gold.Chemscore.Metal.Weighted>
-0.0000

> <Gold.Chemscore.Lipo.Weighted>
-9.2607

> <Gold.Chemscore.Internal_Hbond.Weighted>
0.0000

> <Gold.Chemscore.DEClash.Weighted>
0.0038

> <Gold.Chemscore.DEInternal.Weighted>
0.0097

> <Gold.Chemscore.Rot.Weighted>
2.5600

> <Gold.Chemscore.Internal.Correction.Weighted>
   9.000000E+99

> <Gold.Protein.RotatedTorsions>
[ 6907 6896 6895 6894 ] final    0.10 input  -60.11 | X-H torsion
[ 7974 7965 7964 7962 ] final   70.80 input  175.53 | X-H torsion
[ 8008 7997 7996 7995 ] final  -43.37 input   59.86 | X-H torsion
[ 10167 10162 10161 10158 ] final  126.90 input  -65.29 | X-H torsion
[ 10718 10713 10712 10709 ] final  176.88 input   66.30 | X-H torsion
[ 10763 10752 10751 10750 ] final  -10.38 input  -60.55 | X-H torsion
[ 11005 11000 10999 10996 ] final -168.72 input  -57.11 | X-H torsion

> <Gold.Protein.ActiveResidues>
 VAL166  LYS551  ARG553  GLY616  TRP617  ASP618  TYR619  PRO620  LYS621  CYS622 
 ASP623  PHE694  ASN695  SER759  ASP760  ASP761  ALA762  ILE779  LEU786  VAL792 
 PHE793  MET794  SER795  GLU796  ALA797  LYS798  CYS799  TRP800  GLU811  SER814 

> <Gold.Protein.RotatedAtoms>
  151.5710  135.1062  159.9994 H   0  0  0  0  0  0  0  0  0  0  0  0  # atno 6907 bound_to 6896
  152.4400  133.7427  159.6661 H   0  0  0  0  0  0  0  0  0  0  0  0  # atno 6908 bound_to 6896
  150.8304  133.8031  159.3124 H   0  0  0  0  0  0  0  0  0  0  0  0  # atno 6909 bound_to 6896
  145.7736  139.2855  143.1306 H   0  0  0  0  0  0  0  0  0  0  0  0  # atno 7974 bound_to 7965
  154.3997  140.1449  156.3508 H   0  0  0  0  0  0  0  0  0  0  0  0  # atno 8008 bound_to 7997
  155.8271  140.3467  155.5528 H   0  0  0  0  0  0  0  0  0  0  0  0  # atno 8009 bound_to 7997
  155.8227  140.0900  157.1830 H   0  0  0  0  0  0  0  0  0  0  0  0  # atno 8010 bound_to 7997
  139.5606  144.6879  151.4053 H   0  0  0  0  0  0  0  0  0  0  0  0  # atno 10167 bound_to 10162
  156.9136  130.9918  151.3016 H   0  0  0  0  0  0  0  0  0  0  0  0  # atno 10718 bound_to 10713
  153.4683  135.7016  153.6008 H   0  0  0  0  0  0  0  0  0  0  0  0  # atno 10763 bound_to 10752
  153.4273  135.3811  155.2149 H   0  0  0  0  0  0  0  0  0  0  0  0  # atno 10764 bound_to 10752
  154.8726  135.3942  154.4118 H   0  0  0  0  0  0  0  0  0  0  0  0  # atno 10765 bound_to 10752
  140.5389  134.5542  157.5094 H   0  0  0  0  0  0  0  0  0  0  0  0  # atno 11005 bound_to 11000
  146.0145  140.8405  142.9954 LP  0  0  0  0  0  0  0  0  0  0  0  0  # atno 17320 bound_to 7965
  144.6808  140.2538  143.7328 LP  0  0  0  0  0  0  0  0  0  0  0  0  # atno 17321 bound_to 7965
  140.6886  143.7916  150.7221 LP  0  0  0  0  0  0  0  0  0  0  0  0  # atno 17342 bound_to 10162
  140.1391  143.4457  152.2205 LP  0  0  0  0  0  0  0  0  0  0  0  0  # atno 17343 bound_to 10162
  157.5952  130.8472  149.8718 LP  0  0  0  0  0  0  0  0  0  0  0  0  # atno 17370 bound_to 10713
  156.0524  130.3715  150.1170 LP  0  0  0  0  0  0  0  0  0  0  0  0  # atno 17371 bound_to 10713
  139.9514  134.7609  156.0439 LP  0  0  0  0  0  0  0  0  0  0  0  0  # atno 17394 bound_to 11000
  141.1239  133.6605  156.3285 LP  0  0  0  0  0  0  0  0  0  0  0  0  # atno 17395 bound_to 11000

$$$$
