AV-unprocessed.smi:1867|AV-procd|sdf|7580|dock2
  -GOLD-   22720 9293D 1   1.00000     0.00000
 Structure written by MMmdl.
 52 55  0  0  0  0  0  0  0  0  4 V2000
  146.8929  139.6636  154.2901 O   0  0  0  0  0  0  0  0  0  0  0  0
  147.6707  138.8433  153.8062 C   0  0  0  0  0  0  0  0  0  0  0  0
  148.9973  138.9662  154.0602 N   0  0  0  0  0  0  0  0  0  0  0  0
  149.6693  139.9136  154.8777 C   0  0  0  0  0  0  0  0  0  0  0  0
  150.8347  139.4941  155.5517 C   0  0  0  0  0  0  0  0  0  0  0  0
  151.5225  140.3963  156.3887 C   0  0  0  0  0  0  0  0  0  0  0  0
  151.0305  141.7128  156.5540 C   0  0  0  0  0  0  0  0  0  0  0  0
  151.6634  142.6648  157.3756 N   0  0  0  0  0  0  0  0  0  0  0  0
  152.0204  142.3594  158.7522 C   0  0  0  0  0  0  0  0  0  0  0  0
  152.4908  143.6919  159.3326 C   0  0  0  0  0  0  0  0  0  0  0  0
  151.6275  144.7140  158.5924 C   0  0  0  0  0  0  0  0  0  0  0  0
  151.4118  144.0897  157.2085 C   0  0  0  0  0  0  0  0  0  0  0  0
  149.8937  142.0640  155.9068 N   0  3  0  0  0  0  0  0  0  0  0  0
  149.2061  141.2327  155.0942 C   0  0  0  0  0  0  0  0  0  0  0  0
  147.2238  137.8334  152.9994 N   0  5  0  0  0  0  0  0  0  0  0  0
  145.8675  137.5848  152.4871 C   0  0  2  0  0  0  0  0  0  0  0  0
  144.8305  137.4072  153.6062 C   0  0  0  0  0  0  0  0  0  0  0  0
  143.7594  136.4831  153.0004 C   0  0  0  0  0  0  0  0  0  0  0  0
  144.2858  136.0547  151.6841 N   0  3  2  0  0  0  0  0  0  0  0  0
  143.8118  134.7441  151.1695 C   0  0  0  0  0  0  0  0  0  0  0  0
  144.5549  133.5553  151.7995 C   0  0  0  0  0  0  0  0  0  0  0  0
  146.0694  133.7292  151.6520 C   0  0  0  0  0  0  0  0  0  0  0  0
  146.4973  135.0446  152.3118 C   0  0  0  0  0  0  0  0  0  0  0  0
  145.7526  136.2675  151.6944 C   0  0  2  0  0  0  0  0  0  0  0  0
  149.5944  138.3308  153.5524 H   0  0  0  0  0  0  0  0  0  0  0  0
  151.2058  138.4873  155.4256 H   0  0  0  0  0  0  0  0  0  0  0  0
  152.4146  140.0649  156.8990 H   0  0  0  0  0  0  0  0  0  0  0  0
  151.1407  141.9972  159.2864 H   0  0  0  0  0  0  0  0  0  0  0  0
  152.7984  141.5974  158.8081 H   0  0  0  0  0  0  0  0  0  0  0  0
  152.3837  143.7452  160.4164 H   0  0  0  0  0  0  0  0  0  0  0  0
  153.5421  143.8522  159.0882 H   0  0  0  0  0  0  0  0  0  0  0  0
  150.6678  144.8144  159.1015 H   0  0  0  0  0  0  0  0  0  0  0  0
  152.0846  145.7027  158.5439 H   0  0  0  0  0  0  0  0  0  0  0  0
  152.1255  144.4913  156.4882 H   0  0  0  0  0  0  0  0  0  0  0  0
  150.4045  144.2928  156.8436 H   0  0  0  0  0  0  0  0  0  0  0  0
  148.3098  141.6528  154.6627 H   0  0  0  0  0  0  0  0  0  0  0  0
  145.5273  138.3932  151.8369 H   0  0  0  0  0  0  0  0  0  0  0  0
  145.2754  136.9266  154.4791 H   0  0  0  0  0  0  0  0  0  0  0  0
  144.4166  138.3615  153.9332 H   0  0  0  0  0  0  0  0  0  0  0  0
  143.5876  135.6274  153.6550 H   0  0  0  0  0  0  0  0  0  0  0  0
  142.8056  136.9953  152.8667 H   0  0  0  0  0  0  0  0  0  0  0  0
  142.7360  134.6541  151.3242 H   0  0  0  0  0  0  0  0  0  0  0  0
  143.9714  134.7331  150.0907 H   0  0  0  0  0  0  0  0  0  0  0  0
  144.2943  133.4655  152.8546 H   0  0  0  0  0  0  0  0  0  0  0  0
  144.2386  132.6265  151.3241 H   0  0  0  0  0  0  0  0  0  0  0  0
  146.5912  132.8905  152.1141 H   0  0  0  0  0  0  0  0  0  0  0  0
  146.3473  133.7311  150.5973 H   0  0  0  0  0  0  0  0  0  0  0  0
  146.3125  134.9583  153.3850 H   0  0  0  0  0  0  0  0  0  0  0  0
  147.5767  135.1615  152.1999 H   0  0  0  0  0  0  0  0  0  0  0  0
  146.0981  136.4099  150.6695 H   0  0  0  0  0  0  0  0  0  0  0  0
  143.9340  136.7481  151.0398 H   0  0  0  0  0  0  0  0  0  0  0  0
  149.5338  143.0092  156.0393 H   0  0  0  0  0  0  0  0  0  0  0  0
  1  2  2  0  0  0  0
  2  3  1  0  0  0  0
  2 15  1  0  0  0  0
  3  4  1  0  0  0  0
  3 25  1  0  0  0  0
  4 14  1  0  0  0  0
  4  5  2  0  0  0  0
  5  6  1  0  0  0  0
  5 26  1  0  0  0  0
  6  7  2  0  0  0  0
  6 27  1  0  0  0  0
  7  8  1  0  0  0  0
  7 13  1  0  0  0  0
  8 12  1  0  0  0  0
  8  9  1  0  0  0  0
  9 10  1  0  0  0  0
  9 28  1  0  0  0  0
  9 29  1  0  0  0  0
 10 11  1  0  0  0  0
 10 30  1  0  0  0  0
 10 31  1  0  0  0  0
 11 12  1  0  0  0  0
 11 32  1  0  0  0  0
 11 33  1  0  0  0  0
 12 34  1  0  0  0  0
 12 35  1  0  0  0  0
 13 14  2  0  0  0  0
 13 52  1  0  0  0  0
 14 36  1  0  0  0  0
 15 16  1  0  0  0  0
 16 24  1  0  0  0  0
 16 17  1  0  0  0  0
 16 37  1  0  0  0  0
 17 18  1  0  0  0  0
 17 38  1  0  0  0  0
 17 39  1  0  0  0  0
 18 19  1  0  0  0  0
 18 40  1  0  0  0  0
 18 41  1  0  0  0  0
 19 24  1  0  0  0  0
 19 20  1  0  0  0  0
 19 51  1  0  0  0  0
 20 21  1  0  0  0  0
 20 42  1  0  0  0  0
 20 43  1  0  0  0  0
 21 22  1  0  0  0  0
 21 44  1  0  0  0  0
 21 45  1  0  0  0  0
 22 23  1  0  0  0  0
 22 46  1  0  0  0  0
 22 47  1  0  0  0  0
 23 24  1  0  0  0  0
 23 48  1  0  0  0  0
 23 49  1  0  0  0  0
 24 50  1  0  0  0  0
M  CHG  1  13   1
M  CHG  1  15  -1
M  CHG  1  19   1
M  END
> <s_m_source_file>
AV-unprocessed.smi

> <i_m_source_file_index>
1867

> <i_lp_mmshare_version>
43012

> <i_f3d_flags>
0

> <s_epik_input>
W0NIMl0xW0NIMl1bQ0gyXVtDSDJdW0NASF0oTjEyKVtDQEBIXShbQ0gyXVtDSDJdMilbTkhdQyg9TylbTkhdYzNbY0hdW2NIXWMobltjSF0zKU40W0NIMl1bQ0gyXVtDSDJdW0NIMl00

> <s_epik_cmdline>
J2VwaWtfcHl0aG9uJywgJy1waCcsICc3LjAnLCAnLXRuJywgJzgnLCAnLW1hJywgJzIwMCcsICctbWV0YWxfYmluZGluZycsICctaW1hZScsICc8aW5maWxlLm1hZT4nLCAnLW9tYWUnLCAnPG91dGZpbGUubWFlPic=

> <r_lp_tautomer_probability>
0.999994

> <r_epik_Ionization_Penalty>
8.56137

> <r_epik_Ionization_Penalty_Charging>
8.56136

> <r_epik_Ionization_Penalty_Neutral>
3.91889e-06

> <r_epik_State_Penalty>
8.16255

> <r_epik_Charging_Adjusted_Penalty>
16.7239

> <i_epik_Tot_Q>
1

> <i_epik_Tot_abs_Q>
3

> <r_epik_Metal_State_Penalty>
4.14279

> <b_epik_Metal_Only>
1

> <s_lp_Force_Field>
OPLS_2005

> <r_lp_Energy>
70.2226

> <b_lp_Chiralities_Consistent>
1

> <s_lp_Variant>
AV-unprocessed.smi:1867-21

> <Gold.Version>
5.8.1

> <Gold.Id.Protein>
6NUR|6NUR_protein|mol2

> <Gold.PLP.Fitness>
47.8594

> <Gold.PLP.PLP>
-40.1504

> <Gold.PLP.part.hbond>
-3.0000

> <Gold.PLP.part.metal>
0.0000

> <Gold.PLP.part.buried>
2.1378

> <Gold.PLP.part.nonpolar>
-43.3968

> <Gold.PLP.part.repulsive>
3.9007

> <Gold.PLP.ligand.clash>
0.0000

> <Gold.PLP.ligand.torsion>
0.7736

> <Gold.PLP.Chemscore.Hbond>
3.0000

> <Gold.PLP.Chemscore.CHOScore>
0.0000

> <Gold.PLP.Chemscore.Metal>
0.0000

> <Gold.Chemscore.Hbonds>
donor molecule, donor type, donor heavy atom, donor atom, acceptor molecule, acceptor atom, score
      L1  H    13    52       P1  8028  2.00
      L1  H    19    51       P1 10171  0.57

> <Gold.PLP.Chemscore.Internal.Correction>
0.2562

> <Gold.Rescore>
     Score         DG    S(hbond)    S(metal)    S(lipo)     H(rot)  DE(clash)    DE(int)     intcor
     17.96     -23.05       1.97        0.00     115.98       1.00       3.24       1.85       ----

> <Gold.Chemscore.Fitness>
17.9596

> <Gold.Chemscore.DG>
-23.0546

> <Gold.Chemscore.ZeroCoef>
-5.4800

> <Gold.Chemscore.Hbond>
1.9654

> <Gold.Chemscore.Metal>
0.0000

> <Gold.Chemscore.Lipo>
115.9841

> <Gold.Chemscore.Internal_Hbond>
0.0000

> <Gold.Chemscore.DEClash>
3.2406

> <Gold.Chemscore.DEInternal>
1.8544

> <Gold.Chemscore.Rot>
1.0000

> <Gold.Chemscore.Internal.Correction>
   9.000000E+99

> <Gold.Chemscore.Hbonds>
donor molecule, donor type, donor heavy atom, donor atom, acceptor molecule, acceptor atom, score
      L1  H    13    52       P1  8028  1.00
      L1  H    19    51       P1 10171  0.56

> <Gold.Chemscore.Hbond.Weighted>
-6.5644

> <Gold.Chemscore.Metal.Weighted>
-0.0000

> <Gold.Chemscore.Lipo.Weighted>
-13.5701

> <Gold.Chemscore.Internal_Hbond.Weighted>
0.0000

> <Gold.Chemscore.DEClash.Weighted>
3.2406

> <Gold.Chemscore.DEInternal.Weighted>
1.8544

> <Gold.Chemscore.Rot.Weighted>
2.5600

> <Gold.Chemscore.Internal.Correction.Weighted>
   9.000000E+99

> <Gold.Protein.RotatedTorsions>
[ 6907 6896 6895 6894 ] final  144.21 input  -60.11 | X-H torsion
[ 7974 7965 7964 7962 ] final   28.83 input  175.53 | X-H torsion
[ 8008 7997 7996 7995 ] final   25.43 input   59.86 | X-H torsion
[ 10167 10162 10161 10158 ] final   11.59 input  -65.29 | X-H torsion
[ 10718 10713 10712 10709 ] final  121.92 input   66.30 | X-H torsion
[ 10763 10752 10751 10750 ] final   65.12 input  -60.55 | X-H torsion
[ 11005 11000 10999 10996 ] final   -2.50 input  -57.11 | X-H torsion

> <Gold.Protein.ActiveResidues>
 VAL166  LYS551  ARG553  GLY616  TRP617  ASP618  TYR619  PRO620  LYS621  CYS622 
 ASP623  PHE694  ASN695  SER759  ASP760  ASP761  ALA762  ILE779  LEU786  VAL792 
 PHE793  MET794  SER795  GLU796  ALA797  LYS798  CYS799  TRP800  GLU811  SER814 

> <Gold.Protein.RotatedAtoms>
  152.1966  133.4810  159.5035 H   0  0  0  0  0  0  0  0  0  0  0  0  # atno 6907 bound_to 6896
  150.6961  134.1645  159.4198 H   0  0  0  0  0  0  0  0  0  0  0  0  # atno 6908 bound_to 6896
  151.9561  135.0146  160.0595 H   0  0  0  0  0  0  0  0  0  0  0  0  # atno 6909 bound_to 6896
  146.1707  139.7004  142.8970 H   0  0  0  0  0  0  0  0  0  0  0  0  # atno 7974 bound_to 7965
  155.0116  140.3137  155.4827 H   0  0  0  0  0  0  0  0  0  0  0  0  # atno 8008 bound_to 7997
  156.2908  140.2213  156.5172 H   0  0  0  0  0  0  0  0  0  0  0  0  # atno 8009 bound_to 7997
  154.7530  140.0465  157.0897 H   0  0  0  0  0  0  0  0  0  0  0  0  # atno 8010 bound_to 7997
  140.6122  143.8383  150.7078 H   0  0  0  0  0  0  0  0  0  0  0  0  # atno 10167 bound_to 10162
  157.5782  131.1077  150.8239 H   0  0  0  0  0  0  0  0  0  0  0  0  # atno 10718 bound_to 10713
  153.0083  135.5368  154.6617 H   0  0  0  0  0  0  0  0  0  0  0  0  # atno 10763 bound_to 10752
  154.5824  135.2851  155.0721 H   0  0  0  0  0  0  0  0  0  0  0  0  # atno 10764 bound_to 10752
  154.1845  135.6510  153.5095 H   0  0  0  0  0  0  0  0  0  0  0  0  # atno 10765 bound_to 10752
  140.6590  133.9337  155.8425 H   0  0  0  0  0  0  0  0  0  0  0  0  # atno 11005 bound_to 11000
  145.4349  141.0418  143.2890 LP  0  0  0  0  0  0  0  0  0  0  0  0  # atno 17320 bound_to 7965
  144.8158  139.5879  143.7009 LP  0  0  0  0  0  0  0  0  0  0  0  0  # atno 17321 bound_to 7965
  140.1954  143.4002  152.1832 LP  0  0  0  0  0  0  0  0  0  0  0  0  # atno 17342 bound_to 10162
  139.5370  144.7219  151.4859 LP  0  0  0  0  0  0  0  0  0  0  0  0  # atno 17343 bound_to 10162
  156.8692  130.5140  149.5298 LP  0  0  0  0  0  0  0  0  0  0  0  0  # atno 17370 bound_to 10713
  156.0827  130.5833  150.9591 LP  0  0  0  0  0  0  0  0  0  0  0  0  # atno 17371 bound_to 10713
  141.0479  134.0527  157.3820 LP  0  0  0  0  0  0  0  0  0  0  0  0  # atno 17394 bound_to 11000
  139.9019  135.0167  156.7310 LP  0  0  0  0  0  0  0  0  0  0  0  0  # atno 17395 bound_to 11000

$$$$
