AV-unprocessed.smi:363|AV-procd|sdf|2423|dock2
  -GOLD-   2262022363D 1   1.00000     0.00000
 Structure written by MMmdl.
 39 40  0  0  0  0  0  0  0  0  1 V2000
  146.2615  141.4946  154.4474 C   0  0  0  0  0  0  0  0  0  0  0  0
  147.3696  140.9580  155.3453 C   0  0  0  0  0  0  0  0  0  0  0  0
  148.5299  140.3741  154.7137 C   0  0  0  0  0  0  0  0  0  0  0  0
  149.5227  139.8395  155.4425 C   0  0  0  0  0  0  0  0  0  0  0  0
  150.7345  139.2110  154.7623 C   0  0  0  0  0  0  0  0  0  0  0  0
  149.4641  139.8559  156.8635 N   0  0  0  0  0  0  0  0  0  0  0  0
  150.5718  139.2602  157.6475 C   0  0  0  0  0  0  0  0  0  0  0  0
  151.8950  140.0438  157.4784 C   0  0  2  0  0  0  0  0  0  0  0  0
  152.9798  139.1386  157.5294 O   0  0  0  0  0  0  0  0  0  0  0  0
  152.0363  141.1172  158.5472 C   0  0  0  0  0  0  0  0  0  0  0  0
  152.9749  140.9579  159.5894 C   0  0  0  0  0  0  0  0  0  0  0  0
  153.1129  141.9507  160.5790 C   0  0  0  0  0  0  0  0  0  0  0  0
  152.3144  143.1097  160.5317 C   0  0  0  0  0  0  0  0  0  0  0  0
  152.4831  144.3247  161.7451 Cl  0  0  0  0  0  0  0  0  0  0  0  0
  151.3785  143.2758  159.4927 C   0  0  0  0  0  0  0  0  0  0  0  0
  151.2403  142.2832  158.5030 C   0  0  0  0  0  0  0  0  0  0  0  0
  148.4154  140.4219  157.5431 C   0  0  0  0  0  0  0  0  0  0  0  0
  148.4288  140.4766  158.7771 O   0  0  0  0  0  0  0  0  0  0  0  0
  147.3118  140.9654  156.7043 C   0  0  0  0  0  0  0  0  0  0  0  0
  146.1593  141.5431  157.4230 C   0  0  0  0  0  0  0  0  0  0  0  0
  146.0162  141.1346  158.6912 N   0  0  0  0  0  0  0  0  0  0  0  0
  145.3168  142.2840  156.9186 O   0  0  0  0  0  0  0  0  0  0  0  0
  146.4223  141.2058  153.4086 H   0  0  0  0  0  0  0  0  0  0  0  0
  146.2300  142.5836  154.4880 H   0  0  0  0  0  0  0  0  0  0  0  0
  145.2884  141.1037  154.7463 H   0  0  0  0  0  0  0  0  0  0  0  0
  148.5938  140.3584  153.6351 H   0  0  0  0  0  0  0  0  0  0  0  0
  150.5417  139.0551  153.7004 H   0  0  0  0  0  0  0  0  0  0  0  0
  150.9881  138.2376  155.1783 H   0  0  0  0  0  0  0  0  0  0  0  0
  151.6007  139.8682  154.8433 H   0  0  0  0  0  0  0  0  0  0  0  0
  150.2927  139.2347  158.6998 H   0  0  0  0  0  0  0  0  0  0  0  0
  150.7276  138.2022  157.4285 H   0  0  0  0  0  0  0  0  0  0  0  0
  151.9229  140.5251  156.5003 H   0  0  0  0  0  0  0  0  0  0  0  0
  152.6787  138.3324  157.9199 H   0  0  0  0  0  0  0  0  0  0  0  0
  153.5940  140.0738  159.6352 H   0  0  0  0  0  0  0  0  0  0  0  0
  153.8322  141.8213  161.3743 H   0  0  0  0  0  0  0  0  0  0  0  0
  150.7656  144.1643  159.4526 H   0  0  0  0  0  0  0  0  0  0  0  0
  150.5213  142.4202  157.7085 H   0  0  0  0  0  0  0  0  0  0  0  0
  145.2423  141.4713  159.2457 H   0  0  0  0  0  0  0  0  0  0  0  0
  146.6750  140.4773  159.0831 H   0  0  0  0  0  0  0  0  0  0  0  0
  1  2  1  0  0  0  0
  1 23  1  0  0  0  0
  1 24  1  0  0  0  0
  1 25  1  0  0  0  0
  2 19  2  0  0  0  0
  2  3  1  0  0  0  0
  3  4  2  0  0  0  0
  3 26  1  0  0  0  0
  4  5  1  0  0  0  0
  4  6  1  0  0  0  0
  5 27  1  0  0  0  0
  5 28  1  0  0  0  0
  5 29  1  0  0  0  0
  6  7  1  0  0  0  0
  6 17  1  0  0  0  0
  7  8  1  0  0  0  0
  7 30  1  0  0  0  0
  7 31  1  0  0  0  0
  8  9  1  0  0  0  0
  8 10  1  0  0  0  0
  8 32  1  0  0  0  0
  9 33  1  0  0  0  0
 10 16  1  0  0  0  0
 10 11  2  0  0  0  0
 11 12  1  0  0  0  0
 11 34  1  0  0  0  0
 12 13  2  0  0  0  0
 12 35  1  0  0  0  0
 13 14  1  0  0  0  0
 13 15  1  0  0  0  0
 15 16  2  0  0  0  0
 15 36  1  0  0  0  0
 16 37  1  0  0  0  0
 17 18  2  0  0  0  0
 17 19  1  0  0  0  0
 19 20  1  0  0  0  0
 20 21  1  0  0  0  0
 20 22  2  0  0  0  0
 21 38  1  0  0  0  0
 21 39  1  0  0  0  0
M  END
> <s_m_source_file>
AV-unprocessed.smi

> <i_m_source_file_index>
363

> <i_lp_mmshare_version>
43012

> <i_f3d_flags>
0

> <s_epik_input>
W0NIM11jMVtjSF1jKFtDSDNdKW4oYyg9TyljMUMoPU8pW05IMl0pW0NIMl1bQ0BIXShbT0hdKWMyW2NIXVtjSF1jKENsKVtjSF1bY0hdMg==

> <s_epik_cmdline>
J2VwaWtfcHl0aG9uJywgJy1waCcsICc3LjAnLCAnLXRuJywgJzgnLCAnLW1hJywgJzIwMCcsICctbWV0YWxfYmluZGluZycsICctaW1hZScsICc8aW5maWxlLm1hZT4nLCAnLW9tYWUnLCAnPG91dGZpbGUubWFlPic=

> <r_lp_tautomer_probability>
1

> <r_epik_Ionization_Penalty>
3.91973e-07

> <r_epik_Ionization_Penalty_Charging>
1.35363e-07

> <r_epik_Ionization_Penalty_Neutral>
2.5661e-07

> <r_epik_State_Penalty>
-0

> <r_epik_Charging_Adjusted_Penalty>
1.35363e-07

> <i_epik_Tot_Q>
0

> <i_epik_Tot_abs_Q>
0

> <r_epik_Metal_State_Penalty>
-0

> <b_epik_Metal_Only>
0

> <s_lp_Force_Field>
OPLS_2005

> <r_lp_Energy>
39.7948

> <b_lp_Chiralities_Consistent>
1

> <s_lp_Variant>
AV-unprocessed.smi:363-1

> <Gold.Version>
5.8.1

> <Gold.Id.Protein>
6NUR|6NUR_protein|mol2

> <Gold.PLP.Fitness>
40.8862

> <Gold.PLP.PLP>
-39.4160

> <Gold.PLP.part.hbond>
-2.0000

> <Gold.PLP.part.metal>
0.0000

> <Gold.PLP.part.buried>
-2.7549

> <Gold.PLP.part.nonpolar>
-34.4179

> <Gold.PLP.part.repulsive>
0.2414

> <Gold.PLP.ligand.clash>
0.0608

> <Gold.PLP.ligand.torsion>
0.9109

> <Gold.PLP.Chemscore.Hbond>
1.0000

> <Gold.PLP.Chemscore.CHOScore>
0.0000

> <Gold.PLP.Chemscore.Metal>
0.0000

> <Gold.Chemscore.Hbonds>
donor molecule, donor type, donor heavy atom, donor atom, acceptor molecule, acceptor atom, score
      P1  H  7997  8010       L1     9  1.00

> <Gold.PLP.Chemscore.Internal.Correction>
0.3528

> <Gold.Rescore>
     Score         DG    S(hbond)    S(metal)    S(lipo)     H(rot)  DE(clash)    DE(int)     intcor
     13.76     -17.32       0.91        0.00     117.80       1.95       1.44       2.12       ----

> <Gold.Chemscore.Fitness>
13.7638

> <Gold.Chemscore.DG>
-17.3248

> <Gold.Chemscore.ZeroCoef>
-5.4800

> <Gold.Chemscore.Hbond>
0.9140

> <Gold.Chemscore.Metal>
0.0000

> <Gold.Chemscore.Lipo>
117.8026

> <Gold.Chemscore.Internal_Hbond>
0.0000

> <Gold.Chemscore.DEClash>
1.4373

> <Gold.Chemscore.DEInternal>
2.1237

> <Gold.Chemscore.Rot>
1.9495

> <Gold.Chemscore.Internal.Correction>
   9.000000E+99

> <Gold.Chemscore.Hbonds>
donor molecule, donor type, donor heavy atom, donor atom, acceptor molecule, acceptor atom, score
      P1  H  7997  8010       L1     9  0.60

> <Gold.Chemscore.Hbond.Weighted>
-3.0527

> <Gold.Chemscore.Metal.Weighted>
-0.0000

> <Gold.Chemscore.Lipo.Weighted>
-13.7829

> <Gold.Chemscore.Internal_Hbond.Weighted>
0.0000

> <Gold.Chemscore.DEClash.Weighted>
1.4373

> <Gold.Chemscore.DEInternal.Weighted>
2.1237

> <Gold.Chemscore.Rot.Weighted>
4.9908

> <Gold.Chemscore.Internal.Correction.Weighted>
   9.000000E+99

> <Gold.Protein.RotatedTorsions>
[ 6907 6896 6895 6894 ] final   32.61 input  -60.11 | X-H torsion
[ 7974 7965 7964 7962 ] final  109.50 input  175.53 | X-H torsion
[ 8008 7997 7996 7995 ] final   44.40 input   59.86 | X-H torsion
[ 10167 10162 10161 10158 ] final   33.84 input  -65.29 | X-H torsion
[ 10718 10713 10712 10709 ] final   73.66 input   66.30 | X-H torsion
[ 10763 10752 10751 10750 ] final   33.17 input  -60.55 | X-H torsion
[ 11005 11000 10999 10996 ] final   98.35 input  -57.11 | X-H torsion

> <Gold.Protein.ActiveResidues>
 VAL166  LYS551  ARG553  GLY616  TRP617  ASP618  TYR619  PRO620  LYS621  CYS622 
 ASP623  PHE694  ASN695  SER759  ASP760  ASP761  ALA762  ILE779  LEU786  VAL792 
 PHE793  MET794  SER795  GLU796  ALA797  LYS798  CYS799  TRP800  GLU811  SER814 

> <Gold.Protein.RotatedAtoms>
  152.0769  134.9497  160.0573 H   0  0  0  0  0  0  0  0  0  0  0  0  # atno 6907 bound_to 6896
  152.0800  133.4143  159.4505 H   0  0  0  0  0  0  0  0  0  0  0  0  # atno 6908 bound_to 6896
  150.6836  134.2912  159.4711 H   0  0  0  0  0  0  0  0  0  0  0  0  # atno 6909 bound_to 6896
  145.2670  139.2681  143.3987 H   0  0  0  0  0  0  0  0  0  0  0  0  # atno 7974 bound_to 7965
  155.3187  140.3395  155.4242 H   0  0  0  0  0  0  0  0  0  0  0  0  # atno 8008 bound_to 7997
  156.1920  140.1701  156.8111 H   0  0  0  0  0  0  0  0  0  0  0  0  # atno 8009 bound_to 7997
  154.5453  140.0716  156.8561 H   0  0  0  0  0  0  0  0  0  0  0  0  # atno 8010 bound_to 7997
  140.4370  144.1242  150.6168 H   0  0  0  0  0  0  0  0  0  0  0  0  # atno 10167 bound_to 10162
  157.6558  130.9639  150.1101 H   0  0  0  0  0  0  0  0  0  0  0  0  # atno 10718 bound_to 10713
  153.0225  135.6394  154.1469 H   0  0  0  0  0  0  0  0  0  0  0  0  # atno 10763 bound_to 10752
  154.1202  135.2847  155.3212 H   0  0  0  0  0  0  0  0  0  0  0  0  # atno 10764 bound_to 10752
  154.6269  135.5506  153.7699 H   0  0  0  0  0  0  0  0  0  0  0  0  # atno 10765 bound_to 10752
  139.8772  134.9045  156.4443 H   0  0  0  0  0  0  0  0  0  0  0  0  # atno 11005 bound_to 11000
  146.3258  140.3102  142.8626 LP  0  0  0  0  0  0  0  0  0  0  0  0  # atno 17320 bound_to 7965
  144.9369  140.8036  143.5655 LP  0  0  0  0  0  0  0  0  0  0  0  0  # atno 17321 bound_to 7965
  140.4362  143.2546  151.9532 LP  0  0  0  0  0  0  0  0  0  0  0  0  # atno 17342 bound_to 10162
  139.4787  144.5698  151.8107 LP  0  0  0  0  0  0  0  0  0  0  0  0  # atno 17343 bound_to 10162
  156.2000  130.3659  149.8800 LP  0  0  0  0  0  0  0  0  0  0  0  0  # atno 17370 bound_to 10713
  156.6707  130.8819  151.3561 LP  0  0  0  0  0  0  0  0  0  0  0  0  # atno 17371 bound_to 10713
  140.8977  133.7802  155.9644 LP  0  0  0  0  0  0  0  0  0  0  0  0  # atno 17394 bound_to 11000
  140.8685  134.2755  157.5202 LP  0  0  0  0  0  0  0  0  0  0  0  0  # atno 17395 bound_to 11000

$$$$
