AV-unprocessed.smi:47|AV-procd|sdf|433|dock5
  -GOLD-   2262016303D 1   1.00000     0.00000
 Structure written by MMmdl.
 32 34  0  0  0  0  0  0  0  0  2 V2000
  146.2988  139.7953  154.0198 O   0  0  0  0  0  0  0  0  0  0  0  0
  147.3050  140.7852  154.0013 C   0  0  1  0  0  0  0  0  0  0  0  0
  147.1242  141.8161  155.1214 C   0  0  0  0  0  0  0  0  0  0  0  0
  148.4802  142.2873  155.4689 N   0  3  0  0  0  0  0  0  0  0  0  0
  149.4616  141.4332  154.7668 C   0  0  1  0  0  0  0  0  0  0  0  0
  150.5348  141.1470  155.7748 C   0  0  0  0  0  0  0  0  0  0  0  0
  151.4822  140.2302  155.5514 N   0  0  0  0  0  0  0  0  0  0  0  0
  152.3077  140.1643  156.6178 N   0  0  0  0  0  0  0  0  0  0  0  0
  151.7710  141.0740  157.4293 C   0  0  0  0  0  0  0  0  0  0  0  0
  152.3459  141.3661  158.7634 C   0  0  0  0  0  0  0  0  0  0  0  0
  151.9709  142.5281  159.4814 C   0  0  0  0  0  0  0  0  0  0  0  0
  152.5153  142.8097  160.7495 C   0  0  0  0  0  0  0  0  0  0  0  0
  153.4492  141.9309  161.3261 C   0  0  0  0  0  0  0  0  0  0  0  0
  153.8347  140.7715  160.6305 C   0  0  0  0  0  0  0  0  0  0  0  0
  153.2876  140.4941  159.3627 C   0  0  0  0  0  0  0  0  0  0  0  0
  150.6611  141.7262  156.9679 N   0  0  0  0  0  0  0  0  0  0  0  0
  148.6883  140.2054  154.2801 C   0  0  0  0  0  0  0  0  0  0  0  0
  147.3047  141.2874  153.0327 H   0  0  0  0  0  0  0  0  0  0  0  0
  149.8681  141.9906  153.9215 H   0  0  0  0  0  0  0  0  0  0  0  0
  145.5550  140.1082  153.5272 H   0  0  0  0  0  0  0  0  0  0  0  0
  146.4737  142.6405  154.8286 H   0  0  0  0  0  0  0  0  0  0  0  0
  146.6971  141.3499  156.0107 H   0  0  0  0  0  0  0  0  0  0  0  0
  148.6056  143.2514  155.1960 H   0  0  0  0  0  0  0  0  0  0  0  0
  151.2551  143.2216  159.0653 H   0  0  0  0  0  0  0  0  0  0  0  0
  152.2150  143.7014  161.2799 H   0  0  0  0  0  0  0  0  0  0  0  0
  153.8678  142.1451  162.2986 H   0  0  0  0  0  0  0  0  0  0  0  0
  154.5512  140.0927  161.0688 H   0  0  0  0  0  0  0  0  0  0  0  0
  153.6037  139.5960  158.8527 H   0  0  0  0  0  0  0  0  0  0  0  0
  148.6180  139.4655  155.0800 H   0  0  0  0  0  0  0  0  0  0  0  0
  149.1461  139.7236  153.4157 H   0  0  0  0  0  0  0  0  0  0  0  0
  148.6133  142.1945  156.4662 H   0  0  0  0  0  0  0  0  0  0  0  0
  151.5991  139.6529  154.7304 H   0  0  0  0  0  0  0  0  0  0  0  0
  1  2  1  0  0  0  0
  1 20  1  0  0  0  0
  2 18  1  0  0  0  0
  2 17  1  0  0  0  0
  2  3  1  0  0  0  0
  3  4  1  0  0  0  0
  3 21  1  0  0  0  0
  3 22  1  0  0  0  0
  4  5  1  0  0  0  0
  4 23  1  0  0  0  0
  4 31  1  0  0  0  0
  5 19  1  0  0  0  0
  5  6  1  0  0  0  0
  5 17  1  0  0  0  0
  6 16  2  0  0  0  0
  6  7  1  0  0  0  0
  7  8  1  0  0  0  0
  7 32  1  0  0  0  0
  8  9  2  0  0  0  0
  9 10  1  0  0  0  0
  9 16  1  0  0  0  0
 10 15  1  0  0  0  0
 10 11  2  0  0  0  0
 11 12  1  0  0  0  0
 11 24  1  0  0  0  0
 12 13  2  0  0  0  0
 12 25  1  0  0  0  0
 13 14  1  0  0  0  0
 13 26  1  0  0  0  0
 14 15  2  0  0  0  0
 14 27  1  0  0  0  0
 15 28  1  0  0  0  0
 17 29  1  0  0  0  0
 17 30  1  0  0  0  0
M  CHG  1   4   1
M  END
> <s_m_source_file>
AV-unprocessed.smi

> <i_m_source_file_index>
47

> <i_lp_mmshare_version>
43012

> <i_f3d_flags>
0

> <s_epik_input>
W09IXVtDQEhdMVtDSDJdW05IXVtDQEBIXShbQ0gyXTEpYzJuW25IXWMobjIpLWMzW2NIXVtjSF1bY0hdW2NIXVtjSF0z

> <s_epik_cmdline>
J2VwaWtfcHl0aG9uJywgJy1waCcsICc3LjAnLCAnLXRuJywgJzgnLCAnLW1hJywgJzIwMCcsICctbWV0YWxfYmluZGluZycsICctaW1hZScsICc8aW5maWxlLm1hZT4nLCAnLW9tYWUnLCAnPG91dGZpbGUubWFlPic=

> <r_epik_Ionization_Penalty>
1.14296

> <r_epik_Ionization_Penalty_Charging>
0.0688988

> <r_epik_Ionization_Penalty_Neutral>
1.07406

> <r_epik_State_Penalty>
1.72347

> <r_epik_Charging_Adjusted_Penalty>
1.79237

> <i_epik_Tot_Q>
1

> <i_epik_Tot_abs_Q>
1

> <r_epik_Metal_State_Penalty>
2.22085

> <b_epik_Metal_Only>
0

> <s_lp_Force_Field>
OPLS_2005

> <r_lp_Energy>
30.8137

> <b_lp_Chiralities_Consistent>
1

> <s_lp_Variant>
AV-unprocessed.smi:47-11

> <Gold.Version>
5.8.1

> <Gold.Id.Protein>
6NUR|6NUR_protein|mol2

> <Gold.PLP.Fitness>
45.3136

> <Gold.PLP.PLP>
-35.1428

> <Gold.PLP.part.hbond>
-2.4630

> <Gold.PLP.part.metal>
0.0000

> <Gold.PLP.part.buried>
-4.9334

> <Gold.PLP.part.nonpolar>
-28.9928

> <Gold.PLP.part.repulsive>
0.7157

> <Gold.PLP.ligand.clash>
0.0000

> <Gold.PLP.ligand.torsion>
0.2380

> <Gold.PLP.Chemscore.Hbond>
3.5445

> <Gold.PLP.Chemscore.CHOScore>
0.0000

> <Gold.PLP.Chemscore.Metal>
0.0000

> <Gold.Chemscore.Hbonds>
donor molecule, donor type, donor heavy atom, donor atom, acceptor molecule, acceptor atom, score
      L1  H     1    20       P1 10175  0.63
      L1  H     4    23       P1  8028  1.92
      P1  H  7997  8008       L1     8  0.99

> <Gold.PLP.Chemscore.Internal.Correction>
0.0133

> <Gold.Rescore>
     Score         DG    S(hbond)    S(metal)    S(lipo)     H(rot)  DE(clash)    DE(int)     intcor
     19.18     -19.53       2.47        0.00      82.47       1.50       0.12       0.24       ----

> <Gold.Chemscore.Fitness>
19.1754

> <Gold.Chemscore.DG>
-19.5336

> <Gold.Chemscore.ZeroCoef>
-5.4800

> <Gold.Chemscore.Hbond>
2.4657

> <Gold.Chemscore.Metal>
0.0000

> <Gold.Chemscore.Lipo>
82.4734

> <Gold.Chemscore.Internal_Hbond>
0.0000

> <Gold.Chemscore.DEClash>
0.1214

> <Gold.Chemscore.DEInternal>
0.2368

> <Gold.Chemscore.Rot>
1.4966

> <Gold.Chemscore.Internal.Correction>
   9.000000E+99

> <Gold.Chemscore.Hbonds>
donor molecule, donor type, donor heavy atom, donor atom, acceptor molecule, acceptor atom, score
      L1  H     1    20       P1 10175  0.63
      L1  H     4    23       P1  8028  0.88
      P1  H  7997  8008       L1     8  0.85

> <Gold.Chemscore.Hbond.Weighted>
-8.2354

> <Gold.Chemscore.Metal.Weighted>
-0.0000

> <Gold.Chemscore.Lipo.Weighted>
-9.6494

> <Gold.Chemscore.Internal_Hbond.Weighted>
0.0000

> <Gold.Chemscore.DEClash.Weighted>
0.1214

> <Gold.Chemscore.DEInternal.Weighted>
0.2368

> <Gold.Chemscore.Rot.Weighted>
3.8312

> <Gold.Chemscore.Internal.Correction.Weighted>
   9.000000E+99

> <Gold.Protein.RotatedTorsions>
[ 6907 6896 6895 6894 ] final  -51.61 input  -60.11 | X-H torsion
[ 7974 7965 7964 7962 ] final  -81.26 input  175.53 | X-H torsion
[ 8008 7997 7996 7995 ] final  -49.85 input   59.86 | X-H torsion
[ 10167 10162 10161 10158 ] final   15.05 input  -65.29 | X-H torsion
[ 10718 10713 10712 10709 ] final  -17.24 input   66.30 | X-H torsion
[ 10763 10752 10751 10750 ] final  147.44 input  -60.55 | X-H torsion
[ 11005 11000 10999 10996 ] final  142.15 input  -57.11 | X-H torsion

> <Gold.Protein.ActiveResidues>
 VAL166  LYS551  ARG553  GLY616  TRP617  ASP618  TYR619  PRO620  LYS621  CYS622 
 ASP623  PHE694  ASN695  SER759  ASP760  ASP761  ALA762  ILE779  LEU786  VAL792 
 PHE793  MET794  SER795  GLU796  ALA797  LYS798  CYS799  TRP800  GLU811  SER814 

> <Gold.Protein.RotatedAtoms>
  150.8595  134.7944  159.7071 H   0  0  0  0  0  0  0  0  0  0  0  0  # atno 6907 bound_to 6896
  152.4637  134.5122  159.9767 H   0  0  0  0  0  0  0  0  0  0  0  0  # atno 6908 bound_to 6896
  151.5229  133.3425  159.2940 H   0  0  0  0  0  0  0  0  0  0  0  0  # atno 6909 bound_to 6896
  145.5490  140.9499  143.1509 H   0  0  0  0  0  0  0  0  0  0  0  0  # atno 7974 bound_to 7965
  154.4051  140.1286  156.4570 H   0  0  0  0  0  0  0  0  0  0  0  0  # atno 8008 bound_to 7997
  155.7310  140.3491  155.5040 H   0  0  0  0  0  0  0  0  0  0  0  0  # atno 8009 bound_to 7997
  155.9127  140.1038  157.1257 H   0  0  0  0  0  0  0  0  0  0  0  0  # atno 8010 bound_to 7997
  140.5894  143.8825  150.6860 H   0  0  0  0  0  0  0  0  0  0  0  0  # atno 10167 bound_to 10162
  156.5764  130.4762  149.6340 H   0  0  0  0  0  0  0  0  0  0  0  0  # atno 10718 bound_to 10713
  154.0383  135.2892  155.3359 H   0  0  0  0  0  0  0  0  0  0  0  0  # atno 10763 bound_to 10752
  154.6945  135.5213  153.8442 H   0  0  0  0  0  0  0  0  0  0  0  0  # atno 10764 bound_to 10752
  153.0611  135.6614  154.0589 H   0  0  0  0  0  0  0  0  0  0  0  0  # atno 10765 bound_to 10752
  140.0455  134.9283  157.0922 H   0  0  0  0  0  0  0  0  0  0  0  0  # atno 11005 bound_to 11000
  144.7539  139.7124  143.7262 LP  0  0  0  0  0  0  0  0  0  0  0  0  # atno 17320 bound_to 7965
  146.1930  139.5180  142.9793 LP  0  0  0  0  0  0  0  0  0  0  0  0  # atno 17321 bound_to 7965
  140.2344  143.3711  152.1538 LP  0  0  0  0  0  0  0  0  0  0  0  0  # atno 17342 bound_to 10162
  139.5218  144.7050  151.5380 LP  0  0  0  0  0  0  0  0  0  0  0  0  # atno 17343 bound_to 10162
  156.2670  130.6995  151.1781 LP  0  0  0  0  0  0  0  0  0  0  0  0  # atno 17370 bound_to 10713
  157.7337  131.0589  150.5565 LP  0  0  0  0  0  0  0  0  0  0  0  0  # atno 17371 bound_to 10713
  140.4000  134.2093  155.7164 LP  0  0  0  0  0  0  0  0  0  0  0  0  # atno 17394 bound_to 11000
  141.1905  133.8216  157.0916 LP  0  0  0  0  0  0  0  0  0  0  0  0  # atno 17395 bound_to 11000

$$$$
