AV-unprocessed.smi:138|AV-procd|sdf|1180|dock2
  -GOLD-   2262018333D 1   1.00000     0.00000
 Structure written by MMmdl.
 52 55  0  0  0  0  0  0  0  0  1 V2000
  145.0211  138.3097  157.2266 C   0  0  0  0  0  0  0  0  0  0  0  0
  146.2389  137.7880  157.9201 C   0  0  0  0  0  0  0  0  0  0  0  0
  147.5527  138.0876  157.7129 C   0  0  0  0  0  0  0  0  0  0  0  0
  148.3396  137.3316  158.6258 C   0  0  0  0  0  0  0  0  0  0  0  0
  149.8185  137.3046  158.7600 C   0  0  0  0  0  0  0  0  0  0  0  0
  150.3966  136.9708  159.7954 O   0  0  0  0  0  0  0  0  0  0  0  0
  150.6115  137.7148  157.5049 C   0  0  0  0  0  0  0  0  0  0  0  0
  150.4531  139.1237  157.1638 N   0  0  0  0  0  0  0  0  0  0  0  0
  149.8782  139.4399  155.9075 C   0  0  0  0  0  0  0  0  0  0  0  0
  149.5110  138.5695  155.1162 O   0  0  0  0  0  0  0  0  0  0  0  0
  149.7778  140.8681  155.6310 C   0  0  0  0  0  0  0  0  0  0  0  0
  149.2574  141.2846  154.4640 F   0  0  0  0  0  0  0  0  0  0  0  0
  150.2036  141.7835  156.5278 C   0  0  0  0  0  0  0  0  0  0  0  0
  150.7479  141.4493  157.7548 N   0  0  0  0  0  0  0  0  0  0  0  0
  151.2391  142.5571  158.6617 C   0  0  1  0  0  0  0  0  0  0  0  0
  152.7254  142.4424  159.0318 C   0  0  0  0  0  0  0  0  0  0  0  0
  153.1247  143.9008  159.0956 C   0  0  0  0  0  0  0  0  0  0  0  0
  152.2712  144.5123  157.9899 C   0  0  0  0  0  0  0  0  0  0  0  0
  151.0432  143.7895  158.0300 O   0  0  0  0  0  0  0  0  0  0  0  0
  150.9174  140.0859  158.0938 C   0  0  0  0  0  0  0  0  0  0  0  0
  151.4587  139.7510  159.1489 O   0  0  0  0  0  0  0  0  0  0  0  0
  147.4741  136.5869  159.3951 C   0  0  0  0  0  0  0  0  0  0  0  0
  147.7394  135.6300  160.5250 C   0  0  0  0  0  0  0  0  0  0  0  0
  146.1783  136.8520  158.9454 N   0  0  0  0  0  0  0  0  0  0  0  0
  144.9444  136.2658  159.4600 C   0  0  0  0  0  0  0  0  0  0  0  0
  144.6724  134.9104  158.8916 C   0  0  0  0  0  0  0  0  0  0  0  0
  145.2944  133.6988  159.0165 C   0  0  0  0  0  0  0  0  0  0  0  0
  144.5551  132.7831  158.2179 C   0  0  0  0  0  0  0  0  0  0  0  0
  143.5353  133.5039  157.6653 C   0  0  0  0  0  0  0  0  0  0  0  0
  143.5919  134.8026  158.0671 O   0  0  0  0  0  0  0  0  0  0  0  0
  145.2860  139.0943  156.5173 H   0  0  0  0  0  0  0  0  0  0  0  0
  144.3143  138.7333  157.9400 H   0  0  0  0  0  0  0  0  0  0  0  0
  144.5167  137.5180  156.6722 H   0  0  0  0  0  0  0  0  0  0  0  0
  147.9125  138.7821  156.9681 H   0  0  0  0  0  0  0  0  0  0  0  0
  151.6760  137.5140  157.6332 H   0  0  0  0  0  0  0  0  0  0  0  0
  150.3091  137.1227  156.6396 H   0  0  0  0  0  0  0  0  0  0  0  0
  150.1082  142.8270  156.2654 H   0  0  0  0  0  0  0  0  0  0  0  0
  150.6009  142.5286  159.5458 H   0  0  0  0  0  0  0  0  0  0  0  0
  152.8530  141.9136  159.9766 H   0  0  0  0  0  0  0  0  0  0  0  0
  153.2934  141.9227  158.2613 H   0  0  0  0  0  0  0  0  0  0  0  0
  152.8444  144.3233  160.0614 H   0  0  0  0  0  0  0  0  0  0  0  0
  154.1931  144.0604  158.9483 H   0  0  0  0  0  0  0  0  0  0  0  0
  152.1077  145.5808  158.1304 H   0  0  0  0  0  0  0  0  0  0  0  0
  152.7448  144.3705  157.0183 H   0  0  0  0  0  0  0  0  0  0  0  0
  148.5458  135.9893  161.1633 H   0  0  0  0  0  0  0  0  0  0  0  0
  148.0234  134.6502  160.1409 H   0  0  0  0  0  0  0  0  0  0  0  0
  146.8792  135.4997  161.1786 H   0  0  0  0  0  0  0  0  0  0  0  0
  145.0109  136.2031  160.5463 H   0  0  0  0  0  0  0  0  0  0  0  0
  144.1071  136.9354  159.2677 H   0  0  0  0  0  0  0  0  0  0  0  0
  146.1754  133.4975  159.6082 H   0  0  0  0  0  0  0  0  0  0  0  0
  144.7456  131.7308  158.0663 H   0  0  0  0  0  0  0  0  0  0  0  0
  142.7216  133.2626  156.9976 H   0  0  0  0  0  0  0  0  0  0  0  0
  1  2  1  0  0  0  0
  1 31  1  0  0  0  0
  1 32  1  0  0  0  0
  1 33  1  0  0  0  0
  2 24  1  0  0  0  0
  2  3  2  0  0  0  0
  3  4  1  0  0  0  0
  3 34  1  0  0  0  0
  4  5  1  0  0  0  0
  4 22  2  0  0  0  0
  5  6  2  0  0  0  0
  5  7  1  0  0  0  0
  7  8  1  0  0  0  0
  7 35  1  0  0  0  0
  7 36  1  0  0  0  0
  8 20  1  0  0  0  0
  8  9  1  0  0  0  0
  9 10  2  0  0  0  0
  9 11  1  0  0  0  0
 11 12  1  0  0  0  0
 11 13  2  0  0  0  0
 13 14  1  0  0  0  0
 13 37  1  0  0  0  0
 14 15  1  0  0  0  0
 14 20  1  0  0  0  0
 15 19  1  0  0  0  0
 15 16  1  0  0  0  0
 15 38  1  0  0  0  0
 16 17  1  0  0  0  0
 16 39  1  0  0  0  0
 16 40  1  0  0  0  0
 17 18  1  0  0  0  0
 17 41  1  0  0  0  0
 17 42  1  0  0  0  0
 18 19  1  0  0  0  0
 18 43  1  0  0  0  0
 18 44  1  0  0  0  0
 20 21  2  0  0  0  0
 22 23  1  0  0  0  0
 22 24  1  0  0  0  0
 23 45  1  0  0  0  0
 23 46  1  0  0  0  0
 23 47  1  0  0  0  0
 24 25  1  0  0  0  0
 25 26  1  0  0  0  0
 25 48  1  0  0  0  0
 25 49  1  0  0  0  0
 26 30  1  0  0  0  0
 26 27  2  0  0  0  0
 27 28  1  0  0  0  0
 27 50  1  0  0  0  0
 28 29  2  0  0  0  0
 28 51  1  0  0  0  0
 29 30  1  0  0  0  0
 29 52  1  0  0  0  0
M  END
> <s_m_source_file>
AV-unprocessed.smi

> <i_m_source_file_index>
138

> <i_lp_mmshare_version>
43012

> <i_f3d_flags>
0

> <s_epik_input>
bzFbY0hdW2NIXVtjSF1jMVtDSDJdbjJjKFtDSDNdKWMoW2NIXWMyW0NIM10pQyg9TylbQ0gyXW4zYyg9TyljKEYpW2NIXW4oYzM9TylbQ0BASF00W0NIMl1bQ0gyXVtDSDJdTzQ=

> <s_epik_cmdline>
J2VwaWtfcHl0aG9uJywgJy1waCcsICc3LjAnLCAnLXRuJywgJzgnLCAnLW1hJywgJzIwMCcsICctbWV0YWxfYmluZGluZycsICctaW1hZScsICc8aW5maWxlLm1hZT4nLCAnLW9tYWUnLCAnPG91dGZpbGUubWFlPic=

> <r_lp_tautomer_probability>
1

> <r_epik_Ionization_Penalty>
5.03107e-09

> <r_epik_Ionization_Penalty_Charging>
5.01743e-09

> <r_epik_Ionization_Penalty_Neutral>
1.36377e-11

> <r_epik_State_Penalty>
-0

> <r_epik_Charging_Adjusted_Penalty>
5.01743e-09

> <i_epik_Tot_Q>
0

> <i_epik_Tot_abs_Q>
0

> <r_epik_Metal_State_Penalty>
-0

> <b_epik_Metal_Only>
0

> <s_epik_Chemistry_Notes>
This compound contains an acetal/aminal-like group ( X-CH(R)-Y where X, Y are N, S, or O) that may be acid/base labile, releasing an aldehyde.

> <s_lp_Force_Field>
OPLS_2005

> <r_lp_Energy>
34.2081

> <b_lp_Chiralities_Consistent>
1

> <s_lp_Variant>
AV-unprocessed.smi:138-2

> <Gold.Version>
5.8.1

> <Gold.Id.Protein>
6NUR|6NUR_protein|mol2

> <Gold.PLP.Fitness>
46.6434

> <Gold.PLP.PLP>
-35.8195

> <Gold.PLP.part.hbond>
-1.2660

> <Gold.PLP.part.metal>
0.0000

> <Gold.PLP.part.buried>
-5.9922

> <Gold.PLP.part.nonpolar>
-30.0277

> <Gold.PLP.part.repulsive>
0.2829

> <Gold.PLP.ligand.clash>
0.0000

> <Gold.PLP.ligand.torsion>
0.6862

> <Gold.PLP.Chemscore.Hbond>
1.0000

> <Gold.PLP.Chemscore.CHOScore>
2.9819

> <Gold.PLP.Chemscore.Metal>
0.0000

> <Gold.Chemscore.Hbonds>
donor molecule, donor type, donor heavy atom, donor atom, acceptor molecule, acceptor atom, score
      P1  H  6896  6907       L1     6  1.00
      L1  C    13    37       P1  8028  1.00
      L1  C    29    52       P1 10957  0.77
      L1  C    29    52       P1 11000  1.00

> <Gold.PLP.Chemscore.Internal.Correction>
0.2506

> <Gold.Rescore>
     Score         DG    S(hbond)    S(metal)    S(lipo)     H(rot)  DE(clash)    DE(int)     intcor
      9.60     -11.97       0.98        0.00      71.12       2.00       0.00       2.38       ----

> <Gold.Chemscore.Fitness>
9.5956

> <Gold.Chemscore.DG>
-11.9750

> <Gold.Chemscore.ZeroCoef>
-5.4800

> <Gold.Chemscore.Hbond>
0.9830

> <Gold.Chemscore.Metal>
0.0000

> <Gold.Chemscore.Lipo>
71.1206

> <Gold.Chemscore.Internal_Hbond>
0.0000

> <Gold.Chemscore.DEClash>
0.0009

> <Gold.Chemscore.DEInternal>
2.3785

> <Gold.Chemscore.Rot>
1.9958

> <Gold.Chemscore.Internal.Correction>
   9.000000E+99

> <Gold.Chemscore.Hbonds>
donor molecule, donor type, donor heavy atom, donor atom, acceptor molecule, acceptor atom, score
      P1  H  6896  6907       L1     6  0.87

> <Gold.Chemscore.Hbond.Weighted>
-3.2831

> <Gold.Chemscore.Metal.Weighted>
-0.0000

> <Gold.Chemscore.Lipo.Weighted>
-8.3211

> <Gold.Chemscore.Internal_Hbond.Weighted>
0.0000

> <Gold.Chemscore.DEClash.Weighted>
0.0009

> <Gold.Chemscore.DEInternal.Weighted>
2.3785

> <Gold.Chemscore.Rot.Weighted>
5.1092

> <Gold.Chemscore.Internal.Correction.Weighted>
   9.000000E+99

> <Gold.Protein.RotatedTorsions>
[ 6907 6896 6895 6894 ] final  -29.96 input  -60.11 | X-H torsion
[ 7974 7965 7964 7962 ] final  119.20 input  175.53 | X-H torsion
[ 8008 7997 7996 7995 ] final  -75.11 input   59.86 | X-H torsion
[ 10167 10162 10161 10158 ] final  -61.12 input  -65.29 | X-H torsion
[ 10718 10713 10712 10709 ] final   32.63 input   66.30 | X-H torsion
[ 10763 10752 10751 10750 ] final  -94.75 input  -60.55 | X-H torsion
[ 11005 11000 10999 10996 ] final   77.96 input  -57.11 | X-H torsion

> <Gold.Protein.ActiveResidues>
 VAL166  LYS551  ARG553  GLY616  TRP617  ASP618  TYR619  PRO620  LYS621  CYS622 
 ASP623  PHE694  ASN695  SER759  ASP760  ASP761  ALA762  ILE779  LEU786  VAL792 
 PHE793  MET794  SER795  GLU796  ALA797  LYS798  CYS799  TRP800  GLU811  SER814 

> <Gold.Protein.RotatedAtoms>
  151.1120  135.0032  159.8498 H   0  0  0  0  0  0  0  0  0  0  0  0  # atno 6907 bound_to 6896
  152.5443  134.1824  159.8651 H   0  0  0  0  0  0  0  0  0  0  0  0  # atno 6908 bound_to 6896
  151.1875  133.4642  159.2627 H   0  0  0  0  0  0  0  0  0  0  0  0  # atno 6909 bound_to 6896
  145.1460  139.3239  143.4591 H   0  0  0  0  0  0  0  0  0  0  0  0  # atno 7974 bound_to 7965
  154.5388  140.0750  156.8475 H   0  0  0  0  0  0  0  0  0  0  0  0  # atno 8008 bound_to 7997
  155.3222  140.3397  155.4223 H   0  0  0  0  0  0  0  0  0  0  0  0  # atno 8009 bound_to 7997
  156.1855  140.1667  156.8180 H   0  0  0  0  0  0  0  0  0  0  0  0  # atno 8010 bound_to 7997
  140.6027  143.2365  151.5893 H   0  0  0  0  0  0  0  0  0  0  0  0  # atno 10167 bound_to 10162
  157.2876  130.7286  149.6592 H   0  0  0  0  0  0  0  0  0  0  0  0  # atno 10718 bound_to 10713
  154.7084  135.5146  153.8630 H   0  0  0  0  0  0  0  0  0  0  0  0  # atno 10763 bound_to 10752
  153.0760  135.6616  154.0154 H   0  0  0  0  0  0  0  0  0  0  0  0  # atno 10764 bound_to 10752
  154.0000  135.3012  155.3383 H   0  0  0  0  0  0  0  0  0  0  0  0  # atno 10765 bound_to 10752
  139.9232  134.7725  156.1588 H   0  0  0  0  0  0  0  0  0  0  0  0  # atno 11005 bound_to 11000
  146.3500  140.1515  142.8592 LP  0  0  0  0  0  0  0  0  0  0  0  0  # atno 17320 bound_to 7965
  145.0482  140.8997  143.5012 LP  0  0  0  0  0  0  0  0  0  0  0  0  # atno 17321 bound_to 7965
  139.5302  144.2938  152.1130 LP  0  0  0  0  0  0  0  0  0  0  0  0  # atno 17342 bound_to 10162
  140.2122  144.4551  150.6380 LP  0  0  0  0  0  0  0  0  0  0  0  0  # atno 17343 bound_to 10162
  155.9666  130.4319  150.4939 LP  0  0  0  0  0  0  0  0  0  0  0  0  # atno 17370 bound_to 10713
  157.2895  131.0623  151.2143 LP  0  0  0  0  0  0  0  0  0  0  0  0  # atno 17371 bound_to 10713
  141.0770  133.6771  156.2258 LP  0  0  0  0  0  0  0  0  0  0  0  0  # atno 17394 bound_to 11000
  140.6411  134.5165  157.5569 LP  0  0  0  0  0  0  0  0  0  0  0  0  # atno 17395 bound_to 11000

$$$$
