AV-unprocessed.smi:196|AV-procd|sdf|1540|dock1
  -GOLD-   2262019393D 1   1.00000     0.00000
 Structure written by MMmdl.
 47 50  0  0  0  0  0  0  0  0  1 V2000
  143.2008  132.2786  150.8321 C   0  0  0  0  0  0  0  0  0  0  0  0
  144.7361  132.2171  150.8133 C   0  0  2  0  0  0  0  0  0  0  0  0
  145.1428  131.3813  151.8942 O   0  0  0  0  0  0  0  0  0  0  0  0
  146.3943  131.8326  152.3809 C   0  0  0  0  0  0  0  0  0  0  0  0
  146.2438  133.3448  152.3192 C   0  0  0  0  0  0  0  0  0  0  0  0
  145.4932  133.5617  151.0083 C   0  0  1  0  0  0  0  0  0  0  0  0
  146.4543  133.6663  149.9704 O   0  0  0  0  0  0  0  0  0  0  0  0
  144.6293  134.8507  150.9915 C   0  0  0  0  0  0  0  0  0  0  0  0
  145.3850  136.0573  151.2945 N   0  0  0  0  0  0  0  0  0  0  0  0
  145.8422  136.9923  150.3919 C   0  0  0  0  0  0  0  0  0  0  0  0
  146.5039  137.9918  150.9091 N   0  0  0  0  0  0  0  0  0  0  0  0
  146.4963  137.7270  152.2720 C   0  0  0  0  0  0  0  0  0  0  0  0
  147.0342  138.3882  153.4059 C   0  0  0  0  0  0  0  0  0  0  0  0
  147.7195  139.5488  153.2923 N   0  0  0  0  0  0  0  0  0  0  0  0
  146.9070  140.7014  152.9150 C   0  0  0  0  0  0  0  0  0  0  0  0
  147.3044  141.8343  153.8626 C   0  0  1  0  0  0  0  0  0  0  0  0
  146.4897  141.8353  154.9191 F   0  0  0  0  0  0  0  0  0  0  0  0
  148.7106  141.4424  154.3025 C   0  0  0  0  0  0  0  0  0  0  0  0
  148.6406  139.9106  154.3769 C   0  0  2  0  0  0  0  0  0  0  0  0
  150.0369  139.2702  154.2639 C   0  0  0  0  0  0  0  0  0  0  0  0
  150.1511  138.0653  153.6949 N   0  0  0  0  0  0  0  0  0  0  0  0
  151.0172  139.8688  154.7010 O   0  0  0  0  0  0  0  0  0  0  0  0
  146.8230  137.8328  154.6275 N   0  0  0  0  0  0  0  0  0  0  0  0
  146.1340  136.6921  154.7303 C   0  0  0  0  0  0  0  0  0  0  0  0
  145.5800  135.9604  153.7605 N   0  0  0  0  0  0  0  0  0  0  0  0
  145.7906  136.5201  152.5343 C   0  0  0  0  0  0  0  0  0  0  0  0
  147.2501  142.8215  153.4033 H   0  0  0  0  0  0  0  0  0  0  0  0
  148.2199  139.6315  155.3443 H   0  0  0  0  0  0  0  0  0  0  0  0
  142.8154  132.8926  150.0181 H   0  0  0  0  0  0  0  0  0  0  0  0
  142.8281  132.6831  151.7735 H   0  0  0  0  0  0  0  0  0  0  0  0
  142.7765  131.2812  150.7160 H   0  0  0  0  0  0  0  0  0  0  0  0
  145.0492  131.7344  149.8854 H   0  0  0  0  0  0  0  0  0  0  0  0
  146.5899  131.4675  153.3891 H   0  0  0  0  0  0  0  0  0  0  0  0
  147.1942  131.4877  151.7239 H   0  0  0  0  0  0  0  0  0  0  0  0
  145.6293  133.6666  153.1606 H   0  0  0  0  0  0  0  0  0  0  0  0
  147.1946  133.8762  152.3789 H   0  0  0  0  0  0  0  0  0  0  0  0
  146.1311  134.2735  149.3226 H   0  0  0  0  0  0  0  0  0  0  0  0
  144.1591  134.9818  150.0162 H   0  0  0  0  0  0  0  0  0  0  0  0
  143.8189  134.7781  151.7172 H   0  0  0  0  0  0  0  0  0  0  0  0
  145.6733  136.9049  149.3286 H   0  0  0  0  0  0  0  0  0  0  0  0
  147.1628  140.9643  151.8881 H   0  0  0  0  0  0  0  0  0  0  0  0
  145.8323  140.5097  152.9435 H   0  0  0  0  0  0  0  0  0  0  0  0
  149.4302  141.7614  153.5462 H   0  0  0  0  0  0  0  0  0  0  0  0
  148.9974  141.8997  155.2503 H   0  0  0  0  0  0  0  0  0  0  0  0
  151.0600  137.6322  153.6127 H   0  0  0  0  0  0  0  0  0  0  0  0
  149.3284  137.5932  153.3490 H   0  0  0  0  0  0  0  0  0  0  0  0
  146.0083  136.3113  155.7330 H   0  0  0  0  0  0  0  0  0  0  0  0
  1  2  1  0  0  0  0
  1 29  1  0  0  0  0
  1 30  1  0  0  0  0
  1 31  1  0  0  0  0
  2  6  1  0  0  0  0
  2  3  1  0  0  0  0
  2 32  1  0  0  0  0
  3  4  1  0  0  0  0
  4  5  1  0  0  0  0
  4 33  1  0  0  0  0
  4 34  1  0  0  0  0
  5  6  1  0  0  0  0
  5 35  1  0  0  0  0
  5 36  1  0  0  0  0
  6  7  1  0  0  0  0
  6  8  1  0  0  0  0
  7 37  1  0  0  0  0
  8  9  1  0  0  0  0
  8 38  1  0  0  0  0
  8 39  1  0  0  0  0
  9 26  1  0  0  0  0
  9 10  1  0  0  0  0
 10 11  2  0  0  0  0
 10 40  1  0  0  0  0
 11 12  1  0  0  0  0
 12 26  2  0  0  0  0
 12 13  1  0  0  0  0
 13 14  1  0  0  0  0
 13 23  2  0  0  0  0
 14 19  1  0  0  0  0
 14 15  1  0  0  0  0
 15 16  1  0  0  0  0
 15 41  1  0  0  0  0
 15 42  1  0  0  0  0
 16 27  1  0  0  0  0
 16 17  1  0  0  0  0
 16 18  1  0  0  0  0
 18 19  1  0  0  0  0
 18 43  1  0  0  0  0
 18 44  1  0  0  0  0
 19 28  1  0  0  0  0
 19 20  1  0  0  0  0
 20 21  1  0  0  0  0
 20 22  2  0  0  0  0
 21 45  1  0  0  0  0
 21 46  1  0  0  0  0
 23 24  1  0  0  0  0
 24 25  2  0  0  0  0
 24 47  1  0  0  0  0
 25 26  1  0  0  0  0
M  END
> <s_m_source_file>
AV-unprocessed.smi

> <i_m_source_file_index>
196

> <i_lp_mmshare_version>
43012

> <i_f3d_flags>
0

> <s_epik_input>
W0NIMl0xW0NIMl1PW0NAQEhdKFtDSDNdKVtDQEBdMShbT0hdKVtDSDJdbihbY0hdbjIpYyhjMjMpbltjSF1uYzNONFtDSDJdW0NASF0oRilbQ0gyXVtDQEhdNEMoPU8pW05IMl0=

> <s_epik_cmdline>
J2VwaWtfcHl0aG9uJywgJy1waCcsICc3LjAnLCAnLXRuJywgJzgnLCAnLW1hJywgJzIwMCcsICctbWV0YWxfYmluZGluZycsICctaW1hZScsICc8aW5maWxlLm1hZT4nLCAnLW9tYWUnLCAnPG91dGZpbGUubWFlPic=

> <r_lp_tautomer_probability>
1

> <r_epik_Ionization_Penalty>
0.000857933

> <r_epik_Ionization_Penalty_Charging>
0

> <r_epik_Ionization_Penalty_Neutral>
0.000857933

> <r_epik_State_Penalty>
0.000462053

> <r_epik_Charging_Adjusted_Penalty>
0.000462053

> <i_epik_Tot_Q>
0

> <i_epik_Tot_abs_Q>
0

> <r_epik_Metal_State_Penalty>
-0

> <b_epik_Metal_Only>
0

> <s_lp_Force_Field>
OPLS_2005

> <r_lp_Energy>
46.05

> <b_lp_Chiralities_Consistent>
1

> <s_lp_Variant>
AV-unprocessed.smi:196-13

> <Gold.Version>
5.8.1

> <Gold.Id.Protein>
6NUR|6NUR_protein|mol2

> <Gold.PLP.Fitness>
46.2937

> <Gold.PLP.PLP>
-36.2924

> <Gold.PLP.part.hbond>
-5.5448

> <Gold.PLP.part.metal>
0.0000

> <Gold.PLP.part.buried>
3.7524

> <Gold.PLP.part.nonpolar>
-39.2465

> <Gold.PLP.part.repulsive>
4.0416

> <Gold.PLP.ligand.clash>
0.0000

> <Gold.PLP.ligand.torsion>
1.4338

> <Gold.PLP.Chemscore.Hbond>
3.5176

> <Gold.PLP.Chemscore.CHOScore>
0.7165

> <Gold.PLP.Chemscore.Metal>
0.0000

> <Gold.Chemscore.Hbonds>
donor molecule, donor type, donor heavy atom, donor atom, acceptor molecule, acceptor atom, score
      L1  H     7    37       P1  7921  0.85
      L1  H    21    46       P1  7948  0.67
      P1  H  7954  7966       L1    11  1.00
      P1  H  7989  7998       L1    22  1.00
      L1  C    10    40       P1  7921  0.58
      L1  C    10    40       P1 10171  0.07

> <Gold.PLP.Chemscore.Internal.Correction>
0.1666

> <Gold.Rescore>
     Score         DG    S(hbond)    S(metal)    S(lipo)     H(rot)  DE(clash)    DE(int)     intcor
      7.27     -12.05       1.64        0.00      75.81       3.04       3.79       0.99       ----

> <Gold.Chemscore.Fitness>
7.2662

> <Gold.Chemscore.DG>
-12.0475

> <Gold.Chemscore.ZeroCoef>
-5.4800

> <Gold.Chemscore.Hbond>
1.6417

> <Gold.Chemscore.Metal>
0.0000

> <Gold.Chemscore.Lipo>
75.8093

> <Gold.Chemscore.Internal_Hbond>
0.0000

> <Gold.Chemscore.DEClash>
3.7918

> <Gold.Chemscore.DEInternal>
0.9895

> <Gold.Chemscore.Rot>
3.0413

> <Gold.Chemscore.Internal.Correction>
   9.000000E+99

> <Gold.Chemscore.Hbonds>
donor molecule, donor type, donor heavy atom, donor atom, acceptor molecule, acceptor atom, score
      L1  H     7    37       P1  7921  0.16
      L1  H    21    46       P1  7948  0.62
      P1  H  7954  7966       L1    11  0.25
      P1  H  7989  7998       L1    22  0.70

> <Gold.Chemscore.Hbond.Weighted>
-5.4834

> <Gold.Chemscore.Metal.Weighted>
-0.0000

> <Gold.Chemscore.Lipo.Weighted>
-8.8697

> <Gold.Chemscore.Internal_Hbond.Weighted>
0.0000

> <Gold.Chemscore.DEClash.Weighted>
3.7918

> <Gold.Chemscore.DEInternal.Weighted>
0.9895

> <Gold.Chemscore.Rot.Weighted>
7.7856

> <Gold.Chemscore.Internal.Correction.Weighted>
   9.000000E+99

> <Gold.Protein.RotatedTorsions>
[ 6907 6896 6895 6894 ] final -122.69 input  -60.11 | X-H torsion
[ 7974 7965 7964 7962 ] final  -39.97 input  175.53 | X-H torsion
[ 8008 7997 7996 7995 ] final -165.38 input   59.86 | X-H torsion
[ 10167 10162 10161 10158 ] final   14.09 input  -65.29 | X-H torsion
[ 10718 10713 10712 10709 ] final   43.05 input   66.30 | X-H torsion
[ 10763 10752 10751 10750 ] final   69.01 input  -60.55 | X-H torsion
[ 11005 11000 10999 10996 ] final  -18.09 input  -57.11 | X-H torsion

> <Gold.Protein.ActiveResidues>
 VAL166  LYS551  ARG553  GLY616  TRP617  ASP618  TYR619  PRO620  LYS621  CYS622 
 ASP623  PHE694  ASN695  SER759  ASP760  ASP761  ALA762  ILE779  LEU786  VAL792 
 PHE793  MET794  SER795  GLU796  ALA797  LYS798  CYS799  TRP800  GLU811  SER814 

> <Gold.Protein.RotatedAtoms>
  150.8600  133.7658  159.2995 H   0  0  0  0  0  0  0  0  0  0  0  0  # atno 6907 bound_to 6896
  151.5303  135.1066  159.9910 H   0  0  0  0  0  0  0  0  0  0  0  0  # atno 6908 bound_to 6896
  152.4619  133.7796  159.6899 H   0  0  0  0  0  0  0  0  0  0  0  0  # atno 6909 bound_to 6896
  146.0347  140.6686  142.9115 H   0  0  0  0  0  0  0  0  0  0  0  0  # atno 7974 bound_to 7965
  155.8490  140.0960  157.1687 H   0  0  0  0  0  0  0  0  0  0  0  0  # atno 8008 bound_to 7997
  154.3984  140.1386  156.3883 H   0  0  0  0  0  0  0  0  0  0  0  0  # atno 8009 bound_to 7997
  155.7982  140.3453  155.5390 H   0  0  0  0  0  0  0  0  0  0  0  0  # atno 8010 bound_to 7997
  140.5959  143.8703  150.6917 H   0  0  0  0  0  0  0  0  0  0  0  0  # atno 10167 bound_to 10162
  157.4116  130.7917  149.7436 H   0  0  0  0  0  0  0  0  0  0  0  0  # atno 10718 bound_to 10713
  153.0264  135.5226  154.7222 H   0  0  0  0  0  0  0  0  0  0  0  0  # atno 10763 bound_to 10752
  154.6274  135.2896  155.0259 H   0  0  0  0  0  0  0  0  0  0  0  0  # atno 10764 bound_to 10752
  154.1223  135.6605  153.4958 H   0  0  0  0  0  0  0  0  0  0  0  0  # atno 10765 bound_to 10752
  140.8234  133.8051  155.9683 H   0  0  0  0  0  0  0  0  0  0  0  0  # atno 11005 bound_to 11000
  144.7046  140.3799  143.7128 LP  0  0  0  0  0  0  0  0  0  0  0  0  # atno 17320 bound_to 7965
  145.6983  139.1655  143.2607 LP  0  0  0  0  0  0  0  0  0  0  0  0  # atno 17321 bound_to 7965
  140.2237  143.3789  152.1622 LP  0  0  0  0  0  0  0  0  0  0  0  0  # atno 17342 bound_to 10162
  139.5258  144.7100  151.5236 LP  0  0  0  0  0  0  0  0  0  0  0  0  # atno 17343 bound_to 10162
  155.9852  130.3985  150.3271 LP  0  0  0  0  0  0  0  0  0  0  0  0  # atno 17370 bound_to 10713
  157.1410  131.0296  151.2928 LP  0  0  0  0  0  0  0  0  0  0  0  0  # atno 17371 bound_to 10713
  140.9075  134.2302  157.5005 LP  0  0  0  0  0  0  0  0  0  0  0  0  # atno 17394 bound_to 11000
  139.8707  134.9735  156.4811 LP  0  0  0  0  0  0  0  0  0  0  0  0  # atno 17395 bound_to 11000

$$$$
