AV-unprocessed.smi:156|AV-procd|sdf|1287|dock6
  -GOLD-   2262018563D 1   1.00000     0.00000
 Structure written by MMmdl.
 51 53  0  0  0  0  0  0  0  0  1 V2000
  151.3726  137.4250  154.3837 C   0  0  0  0  0  0  0  0  0  0  0  0
  150.4529  137.6108  155.6110 C   0  0  2  0  0  0  0  0  0  0  0  0
  151.0182  138.5285  156.7400 C   0  0  2  0  0  0  0  0  0  0  0  0
  151.3400  139.9350  156.1965 C   0  0  0  0  0  0  0  0  0  0  0  0
  152.5331  137.7934  157.5340 S   0  0  0  0  0  0  0  0  0  0  0  0
  152.0059  137.4867  159.2722 C   0  0  0  0  0  0  0  0  0  0  0  0
  152.7954  136.4829  156.9197 O   0  0  0  0  0  0  0  0  0  0  0  0
  153.5944  138.8117  157.5519 O   0  0  0  0  0  0  0  0  0  0  0  0
  149.9495  136.3213  156.1129 N   0  0  0  0  0  0  0  0  0  0  0  0
  149.5311  136.2439  157.5088 C   0  0  0  0  0  0  0  0  0  0  0  0
  149.3440  135.4147  155.2992 C   0  0  0  0  0  0  0  0  0  0  0  0
  150.0564  134.3851  154.7713 N   0  0  0  0  0  0  0  0  0  0  0  0
  149.4702  133.4970  153.9640 C   0  0  0  0  0  0  0  0  0  0  0  0
  148.2013  133.4523  153.5562 N   0  0  0  0  0  0  0  0  0  0  0  0
  147.4776  134.4836  154.0772 C   0  0  0  0  0  0  0  0  0  0  0  0
  147.9657  135.4983  154.9490 C   0  0  0  0  0  0  0  0  0  0  0  0
  146.9334  136.3659  155.2844 N   0  0  0  0  0  0  0  0  0  0  0  0
  145.8982  135.8956  154.6445 C   0  0  0  0  0  0  0  0  0  0  0  0
  146.1373  134.7739  153.8828 N   0  0  0  0  0  0  0  0  0  0  0  0
  145.1706  134.0422  153.0759 C   0  0  0  0  0  0  0  0  0  0  0  0
  145.3521  134.2148  151.5523 C   0  0  0  0  0  0  0  0  0  0  0  0
  145.4108  135.7057  151.1792 C   0  0  0  0  0  0  0  0  0  0  0  0
  145.0993  135.9026  149.8153 O   0  0  0  0  0  0  0  0  0  0  0  0
  146.4483  133.3385  150.9309 C   0  0  0  0  0  0  0  0  0  0  0  0
  145.4894  132.4558  150.3122 O   0  0  0  0  0  0  0  0  0  0  0  0
  144.4253  133.3603  150.6741 C   0  0  0  0  0  0  0  0  0  0  0  0
  151.4794  138.3520  153.8219 H   0  0  0  0  0  0  0  0  0  0  0  0
  150.9648  136.6923  153.6874 H   0  0  0  0  0  0  0  0  0  0  0  0
  152.3712  137.0914  154.6646 H   0  0  0  0  0  0  0  0  0  0  0  0
  149.5697  138.1272  155.2322 H   0  0  0  0  0  0  0  0  0  0  0  0
  150.2905  138.6289  157.5436 H   0  0  0  0  0  0  0  0  0  0  0  0
  150.4771  140.3853  155.7062 H   0  0  0  0  0  0  0  0  0  0  0  0
  152.1514  139.9014  155.4693 H   0  0  0  0  0  0  0  0  0  0  0  0
  151.6275  140.6202  156.9921 H   0  0  0  0  0  0  0  0  0  0  0  0
  152.7751  136.9061  159.7809 H   0  0  0  0  0  0  0  0  0  0  0  0
  151.0706  136.9272  159.2793 H   0  0  0  0  0  0  0  0  0  0  0  0
  151.8768  138.4323  159.7974 H   0  0  0  0  0  0  0  0  0  0  0  0
  148.4772  135.9749  157.5919 H   0  0  0  0  0  0  0  0  0  0  0  0
  149.6701  137.1986  158.0167 H   0  0  0  0  0  0  0  0  0  0  0  0
  150.1214  135.4986  158.0416 H   0  0  0  0  0  0  0  0  0  0  0  0
  150.1101  132.7112  153.5906 H   0  0  0  0  0  0  0  0  0  0  0  0
  144.9250  136.3577  154.7183 H   0  0  0  0  0  0  0  0  0  0  0  0
  145.2212  132.9883  153.3512 H   0  0  0  0  0  0  0  0  0  0  0  0
  144.1753  134.3709  153.3777 H   0  0  0  0  0  0  0  0  0  0  0  0
  144.6931  136.2786  151.7674 H   0  0  0  0  0  0  0  0  0  0  0  0
  146.3880  136.1392  151.3919 H   0  0  0  0  0  0  0  0  0  0  0  0
  144.5914  136.6955  149.7337 H   0  0  0  0  0  0  0  0  0  0  0  0
  147.0614  133.8537  150.1898 H   0  0  0  0  0  0  0  0  0  0  0  0
  147.0742  132.8269  151.6629 H   0  0  0  0  0  0  0  0  0  0  0  0
  143.6267  132.8539  151.2144 H   0  0  0  0  0  0  0  0  0  0  0  0
  144.0283  133.8859  149.8043 H   0  0  0  0  0  0  0  0  0  0  0  0
  1  2  1  0  0  0  0
  1 27  1  0  0  0  0
  1 28  1  0  0  0  0
  1 29  1  0  0  0  0
  2  3  1  0  0  0  0
  2  9  1  0  0  0  0
  2 30  1  0  0  0  0
  3  4  1  0  0  0  0
  3  5  1  0  0  0  0
  3 31  1  0  0  0  0
  4 32  1  0  0  0  0
  4 33  1  0  0  0  0
  4 34  1  0  0  0  0
  5  6  1  0  0  0  0
  5  7  2  0  0  0  0
  5  8  2  0  0  0  0
  6 35  1  0  0  0  0
  6 36  1  0  0  0  0
  6 37  1  0  0  0  0
  9 10  1  0  0  0  0
  9 11  1  0  0  0  0
 10 38  1  0  0  0  0
 10 39  1  0  0  0  0
 10 40  1  0  0  0  0
 11 16  1  0  0  0  0
 11 12  2  0  0  0  0
 12 13  1  0  0  0  0
 13 14  2  0  0  0  0
 13 41  1  0  0  0  0
 14 15  1  0  0  0  0
 15 19  1  0  0  0  0
 15 16  2  0  0  0  0
 16 17  1  0  0  0  0
 17 18  2  0  0  0  0
 18 19  1  0  0  0  0
 18 42  1  0  0  0  0
 19 20  1  0  0  0  0
 20 21  1  0  0  0  0
 20 43  1  0  0  0  0
 20 44  1  0  0  0  0
 21 26  1  0  0  0  0
 21 22  1  0  0  0  0
 21 24  1  0  0  0  0
 22 23  1  0  0  0  0
 22 45  1  0  0  0  0
 22 46  1  0  0  0  0
 23 47  1  0  0  0  0
 24 25  1  0  0  0  0
 24 48  1  0  0  0  0
 24 49  1  0  0  0  0
 25 26  1  0  0  0  0
 26 50  1  0  0  0  0
 26 51  1  0  0  0  0
M  END
> <s_m_source_file>
AV-unprocessed.smi

> <i_m_source_file_index>
156

> <i_lp_mmshare_version>
43012

> <i_f3d_flags>
0

> <s_epik_input>
W0NIM11TKD1PKSg9TylbQ0BASF0oW0NIM10pW0NAQEhdKFtDSDNdKU4oW0NIM10pYyhuW2NIXW4xKWMoYzEyKW5bY0hdbjJbQ0gyXUMzKFtDSDJdW09IXSlbQ0gyXU9bQ0gyXTM=

> <s_epik_cmdline>
J2VwaWtfcHl0aG9uJywgJy1waCcsICc3LjAnLCAnLXRuJywgJzgnLCAnLW1hJywgJzIwMCcsICctbWV0YWxfYmluZGluZycsICctaW1hZScsICc8aW5maWxlLm1hZT4nLCAnLW9tYWUnLCAnPG91dGZpbGUubWFlPic=

> <r_lp_tautomer_probability>
1

> <r_epik_Ionization_Penalty>
0.00107697

> <r_epik_Ionization_Penalty_Charging>
0

> <r_epik_Ionization_Penalty_Neutral>
0.00107697

> <r_epik_State_Penalty>
0.000614712

> <r_epik_Charging_Adjusted_Penalty>
0.000614712

> <i_epik_Tot_Q>
0

> <i_epik_Tot_abs_Q>
0

> <r_epik_Metal_State_Penalty>
-0

> <b_epik_Metal_Only>
0

> <s_lp_Force_Field>
OPLS_2005

> <r_lp_Energy>
28.4574

> <b_lp_Chiralities_Consistent>
1

> <s_lp_Variant>
AV-unprocessed.smi:156-1

> <Gold.Version>
5.8.1

> <Gold.Id.Protein>
6NUR|6NUR_protein|mol2

> <Gold.PLP.Fitness>
37.9577

> <Gold.PLP.PLP>
-32.3352

> <Gold.PLP.part.hbond>
-3.8795

> <Gold.PLP.part.metal>
0.0000

> <Gold.PLP.part.buried>
-5.9890

> <Gold.PLP.part.nonpolar>
-23.3109

> <Gold.PLP.part.repulsive>
0.4993

> <Gold.PLP.ligand.clash>
0.0000

> <Gold.PLP.ligand.torsion>
2.5059

> <Gold.PLP.Chemscore.Hbond>
3.0000

> <Gold.PLP.Chemscore.CHOScore>
0.0000

> <Gold.PLP.Chemscore.Metal>
0.0000

> <Gold.Chemscore.Hbonds>
donor molecule, donor type, donor heavy atom, donor atom, acceptor molecule, acceptor atom, score
      L1  H    23    47       P1 10171  1.00
      P1  H  7997  8009       L1     8  0.93
      P1  H 10752 10765       L1     7  0.94

> <Gold.PLP.Chemscore.Internal.Correction>
1.6343

> <Gold.Rescore>
     Score         DG    S(hbond)    S(metal)    S(lipo)     H(rot)  DE(clash)    DE(int)     intcor
     10.24     -14.02       2.90        0.00      60.34       3.21       0.04       3.74       ----

> <Gold.Chemscore.Fitness>
10.2392

> <Gold.Chemscore.DG>
-14.0193

> <Gold.Chemscore.ZeroCoef>
-5.4800

> <Gold.Chemscore.Hbond>
2.9046

> <Gold.Chemscore.Metal>
0.0000

> <Gold.Chemscore.Lipo>
60.3373

> <Gold.Chemscore.Internal_Hbond>
0.0000

> <Gold.Chemscore.DEClash>
0.0374

> <Gold.Chemscore.DEInternal>
3.7427

> <Gold.Chemscore.Rot>
3.2115

> <Gold.Chemscore.Internal.Correction>
   9.000000E+99

> <Gold.Chemscore.Hbonds>
donor molecule, donor type, donor heavy atom, donor atom, acceptor molecule, acceptor atom, score
      L1  H    23    47       P1 10171  0.96
      P1  H  7997  8009       L1     8  0.90
      P1  H 10752 10765       L1     7  0.90

> <Gold.Chemscore.Hbond.Weighted>
-9.7014

> <Gold.Chemscore.Metal.Weighted>
-0.0000

> <Gold.Chemscore.Lipo.Weighted>
-7.0595

> <Gold.Chemscore.Internal_Hbond.Weighted>
0.0000

> <Gold.Chemscore.DEClash.Weighted>
0.0374

> <Gold.Chemscore.DEInternal.Weighted>
3.7427

> <Gold.Chemscore.Rot.Weighted>
8.2215

> <Gold.Chemscore.Internal.Correction.Weighted>
   9.000000E+99

> <Gold.Protein.RotatedTorsions>
[ 6907 6896 6895 6894 ] final   87.31 input  -60.11 | X-H torsion
[ 7974 7965 7964 7962 ] final  -14.93 input  175.53 | X-H torsion
[ 8008 7997 7996 7995 ] final  179.12 input   59.86 | X-H torsion
[ 10167 10162 10161 10158 ] final  -99.20 input  -65.29 | X-H torsion
[ 10718 10713 10712 10709 ] final  -29.04 input   66.30 | X-H torsion
[ 10763 10752 10751 10750 ] final -129.61 input  -60.55 | X-H torsion
[ 11005 11000 10999 10996 ] final  -81.17 input  -57.11 | X-H torsion

> <Gold.Protein.ActiveResidues>
 VAL166  LYS551  ARG553  GLY616  TRP617  ASP618  TYR619  PRO620  LYS621  CYS622 
 ASP623  PHE694  ASN695  SER759  ASP760  ASP761  ALA762  ILE779  LEU786  VAL792 
 PHE793  MET794  SER795  GLU796  ALA797  LYS798  CYS799  TRP800  GLU811  SER814 

> <Gold.Protein.RotatedAtoms>
  152.5409  134.2297  159.8819 H   0  0  0  0  0  0  0  0  0  0  0  0  # atno 6907 bound_to 6896
  151.2269  133.4465  159.2610 H   0  0  0  0  0  0  0  0  0  0  0  0  # atno 6908 bound_to 6896
  151.0752  134.9837  159.8384 H   0  0  0  0  0  0  0  0  0  0  0  0  # atno 6909 bound_to 6896
  146.2054  140.3419  142.8409 H   0  0  0  0  0  0  0  0  0  0  0  0  # atno 7974 bound_to 7965
  156.0470  140.1316  157.0093 H   0  0  0  0  0  0  0  0  0  0  0  0  # atno 8008 bound_to 7997
  154.4417  140.1018  156.6390 H   0  0  0  0  0  0  0  0  0  0  0  0  # atno 8009 bound_to 7997
  155.5581  140.3464  155.4487 H   0  0  0  0  0  0  0  0  0  0  0  0  # atno 8010 bound_to 7997
  140.2650  143.3382  152.0590 H   0  0  0  0  0  0  0  0  0  0  0  0  # atno 10167 bound_to 10162
  156.4175  130.4420  149.7207 H   0  0  0  0  0  0  0  0  0  0  0  0  # atno 10718 bound_to 10713
  154.8757  135.3890  154.3948 H   0  0  0  0  0  0  0  0  0  0  0  0  # atno 10763 bound_to 10752
  153.4679  135.7029  153.6016 H   0  0  0  0  0  0  0  0  0  0  0  0  # atno 10764 bound_to 10752
  153.4486  135.3839  155.2238 H   0  0  0  0  0  0  0  0  0  0  0  0  # atno 10765 bound_to 10752
  141.1667  133.7184  156.8382 H   0  0  0  0  0  0  0  0  0  0  0  0  # atno 11005 bound_to 11000
  144.8779  140.7362  143.6005 LP  0  0  0  0  0  0  0  0  0  0  0  0  # atno 17320 bound_to 7965
  145.3339  139.1751  143.4522 LP  0  0  0  0  0  0  0  0  0  0  0  0  # atno 17321 bound_to 7965
  139.5005  144.6694  151.6279 LP  0  0  0  0  0  0  0  0  0  0  0  0  # atno 17342 bound_to 10162
  140.5936  143.9736  150.6340 LP  0  0  0  0  0  0  0  0  0  0  0  0  # atno 17343 bound_to 10162
  156.4161  130.7746  151.2761 LP  0  0  0  0  0  0  0  0  0  0  0  0  # atno 17370 bound_to 10713
  157.7508  131.0197  150.3676 LP  0  0  0  0  0  0  0  0  0  0  0  0  # atno 17371 bound_to 10713
  140.2002  134.8902  157.3160 LP  0  0  0  0  0  0  0  0  0  0  0  0  # atno 17394 bound_to 11000
  140.2196  134.4040  155.7572 LP  0  0  0  0  0  0  0  0  0  0  0  0  # atno 17395 bound_to 11000

$$$$
