#       Name:                AV-unprocessed.smi:1733
#       Creating user name   scv26
#       Creation time:       Fri Mar 27 08:19:14 2020


#       File generated by GOLD software.
#

@<TRIPOS>MOLECULE
AV-unprocessed.smi:1733
    57    59     1
SMALL
NO_CHARGES


@<TRIPOS>ATOM
      1 ****        -3.3598   3.2933   0.8884 O.2            1 S1                 0.0000
      2 ****        -3.4320   2.0702   0.7717 C.2            1 S1                 0.0000
      3 ****        -4.5707   1.3647   0.6523 N.am           1 S1                 0.0000
      4 ****        -5.9143   1.8307   0.6253 C.ar           1 S1                 0.0000
      5 ****        -6.9364   0.8899   0.8702 C.ar           1 S1                 0.0000
      6 ****        -8.2781   1.3191   0.8381 C.ar           1 S1                 0.0000
      7 ****        -8.6436   2.5910   0.5746 N.ar           1 S1                 0.0000
      8 ****        -7.6654   3.4875   0.3263 C.ar           1 S1                 0.0000
      9 ****        -6.2937   3.1635   0.3344 C.ar           1 S1                 0.0000
     10 ****        -2.3626   1.2606   0.7666 N.am           1 S1                 0.0000
     11 ****        -0.9693   1.6798   0.9002 C.3            1 S1                 0.0000
     12 ****        -0.1832   1.3061  -0.3748 C.3            1 S1                 0.0000
     13 ****         1.3266   1.5454  -0.1902 C.3            1 S1                 0.0000
     14 ****         1.7901   0.7841   0.9827 N.am           1 S1                 0.0000
     15 ****         2.5021  -0.3707   0.9544 C.2            1 S1                 0.0000
     16 ****         2.6397  -1.1025   1.9358 O.2            1 S1                 0.0000
     17 ****         3.0960  -0.6330  -0.2226 N.am           1 S1                 0.0000
     18 ****         3.9335  -1.7922  -0.5149 C.3            1 S1                 0.0000
     19 ****         4.9540  -1.4285  -1.6099 C.3            1 S1                 0.0000
     20 ****         5.8162  -2.6400  -2.0003 C.3            1 S1                 0.0000
     21 ****         4.9430  -3.8260  -2.4385 C.3            1 S1                 0.0000
     22 ****         3.9255  -4.1976  -1.3483 C.3            1 S1                 0.0000
     23 ****         3.0630  -2.9882  -0.9521 C.3            1 S1                 0.0000
     24 ****         1.1710   1.2836   2.2166 C.3            1 S1                 0.0000
     25 ****        -0.3469   1.0342   2.1564 C.3            1 S1                 0.0000
     26 ****        -4.4655   0.3610   0.6339 H              1 S1                 0.0000
     27 ****        -6.7014  -0.1422   1.0849 H              1 S1                 0.0000
     28 ****        -9.0796   0.6204   1.0282 H              1 S1                 0.0000
     29 ****        -7.9856   4.4958   0.1081 H              1 S1                 0.0000
     30 ****        -5.5736   3.9346   0.1089 H              1 S1                 0.0000
     31 ****        -2.5243   0.2688   0.6697 H              1 S1                 0.0000
     32 ****        -0.9053   2.7627   1.0212 H              1 S1                 0.0000
     33 ****        -0.3501   0.2559  -0.6201 H              1 S1                 0.0000
     34 ****        -0.5512   1.8842  -1.2232 H              1 S1                 0.0000
     35 ****         1.8508   1.2999  -1.1137 H              1 S1                 0.0000
     36 ****         1.5163   2.6070  -0.0249 H              1 S1                 0.0000
     37 ****         2.9522   0.0235  -0.9759 H              1 S1                 0.0000
     38 ****         4.4898  -2.0701   0.3827 H              1 S1                 0.0000
     39 ****         4.4326  -1.0576  -2.4937 H              1 S1                 0.0000
     40 ****         5.5966  -0.6167  -1.2668 H              1 S1                 0.0000
     41 ****         6.5014  -2.3659  -2.8030 H              1 S1                 0.0000
     42 ****         6.4360  -2.9362  -1.1530 H              1 S1                 0.0000
     43 ****         4.4165  -3.5720  -3.3596 H              1 S1                 0.0000
     44 ****         5.5724  -4.6860  -2.6687 H              1 S1                 0.0000
     45 ****         3.2875  -5.0105  -1.6964 H              1 S1                 0.0000
     46 ****         4.4521  -4.5722  -0.4696 H              1 S1                 0.0000
     47 ****         2.3831  -3.2729  -0.1482 H              1 S1                 0.0000
     48 ****         2.4369  -2.6994  -1.7977 H              1 S1                 0.0000
     49 ****         1.5911   0.8243   3.1126 H              1 S1                 0.0000
     50 ****         1.3706   2.3517   2.3140 H              1 S1                 0.0000
     51 ****        -0.8242   1.4268   3.0549 H              1 S1                 0.0000
     52 ****        -0.5316  -0.0412   2.1525 H              1 S1                 0.0000
     53 ****        -4.1940   3.8446   0.8999 LP             1 S1                 0.0000
     54 ****        -2.4669   3.7358   0.9718 LP             1 S1                 0.0000
     55 ****        -9.6065   2.8604   0.5636 LP             1 S1                 0.0000
     56 ****         2.2158  -0.8553   2.8072 LP             1 S1                 0.0000
     57 ****         3.1753  -1.9436   1.8611 LP             1 S1                 0.0000
@<TRIPOS>BOND
    1    1    2 2     
    2    2    3 am    
    3    2   10 am    
    4    3    4 1     
    5    3   26 1     
    6    4    9 ar    
    7    4    5 ar    
    8    5    6 ar    
    9    5   27 1     
   10    6    7 ar    
   11    6   28 1     
   12    7    8 ar    
   13    8    9 ar    
   14    8   29 1     
   15    9   30 1     
   16   10   11 1     
   17   10   31 1     
   18   11   25 1     
   19   11   12 1     
   20   11   32 1     
   21   12   13 1     
   22   12   33 1     
   23   12   34 1     
   24   13   14 1     
   25   13   35 1     
   26   13   36 1     
   27   14   15 am    
   28   14   24 1     
   29   15   16 2     
   30   15   17 am    
   31   17   18 1     
   32   17   37 1     
   33   18   23 1     
   34   18   19 1     
   35   18   38 1     
   36   19   20 1     
   37   19   39 1     
   38   19   40 1     
   39   20   21 1     
   40   20   41 1     
   41   20   42 1     
   42   21   22 1     
   43   21   43 1     
   44   21   44 1     
   45   22   23 1     
   46   22   45 1     
   47   22   46 1     
   48   23   47 1     
   49   23   48 1     
   50   24   25 1     
   51   24   49 1     
   52   24   50 1     
   53   25   51 1     
   54   25   52 1     
   55    1   53 1     
   56    1   54 1     
   57    7   55 1     
   58   16   56 1     
   59   16   57 1     
@<TRIPOS>SUBSTRUCTURE
      1 S1             1
@<TRIPOS>SET
LONE_PAIRS      STATIC     ATOMS    <user>   **** ""
5 53 54 55 56 57
DONOR_HYDROGENS      STATIC     ATOMS    <user>   **** ""
3 26 31 37
ATOM$BLUE        STATIC     ATOMS    COLORGROUP SYSTEM
5 53 54 55 56 57
ATOM$RED        STATIC     ATOMS    COLORGROUP SYSTEM
3 26 31 37
