AV-unprocessed.smi:3161|AV-procd|sdf|12055|dock6
  -GOLD-   2272017483D 1   1.00000     0.00000
 Structure written by MMmdl.
 41 42  0  0  0  0  0  0  0  0  2 V2000
  146.6304  137.9993  151.9207 C   0  0  0  0  0  0  0  0  0  0  0  0
  146.8502  138.7772  153.1861 C   0  0  0  0  0  0  0  0  0  0  0  0
  146.2661  138.5470  154.4640 C   0  0  0  0  0  0  0  0  0  0  0  0
  146.6676  139.4169  155.3766 N   0  0  0  0  0  0  0  0  0  0  0  0
  147.5217  140.2285  154.7170 N   0  0  0  0  0  0  0  0  0  0  0  0
  148.1664  141.3249  155.4187 C   0  0  0  0  0  0  0  0  0  0  0  0
  149.6941  141.3362  155.2151 C   0  0  2  0  0  0  0  0  0  0  0  0
  150.2932  139.9522  155.5156 C   0  0  0  0  0  0  0  0  0  0  0  0
  150.3159  142.3764  156.0661 N   0  3  0  0  0  0  0  0  0  0  0  0
  150.5082  142.0053  157.4833 C   0  0  0  0  0  0  0  0  0  0  0  0
  151.3733  143.0454  158.2083 C   0  0  2  0  0  0  0  0  0  0  0  0
  151.8015  142.5612  159.6075 C   0  0  0  0  0  0  0  0  0  0  0  0
  152.5827  143.6563  160.3424 C   0  0  0  0  0  0  0  0  0  0  0  0
  151.7693  144.9549  160.3501 C   0  0  0  0  0  0  0  0  0  0  0  0
  151.3322  145.3194  158.9225 C   0  0  0  0  0  0  0  0  0  0  0  0
  150.6040  144.2386  158.3469 O   0  0  0  0  0  0  0  0  0  0  0  0
  147.6493  139.8659  153.3928 C   0  0  0  0  0  0  0  0  0  0  0  0
  146.4149  136.9501  152.1245 H   0  0  0  0  0  0  0  0  0  0  0  0
  147.5061  138.0251  151.2718 H   0  0  0  0  0  0  0  0  0  0  0  0
  145.7924  138.3948  151.3468 H   0  0  0  0  0  0  0  0  0  0  0  0
  145.5649  137.7779  154.7529 H   0  0  0  0  0  0  0  0  0  0  0  0
  147.7237  142.2671  155.0908 H   0  0  0  0  0  0  0  0  0  0  0  0
  147.9310  141.2250  156.4792 H   0  0  0  0  0  0  0  0  0  0  0  0
  149.8906  141.5792  154.1695 H   0  0  0  0  0  0  0  0  0  0  0  0
  149.8238  139.1826  154.9024 H   0  0  0  0  0  0  0  0  0  0  0  0
  150.1478  139.6756  156.5605 H   0  0  0  0  0  0  0  0  0  0  0  0
  151.3624  139.9189  155.3073 H   0  0  0  0  0  0  0  0  0  0  0  0
  151.2291  142.5737  155.6802 H   0  0  0  0  0  0  0  0  0  0  0  0
  149.5448  141.9060  157.9835 H   0  0  0  0  0  0  0  0  0  0  0  0
  150.9963  141.0309  157.5259 H   0  0  0  0  0  0  0  0  0  0  0  0
  152.2620  143.2515  157.6085 H   0  0  0  0  0  0  0  0  0  0  0  0
  150.9192  142.2911  160.1897 H   0  0  0  0  0  0  0  0  0  0  0  0
  152.4110  141.6605  159.5277 H   0  0  0  0  0  0  0  0  0  0  0  0
  152.8103  143.3436  161.3618 H   0  0  0  0  0  0  0  0  0  0  0  0
  153.5384  143.8238  159.8440 H   0  0  0  0  0  0  0  0  0  0  0  0
  150.8879  144.8327  160.9811 H   0  0  0  0  0  0  0  0  0  0  0  0
  152.3556  145.7651  160.7846 H   0  0  0  0  0  0  0  0  0  0  0  0
  150.6947  146.2034  158.9407 H   0  0  0  0  0  0  0  0  0  0  0  0
  152.1955  145.5625  158.3011 H   0  0  0  0  0  0  0  0  0  0  0  0
  148.2918  140.4067  152.7132 H   0  0  0  0  0  0  0  0  0  0  0  0
  149.7623  143.2199  156.0145 H   0  0  0  0  0  0  0  0  0  0  0  0
  1  2  1  0  0  0  0
  1 18  1  0  0  0  0
  1 19  1  0  0  0  0
  1 20  1  0  0  0  0
  2 17  2  0  0  0  0
  2  3  1  0  0  0  0
  3  4  2  0  0  0  0
  3 21  1  0  0  0  0
  4  5  1  0  0  0  0
  5  6  1  0  0  0  0
  5 17  1  0  0  0  0
  6  7  1  0  0  0  0
  6 22  1  0  0  0  0
  6 23  1  0  0  0  0
  7  8  1  0  0  0  0
  7  9  1  0  0  0  0
  7 24  1  0  0  0  0
  8 25  1  0  0  0  0
  8 26  1  0  0  0  0
  8 27  1  0  0  0  0
  9 10  1  0  0  0  0
  9 28  1  0  0  0  0
  9 41  1  0  0  0  0
 10 11  1  0  0  0  0
 10 29  1  0  0  0  0
 10 30  1  0  0  0  0
 11 16  1  0  0  0  0
 11 12  1  0  0  0  0
 11 31  1  0  0  0  0
 12 13  1  0  0  0  0
 12 32  1  0  0  0  0
 12 33  1  0  0  0  0
 13 14  1  0  0  0  0
 13 34  1  0  0  0  0
 13 35  1  0  0  0  0
 14 15  1  0  0  0  0
 14 36  1  0  0  0  0
 14 37  1  0  0  0  0
 15 16  1  0  0  0  0
 15 38  1  0  0  0  0
 15 39  1  0  0  0  0
 17 40  1  0  0  0  0
M  CHG  1   9   1
M  END
> <s_m_source_file>
AV-unprocessed.smi

> <i_m_source_file_index>
3161

> <i_lp_mmshare_version>
43012

> <i_f3d_flags>
0

> <s_epik_input>
W0NIM11jMVtjSF1ubihbY0hdMSlbQ0gyXVtDQEhdKFtDSDNdKVtOSF1bQ0gyXVtDQEBIXTJbQ0gyXVtDSDJdW0NIMl1bQ0gyXU8y

> <s_epik_cmdline>
J2VwaWtfcHl0aG9uJywgJy1waCcsICc3LjAnLCAnLXRuJywgJzgnLCAnLW1hJywgJzIwMCcsICctbWV0YWxfYmluZGluZycsICctaW1hZScsICc8aW5maWxlLm1hZT4nLCAnLW9tYWUnLCAnPG91dGZpbGUubWFlPic=

> <r_lp_tautomer_probability>
1

> <r_epik_Ionization_Penalty>
0.00849661

> <r_epik_Ionization_Penalty_Charging>
0.00848754

> <r_epik_Ionization_Penalty_Neutral>
9.06711e-06

> <r_epik_State_Penalty>
0.00639836

> <r_epik_Charging_Adjusted_Penalty>
0.0148859

> <i_epik_Tot_Q>
1

> <i_epik_Tot_abs_Q>
1

> <r_epik_Metal_State_Penalty>
0.00639921

> <b_epik_Metal_Only>
0

> <s_lp_Force_Field>
OPLS_2005

> <r_lp_Energy>
12.4461

> <b_lp_Chiralities_Consistent>
1

> <s_lp_Variant>
AV-unprocessed.smi:3161-1

> <Gold.Version>
5.8.1

> <Gold.Id.Protein>
6NUR|6NUR_protein|mol2

> <Gold.PLP.Fitness>
44.4095

> <Gold.PLP.PLP>
-36.1692

> <Gold.PLP.part.hbond>
-1.0000

> <Gold.PLP.part.metal>
0.0000

> <Gold.PLP.part.buried>
-0.0312

> <Gold.PLP.part.nonpolar>
-35.7348

> <Gold.PLP.part.repulsive>
0.3664

> <Gold.PLP.ligand.clash>
0.0000

> <Gold.PLP.ligand.torsion>
0.3517

> <Gold.PLP.Chemscore.Hbond>
2.0000

> <Gold.PLP.Chemscore.CHOScore>
0.9624

> <Gold.PLP.Chemscore.Metal>
0.0000

> <Gold.Chemscore.Hbonds>
donor molecule, donor type, donor heavy atom, donor atom, acceptor molecule, acceptor atom, score
      L1  H     9    41       P1  8028  2.00
      L1  C    17    40       P1  7957  1.00

> <Gold.PLP.Chemscore.Internal.Correction>
0.0564

> <Gold.Rescore>
     Score         DG    S(hbond)    S(metal)    S(lipo)     H(rot)  DE(clash)    DE(int)     intcor
     17.17     -17.58       1.00        0.00     109.36       1.57       0.10       0.31       ----

> <Gold.Chemscore.Fitness>
17.1727

> <Gold.Chemscore.DG>
-17.5811

> <Gold.Chemscore.ZeroCoef>
-5.4800

> <Gold.Chemscore.Hbond>
0.9968

> <Gold.Chemscore.Metal>
0.0000

> <Gold.Chemscore.Lipo>
109.3554

> <Gold.Chemscore.Internal_Hbond>
0.0000

> <Gold.Chemscore.DEClash>
0.1034

> <Gold.Chemscore.DEInternal>
0.3050

> <Gold.Chemscore.Rot>
1.5714

> <Gold.Chemscore.Internal.Correction>
   9.000000E+99

> <Gold.Chemscore.Hbonds>
donor molecule, donor type, donor heavy atom, donor atom, acceptor molecule, acceptor atom, score
      L1  H     9    41       P1  8028  1.00

> <Gold.Chemscore.Hbond.Weighted>
-3.3293

> <Gold.Chemscore.Metal.Weighted>
-0.0000

> <Gold.Chemscore.Lipo.Weighted>
-12.7946

> <Gold.Chemscore.Internal_Hbond.Weighted>
0.0000

> <Gold.Chemscore.DEClash.Weighted>
0.1034

> <Gold.Chemscore.DEInternal.Weighted>
0.3050

> <Gold.Chemscore.Rot.Weighted>
4.0228

> <Gold.Chemscore.Internal.Correction.Weighted>
   9.000000E+99

> <Gold.Protein.RotatedTorsions>
[ 6907 6896 6895 6894 ] final   62.73 input  -60.11 | X-H torsion
[ 7974 7965 7964 7962 ] final  140.67 input  175.53 | X-H torsion
[ 8008 7997 7996 7995 ] final  -40.53 input   59.86 | X-H torsion
[ 10167 10162 10161 10158 ] final   28.45 input  -65.29 | X-H torsion
[ 10718 10713 10712 10709 ] final -154.72 input   66.30 | X-H torsion
[ 10763 10752 10751 10750 ] final -157.38 input  -60.55 | X-H torsion
[ 11005 11000 10999 10996 ] final -122.42 input  -57.11 | X-H torsion

> <Gold.Protein.ActiveResidues>
 VAL166  LYS551  ARG553  GLY616  TRP617  ASP618  TYR619  PRO620  LYS621  CYS622 
 ASP623  PHE694  ASN695  SER759  ASP760  ASP761  ALA762  ILE779  LEU786  VAL792 
 PHE793  MET794  SER795  GLU796  ALA797  LYS798  CYS799  TRP800  GLU811  SER814 

> <Gold.Protein.RotatedAtoms>
  152.4196  134.5980  159.9991 H   0  0  0  0  0  0  0  0  0  0  0  0  # atno 6907 bound_to 6896
  151.6133  133.3339  159.3080 H   0  0  0  0  0  0  0  0  0  0  0  0  # atno 6908 bound_to 6896
  150.8084  134.7262  159.6731 H   0  0  0  0  0  0  0  0  0  0  0  0  # atno 6909 bound_to 6896
  144.9166  139.5223  143.5683 H   0  0  0  0  0  0  0  0  0  0  0  0  # atno 7974 bound_to 7965
  154.4011  140.1523  156.3041 H   0  0  0  0  0  0  0  0  0  0  0  0  # atno 8008 bound_to 7997
  155.8674  140.3450  155.5776 H   0  0  0  0  0  0  0  0  0  0  0  0  # atno 8009 bound_to 7997
  155.7813  140.0844  157.2048 H   0  0  0  0  0  0  0  0  0  0  0  0  # atno 8010 bound_to 7997
  140.4851  144.0555  150.6278 H   0  0  0  0  0  0  0  0  0  0  0  0  # atno 10167 bound_to 10162
  156.5031  130.8400  151.2617 H   0  0  0  0  0  0  0  0  0  0  0  0  # atno 10718 bound_to 10713
  154.7640  135.3126  154.8323 H   0  0  0  0  0  0  0  0  0  0  0  0  # atno 10763 bound_to 10752
  153.9076  135.6809  153.4756 H   0  0  0  0  0  0  0  0  0  0  0  0  # atno 10764 bound_to 10752
  153.1244  135.4808  154.9180 H   0  0  0  0  0  0  0  0  0  0  0  0  # atno 10765 bound_to 10752
  140.9997  134.0421  157.3553 H   0  0  0  0  0  0  0  0  0  0  0  0  # atno 11005 bound_to 11000
  146.3184  139.8013  142.8965 LP  0  0  0  0  0  0  0  0  0  0  0  0  # atno 17320 bound_to 7965
  145.3366  141.0278  143.3416 LP  0  0  0  0  0  0  0  0  0  0  0  0  # atno 17321 bound_to 7965
  140.3808  143.2804  152.0172 LP  0  0  0  0  0  0  0  0  0  0  0  0  # atno 17342 bound_to 10162
  139.4840  144.6156  151.7352 LP  0  0  0  0  0  0  0  0  0  0  0  0  # atno 17343 bound_to 10162
  157.7460  130.9975  150.2818 LP  0  0  0  0  0  0  0  0  0  0  0  0  # atno 17370 bound_to 10713
  156.3313  130.3801  149.7488 LP  0  0  0  0  0  0  0  0  0  0  0  0  # atno 17371 bound_to 10713
  139.9032  135.0171  156.7367 LP  0  0  0  0  0  0  0  0  0  0  0  0  # atno 17394 bound_to 11000
  140.6909  133.9391  155.7966 LP  0  0  0  0  0  0  0  0  0  0  0  0  # atno 17395 bound_to 11000

$$$$
