#       Name:                AV-unprocessed.smi:227
#       Creating user name   scv26
#       Creation time:       Thu Mar 26 20:23:45 2020


#       File generated by GOLD software.
#

@<TRIPOS>MOLECULE
AV-unprocessed.smi:227
    64    68     1
SMALL
NO_CHARGES


@<TRIPOS>ATOM
      1 ****        -2.2892  -2.7536   1.1935 O.3            1 S1                 0.0000
      2 ****        -2.4415  -1.4030   1.5790 C.3            1 S1                 0.0000
      3 ****        -1.5926  -1.0722   2.8312 C.3            1 S1                 0.0000
      4 ****        -0.0714  -1.2238   2.5811 C.3            1 S1                 0.0000
      5 ****         0.3902  -0.4931   1.4134 N.pl3          1 S1                 0.0000
      6 ****         0.5560   0.8684   1.3123 C.2            1 S1                 0.0000
      7 ****         0.9792   1.2904   0.1525 N.2            1 S1                 0.0000
      8 ****         1.1150   0.1335  -0.6075 C.ar           1 S1                 0.0000
      9 ****         1.5235  -0.1401  -1.9454 C.ar           1 S1                 0.0000
     10 ****         1.8959   0.8219  -2.8329 N.3            1 S1                 0.0000
     11 ****         1.9379   0.5502  -4.2620 C.3            1 S1                 0.0000
     12 ****         0.4547   0.5288  -4.6883 C.3            1 S1                 0.0000
     13 ****        -0.1441   1.5801  -3.7411 C.3            1 S1                 0.0000
     14 ****         1.1087   2.0383  -2.9673 C.3            1 S1                 0.0000
     15 ****         1.9828   2.9093  -3.8972 C.3            1 S1                 0.0000
     16 ****         3.0475   3.7297  -3.1458 C.3            1 S1                 0.0000
     17 ****         2.4357   4.7429  -2.3765 O.3            1 S1                 0.0000
     18 ****         2.5974   1.8269  -4.8084 C.3            1 S1                 0.0000
     19 ****         1.5640  -1.4442  -2.3286 N.ar           1 S1                 0.0000
     20 ****         1.2053  -2.4123  -1.4814 C.ar           1 S1                 0.0000
     21 ****         0.7877  -2.3028  -0.2199 N.ar           1 S1                 0.0000
     22 ****         0.7620  -0.9998   0.1804 C.ar           1 S1                 0.0000
     23 ****        -2.0504  -1.8737   4.0761 C.3            1 S1                 0.0000
     24 ****        -1.3590  -1.4913   5.3729 C.3            1 S1                 0.0000
     25 ****        -2.3033  -2.0695   6.4203 C.3            1 S1                 0.0000
     26 ****        -3.6067  -1.9529   5.8625 O.3            1 S1                 0.0000
     27 ****        -3.5169  -1.6640   4.4704 C.3            1 S1                 0.0000
     28 ****        -2.8001  -2.9038   0.4127 H              1 S1                 0.0000
     29 ****        -2.1670  -0.7660   0.7381 H              1 S1                 0.0000
     30 ****        -3.4980  -1.2114   1.7649 H              1 S1                 0.0000
     31 ****        -1.7694  -0.0176   3.0476 H              1 S1                 0.0000
     32 ****         0.4963  -0.8625   3.4386 H              1 S1                 0.0000
     33 ****         0.1894  -2.2761   2.4620 H              1 S1                 0.0000
     34 ****         0.3476   1.5426   2.1303 H              1 S1                 0.0000
     35 ****         2.4833  -0.3518  -4.5420 H              1 S1                 0.0000
     36 ****         0.3178   0.7792  -5.7408 H              1 S1                 0.0000
     37 ****         0.0031  -0.4482  -4.5124 H              1 S1                 0.0000
     38 ****        -0.6396   2.3959  -4.2685 H              1 S1                 0.0000
     39 ****        -0.8712   1.1220  -3.0692 H              1 S1                 0.0000
     40 ****         0.8612   2.5464  -2.0373 H              1 S1                 0.0000
     41 ****         1.3639   3.5904  -4.4835 H              1 S1                 0.0000
     42 ****         3.6467   3.0940  -2.4928 H              1 S1                 0.0000
     43 ****         3.7300   4.2010  -3.8535 H              1 S1                 0.0000
     44 ****         1.8804   4.3342  -1.7300 H              1 S1                 0.0000
     45 ****         3.6808   1.7753  -4.6902 H              1 S1                 0.0000
     46 ****         2.3843   1.9924  -5.8649 H              1 S1                 0.0000
     47 ****         1.2616  -3.4184  -1.8700 H              1 S1                 0.0000
     48 ****        -1.8864  -2.9392   3.9055 H              1 S1                 0.0000
     49 ****        -0.3489  -1.8929   5.4587 H              1 S1                 0.0000
     50 ****        -1.3067  -0.4061   5.4737 H              1 S1                 0.0000
     51 ****        -2.0885  -3.1264   6.5833 H              1 S1                 0.0000
     52 ****        -2.2297  -1.5564   7.3794 H              1 S1                 0.0000
     53 ****        -3.8144  -0.6254   4.3200 H              1 S1                 0.0000
     54 ****        -4.1959  -2.2948   3.8963 H              1 S1                 0.0000
     55 ****        -2.6115  -3.3518   1.9272 LP             1 S1                 0.0000
     56 ****        -1.3253  -2.9442   1.0073 LP             1 S1                 0.0000
     57 ****         1.1641   2.2326  -0.1268 LP             1 S1                 0.0000
     58 ****         2.7750   0.8864  -2.3606 LP             1 S1                 0.0000
     59 ****         1.8863   5.3315  -2.9695 LP             1 S1                 0.0000
     60 ****         3.1374   5.2906  -1.9208 LP             1 S1                 0.0000
     61 ****         1.8649  -1.6803  -3.2525 LP             1 S1                 0.0000
     62 ****         0.5271  -3.0763   0.3578 LP             1 S1                 0.0000
     63 ****        -4.0991  -1.2143   6.3229 LP             1 S1                 0.0000
     64 ****        -4.1001  -2.8132   5.9910 LP             1 S1                 0.0000
@<TRIPOS>BOND
    1    1    2 1     
    2    1   28 1     
    3    2    3 1     
    4    2   29 1     
    5    2   30 1     
    6    3    4 1     
    7    3   23 1     
    8    3   31 1     
    9    4    5 1     
   10    4   32 1     
   11    4   33 1     
   12    5   22 1     
   13    5    6 1     
   14    6    7 2     
   15    6   34 1     
   16    7    8 1     
   17    8   22 ar    
   18    8    9 ar    
   19    9   10 1     
   20    9   19 ar    
   21   10   14 1     
   22   10   11 1     
   23   11   18 1     
   24   11   12 1     
   25   11   35 1     
   26   12   13 1     
   27   12   36 1     
   28   12   37 1     
   29   13   14 1     
   30   13   38 1     
   31   13   39 1     
   32   14   15 1     
   33   14   40 1     
   34   15   16 1     
   35   15   18 1     
   36   15   41 1     
   37   16   17 1     
   38   16   42 1     
   39   16   43 1     
   40   17   44 1     
   41   18   45 1     
   42   18   46 1     
   43   19   20 ar    
   44   20   21 ar    
   45   20   47 1     
   46   21   22 ar    
   47   23   27 1     
   48   23   24 1     
   49   23   48 1     
   50   24   25 1     
   51   24   49 1     
   52   24   50 1     
   53   25   26 1     
   54   25   51 1     
   55   25   52 1     
   56   26   27 1     
   57   27   53 1     
   58   27   54 1     
   59    1   55 1     
   60    1   56 1     
   61    7   57 1     
   62   10   58 1     
   63   17   59 1     
   64   17   60 1     
   65   19   61 1     
   66   21   62 1     
   67   26   63 1     
   68   26   64 1     
@<TRIPOS>SUBSTRUCTURE
      1 S1             1
@<TRIPOS>SET
LONE_PAIRS      STATIC     ATOMS    <user>   **** ""
10 55 56 57 58 59 60 61 62 63 64
DONOR_HYDROGENS      STATIC     ATOMS    <user>   **** ""
2 28 44
ATOM$BLUE        STATIC     ATOMS    COLORGROUP SYSTEM
10 55 56 57 58 59 60 61 62 63 64
ATOM$RED        STATIC     ATOMS    COLORGROUP SYSTEM
2 28 44
