AV-unprocessed.smi:3343|AV-procd|sdf|12894|dock5
  -GOLD-   2272019303D 1   1.00000     0.00000
 Structure written by MMmdl.
 41 42  0  0  0  0  0  0  0  0  1 V2000
  146.6373  142.6756  153.9112 C   0  0  0  0  0  0  0  0  0  0  0  0
  147.5186  141.4602  153.5579 C   0  0  1  0  0  0  0  0  0  0  0  0
  148.6989  141.2936  154.5267 C   0  0  0  0  0  0  0  0  0  0  0  0
  149.8366  141.0990  154.0975 O   0  0  0  0  0  0  0  0  0  0  0  0
  148.4092  141.3723  155.8354 N   0  0  0  0  0  0  0  0  0  0  0  0
  149.3671  141.2147  156.9249 C   0  0  0  0  0  0  0  0  0  0  0  0
  150.7084  141.9029  156.6039 C   0  0  0  0  0  0  0  0  0  0  0  0
  151.5279  142.2604  157.7617 N   0  0  0  0  0  0  0  0  0  0  0  0
  150.9507  143.3572  158.5450 C   0  0  0  0  0  0  0  0  0  0  0  0
  151.8413  143.7193  159.7481 C   0  0  0  0  0  0  0  0  0  0  0  0
  152.0407  142.5707  160.6295 N   0  0  0  0  0  0  0  0  0  0  0  0
  152.8789  142.9110  161.7687 C   0  0  0  0  0  0  0  0  0  0  0  0
  152.6101  141.4714  159.8530 C   0  0  0  0  0  0  0  0  0  0  0  0
  151.7181  141.1131  158.6497 C   0  0  0  0  0  0  0  0  0  0  0  0
  146.7533  140.2217  153.4805 N   0  0  0  0  0  0  0  0  0  0  0  0
  146.6513  139.3392  152.4842 C   0  0  0  0  0  0  0  0  0  0  0  0
  145.8982  138.2866  152.7706 N   0  0  0  0  0  0  0  0  0  0  0  0
  145.5522  138.5971  154.0550 C   0  0  0  0  0  0  0  0  0  0  0  0
  146.0461  139.7389  154.5329 N   0  0  0  0  0  0  0  0  0  0  0  0
  147.2225  143.5959  153.9128 H   0  0  0  0  0  0  0  0  0  0  0  0
  146.1754  142.5783  154.8946 H   0  0  0  0  0  0  0  0  0  0  0  0
  145.8366  142.7993  153.1815 H   0  0  0  0  0  0  0  0  0  0  0  0
  147.9301  141.6424  152.5634 H   0  0  0  0  0  0  0  0  0  0  0  0
  147.4477  141.5336  156.0976 H   0  0  0  0  0  0  0  0  0  0  0  0
  148.9527  141.5533  157.8750 H   0  0  0  0  0  0  0  0  0  0  0  0
  149.5414  140.1456  157.0468 H   0  0  0  0  0  0  0  0  0  0  0  0
  151.2864  141.2632  155.9356 H   0  0  0  0  0  0  0  0  0  0  0  0
  150.4889  142.8048  156.0309 H   0  0  0  0  0  0  0  0  0  0  0  0
  150.8305  144.2451  157.9258 H   0  0  0  0  0  0  0  0  0  0  0  0
  149.9539  143.0840  158.8948 H   0  0  0  0  0  0  0  0  0  0  0  0
  152.8038  144.0892  159.3905 H   0  0  0  0  0  0  0  0  0  0  0  0
  151.3806  144.5357  160.3053 H   0  0  0  0  0  0  0  0  0  0  0  0
  152.9998  142.0521  162.4294 H   0  0  0  0  0  0  0  0  0  0  0  0
  152.4302  143.7169  162.3503 H   0  0  0  0  0  0  0  0  0  0  0  0
  153.8697  143.2343  161.4468 H   0  0  0  0  0  0  0  0  0  0  0  0
  153.6078  141.7392  159.5009 H   0  0  0  0  0  0  0  0  0  0  0  0
  152.7285  140.5936  160.4892 H   0  0  0  0  0  0  0  0  0  0  0  0
  150.7522  140.7492  159.0042 H   0  0  0  0  0  0  0  0  0  0  0  0
  152.1773  140.2920  158.0980 H   0  0  0  0  0  0  0  0  0  0  0  0
  147.1411  139.4676  151.5300 H   0  0  0  0  0  0  0  0  0  0  0  0
  144.9225  137.9598  154.6581 H   0  0  0  0  0  0  0  0  0  0  0  0
  1  2  1  0  0  0  0
  1 20  1  0  0  0  0
  1 21  1  0  0  0  0
  1 22  1  0  0  0  0
  2  3  1  0  0  0  0
  2 15  1  0  0  0  0
  2 23  1  0  0  0  0
  3  4  2  0  0  0  0
  3  5  1  0  0  0  0
  5  6  1  0  0  0  0
  5 24  1  0  0  0  0
  6  7  1  0  0  0  0
  6 25  1  0  0  0  0
  6 26  1  0  0  0  0
  7  8  1  0  0  0  0
  7 27  1  0  0  0  0
  7 28  1  0  0  0  0
  8 14  1  0  0  0  0
  8  9  1  0  0  0  0
  9 10  1  0  0  0  0
  9 29  1  0  0  0  0
  9 30  1  0  0  0  0
 10 11  1  0  0  0  0
 10 31  1  0  0  0  0
 10 32  1  0  0  0  0
 11 12  1  0  0  0  0
 11 13  1  0  0  0  0
 12 33  1  0  0  0  0
 12 34  1  0  0  0  0
 12 35  1  0  0  0  0
 13 14  1  0  0  0  0
 13 36  1  0  0  0  0
 13 37  1  0  0  0  0
 14 38  1  0  0  0  0
 14 39  1  0  0  0  0
 15 19  1  0  0  0  0
 15 16  1  0  0  0  0
 16 17  2  0  0  0  0
 16 40  1  0  0  0  0
 17 18  1  0  0  0  0
 18 19  2  0  0  0  0
 18 41  1  0  0  0  0
M  END
> <s_m_source_file>
AV-unprocessed.smi

> <i_m_source_file_index>
3343

> <i_lp_mmshare_version>
43012

> <i_f3d_flags>
0

> <s_epik_input>
bjFbY0hdbltjSF1uMVtDQEhdKFtDSDNdKUMoPU8pW05IXVtDSDJdW0NIMl1OMltDSDJdW0NIMl1OKFtDSDNdKVtDSDJdW0NIMl0y

> <s_epik_cmdline>
J2VwaWtfcHl0aG9uJywgJy1waCcsICc3LjAnLCAnLXRuJywgJzgnLCAnLW1hJywgJzIwMCcsICctbWV0YWxfYmluZGluZycsICctaW1hZScsICc8aW5maWxlLm1hZT4nLCAnLW9tYWUnLCAnPG91dGZpbGUubWFlPic=

> <r_lp_tautomer_probability>
1

> <r_epik_Ionization_Penalty>
1.97295

> <r_epik_Ionization_Penalty_Charging>
0

> <r_epik_Ionization_Penalty_Neutral>
1.97295

> <r_epik_State_Penalty>
1.8027

> <r_epik_Charging_Adjusted_Penalty>
1.8027

> <i_epik_Tot_Q>
0

> <i_epik_Tot_abs_Q>
0

> <r_epik_Metal_State_Penalty>
1.8027

> <b_epik_Metal_Only>
0

> <s_lp_Force_Field>
OPLS_2005

> <r_lp_Energy>
40.9653

> <b_lp_Chiralities_Consistent>
1

> <s_lp_Variant>
AV-unprocessed.smi:3343-4

> <Gold.Version>
5.8.1

> <Gold.Id.Protein>
6NUR|6NUR_protein|mol2

> <Gold.PLP.Fitness>
40.7813

> <Gold.PLP.PLP>
-36.6085

> <Gold.PLP.part.hbond>
-2.4473

> <Gold.PLP.part.metal>
0.0000

> <Gold.PLP.part.buried>
-5.4444

> <Gold.PLP.part.nonpolar>
-29.5367

> <Gold.PLP.part.repulsive>
0.6759

> <Gold.PLP.ligand.clash>
0.0000

> <Gold.PLP.ligand.torsion>
0.7816

> <Gold.PLP.Chemscore.Hbond>
0.9062

> <Gold.PLP.Chemscore.CHOScore>
0.9658

> <Gold.PLP.Chemscore.Metal>
0.0000

> <Gold.Chemscore.Hbonds>
donor molecule, donor type, donor heavy atom, donor atom, acceptor molecule, acceptor atom, score
      P1  H  7989  7998       L1     4  0.43
      P1  H  8011  8017       L1     4  0.45
      L1  C    16    40       P1  7957  0.95

> <Gold.PLP.Chemscore.Internal.Correction>
0.1197

> <Gold.Rescore>
     Score         DG    S(hbond)    S(metal)    S(lipo)     H(rot)  DE(clash)    DE(int)     intcor
     10.59     -11.57       0.96        0.00      80.60       2.56       0.10       0.88       ----

> <Gold.Chemscore.Fitness>
10.5892

> <Gold.Chemscore.DG>
-11.5692

> <Gold.Chemscore.ZeroCoef>
-5.4800

> <Gold.Chemscore.Hbond>
0.9601

> <Gold.Chemscore.Metal>
0.0000

> <Gold.Chemscore.Lipo>
80.5989

> <Gold.Chemscore.Internal_Hbond>
0.0000

> <Gold.Chemscore.DEClash>
0.1003

> <Gold.Chemscore.DEInternal>
0.8797

> <Gold.Chemscore.Rot>
2.5577

> <Gold.Chemscore.Internal.Correction>
   9.000000E+99

> <Gold.Chemscore.Hbonds>
donor molecule, donor type, donor heavy atom, donor atom, acceptor molecule, acceptor atom, score
      P1  H  7989  7998       L1     4  0.44
      P1  H  8011  8017       L1     4  0.12

> <Gold.Chemscore.Hbond.Weighted>
-3.2068

> <Gold.Chemscore.Metal.Weighted>
-0.0000

> <Gold.Chemscore.Lipo.Weighted>
-9.4301

> <Gold.Chemscore.Internal_Hbond.Weighted>
0.0000

> <Gold.Chemscore.DEClash.Weighted>
0.1003

> <Gold.Chemscore.DEInternal.Weighted>
0.8797

> <Gold.Chemscore.Rot.Weighted>
6.5477

> <Gold.Chemscore.Internal.Correction.Weighted>
   9.000000E+99

> <Gold.Protein.RotatedTorsions>
[ 6907 6896 6895 6894 ] final -154.00 input  -60.11 | X-H torsion
[ 7974 7965 7964 7962 ] final -162.34 input  175.53 | X-H torsion
[ 8008 7997 7996 7995 ] final  114.09 input   59.86 | X-H torsion
[ 10167 10162 10161 10158 ] final -164.44 input  -65.29 | X-H torsion
[ 10718 10713 10712 10709 ] final   23.00 input   66.30 | X-H torsion
[ 10763 10752 10751 10750 ] final  168.30 input  -60.55 | X-H torsion
[ 11005 11000 10999 10996 ] final -124.98 input  -57.11 | X-H torsion

> <Gold.Protein.ActiveResidues>
 VAL166  LYS551  ARG553  GLY616  TRP617  ASP618  TYR619  PRO620  LYS621  CYS622 
 ASP623  PHE694  ASN695  SER759  ASP760  ASP761  ALA762  ILE779  LEU786  VAL792 
 PHE793  MET794  SER795  GLU796  ALA797  LYS798  CYS799  TRP800  GLU811  SER814 

> <Gold.Protein.RotatedAtoms>
  151.2509  133.4350  159.2611 H   0  0  0  0  0  0  0  0  0  0  0  0  # atno 6907 bound_to 6896
  151.0618  134.9742  159.8274 H   0  0  0  0  0  0  0  0  0  0  0  0  # atno 6908 bound_to 6896
  152.5399  134.2459  159.8933 H   0  0  0  0  0  0  0  0  0  0  0  0  # atno 6909 bound_to 6896
  144.7361  140.3267  143.6160 H   0  0  0  0  0  0  0  0  0  0  0  0  # atno 7974 bound_to 7965
  156.2299  140.2966  156.0163 H   0  0  0  0  0  0  0  0  0  0  0  0  # atno 8008 bound_to 7997
  155.2253  140.0417  157.2971 H   0  0  0  0  0  0  0  0  0  0  0  0  # atno 8009 bound_to 7997
  154.5979  140.2419  155.7840 H   0  0  0  0  0  0  0  0  0  0  0  0  # atno 8010 bound_to 7997
  139.6251  144.0549  152.1967 H   0  0  0  0  0  0  0  0  0  0  0  0  # atno 10167 bound_to 10162
  157.1601  130.6713  149.6041 H   0  0  0  0  0  0  0  0  0  0  0  0  # atno 10718 bound_to 10713
  154.3666  135.2753  155.2290 H   0  0  0  0  0  0  0  0  0  0  0  0  # atno 10763 bound_to 10752
  154.4455  135.5944  153.6161 H   0  0  0  0  0  0  0  0  0  0  0  0  # atno 10764 bound_to 10752
  152.9840  135.6029  154.3892 H   0  0  0  0  0  0  0  0  0  0  0  0  # atno 10765 bound_to 10752
  140.9798  134.0689  157.3777 H   0  0  0  0  0  0  0  0  0  0  0  0  # atno 11005 bound_to 11000
  145.7513  139.1795  143.2320 LP  0  0  0  0  0  0  0  0  0  0  0  0  # atno 17320 bound_to 7965
  146.1058  140.7488  142.9527 LP  0  0  0  0  0  0  0  0  0  0  0  0  # atno 17321 bound_to 7965
  140.0200  144.6160  150.7574 LP  0  0  0  0  0  0  0  0  0  0  0  0  # atno 17342 bound_to 10162
  140.7406  143.2806  151.3610 LP  0  0  0  0  0  0  0  0  0  0  0  0  # atno 17343 bound_to 10162
  155.9755  130.4714  150.6465 LP  0  0  0  0  0  0  0  0  0  0  0  0  # atno 17370 bound_to 10713
  157.4140  131.0827  151.1194 LP  0  0  0  0  0  0  0  0  0  0  0  0  # atno 17371 bound_to 10713
  139.8945  135.0136  156.6957 LP  0  0  0  0  0  0  0  0  0  0  0  0  # atno 17394 bound_to 11000
  140.7203  133.9146  155.8142 LP  0  0  0  0  0  0  0  0  0  0  0  0  # atno 17395 bound_to 11000

$$$$
