AV-unprocessed.smi:1423|AV-procd|sdf|5795|dock4
  -GOLD-   22720 5443D 1   1.00000     0.00000
 Structure written by MMmdl.
 44 45  0  0  0  0  0  0  0  0  2 V2000
  152.5926  142.5401  161.9689 C   0  0  0  0  0  0  0  0  0  0  0  0
  152.7312  143.4621  160.8934 O   0  0  0  0  0  0  0  0  0  0  0  0
  152.1222  143.1633  159.6918 C   0  0  0  0  0  0  0  0  0  0  0  0
  152.2600  144.0697  158.6220 C   0  0  0  0  0  0  0  0  0  0  0  0
  151.6370  143.7756  157.3941 C   0  0  0  0  0  0  0  0  0  0  0  0
  150.8986  142.5738  157.2715 C   0  0  0  0  0  0  0  0  0  0  0  0
  150.2035  142.1693  156.0989 N   0  0  0  0  0  0  0  0  0  0  0  0
  149.1391  141.3561  155.9863 C   0  0  0  0  0  0  0  0  0  0  0  0
  148.5185  140.8562  156.9240 O   0  0  0  0  0  0  0  0  0  0  0  0
  148.8140  141.1589  154.7003 N   0  0  0  0  0  0  0  0  0  0  0  0
  147.7109  140.3248  154.2311 C   0  0  2  0  0  0  0  0  0  0  0  0
  147.6846  138.9767  154.9763 C   0  0  0  0  0  0  0  0  0  0  0  0
  146.5953  138.0485  154.4136 C   0  0  0  0  0  0  0  0  0  0  0  0
  146.7765  137.8359  152.9552 N   0  3  1  0  0  0  0  0  0  0  0  0
  145.8345  136.8285  152.4034 C   0  0  0  0  0  0  0  0  0  0  0  0
  145.9311  135.4737  153.1122 C   0  0  0  0  0  0  0  0  0  0  0  0
  147.1001  134.8340  153.0347 N   0  0  0  0  0  0  0  0  0  0  0  0
  144.9641  135.0018  153.7078 O   0  0  0  0  0  0  0  0  0  0  0  0
  146.7564  139.1231  152.2105 C   0  0  0  0  0  0  0  0  0  0  0  0
  147.8513  140.0746  152.7209 C   0  0  0  0  0  0  0  0  0  0  0  0
  150.8159  141.7384  158.4050 C   0  0  0  0  0  0  0  0  0  0  0  0
  151.4094  142.0149  159.5850 N   0  0  0  0  0  0  0  0  0  0  0  0
  153.1273  142.9187  162.8397 H   0  0  0  0  0  0  0  0  0  0  0  0
  153.0161  141.5665  161.7182 H   0  0  0  0  0  0  0  0  0  0  0  0
  151.5468  142.4136  162.2528 H   0  0  0  0  0  0  0  0  0  0  0  0
  152.8289  144.9799  158.7426 H   0  0  0  0  0  0  0  0  0  0  0  0
  151.7286  144.4832  156.5856 H   0  0  0  0  0  0  0  0  0  0  0  0
  150.5509  142.5655  155.2379 H   0  0  0  0  0  0  0  0  0  0  0  0
  149.3725  141.6165  153.9947 H   0  0  0  0  0  0  0  0  0  0  0  0
  146.7689  140.8485  154.4058 H   0  0  0  0  0  0  0  0  0  0  0  0
  148.6557  138.4868  154.8909 H   0  0  0  0  0  0  0  0  0  0  0  0
  147.5125  139.1356  156.0415 H   0  0  0  0  0  0  0  0  0  0  0  0
  146.6397  137.0913  154.9343 H   0  0  0  0  0  0  0  0  0  0  0  0
  145.6060  138.4682  154.6022 H   0  0  0  0  0  0  0  0  0  0  0  0
  144.8080  137.1743  152.5328 H   0  0  0  0  0  0  0  0  0  0  0  0
  145.9937  136.7144  151.3298 H   0  0  0  0  0  0  0  0  0  0  0  0
  147.2218  133.9387  153.4859 H   0  0  0  0  0  0  0  0  0  0  0  0
  147.8652  135.2519  152.5243 H   0  0  0  0  0  0  0  0  0  0  0  0
  146.9073  138.9441  151.1457 H   0  0  0  0  0  0  0  0  0  0  0  0
  145.7756  139.5900  152.3151 H   0  0  0  0  0  0  0  0  0  0  0  0
  147.7998  141.0198  152.1786 H   0  0  0  0  0  0  0  0  0  0  0  0
  148.8311  139.6463  152.5033 H   0  0  0  0  0  0  0  0  0  0  0  0
  150.2550  140.8157  158.3656 H   0  0  0  0  0  0  0  0  0  0  0  0
  147.7002  137.4432  152.8390 H   0  0  0  0  0  0  0  0  0  0  0  0
  1  2  1  0  0  0  0
  1 23  1  0  0  0  0
  1 24  1  0  0  0  0
  1 25  1  0  0  0  0
  2  3  1  0  0  0  0
  3 22  1  0  0  0  0
  3  4  2  0  0  0  0
  4  5  1  0  0  0  0
  4 26  1  0  0  0  0
  5  6  2  0  0  0  0
  5 27  1  0  0  0  0
  6  7  1  0  0  0  0
  6 21  1  0  0  0  0
  7  8  1  0  0  0  0
  7 28  1  0  0  0  0
  8  9  2  0  0  0  0
  8 10  1  0  0  0  0
 10 11  1  0  0  0  0
 10 29  1  0  0  0  0
 11 20  1  0  0  0  0
 11 12  1  0  0  0  0
 11 30  1  0  0  0  0
 12 13  1  0  0  0  0
 12 31  1  0  0  0  0
 12 32  1  0  0  0  0
 13 14  1  0  0  0  0
 13 33  1  0  0  0  0
 13 34  1  0  0  0  0
 14 15  1  0  0  0  0
 14 19  1  0  0  0  0
 14 44  1  0  0  0  0
 15 16  1  0  0  0  0
 15 35  1  0  0  0  0
 15 36  1  0  0  0  0
 16 17  1  0  0  0  0
 16 18  2  0  0  0  0
 17 37  1  0  0  0  0
 17 38  1  0  0  0  0
 19 20  1  0  0  0  0
 19 39  1  0  0  0  0
 19 40  1  0  0  0  0
 20 41  1  0  0  0  0
 20 42  1  0  0  0  0
 21 22  2  0  0  0  0
 21 43  1  0  0  0  0
M  CHG  1  14   1
M  END
> <s_m_source_file>
AV-unprocessed.smi

> <i_m_source_file_index>
1423

> <i_lp_mmshare_version>
43012

> <i_f3d_flags>
0

> <s_epik_input>
W0NIM11PYzFbY0hdW2NIXWMoW2NIXW4xKVtOSF1DKD1PKVtOSF1bQ0hdMltDSDJdW0NIMl1OKFtDSDJdW0NIMl0yKVtDSDJdQyg9TylbTkgyXQ==

> <s_epik_cmdline>
J2VwaWtfcHl0aG9uJywgJy1waCcsICc3LjAnLCAnLXRuJywgJzgnLCAnLW1hJywgJzIwMCcsICctbWV0YWxfYmluZGluZycsICctaW1hZScsICc8aW5maWxlLm1hZT4nLCAnLW9tYWUnLCAnPG91dGZpbGUubWFlPic=

> <r_lp_tautomer_probability>
1

> <r_epik_Ionization_Penalty>
0.838963

> <r_epik_Ionization_Penalty_Charging>
0.838844

> <r_epik_Ionization_Penalty_Neutral>
0.0001192

> <r_epik_State_Penalty>
0.8734

> <r_epik_Charging_Adjusted_Penalty>
1.71224

> <i_epik_Tot_Q>
1

> <i_epik_Tot_abs_Q>
1

> <r_epik_Metal_State_Penalty>
0.890706

> <b_epik_Metal_Only>
0

> <s_lp_Force_Field>
OPLS_2005

> <r_lp_Energy>
16.4152

> <b_lp_Chiralities_Consistent>
1

> <s_lp_Variant>
AV-unprocessed.smi:1423-2

> <Gold.Version>
5.8.1

> <Gold.Id.Protein>
6NUR|6NUR_protein|mol2

> <Gold.PLP.Fitness>
42.4932

> <Gold.PLP.PLP>
-34.1462

> <Gold.PLP.part.hbond>
-3.6509

> <Gold.PLP.part.metal>
0.0000

> <Gold.PLP.part.buried>
0.3238

> <Gold.PLP.part.nonpolar>
-31.8238

> <Gold.PLP.part.repulsive>
0.4756

> <Gold.PLP.ligand.clash>
0.0000

> <Gold.PLP.ligand.torsion>
0.3125

> <Gold.PLP.Chemscore.Hbond>
2.9840

> <Gold.PLP.Chemscore.CHOScore>
0.0000

> <Gold.PLP.Chemscore.Metal>
0.0000

> <Gold.Chemscore.Hbonds>
donor molecule, donor type, donor heavy atom, donor atom, acceptor molecule, acceptor atom, score
      L1  H    14    44       P1  7948  1.98
      L1  H    17    38       P1  7948  1.00

> <Gold.PLP.Chemscore.Internal.Correction>
0.0199

> <Gold.Rescore>
     Score         DG    S(hbond)    S(metal)    S(lipo)     H(rot)  DE(clash)    DE(int)     intcor
     11.42     -15.93       1.94        0.00      84.95       2.33       1.78       2.72       ----

> <Gold.Chemscore.Fitness>
11.4229

> <Gold.Chemscore.DG>
-15.9279

> <Gold.Chemscore.ZeroCoef>
-5.4800

> <Gold.Chemscore.Hbond>
1.9360

> <Gold.Chemscore.Metal>
0.0000

> <Gold.Chemscore.Lipo>
84.9493

> <Gold.Chemscore.Internal_Hbond>
0.0000

> <Gold.Chemscore.DEClash>
1.7843

> <Gold.Chemscore.DEInternal>
2.7207

> <Gold.Chemscore.Rot>
2.3271

> <Gold.Chemscore.Internal.Correction>
   9.000000E+99

> <Gold.Chemscore.Hbonds>
donor molecule, donor type, donor heavy atom, donor atom, acceptor molecule, acceptor atom, score
      L1  H    14    44       P1  7948  0.91
      L1  H    17    38       P1  7948  0.97

> <Gold.Chemscore.Hbond.Weighted>
-6.4662

> <Gold.Chemscore.Metal.Weighted>
-0.0000

> <Gold.Chemscore.Lipo.Weighted>
-9.9391

> <Gold.Chemscore.Internal_Hbond.Weighted>
0.0000

> <Gold.Chemscore.DEClash.Weighted>
1.7843

> <Gold.Chemscore.DEInternal.Weighted>
2.7207

> <Gold.Chemscore.Rot.Weighted>
5.9573

> <Gold.Chemscore.Internal.Correction.Weighted>
   9.000000E+99

> <Gold.Protein.RotatedTorsions>
[ 6907 6896 6895 6894 ] final   64.96 input  -60.11 | X-H torsion
[ 7974 7965 7964 7962 ] final -168.30 input  175.53 | X-H torsion
[ 8008 7997 7996 7995 ] final   26.90 input   59.86 | X-H torsion
[ 10167 10162 10161 10158 ] final   74.91 input  -65.29 | X-H torsion
[ 10718 10713 10712 10709 ] final  -33.42 input   66.30 | X-H torsion
[ 10763 10752 10751 10750 ] final -149.48 input  -60.55 | X-H torsion
[ 11005 11000 10999 10996 ] final  -36.59 input  -57.11 | X-H torsion

> <Gold.Protein.ActiveResidues>
 VAL166  LYS551  ARG553  GLY616  TRP617  ASP618  TYR619  PRO620  LYS621  CYS622 
 ASP623  PHE694  ASN695  SER759  ASP760  ASP761  ALA762  ILE779  LEU786  VAL792 
 PHE793  MET794  SER795  GLU796  ALA797  LYS798  CYS799  TRP800  GLU811  SER814 

> <Gold.Protein.RotatedAtoms>
  152.4372  134.5664  159.9908 H   0  0  0  0  0  0  0  0  0  0  0  0  # atno 6907 bound_to 6896
  151.5771  133.3376  159.3009 H   0  0  0  0  0  0  0  0  0  0  0  0  # atno 6908 bound_to 6896
  150.8272  134.7542  159.6887 H   0  0  0  0  0  0  0  0  0  0  0  0  # atno 6909 bound_to 6896
  144.7206  140.2390  143.6294 H   0  0  0  0  0  0  0  0  0  0  0  0  # atno 7974 bound_to 7965
  155.0345  140.3162  155.4746 H   0  0  0  0  0  0  0  0  0  0  0  0  # atno 8008 bound_to 7997
  156.2867  140.2174  156.5410 H   0  0  0  0  0  0  0  0  0  0  0  0  # atno 8009 bound_to 7997
  154.7342  140.0479  157.0741 H   0  0  0  0  0  0  0  0  0  0  0  0  # atno 8010 bound_to 7997
  140.0086  144.5631  150.7677 H   0  0  0  0  0  0  0  0  0  0  0  0  # atno 10167 bound_to 10162
  156.3629  130.4327  149.7608 H   0  0  0  0  0  0  0  0  0  0  0  0  # atno 10718 bound_to 10713
  154.8174  135.3308  154.7136 H   0  0  0  0  0  0  0  0  0  0  0  0  # atno 10763 bound_to 10752
  153.7774  135.6921  153.4899 H   0  0  0  0  0  0  0  0  0  0  0  0  # atno 10764 bound_to 10752
  153.2003  135.4518  155.0206 H   0  0  0  0  0  0  0  0  0  0  0  0  # atno 10765 bound_to 10752
  140.9887  133.7017  156.1811 H   0  0  0  0  0  0  0  0  0  0  0  0  # atno 11005 bound_to 11000
  145.8338  139.2098  143.1867 LP  0  0  0  0  0  0  0  0  0  0  0  0  # atno 17320 bound_to 7965
  146.0407  140.8167  142.9830 LP  0  0  0  0  0  0  0  0  0  0  0  0  # atno 17321 bound_to 7965
  140.7390  143.2786  151.3666 LP  0  0  0  0  0  0  0  0  0  0  0  0  # atno 17342 bound_to 10162
  139.6221  144.0886  152.2401 LP  0  0  0  0  0  0  0  0  0  0  0  0  # atno 17343 bound_to 10162
  156.4765  130.8021  151.3037 LP  0  0  0  0  0  0  0  0  0  0  0  0  # atno 17370 bound_to 10713
  157.7475  131.0019  150.2981 LP  0  0  0  0  0  0  0  0  0  0  0  0  # atno 17371 bound_to 10713
  140.7074  134.4498  157.5583 LP  0  0  0  0  0  0  0  0  0  0  0  0  # atno 17394 bound_to 11000
  139.8982  134.8619  156.2011 LP  0  0  0  0  0  0  0  0  0  0  0  0  # atno 17395 bound_to 11000

$$$$
