AV-unprocessed.smi:3282|AV-procd|sdf|12567|dock5
  -GOLD-   2272018483D 1   1.00000     0.00000
 Structure written by MMmdl.
 33 34  0  0  0  0  0  0  0  0  2 V2000
  151.9165  145.0511  160.1293 C   0  0  0  0  0  0  0  0  0  0  0  0
  151.9434  144.2176  158.8378 C   0  0  0  0  0  0  0  0  0  0  0  0
  152.5342  142.8097  159.0217 C   0  0  0  0  0  0  0  0  0  0  0  0
  153.6754  142.6777  159.4670 O   0  0  0  0  0  0  0  0  0  0  0  0
  151.7707  141.7500  158.6830 N   0  0  0  0  0  0  0  0  0  0  0  0
  150.4090  141.8131  158.1561 C   0  0  0  0  0  0  0  0  0  0  0  0
  149.8976  140.3724  158.1367 C   0  0  0  0  0  0  0  0  0  0  0  0
  151.1577  139.5125  158.0886 C   0  0  2  0  0  0  0  0  0  0  0  0
  150.9557  138.2242  158.7451 N   0  0  0  0  0  0  0  0  0  0  0  0
  149.8812  137.4348  158.6039 C   0  0  0  0  0  0  0  0  0  0  0  0
  148.9530  137.7863  157.8721 O   0  0  0  0  0  0  0  0  0  0  0  0
  149.9511  136.2874  159.3159 N   0  5  0  0  0  0  0  0  0  0  0  0
  149.0632  136.0539  160.2959 C   0  0  0  0  0  0  0  0  0  0  0  0
  148.5611  136.9576  161.1392 N   0  0  0  0  0  0  0  0  0  0  0  0
  147.6995  136.2609  161.9724 C   0  0  0  0  0  0  0  0  0  0  0  0
  147.7233  134.9459  161.5959 C   0  0  0  0  0  0  0  0  0  0  0  0
  148.5833  134.8020  160.5426 O   0  0  0  0  0  0  0  0  0  0  0  0
  152.2200  140.3648  158.7961 C   0  0  0  0  0  0  0  0  0  0  0  0
  151.4930  146.0380  159.9411 H   0  0  0  0  0  0  0  0  0  0  0  0
  152.9201  145.1950  160.5311 H   0  0  0  0  0  0  0  0  0  0  0  0
  151.3084  144.5750  160.8997 H   0  0  0  0  0  0  0  0  0  0  0  0
  150.9278  144.1247  158.4518 H   0  0  0  0  0  0  0  0  0  0  0  0
  152.5235  144.7511  158.0840 H   0  0  0  0  0  0  0  0  0  0  0  0
  149.7596  142.4483  158.7597 H   0  0  0  0  0  0  0  0  0  0  0  0
  150.4379  142.2176  157.1434 H   0  0  0  0  0  0  0  0  0  0  0  0
  149.3458  140.1796  159.0583 H   0  0  0  0  0  0  0  0  0  0  0  0
  149.2236  140.1770  157.3022 H   0  0  0  0  0  0  0  0  0  0  0  0
  151.4425  139.3678  157.0448 H   0  0  0  0  0  0  0  0  0  0  0  0
  151.6924  137.9006  159.3547 H   0  0  0  0  0  0  0  0  0  0  0  0
  147.1453  136.7503  162.7593 H   0  0  0  0  0  0  0  0  0  0  0  0
  147.2282  134.0531  161.9469 H   0  0  0  0  0  0  0  0  0  0  0  0
  153.2041  140.2166  158.3485 H   0  0  0  0  0  0  0  0  0  0  0  0
  152.2914  140.1099  159.8551 H   0  0  0  0  0  0  0  0  0  0  0  0
  1  2  1  0  0  0  0
  1 19  1  0  0  0  0
  1 20  1  0  0  0  0
  1 21  1  0  0  0  0
  2  3  1  0  0  0  0
  2 22  1  0  0  0  0
  2 23  1  0  0  0  0
  3  4  2  0  0  0  0
  3  5  1  0  0  0  0
  5 18  1  0  0  0  0
  5  6  1  0  0  0  0
  6  7  1  0  0  0  0
  6 24  1  0  0  0  0
  6 25  1  0  0  0  0
  7  8  1  0  0  0  0
  7 26  1  0  0  0  0
  7 27  1  0  0  0  0
  8  9  1  0  0  0  0
  8 18  1  0  0  0  0
  8 28  1  0  0  0  0
  9 10  1  0  0  0  0
  9 29  1  0  0  0  0
 10 11  2  0  0  0  0
 10 12  1  0  0  0  0
 12 13  1  0  0  0  0
 13 17  1  0  0  0  0
 13 14  2  0  0  0  0
 14 15  1  0  0  0  0
 15 16  2  0  0  0  0
 15 30  1  0  0  0  0
 16 17  1  0  0  0  0
 16 31  1  0  0  0  0
 18 32  1  0  0  0  0
 18 33  1  0  0  0  0
M  CHG  1  12  -1
M  END
> <s_m_source_file>
AV-unprocessed.smi

> <i_m_source_file_index>
3282

> <i_lp_mmshare_version>
43012

> <i_f3d_flags>
0

> <s_epik_input>
W0NIM11bQ0gyXUMoPU8pTjFbQ0gyXVtDSDJdW0NASF0oW0NIMl0xKVtOSF1DKD1PKVtOSF1jMm5bY0hdW2NIXW8y

> <s_epik_cmdline>
J2VwaWtfcHl0aG9uJywgJy1waCcsICc3LjAnLCAnLXRuJywgJzgnLCAnLW1hJywgJzIwMCcsICctbWV0YWxfYmluZGluZycsICctaW1hZScsICc8aW5maWxlLm1hZT4nLCAnLW9tYWUnLCAnPG91dGZpbGUubWFlPic=

> <r_lp_tautomer_probability>
0.785861

> <r_epik_Ionization_Penalty>
9.30511

> <r_epik_Ionization_Penalty_Charging>
6.7516

> <r_epik_Ionization_Penalty_Neutral>
2.55351

> <r_epik_State_Penalty>
6.77285

> <r_epik_Charging_Adjusted_Penalty>
13.5244

> <i_epik_Tot_Q>
-1

> <i_epik_Tot_abs_Q>
1

> <r_epik_Metal_State_Penalty>
2.67327

> <b_epik_Metal_Only>
1

> <s_lp_Force_Field>
OPLS_2005

> <r_lp_Energy>
20.6417

> <b_lp_Chiralities_Consistent>
1

> <s_lp_Variant>
AV-unprocessed.smi:3282-8

> <Gold.Version>
5.8.1

> <Gold.Id.Protein>
6NUR|6NUR_protein|mol2

> <Gold.PLP.Fitness>
42.8193

> <Gold.PLP.PLP>
-34.1012

> <Gold.PLP.part.hbond>
-3.0000

> <Gold.PLP.part.metal>
0.0000

> <Gold.PLP.part.buried>
-5.4869

> <Gold.PLP.part.nonpolar>
-26.1618

> <Gold.PLP.part.repulsive>
0.1723

> <Gold.PLP.ligand.clash>
0.0000

> <Gold.PLP.ligand.torsion>
1.1160

> <Gold.PLP.Chemscore.Hbond>
3.6456

> <Gold.PLP.Chemscore.CHOScore>
0.0000

> <Gold.PLP.Chemscore.Metal>
0.0000

> <Gold.Chemscore.Hbonds>
donor molecule, donor type, donor heavy atom, donor atom, acceptor molecule, acceptor atom, score
      P1  H  6896  6909       L1    12  1.40
      P1  H  6931  6943       L1    14  1.00

> <Gold.PLP.Chemscore.Internal.Correction>
0.0132

> <Gold.Rescore>
     Score         DG    S(hbond)    S(metal)    S(lipo)     H(rot)  DE(clash)    DE(int)     intcor
     13.90     -15.30       1.91        0.00      58.02       1.31       0.00       1.40       ----

> <Gold.Chemscore.Fitness>
13.8996

> <Gold.Chemscore.DG>
-15.3020

> <Gold.Chemscore.ZeroCoef>
-5.4800

> <Gold.Chemscore.Hbond>
1.9111

> <Gold.Chemscore.Metal>
0.0000

> <Gold.Chemscore.Lipo>
58.0160

> <Gold.Chemscore.Internal_Hbond>
0.0000

> <Gold.Chemscore.DEClash>
0.0009

> <Gold.Chemscore.DEInternal>
1.4015

> <Gold.Chemscore.Rot>
1.3082

> <Gold.Chemscore.Internal.Correction>
   9.000000E+99

> <Gold.Chemscore.Hbonds>
donor molecule, donor type, donor heavy atom, donor atom, acceptor molecule, acceptor atom, score
      P1  H  6896  6909       L1    12  0.07
      P1  H  6931  6943       L1    14  0.62

> <Gold.Chemscore.Hbond.Weighted>
-6.3830

> <Gold.Chemscore.Metal.Weighted>
-0.0000

> <Gold.Chemscore.Lipo.Weighted>
-6.7879

> <Gold.Chemscore.Internal_Hbond.Weighted>
0.0000

> <Gold.Chemscore.DEClash.Weighted>
0.0009

> <Gold.Chemscore.DEInternal.Weighted>
1.4015

> <Gold.Chemscore.Rot.Weighted>
3.3489

> <Gold.Chemscore.Internal.Correction.Weighted>
   9.000000E+99

> <Gold.Protein.RotatedTorsions>
[ 6907 6896 6895 6894 ] final   83.02 input  -60.11 | X-H torsion
[ 7974 7965 7964 7962 ] final -133.61 input  175.53 | X-H torsion
[ 8008 7997 7996 7995 ] final -171.29 input   59.86 | X-H torsion
[ 10167 10162 10161 10158 ] final -156.62 input  -65.29 | X-H torsion
[ 10718 10713 10712 10709 ] final -126.34 input   66.30 | X-H torsion
[ 10763 10752 10751 10750 ] final  165.34 input  -60.55 | X-H torsion
[ 11005 11000 10999 10996 ] final    9.54 input  -57.11 | X-H torsion

> <Gold.Protein.ActiveResidues>
 VAL166  LYS551  ARG553  GLY616  TRP617  ASP618  TYR619  PRO620  LYS621  CYS622 
 ASP623  PHE694  ASN695  SER759  ASP760  ASP761  ALA762  ILE779  LEU786  VAL792 
 PHE793  MET794  SER795  GLU796  ALA797  LYS798  CYS799  TRP800  GLU811  SER814 

> <Gold.Protein.RotatedAtoms>
  152.5316  134.2960  159.9060 H   0  0  0  0  0  0  0  0  0  0  0  0  # atno 6907 bound_to 6896
  151.2911  133.4158  159.2641 H   0  0  0  0  0  0  0  0  0  0  0  0  # atno 6908 bound_to 6896
  151.0200  134.9477  159.8111 H   0  0  0  0  0  0  0  0  0  0  0  0  # atno 6909 bound_to 6896
  144.9177  140.6975  143.4985 H   0  0  0  0  0  0  0  0  0  0  0  0  # atno 7974 bound_to 7965
  155.9296  140.1089  157.1143 H   0  0  0  0  0  0  0  0  0  0  0  0  # atno 8008 bound_to 7997
  154.4068  140.1240  156.4850 H   0  0  0  0  0  0  0  0  0  0  0  0  # atno 8009 bound_to 7997
  155.7097  140.3471  155.4970 H   0  0  0  0  0  0  0  0  0  0  0  0  # atno 8010 bound_to 7997
  139.6836  143.9540  152.2349 H   0  0  0  0  0  0  0  0  0  0  0  0  # atno 10167 bound_to 10162
  156.1756  130.6697  151.0238 H   0  0  0  0  0  0  0  0  0  0  0  0  # atno 10718 bound_to 10713
  154.3225  135.2755  155.2512 H   0  0  0  0  0  0  0  0  0  0  0  0  # atno 10763 bound_to 10752
  154.4860  135.5846  153.6427 H   0  0  0  0  0  0  0  0  0  0  0  0  # atno 10764 bound_to 10752
  152.9875  135.6123  154.3411 H   0  0  0  0  0  0  0  0  0  0  0  0  # atno 10765 bound_to 10752
  140.5246  134.0525  155.7855 H   0  0  0  0  0  0  0  0  0  0  0  0  # atno 11005 bound_to 11000
  145.3348  139.1749  143.4517 LP  0  0  0  0  0  0  0  0  0  0  0  0  # atno 17320 bound_to 7965
  146.3190  140.3382  142.8646 LP  0  0  0  0  0  0  0  0  0  0  0  0  # atno 17321 bound_to 7965
  139.9336  144.6726  150.8337 LP  0  0  0  0  0  0  0  0  0  0  0  0  # atno 17342 bound_to 10162
  140.7660  143.3291  151.2449 LP  0  0  0  0  0  0  0  0  0  0  0  0  # atno 17343 bound_to 10162
  157.6833  131.0832  150.7310 LP  0  0  0  0  0  0  0  0  0  0  0  0  # atno 17370 bound_to 10713
  156.7368  130.4726  149.5487 LP  0  0  0  0  0  0  0  0  0  0  0  0  # atno 17371 bound_to 10713
  141.1315  133.9294  157.2525 LP  0  0  0  0  0  0  0  0  0  0  0  0  # atno 17394 bound_to 11000
  139.9587  135.0159  156.9200 LP  0  0  0  0  0  0  0  0  0  0  0  0  # atno 17395 bound_to 11000

$$$$
