#       Name:                AV-unprocessed.smi:1420
#       Creating user name   scv26
#       Creation time:       Fri Mar 27 05:43:17 2020


#       File generated by GOLD software.
#

@<TRIPOS>MOLECULE
AV-unprocessed.smi:1420
    44    45     1
SMALL
NO_CHARGES


@<TRIPOS>ATOM
      1 ****        -0.7371   1.2939  -0.5680 C.3            1 S1                 0.0000
      2 ****        -0.1284  -0.1097  -0.8226 C.3            1 S1                 0.0000
      3 ****         1.4237   0.0109  -0.8389 C.3            1 S1                 0.0000
      4 ****         1.9613   0.6229   0.3717 N.am           1 S1                 0.0000
      5 ****         2.1048   0.0018   1.5523 C.2            1 S1                 0.0000
      6 ****         1.8632  -1.1924   1.7274 O.2            1 S1                 0.0000
      7 ****         2.5660   0.8702   2.7223 C.3            1 S1                 0.0000
      8 ****         1.4361   1.5520   3.3272 N.pl3          1 S1                 0.0000
      9 ****         0.5996   1.1011   4.3271 C.2            1 S1                 0.0000
     10 ****        -0.3283   2.0773   4.5516 C.2            1 S1                 0.0000
     11 ****         0.0262   3.1000   3.6278 C.2            1 S1                 0.0000
     12 ****         1.0832   2.7838   2.8970 N.2            1 S1                 0.0000
     13 ****        -0.6749  -0.7630  -2.0348 N.3            1 S1                 0.0000
     14 ****        -2.1399  -0.8493  -2.0177 C.3            1 S1                 0.0000
     15 ****        -2.7121  -1.5530  -3.2601 C.3            1 S1                 0.0000
     16 ****        -2.1510  -2.8532  -3.3737 O.3            1 S1                 0.0000
     17 ****        -0.7343  -2.8140  -3.4730 C.3            1 S1                 0.0000
     18 ****        -0.1453  -2.1175  -2.2340 C.3            1 S1                 0.0000
     19 ****        -0.3007   1.7879   0.2994 H              1 S1                 0.0000
     20 ****        -1.8043   1.2487  -0.3560 H              1 S1                 0.0000
     21 ****        -0.5897   1.9492  -1.4269 H              1 S1                 0.0000
     22 ****        -0.3937  -0.7283   0.0363 H              1 S1                 0.0000
     23 ****         1.9116  -0.9565  -0.9488 H              1 S1                 0.0000
     24 ****         1.7389   0.6130  -1.6917 H              1 S1                 0.0000
     25 ****         2.1828   1.6072   0.3249 H              1 S1                 0.0000
     26 ****         3.0509   0.2515   3.4784 H              1 S1                 0.0000
     27 ****         3.3003   1.6049   2.3874 H              1 S1                 0.0000
     28 ****         0.7312   0.1326   4.7870 H              1 S1                 0.0000
     29 ****        -1.1383   2.0618   5.2654 H              1 S1                 0.0000
     30 ****        -0.4502   4.0558   3.4672 H              1 S1                 0.0000
     31 ****        -2.4699  -1.3738  -1.1196 H              1 S1                 0.0000
     32 ****        -2.5824   0.1449  -1.9857 H              1 S1                 0.0000
     33 ****        -3.7959  -1.6387  -3.1812 H              1 S1                 0.0000
     34 ****        -2.5014  -0.9764  -4.1621 H              1 S1                 0.0000
     35 ****        -0.3551  -3.8332  -3.5506 H              1 S1                 0.0000
     36 ****        -0.4397  -2.2931  -4.3853 H              1 S1                 0.0000
     37 ****         0.9338  -2.0957  -2.3696 H              1 S1                 0.0000
     38 ****        -0.3420  -2.7254  -1.3495 H              1 S1                 0.0000
     39 ****         1.5410  -1.7542   0.9655 LP             1 S1                 0.0000
     40 ****         1.9892  -1.6006   2.6315 LP             1 S1                 0.0000
     41 ****         1.5224   3.3331   2.1860 LP             1 S1                 0.0000
     42 ****        -0.3829  -0.1753  -2.7894 LP             1 S1                 0.0000
     43 ****        -2.5200  -3.2938  -4.1920 LP             1 S1                 0.0000
     44 ****        -2.4035  -3.3856  -2.5658 LP             1 S1                 0.0000
@<TRIPOS>BOND
    1    1    2 1     
    2    1   19 1     
    3    1   20 1     
    4    1   21 1     
    5    2    3 1     
    6    2   13 1     
    7    2   22 1     
    8    3    4 1     
    9    3   23 1     
   10    3   24 1     
   11    4    5 am    
   12    4   25 1     
   13    5    6 2     
   14    5    7 1     
   15    7    8 1     
   16    7   26 1     
   17    7   27 1     
   18    8   12 1     
   19    8    9 1     
   20    9   10 2     
   21    9   28 1     
   22   10   11 1     
   23   10   29 1     
   24   11   12 2     
   25   11   30 1     
   26   13   18 1     
   27   13   14 1     
   28   14   15 1     
   29   14   31 1     
   30   14   32 1     
   31   15   16 1     
   32   15   33 1     
   33   15   34 1     
   34   16   17 1     
   35   17   18 1     
   36   17   35 1     
   37   17   36 1     
   38   18   37 1     
   39   18   38 1     
   40    6   39 1     
   41    6   40 1     
   42   12   41 1     
   43   13   42 1     
   44   16   43 1     
   45   16   44 1     
@<TRIPOS>SUBSTRUCTURE
      1 S1             1
@<TRIPOS>SET
LONE_PAIRS      STATIC     ATOMS    <user>   **** ""
6 39 40 41 42 43 44
DONOR_HYDROGENS      STATIC     ATOMS    <user>   **** ""
1 25
ATOM$BLUE        STATIC     ATOMS    COLORGROUP SYSTEM
6 39 40 41 42 43 44
ATOM$RED        STATIC     ATOMS    COLORGROUP SYSTEM
1 25
