AV-unprocessed.smi:3104|AV-procd|sdf|11818|dock8
  -GOLD-   2272017193D 1   1.00000     0.00000
 Structure written by MMmdl.
 37 38  0  0  0  0  0  0  0  0  2 V2000
  153.5301  142.1304  161.6392 C   0  0  0  0  0  0  0  0  0  0  0  0
  153.1232  141.4752  160.3511 C   0  0  0  0  0  0  0  0  0  0  0  0
  153.8611  140.5377  159.5746 C   0  0  0  0  0  0  0  0  0  0  0  0
  153.2153  140.1501  158.4871 N   0  0  0  0  0  0  0  0  0  0  0  0
  152.0438  140.8203  158.5293 N   0  0  0  0  0  0  0  0  0  0  0  0
  151.0683  140.6379  157.4618 C   0  0  1  0  0  0  0  0  0  0  0  0
  149.7060  140.2464  158.0630 C   0  0  0  0  0  0  0  0  0  0  0  0
  150.9896  141.8795  156.5339 C   0  0  1  0  0  0  0  0  0  0  0  0
  150.0734  141.6692  155.3147 C   0  0  0  0  0  0  0  0  0  0  0  0
  150.5118  143.0585  157.2904 N   0  3  0  0  0  0  0  0  0  0  0  0
  151.5754  143.9737  157.7497 C   0  0  0  0  0  0  0  0  0  0  0  0
  151.0182  145.0362  158.6732 C   0  0  0  0  0  0  0  0  0  0  0  0
  151.8658  145.5810  159.7994 C   0  0  0  0  0  0  0  0  0  0  0  0
  150.6721  144.7122  160.1087 C   0  0  0  0  0  0  0  0  0  0  0  0
  151.9648  141.6305  159.6443 C   0  0  0  0  0  0  0  0  0  0  0  0
  154.5143  141.7982  161.9702 H   0  0  0  0  0  0  0  0  0  0  0  0
  152.8286  141.9055  162.4429 H   0  0  0  0  0  0  0  0  0  0  0  0
  153.5732  143.2153  161.5428 H   0  0  0  0  0  0  0  0  0  0  0  0
  154.8424  140.1297  159.7683 H   0  0  0  0  0  0  0  0  0  0  0  0
  151.4072  139.7939  156.8575 H   0  0  0  0  0  0  0  0  0  0  0  0
  148.9939  139.9596  157.2892 H   0  0  0  0  0  0  0  0  0  0  0  0
  149.2675  141.0676  158.6308 H   0  0  0  0  0  0  0  0  0  0  0  0
  149.8069  139.3943  158.7362 H   0  0  0  0  0  0  0  0  0  0  0  0
  151.9890  142.0855  156.1460 H   0  0  0  0  0  0  0  0  0  0  0  0
  150.4426  140.8794  154.6602 H   0  0  0  0  0  0  0  0  0  0  0  0
  150.0097  142.5763  154.7128 H   0  0  0  0  0  0  0  0  0  0  0  0
  149.0613  141.4017  155.6210 H   0  0  0  0  0  0  0  0  0  0  0  0
  149.8838  143.5826  156.6977 H   0  0  0  0  0  0  0  0  0  0  0  0
  152.3598  143.4167  158.2637 H   0  0  0  0  0  0  0  0  0  0  0  0
  152.0308  144.4588  156.8856 H   0  0  0  0  0  0  0  0  0  0  0  0
  150.3869  145.7693  158.1739 H   0  0  0  0  0  0  0  0  0  0  0  0
  152.8536  145.1483  159.9467 H   0  0  0  0  0  0  0  0  0  0  0  0
  151.7844  146.6430  160.0222 H   0  0  0  0  0  0  0  0  0  0  0  0
  149.7959  145.1956  160.5361 H   0  0  0  0  0  0  0  0  0  0  0  0
  150.8657  143.7018  160.4637 H   0  0  0  0  0  0  0  0  0  0  0  0
  151.0990  142.2452  159.8422 H   0  0  0  0  0  0  0  0  0  0  0  0
  149.9939  142.7317  158.0939 H   0  0  0  0  0  0  0  0  0  0  0  0
  1  2  1  0  0  0  0
  1 16  1  0  0  0  0
  1 17  1  0  0  0  0
  1 18  1  0  0  0  0
  2 15  2  0  0  0  0
  2  3  1  0  0  0  0
  3  4  2  0  0  0  0
  3 19  1  0  0  0  0
  4  5  1  0  0  0  0
  5  6  1  0  0  0  0
  5 15  1  0  0  0  0
  6  7  1  0  0  0  0
  6  8  1  0  0  0  0
  6 20  1  0  0  0  0
  7 21  1  0  0  0  0
  7 22  1  0  0  0  0
  7 23  1  0  0  0  0
  8  9  1  0  0  0  0
  8 10  1  0  0  0  0
  8 24  1  0  0  0  0
  9 25  1  0  0  0  0
  9 26  1  0  0  0  0
  9 27  1  0  0  0  0
 10 11  1  0  0  0  0
 10 28  1  0  0  0  0
 10 37  1  0  0  0  0
 11 12  1  0  0  0  0
 11 29  1  0  0  0  0
 11 30  1  0  0  0  0
 12 14  1  0  0  0  0
 12 13  1  0  0  0  0
 12 31  1  0  0  0  0
 13 14  1  0  0  0  0
 13 32  1  0  0  0  0
 13 33  1  0  0  0  0
 14 34  1  0  0  0  0
 14 35  1  0  0  0  0
 15 36  1  0  0  0  0
M  CHG  1  10   1
M  END
> <s_m_source_file>
AV-unprocessed.smi

> <i_m_source_file_index>
3104

> <i_lp_mmshare_version>
43012

> <i_f3d_flags>
0

> <s_epik_input>
W0NIM11jMVtjSF1ubihbY0hdMSlbQ0BIXShbQ0gzXSlbQ0BIXShbQ0gzXSlbTkhdW0NIMl1bQ0hdMltDSDJdW0NIMl0y

> <s_epik_cmdline>
J2VwaWtfcHl0aG9uJywgJy1waCcsICc3LjAnLCAnLXRuJywgJzgnLCAnLW1hJywgJzIwMCcsICctbWV0YWxfYmluZGluZycsICctaW1hZScsICc8aW5maWxlLm1hZT4nLCAnLW9tYWUnLCAnPG91dGZpbGUubWFlPic=

> <r_lp_tautomer_probability>
1

> <r_epik_Ionization_Penalty>
0.00120445

> <r_epik_Ionization_Penalty_Charging>
0.00118273

> <r_epik_Ionization_Penalty_Neutral>
2.17265e-05

> <r_epik_State_Penalty>
-0

> <r_epik_Charging_Adjusted_Penalty>
0.00118273

> <i_epik_Tot_Q>
1

> <i_epik_Tot_abs_Q>
1

> <r_epik_Metal_State_Penalty>
-0

> <b_epik_Metal_Only>
0

> <s_lp_Force_Field>
OPLS_2005

> <r_lp_Energy>
22.3414

> <b_lp_Chiralities_Consistent>
1

> <s_lp_Variant>
AV-unprocessed.smi:3104-4

> <Gold.Version>
5.8.1

> <Gold.Id.Protein>
6NUR|6NUR_protein|mol2

> <Gold.PLP.Fitness>
46.2819

> <Gold.PLP.PLP>
-38.7992

> <Gold.PLP.part.hbond>
-2.0000

> <Gold.PLP.part.metal>
0.0000

> <Gold.PLP.part.buried>
-4.0492

> <Gold.PLP.part.nonpolar>
-32.1367

> <Gold.PLP.part.repulsive>
0.0035

> <Gold.PLP.ligand.clash>
0.0000

> <Gold.PLP.ligand.torsion>
1.0618

> <Gold.PLP.Chemscore.Hbond>
2.9920

> <Gold.PLP.Chemscore.CHOScore>
0.0000

> <Gold.PLP.Chemscore.Metal>
0.0000

> <Gold.Chemscore.Hbonds>
donor molecule, donor type, donor heavy atom, donor atom, acceptor molecule, acceptor atom, score
      L1  H    10    28       P1  8028  2.00
      P1  H  7997  8010       L1     4  0.99

> <Gold.PLP.Chemscore.Internal.Correction>
0.6304

> <Gold.Rescore>
     Score         DG    S(hbond)    S(metal)    S(lipo)     H(rot)  DE(clash)    DE(int)     intcor
     18.60     -20.02       1.76        0.00     106.57       1.49       0.14       1.28       ----

> <Gold.Chemscore.Fitness>
18.6019

> <Gold.Chemscore.DG>
-20.0223

> <Gold.Chemscore.ZeroCoef>
-5.4800

> <Gold.Chemscore.Hbond>
1.7645

> <Gold.Chemscore.Metal>
0.0000

> <Gold.Chemscore.Lipo>
106.5730

> <Gold.Chemscore.Internal_Hbond>
0.0000

> <Gold.Chemscore.DEClash>
0.1410

> <Gold.Chemscore.DEInternal>
1.2793

> <Gold.Chemscore.Rot>
1.4923

> <Gold.Chemscore.Internal.Correction>
   9.000000E+99

> <Gold.Chemscore.Hbonds>
donor molecule, donor type, donor heavy atom, donor atom, acceptor molecule, acceptor atom, score
      L1  H    10    28       P1  8028  1.00
      P1  H  7997  8010       L1     4  0.40

> <Gold.Chemscore.Hbond.Weighted>
-5.8936

> <Gold.Chemscore.Metal.Weighted>
-0.0000

> <Gold.Chemscore.Lipo.Weighted>
-12.4690

> <Gold.Chemscore.Internal_Hbond.Weighted>
0.0000

> <Gold.Chemscore.DEClash.Weighted>
0.1410

> <Gold.Chemscore.DEInternal.Weighted>
1.2793

> <Gold.Chemscore.Rot.Weighted>
3.8204

> <Gold.Chemscore.Internal.Correction.Weighted>
   9.000000E+99

> <Gold.Protein.RotatedTorsions>
[ 6907 6896 6895 6894 ] final    3.84 input  -60.11 | X-H torsion
[ 7974 7965 7964 7962 ] final   -5.67 input  175.53 | X-H torsion
[ 8008 7997 7996 7995 ] final   30.78 input   59.86 | X-H torsion
[ 10167 10162 10161 10158 ] final  173.12 input  -65.29 | X-H torsion
[ 10718 10713 10712 10709 ] final    2.10 input   66.30 | X-H torsion
[ 10763 10752 10751 10750 ] final  114.27 input  -60.55 | X-H torsion
[ 11005 11000 10999 10996 ] final  155.00 input  -57.11 | X-H torsion

> <Gold.Protein.ActiveResidues>
 VAL166  LYS551  ARG553  GLY616  TRP617  ASP618  TYR619  PRO620  LYS621  CYS622 
 ASP623  PHE694  ASN695  SER759  ASP760  ASP761  ALA762  ILE779  LEU786  VAL792 
 PHE793  MET794  SER795  GLU796  ALA797  LYS798  CYS799  TRP800  GLU811  SER814 

> <Gold.Protein.RotatedAtoms>
  151.6316  135.1022  160.0122 H   0  0  0  0  0  0  0  0  0  0  0  0  # atno 6907 bound_to 6896
  152.4103  133.6949  159.6400 H   0  0  0  0  0  0  0  0  0  0  0  0  # atno 6908 bound_to 6896
  150.7994  133.8553  159.3257 H   0  0  0  0  0  0  0  0  0  0  0  0  # atno 6909 bound_to 6896
  146.2348  140.2055  142.8334 H   0  0  0  0  0  0  0  0  0  0  0  0  # atno 7974 bound_to 7965
  155.0958  140.3224  155.4561 H   0  0  0  0  0  0  0  0  0  0  0  0  # atno 8008 bound_to 7997
  156.2730  140.2069  156.6032 H   0  0  0  0  0  0  0  0  0  0  0  0  # atno 8009 bound_to 7997
  154.6867  140.0520  157.0309 H   0  0  0  0  0  0  0  0  0  0  0  0  # atno 8010 bound_to 7997
  139.5098  144.3297  152.0124 H   0  0  0  0  0  0  0  0  0  0  0  0  # atno 10167 bound_to 10162
  156.8580  130.5577  149.5665 H   0  0  0  0  0  0  0  0  0  0  0  0  # atno 10718 bound_to 10713
  153.5047  135.3630  155.2557 H   0  0  0  0  0  0  0  0  0  0  0  0  # atno 10763 bound_to 10752
  154.8745  135.4008  154.3437 H   0  0  0  0  0  0  0  0  0  0  0  0  # atno 10764 bound_to 10752
  153.4080  135.7077  153.6446 H   0  0  0  0  0  0  0  0  0  0  0  0  # atno 10765 bound_to 10752
  140.1541  134.8655  157.2491 H   0  0  0  0  0  0  0  0  0  0  0  0  # atno 11005 bound_to 11000
  144.9748  140.8403  143.5433 LP  0  0  0  0  0  0  0  0  0  0  0  0  # atno 17320 bound_to 7965
  145.2041  139.2237  143.5177 LP  0  0  0  0  0  0  0  0  0  0  0  0  # atno 17321 bound_to 7965
  140.2737  144.3936  150.6142 LP  0  0  0  0  0  0  0  0  0  0  0  0  # atno 17342 bound_to 10162
  140.6070  143.2168  151.6962 LP  0  0  0  0  0  0  0  0  0  0  0  0  # atno 17343 bound_to 10162
  156.0792  130.5807  150.9531 LP  0  0  0  0  0  0  0  0  0  0  0  0  # atno 17370 bound_to 10713
  157.6266  131.0925  150.8522 LP  0  0  0  0  0  0  0  0  0  0  0  0  # atno 17371 bound_to 10713
  140.2569  134.3617  155.7421 LP  0  0  0  0  0  0  0  0  0  0  0  0  # atno 17394 bound_to 11000
  141.2202  133.7348  156.9021 LP  0  0  0  0  0  0  0  0  0  0  0  0  # atno 17395 bound_to 11000

$$$$
