AV-unprocessed.smi:1080|AV-procd|sdf|4706|dock10
  -GOLD-   22720 3233D 1   1.00000     0.00000
 Structure written by MMmdl.
 48 50  0  0  0  0  0  0  0  0  1 V2000
  150.1992  134.1290  155.6838 O   0  0  0  0  0  0  0  0  0  0  0  0
  149.8373  134.8140  154.7276 C   0  0  0  0  0  0  0  0  0  0  0  0
  149.0358  134.4012  153.7298 N   0  0  0  0  0  0  0  0  0  0  0  0
  148.4312  133.1295  153.5295 C   0  0  0  0  0  0  0  0  0  0  0  0
  148.9951  132.0269  154.2049 C   0  0  0  0  0  0  0  0  0  0  0  0
  148.4264  130.7511  154.0192 C   0  0  0  0  0  0  0  0  0  0  0  0
  147.3655  130.5217  153.2176 N   0  0  0  0  0  0  0  0  0  0  0  0
  146.8333  131.5750  152.5626 C   0  0  0  0  0  0  0  0  0  0  0  0
  147.3252  132.8909  152.6774 C   0  0  0  0  0  0  0  0  0  0  0  0
  150.2159  136.0873  154.5417 N   0  0  0  0  0  0  0  0  0  0  0  0
  151.1003  136.8551  155.4148 C   0  0  2  0  0  0  0  0  0  0  0  0
  150.5303  136.8839  156.8452 C   0  0  0  0  0  0  0  0  0  0  0  0
  151.3850  137.7606  157.7755 C   0  0  0  0  0  0  0  0  0  0  0  0
  151.5338  139.1940  157.2238 C   0  0  1  0  0  0  0  0  0  0  0  0
  152.3951  140.0549  158.1741 C   0  0  0  0  0  0  0  0  0  0  0  0
  153.5620  139.7126  158.3722 O   0  0  0  0  0  0  0  0  0  0  0  0
  151.8735  141.1728  158.7408 N   0  0  0  0  0  0  0  0  0  0  0  0
  152.7041  142.1437  159.4644 C   0  0  0  0  0  0  0  0  0  0  0  0
  152.9883  143.3406  158.5406 C   0  0  0  0  0  0  0  0  0  0  0  0
  151.4475  144.1893  158.0674 S   0  0  0  0  0  0  0  0  0  0  0  0
  150.4526  142.7589  157.5386 C   0  0  0  0  0  0  0  0  0  0  0  0
  150.4916  141.6469  158.5992 C   0  0  0  0  0  0  0  0  0  0  0  0
  152.1250  139.1476  155.7962 C   0  0  0  0  0  0  0  0  0  0  0  0
  151.2629  138.2828  154.8624 C   0  0  0  0  0  0  0  0  0  0  0  0
  148.8784  135.0697  152.9899 H   0  0  0  0  0  0  0  0  0  0  0  0
  149.8459  132.1516  154.8589 H   0  0  0  0  0  0  0  0  0  0  0  0
  148.8363  129.8914  154.5283 H   0  0  0  0  0  0  0  0  0  0  0  0
  145.9905  131.3631  151.9213 H   0  0  0  0  0  0  0  0  0  0  0  0
  146.8525  133.6742  152.1065 H   0  0  0  0  0  0  0  0  0  0  0  0
  149.8669  136.5664  153.7246 H   0  0  0  0  0  0  0  0  0  0  0  0
  152.0896  136.3954  155.4517 H   0  0  0  0  0  0  0  0  0  0  0  0
  149.5087  137.2665  156.8293 H   0  0  0  0  0  0  0  0  0  0  0  0
  150.4745  135.8707  157.2451 H   0  0  0  0  0  0  0  0  0  0  0  0
  150.9330  137.7812  158.7679 H   0  0  0  0  0  0  0  0  0  0  0  0
  152.3687  137.3039  157.8970 H   0  0  0  0  0  0  0  0  0  0  0  0
  150.5464  139.6403  157.1159 H   0  0  0  0  0  0  0  0  0  0  0  0
  152.1960  142.4781  160.3701 H   0  0  0  0  0  0  0  0  0  0  0  0
  153.6452  141.7113  159.8066 H   0  0  0  0  0  0  0  0  0  0  0  0
  153.6441  144.0564  159.0364 H   0  0  0  0  0  0  0  0  0  0  0  0
  153.5023  143.0085  157.6377 H   0  0  0  0  0  0  0  0  0  0  0  0
  149.4275  143.0892  157.3704 H   0  0  0  0  0  0  0  0  0  0  0  0
  150.8323  142.3923  156.5843 H   0  0  0  0  0  0  0  0  0  0  0  0
  149.7923  140.8491  158.3536 H   0  0  0  0  0  0  0  0  0  0  0  0
  150.1334  142.0372  159.5529 H   0  0  0  0  0  0  0  0  0  0  0  0
  152.2013  140.1566  155.3888 H   0  0  0  0  0  0  0  0  0  0  0  0
  153.1384  138.7433  155.8134 H   0  0  0  0  0  0  0  0  0  0  0  0
  151.7159  138.2501  153.8706 H   0  0  0  0  0  0  0  0  0  0  0  0
  150.2838  138.7483  154.7400 H   0  0  0  0  0  0  0  0  0  0  0  0
  1  2  2  0  0  0  0
  2  3  1  0  0  0  0
  2 10  1  0  0  0  0
  3  4  1  0  0  0  0
  3 25  1  0  0  0  0
  4  9  1  0  0  0  0
  4  5  2  0  0  0  0
  5  6  1  0  0  0  0
  5 26  1  0  0  0  0
  6  7  2  0  0  0  0
  6 27  1  0  0  0  0
  7  8  1  0  0  0  0
  8  9  2  0  0  0  0
  8 28  1  0  0  0  0
  9 29  1  0  0  0  0
 10 11  1  0  0  0  0
 10 30  1  0  0  0  0
 11 24  1  0  0  0  0
 11 12  1  0  0  0  0
 11 31  1  0  0  0  0
 12 13  1  0  0  0  0
 12 32  1  0  0  0  0
 12 33  1  0  0  0  0
 13 14  1  0  0  0  0
 13 34  1  0  0  0  0
 13 35  1  0  0  0  0
 14 15  1  0  0  0  0
 14 23  1  0  0  0  0
 14 36  1  0  0  0  0
 15 16  2  0  0  0  0
 15 17  1  0  0  0  0
 17 22  1  0  0  0  0
 17 18  1  0  0  0  0
 18 19  1  0  0  0  0
 18 37  1  0  0  0  0
 18 38  1  0  0  0  0
 19 20  1  0  0  0  0
 19 39  1  0  0  0  0
 19 40  1  0  0  0  0
 20 21  1  0  0  0  0
 21 22  1  0  0  0  0
 21 41  1  0  0  0  0
 21 42  1  0  0  0  0
 22 43  1  0  0  0  0
 22 44  1  0  0  0  0
 23 24  1  0  0  0  0
 23 45  1  0  0  0  0
 23 46  1  0  0  0  0
 24 47  1  0  0  0  0
 24 48  1  0  0  0  0
M  END
> <s_m_source_file>
AV-unprocessed.smi

> <i_m_source_file_index>
1080

> <i_lp_mmshare_version>
43012

> <i_f3d_flags>
0

> <s_epik_input>
W2NIXTFbY0hdbltjSF1bY0hdYzFbTkhdQyg9TylbTkhdW0NAQEhdMltDSDJdW0NIMl1bQ0BIXShbQ0gyXVtDSDJdMilDKD1PKU4zW0NIMl1bQ0gyXVNbQ0gyXVtDSDJdMw==

> <s_epik_cmdline>
J2VwaWtfcHl0aG9uJywgJy1waCcsICc3LjAnLCAnLXRuJywgJzgnLCAnLW1hJywgJzIwMCcsICctbWV0YWxfYmluZGluZycsICctaW1hZScsICc8aW5maWxlLm1hZT4nLCAnLW9tYWUnLCAnPG91dGZpbGUubWFlPic=

> <r_epik_Ionization_Penalty>
0.118325

> <r_epik_Ionization_Penalty_Charging>
0

> <r_epik_Ionization_Penalty_Neutral>
0.118325

> <r_epik_State_Penalty>
0.107868

> <r_epik_Charging_Adjusted_Penalty>
0.107868

> <i_epik_Tot_Q>
0

> <i_epik_Tot_abs_Q>
0

> <r_epik_Metal_State_Penalty>
0.0897632

> <b_epik_Metal_Only>
0

> <s_lp_Force_Field>
OPLS_2005

> <r_lp_Energy>
33.2651

> <b_lp_Chiralities_Consistent>
1

> <s_lp_Variant>
AV-unprocessed.smi:1080-1

> <Gold.Version>
5.8.1

> <Gold.Id.Protein>
6NUR|6NUR_protein|mol2

> <Gold.PLP.Fitness>
48.1922

> <Gold.PLP.PLP>
-40.0103

> <Gold.PLP.part.hbond>
-3.4481

> <Gold.PLP.part.metal>
0.0000

> <Gold.PLP.part.buried>
-2.2214

> <Gold.PLP.part.nonpolar>
-34.7280

> <Gold.PLP.part.repulsive>
0.2197

> <Gold.PLP.ligand.clash>
0.0000

> <Gold.PLP.ligand.torsion>
0.1172

> <Gold.PLP.Chemscore.Hbond>
2.7855

> <Gold.PLP.Chemscore.CHOScore>
0.0000

> <Gold.PLP.Chemscore.Metal>
0.0000

> <Gold.Chemscore.Hbonds>
donor molecule, donor type, donor heavy atom, donor atom, acceptor molecule, acceptor atom, score
      L1  H     3    25       P1  7948  1.00
      L1  H    10    30       P1  7948  0.77
      P1  H  7997  8010       L1    16  1.00

> <Gold.PLP.Chemscore.Internal.Correction>
0.0598

> <Gold.Rescore>
     Score         DG    S(hbond)    S(metal)    S(lipo)     H(rot)  DE(clash)    DE(int)     intcor
     20.18     -21.80       2.13        0.00     105.85       1.23       0.15       1.47       ----

> <Gold.Chemscore.Fitness>
20.1847

> <Gold.Chemscore.DG>
-21.8045

> <Gold.Chemscore.ZeroCoef>
-5.4800

> <Gold.Chemscore.Hbond>
2.1257

> <Gold.Chemscore.Metal>
0.0000

> <Gold.Chemscore.Lipo>
105.8530

> <Gold.Chemscore.Internal_Hbond>
0.0000

> <Gold.Chemscore.DEClash>
0.1507

> <Gold.Chemscore.DEInternal>
1.4691

> <Gold.Chemscore.Rot>
1.2344

> <Gold.Chemscore.Internal.Correction>
   9.000000E+99

> <Gold.Chemscore.Hbonds>
donor molecule, donor type, donor heavy atom, donor atom, acceptor molecule, acceptor atom, score
      L1  H     3    25       P1  7948  0.25
      L1  H    10    30       P1  7948  0.26
      P1  H  7997  8010       L1    16  0.98

> <Gold.Chemscore.Hbond.Weighted>
-7.0997

> <Gold.Chemscore.Metal.Weighted>
-0.0000

> <Gold.Chemscore.Lipo.Weighted>
-12.3848

> <Gold.Chemscore.Internal_Hbond.Weighted>
0.0000

> <Gold.Chemscore.DEClash.Weighted>
0.1507

> <Gold.Chemscore.DEInternal.Weighted>
1.4691

> <Gold.Chemscore.Rot.Weighted>
3.1600

> <Gold.Chemscore.Internal.Correction.Weighted>
   9.000000E+99

> <Gold.Protein.RotatedTorsions>
[ 6907 6896 6895 6894 ] final   92.67 input  -60.11 | X-H torsion
[ 7974 7965 7964 7962 ] final  -62.19 input  175.53 | X-H torsion
[ 8008 7997 7996 7995 ] final   17.01 input   59.86 | X-H torsion
[ 10167 10162 10161 10158 ] final  -10.63 input  -65.29 | X-H torsion
[ 10718 10713 10712 10709 ] final  -41.57 input   66.30 | X-H torsion
[ 10763 10752 10751 10750 ] final  -45.37 input  -60.55 | X-H torsion
[ 11005 11000 10999 10996 ] final  160.53 input  -57.11 | X-H torsion

> <Gold.Protein.ActiveResidues>
 VAL166  LYS551  ARG553  GLY616  TRP617  ASP618  TYR619  PRO620  LYS621  CYS622 
 ASP623  PHE694  ASN695  SER759  ASP760  ASP761  ALA762  ILE779  LEU786  VAL792 
 PHE793  MET794  SER795  GLU796  ALA797  LYS798  CYS799  TRP800  GLU811  SER814 

> <Gold.Protein.RotatedAtoms>
  152.5453  134.1466  159.8500 H   0  0  0  0  0  0  0  0  0  0  0  0  # atno 6907 bound_to 6896
  151.1497  133.4908  159.2603 H   0  0  0  0  0  0  0  0  0  0  0  0  # atno 6908 bound_to 6896
  151.1485  135.0226  159.8712 H   0  0  0  0  0  0  0  0  0  0  0  0  # atno 6909 bound_to 6896
  145.7943  140.8692  143.0264 H   0  0  0  0  0  0  0  0  0  0  0  0  # atno 7974 bound_to 7965
  154.8852  140.2979  155.5402 H   0  0  0  0  0  0  0  0  0  0  0  0  # atno 8008 bound_to 7997
  156.3021  140.2435  156.3794 H   0  0  0  0  0  0  0  0  0  0  0  0  # atno 8009 bound_to 7997
  154.8675  140.0403  157.1693 H   0  0  0  0  0  0  0  0  0  0  0  0  # atno 8010 bound_to 7997
  140.7119  143.5727  150.9075 H   0  0  0  0  0  0  0  0  0  0  0  0  # atno 10167 bound_to 10162
  156.2689  130.4204  149.8460 H   0  0  0  0  0  0  0  0  0  0  0  0  # atno 10718 bound_to 10713
  154.0273  135.6661  153.4777 H   0  0  0  0  0  0  0  0  0  0  0  0  # atno 10763 bound_to 10752
  153.0555  135.5059  154.7966 H   0  0  0  0  0  0  0  0  0  0  0  0  # atno 10764 bound_to 10752
  154.6900  135.3059  154.9458 H   0  0  0  0  0  0  0  0  0  0  0  0  # atno 10765 bound_to 10752
  140.2069  134.8297  157.3078 H   0  0  0  0  0  0  0  0  0  0  0  0  # atno 11005 bound_to 11000
  144.6777  140.0168  143.7484 LP  0  0  0  0  0  0  0  0  0  0  0  0  # atno 17320 bound_to 7965
  145.9944  139.3041  143.0965 LP  0  0  0  0  0  0  0  0  0  0  0  0  # atno 17321 bound_to 7965
  139.9453  143.6335  152.3043 LP  0  0  0  0  0  0  0  0  0  0  0  0  # atno 17342 bound_to 10162
  139.6834  144.7653  151.1567 LP  0  0  0  0  0  0  0  0  0  0  0  0  # atno 17343 bound_to 10162
  156.5948  130.8522  151.3417 LP  0  0  0  0  0  0  0  0  0  0  0  0  # atno 17370 bound_to 10713
  157.7277  130.9646  150.1710 LP  0  0  0  0  0  0  0  0  0  0  0  0  # atno 17371 bound_to 10713
  140.1993  134.4274  155.7671 LP  0  0  0  0  0  0  0  0  0  0  0  0  # atno 17394 bound_to 11000
  141.2227  133.7064  156.8158 LP  0  0  0  0  0  0  0  0  0  0  0  0  # atno 17395 bound_to 11000

$$$$
