AV-unprocessed.smi:1767|AV-procd|sdf|7140|dock4
  -GOLD-   22720 8383D 1   1.00000     0.00000
 Structure written by MMmdl.
 32 34  0  0  0  0  0  0  0  0  1 V2000
  150.2073  140.5165  154.1887 O   0  0  0  0  0  0  0  0  0  0  0  0
  149.6256  140.8614  155.4292 C   0  0  1  0  0  0  0  0  0  0  0  0
  150.4507  142.0058  156.0502 C   0  0  0  0  0  0  0  0  0  0  0  0
  151.1297  141.5961  157.2665 N   0  0  0  0  0  0  0  0  0  0  0  0
  151.6484  140.3818  157.5316 C   0  0  0  0  0  0  0  0  0  0  0  0
  152.2217  140.2092  158.7189 N   0  0  0  0  0  0  0  0  0  0  0  0
  152.0571  141.4582  159.2926 C   0  0  0  0  0  0  0  0  0  0  0  0
  152.4429  141.9413  160.5635 C   0  0  0  0  0  0  0  0  0  0  0  0
  152.1604  143.2714  160.9382 C   0  0  0  0  0  0  0  0  0  0  0  0
  151.4902  144.1376  160.0500 C   0  0  0  0  0  0  0  0  0  0  0  0
  151.0979  143.6795  158.7777 C   0  0  0  0  0  0  0  0  0  0  0  0
  151.3798  142.3511  158.4080 C   0  0  0  0  0  0  0  0  0  0  0  0
  148.1516  141.2191  155.2945 C   0  0  0  0  0  0  0  0  0  0  0  0
  147.3476  141.3382  156.4486 C   0  0  0  0  0  0  0  0  0  0  0  0
  145.9911  141.6991  156.3353 C   0  0  0  0  0  0  0  0  0  0  0  0
  145.4301  141.9421  155.0668 C   0  0  0  0  0  0  0  0  0  0  0  0
  144.1265  142.2915  154.9579 F   0  0  0  0  0  0  0  0  0  0  0  0
  146.2264  141.8234  153.9117 C   0  0  0  0  0  0  0  0  0  0  0  0
  147.5831  141.4632  154.0245 C   0  0  0  0  0  0  0  0  0  0  0  0
  149.6789  139.8430  153.7879 H   0  0  0  0  0  0  0  0  0  0  0  0
  149.7132  139.9783  156.0637 H   0  0  0  0  0  0  0  0  0  0  0  0
  151.2108  142.3444  155.3445 H   0  0  0  0  0  0  0  0  0  0  0  0
  149.8212  142.8701  156.2669 H   0  0  0  0  0  0  0  0  0  0  0  0
  151.5978  139.5773  156.8124 H   0  0  0  0  0  0  0  0  0  0  0  0
  152.9560  141.2866  161.2523 H   0  0  0  0  0  0  0  0  0  0  0  0
  152.4591  143.6289  161.9128 H   0  0  0  0  0  0  0  0  0  0  0  0
  151.2766  145.1542  160.3461 H   0  0  0  0  0  0  0  0  0  0  0  0
  150.5816  144.3398  158.0970 H   0  0  0  0  0  0  0  0  0  0  0  0
  147.7717  141.1645  157.4268 H   0  0  0  0  0  0  0  0  0  0  0  0
  145.3819  141.7929  157.2221 H   0  0  0  0  0  0  0  0  0  0  0  0
  145.7976  142.0126  152.9388 H   0  0  0  0  0  0  0  0  0  0  0  0
  148.1880  141.3845  153.1330 H   0  0  0  0  0  0  0  0  0  0  0  0
  1  2  1  0  0  0  0
  1 20  1  0  0  0  0
  2  3  1  0  0  0  0
  2 13  1  0  0  0  0
  2 21  1  0  0  0  0
  3  4  1  0  0  0  0
  3 22  1  0  0  0  0
  3 23  1  0  0  0  0
  4 12  1  0  0  0  0
  4  5  1  0  0  0  0
  5  6  2  0  0  0  0
  5 24  1  0  0  0  0
  6  7  1  0  0  0  0
  7 12  2  0  0  0  0
  7  8  1  0  0  0  0
  8  9  2  0  0  0  0
  8 25  1  0  0  0  0
  9 10  1  0  0  0  0
  9 26  1  0  0  0  0
 10 11  2  0  0  0  0
 10 27  1  0  0  0  0
 11 12  1  0  0  0  0
 11 28  1  0  0  0  0
 13 19  1  0  0  0  0
 13 14  2  0  0  0  0
 14 15  1  0  0  0  0
 14 29  1  0  0  0  0
 15 16  2  0  0  0  0
 15 30  1  0  0  0  0
 16 17  1  0  0  0  0
 16 18  1  0  0  0  0
 18 19  2  0  0  0  0
 18 31  1  0  0  0  0
 19 32  1  0  0  0  0
M  END
> <s_m_source_file>
AV-unprocessed.smi

> <i_m_source_file_index>
1767

> <i_lp_mmshare_version>
43012

> <i_f3d_flags>
0

> <s_epik_input>
W2NIXTFbY0hdYyhGKVtjSF1bY0hdYzFbQ0BIXShbT0hdKVtDSDJdbihbY0hdbjIpYyhjMjMpW2NIXVtjSF1bY0hdW2NIXTM=

> <s_epik_cmdline>
J2VwaWtfcHl0aG9uJywgJy1waCcsICc3LjAnLCAnLXRuJywgJzgnLCAnLW1hJywgJzIwMCcsICctbWV0YWxfYmluZGluZycsICctaW1hZScsICc8aW5maWxlLm1hZT4nLCAnLW9tYWUnLCAnPG91dGZpbGUubWFlPic=

> <r_epik_Ionization_Penalty>
0.0696514

> <r_epik_Ionization_Penalty_Charging>
0

> <r_epik_Ionization_Penalty_Neutral>
0.0696514

> <r_epik_State_Penalty>
0.0610247

> <r_epik_Charging_Adjusted_Penalty>
0.0610247

> <i_epik_Tot_Q>
0

> <i_epik_Tot_abs_Q>
0

> <r_epik_Metal_State_Penalty>
6.42746e-05

> <b_epik_Metal_Only>
0

> <s_lp_Force_Field>
OPLS_2005

> <r_lp_Energy>
11.9243

> <b_lp_Chiralities_Consistent>
1

> <s_lp_Variant>
AV-unprocessed.smi:1767-2

> <Gold.Version>
5.8.1

> <Gold.Id.Protein>
6NUR|6NUR_protein|mol2

> <Gold.PLP.Fitness>
45.1440

> <Gold.PLP.PLP>
-44.9234

> <Gold.PLP.part.hbond>
-1.5973

> <Gold.PLP.part.metal>
0.0000

> <Gold.PLP.part.buried>
-5.9998

> <Gold.PLP.part.nonpolar>
-37.1026

> <Gold.PLP.part.repulsive>
0.0000

> <Gold.PLP.ligand.clash>
0.0000

> <Gold.PLP.ligand.torsion>
1.3417

> <Gold.PLP.Chemscore.Hbond>
0.9600

> <Gold.PLP.Chemscore.CHOScore>
0.0000

> <Gold.PLP.Chemscore.Metal>
0.0000

> <Gold.Chemscore.Hbonds>
donor molecule, donor type, donor heavy atom, donor atom, acceptor molecule, acceptor atom, score
      P1  H  7989  7998       L1     1  0.83

> <Gold.PLP.Chemscore.Internal.Correction>
0.0241

> <Gold.Rescore>
     Score         DG    S(hbond)    S(metal)    S(lipo)     H(rot)  DE(clash)    DE(int)     intcor
     15.77     -17.17       0.99        0.00     113.59       1.91       0.14       1.26       ----

> <Gold.Chemscore.Fitness>
15.7669

> <Gold.Chemscore.DG>
-17.1695

> <Gold.Chemscore.ZeroCoef>
-5.4800

> <Gold.Chemscore.Hbond>
0.9861

> <Gold.Chemscore.Metal>
0.0000

> <Gold.Chemscore.Lipo>
113.5870

> <Gold.Chemscore.Internal_Hbond>
0.0000

> <Gold.Chemscore.DEClash>
0.1418

> <Gold.Chemscore.DEInternal>
1.2608

> <Gold.Chemscore.Rot>
1.9116

> <Gold.Chemscore.Internal.Correction>
   9.000000E+99

> <Gold.Chemscore.Hbonds>
donor molecule, donor type, donor heavy atom, donor atom, acceptor molecule, acceptor atom, score
      P1  H  7989  7998       L1     1  0.79

> <Gold.Chemscore.Hbond.Weighted>
-3.2935

> <Gold.Chemscore.Metal.Weighted>
-0.0000

> <Gold.Chemscore.Lipo.Weighted>
-13.2897

> <Gold.Chemscore.Internal_Hbond.Weighted>
0.0000

> <Gold.Chemscore.DEClash.Weighted>
0.1418

> <Gold.Chemscore.DEInternal.Weighted>
1.2608

> <Gold.Chemscore.Rot.Weighted>
4.8937

> <Gold.Chemscore.Internal.Correction.Weighted>
   9.000000E+99

> <Gold.Protein.RotatedTorsions>
[ 6907 6896 6895 6894 ] final  -94.97 input  -60.11 | X-H torsion
[ 7974 7965 7964 7962 ] final  140.22 input  175.53 | X-H torsion
[ 8008 7997 7996 7995 ] final  -82.90 input   59.86 | X-H torsion
[ 10167 10162 10161 10158 ] final   64.70 input  -65.29 | X-H torsion
[ 10718 10713 10712 10709 ] final -170.99 input   66.30 | X-H torsion
[ 10763 10752 10751 10750 ] final    1.97 input  -60.55 | X-H torsion
[ 11005 11000 10999 10996 ] final   38.11 input  -57.11 | X-H torsion

> <Gold.Protein.ActiveResidues>
 VAL166  LYS551  ARG553  GLY616  TRP617  ASP618  TYR619  PRO620  LYS621  CYS622 
 ASP623  PHE694  ASN695  SER759  ASP760  ASP761  ALA762  ILE779  LEU786  VAL792 
 PHE793  MET794  SER795  GLU796  ALA797  LYS798  CYS799  TRP800  GLU811  SER814 

> <Gold.Protein.RotatedAtoms>
  150.6953  134.1730  159.4219 H   0  0  0  0  0  0  0  0  0  0  0  0  # atno 6907 bound_to 6896
  151.9707  135.0075  160.0562 H   0  0  0  0  0  0  0  0  0  0  0  0  # atno 6908 bound_to 6896
  152.1844  133.4694  159.5011 H   0  0  0  0  0  0  0  0  0  0  0  0  # atno 6909 bound_to 6896
  144.9207  139.5172  143.5665 H   0  0  0  0  0  0  0  0  0  0  0  0  # atno 7974 bound_to 7965
  154.6135  140.0626  156.9524 H   0  0  0  0  0  0  0  0  0  0  0  0  # atno 8008 bound_to 7997
  155.1935  140.3309  155.4336 H   0  0  0  0  0  0  0  0  0  0  0  0  # atno 8009 bound_to 7997
  156.2390  140.1877  156.7023 H   0  0  0  0  0  0  0  0  0  0  0  0  # atno 8010 bound_to 7997
  140.1194  144.4746  150.6930 H   0  0  0  0  0  0  0  0  0  0  0  0  # atno 10167 bound_to 10162
  156.7343  130.9318  151.3106 H   0  0  0  0  0  0  0  0  0  0  0  0  # atno 10718 bound_to 10713
  153.3014  135.6956  153.7200 H   0  0  0  0  0  0  0  0  0  0  0  0  # atno 10763 bound_to 10752
  153.6112  135.3444  155.2980 H   0  0  0  0  0  0  0  0  0  0  0  0  # atno 10764 bound_to 10752
  154.8551  135.4364  154.2126 H   0  0  0  0  0  0  0  0  0  0  0  0  # atno 10765 bound_to 10752
  140.2159  134.3699  155.8027 H   0  0  0  0  0  0  0  0  0  0  0  0  # atno 11005 bound_to 11000
  146.3203  139.8084  142.8951 LP  0  0  0  0  0  0  0  0  0  0  0  0  # atno 17320 bound_to 7965
  145.3301  141.0264  143.3451 LP  0  0  0  0  0  0  0  0  0  0  0  0  # atno 17321 bound_to 7965
  140.6881  143.2361  151.5206 LP  0  0  0  0  0  0  0  0  0  0  0  0  # atno 17342 bound_to 10162
  139.5577  144.2234  152.1639 LP  0  0  0  0  0  0  0  0  0  0  0  0  # atno 17343 bound_to 10162
  157.6846  130.9172  150.0352 LP  0  0  0  0  0  0  0  0  0  0  0  0  # atno 17370 bound_to 10713
  156.1508  130.3642  149.9442 LP  0  0  0  0  0  0  0  0  0  0  0  0  # atno 17371 bound_to 10713
  141.2225  133.7167  156.8495 LP  0  0  0  0  0  0  0  0  0  0  0  0  # atno 17394 bound_to 11000
  140.1901  134.8971  157.3051 LP  0  0  0  0  0  0  0  0  0  0  0  0  # atno 17395 bound_to 11000

$$$$
