AV-unprocessed.smi:3029|AV-procd|sdf|11532|dock2
  -GOLD-   2272016473D 1   1.00000     0.00000
 Structure written by MMmdl.
 41 42  0  0  0  0  0  0  0  0  3 V2000
  151.2782  136.0399  155.5764 O   0  0  0  0  0  0  0  0  0  0  0  0
  150.5592  136.0565  156.5756 C   0  0  0  0  0  0  0  0  0  0  0  0
  149.4853  135.0774  156.7731 C   0  0  0  0  0  0  0  0  0  0  0  0
  148.6948  135.1029  157.8640 C   0  0  0  0  0  0  0  0  0  0  0  0
  148.8861  136.1123  158.8871 C   0  0  0  0  0  0  0  0  0  0  0  0
  148.0393  136.1541  160.0588 N   0  3  0  0  0  0  0  0  0  0  0  0
  147.2564  135.2306  160.2608 O   0  0  0  0  0  0  0  0  0  0  0  0
  148.1303  137.1144  160.8167 O   0  5  0  0  0  0  0  0  0  0  0  0
  149.8751  137.0089  158.7045 C   0  0  0  0  0  0  0  0  0  0  0  0
  150.7050  136.9879  157.5670 N   0  0  0  0  0  0  0  0  0  0  0  0
  151.7318  138.0383  157.4831 C   0  0  0  0  0  0  0  0  0  0  0  0
  151.1255  139.4482  157.6064 C   0  0  0  0  0  0  0  0  0  0  0  0
  151.5863  140.0926  158.8277 N   0  0  0  0  0  0  0  0  0  0  0  0
  152.1375  141.4213  158.5912 C   0  0  1  0  0  0  0  0  0  0  0  0
  151.0308  142.2912  157.9508 C   0  0  0  0  0  0  0  0  0  0  0  0
  151.4689  143.7506  157.7824 C   0  0  0  0  0  0  0  0  0  0  0  0
  151.9021  144.3411  159.1273 C   0  0  0  0  0  0  0  0  0  0  0  0
  153.0312  143.5070  159.7460 C   0  0  0  0  0  0  0  0  0  0  0  0
  152.6402  142.0220  159.9366 C   0  0  2  0  0  0  0  0  0  0  0  0
  153.8298  141.2387  160.5525 C   0  0  0  0  0  0  0  0  0  0  0  0
  154.0791  141.6627  161.7920 F   0  0  0  0  0  0  0  0  0  0  0  0
  153.5402  139.9381  160.5985 F   0  0  0  0  0  0  0  0  0  0  0  0
  154.9387  141.3718  159.8251 F   0  0  0  0  0  0  0  0  0  0  0  0
  149.3246  134.3177  156.0224 H   0  0  0  0  0  0  0  0  0  0  0  0
  147.9163  134.3607  157.9644 H   0  0  0  0  0  0  0  0  0  0  0  0
  150.0977  137.8032  159.4026 H   0  0  0  0  0  0  0  0  0  0  0  0
  152.4453  137.8896  158.2949 H   0  0  0  0  0  0  0  0  0  0  0  0
  152.3297  137.9615  156.5733 H   0  0  0  0  0  0  0  0  0  0  0  0
  151.3945  140.0516  156.7383 H   0  0  0  0  0  0  0  0  0  0  0  0
  150.0385  139.3740  157.6221 H   0  0  0  0  0  0  0  0  0  0  0  0
  150.8499  140.1285  159.5185 H   0  0  0  0  0  0  0  0  0  0  0  0
  152.9871  141.3530  157.9102 H   0  0  0  0  0  0  0  0  0  0  0  0
  150.7464  141.8950  156.9760 H   0  0  0  0  0  0  0  0  0  0  0  0
  150.1316  142.2607  158.5683 H   0  0  0  0  0  0  0  0  0  0  0  0
  152.2926  143.8087  157.0698 H   0  0  0  0  0  0  0  0  0  0  0  0
  150.6522  144.3386  157.3627 H   0  0  0  0  0  0  0  0  0  0  0  0
  152.2325  145.3715  158.9916 H   0  0  0  0  0  0  0  0  0  0  0  0
  151.0514  144.3748  159.8091 H   0  0  0  0  0  0  0  0  0  0  0  0
  153.9150  143.5755  159.1105 H   0  0  0  0  0  0  0  0  0  0  0  0
  153.3098  143.9476  160.7033 H   0  0  0  0  0  0  0  0  0  0  0  0
  151.8160  141.9930  160.6516 H   0  0  0  0  0  0  0  0  0  0  0  0
  1  2  2  0  0  0  0
  2 10  1  0  0  0  0
  2  3  1  0  0  0  0
  3  4  2  0  0  0  0
  3 24  1  0  0  0  0
  4  5  1  0  0  0  0
  4 25  1  0  0  0  0
  5  6  1  0  0  0  0
  5  9  2  0  0  0  0
  6  7  2  0  0  0  0
  6  8  1  0  0  0  0
  9 10  1  0  0  0  0
  9 26  1  0  0  0  0
 10 11  1  0  0  0  0
 11 12  1  0  0  0  0
 11 27  1  0  0  0  0
 11 28  1  0  0  0  0
 12 13  1  0  0  0  0
 12 29  1  0  0  0  0
 12 30  1  0  0  0  0
 13 14  1  0  0  0  0
 13 31  1  0  0  0  0
 14 19  1  0  0  0  0
 14 15  1  0  0  0  0
 14 32  1  0  0  0  0
 15 16  1  0  0  0  0
 15 33  1  0  0  0  0
 15 34  1  0  0  0  0
 16 17  1  0  0  0  0
 16 35  1  0  0  0  0
 16 36  1  0  0  0  0
 17 18  1  0  0  0  0
 17 37  1  0  0  0  0
 17 38  1  0  0  0  0
 18 19  1  0  0  0  0
 18 39  1  0  0  0  0
 18 40  1  0  0  0  0
 19 20  1  0  0  0  0
 19 41  1  0  0  0  0
 20 21  1  0  0  0  0
 20 22  1  0  0  0  0
 20 23  1  0  0  0  0
M  CHG  1   6   1
M  CHG  1   8  -1
M  END
> <s_m_source_file>
AV-unprocessed.smi

> <i_m_source_file_index>
3029

> <i_lp_mmshare_version>
43012

> <i_f3d_flags>
0

> <s_epik_input>
Tz1jMVtjSF1bY0hdYyhbTitdKD1PKVtPLV0pW2NIXW4xW0NIMl1bQ0gyXVtOSF1bQ0BASF0yW0NIMl1bQ0gyXVtDSDJdW0NIMl1bQ0BIXTJDKEYpKEYpRg==

> <s_epik_cmdline>
J2VwaWtfcHl0aG9uJywgJy1waCcsICc3LjAnLCAnLXRuJywgJzgnLCAnLW1hJywgJzIwMCcsICctbWV0YWxfYmluZGluZycsICctaW1hZScsICc8aW5maWxlLm1hZT4nLCAnLW9tYWUnLCAnPG91dGZpbGUubWFlPic=

> <r_lp_tautomer_probability>
1

> <r_epik_Ionization_Penalty>
1.65565

> <r_epik_Ionization_Penalty_Charging>
3.32684e-10

> <r_epik_Ionization_Penalty_Neutral>
1.65565

> <r_epik_State_Penalty>
1.75811

> <r_epik_Charging_Adjusted_Penalty>
1.75811

> <i_epik_Tot_Q>
0

> <i_epik_Tot_abs_Q>
2

> <r_epik_Metal_State_Penalty>
1.75811

> <b_epik_Metal_Only>
0

> <s_lp_Force_Field>
OPLS_2005

> <r_lp_Energy>
36.7279

> <b_lp_Chiralities_Consistent>
1

> <s_lp_Variant>
AV-unprocessed.smi:3029-8

> <Gold.Version>
5.8.1

> <Gold.Id.Protein>
6NUR|6NUR_protein|mol2

> <Gold.PLP.Fitness>
47.6985

> <Gold.PLP.PLP>
-41.5714

> <Gold.PLP.part.hbond>
-3.0000

> <Gold.PLP.part.metal>
0.0000

> <Gold.PLP.part.buried>
-4.7203

> <Gold.PLP.part.nonpolar>
-34.2083

> <Gold.PLP.part.repulsive>
0.0661

> <Gold.PLP.ligand.clash>
0.0000

> <Gold.PLP.ligand.torsion>
0.8686

> <Gold.PLP.Chemscore.Hbond>
2.6000

> <Gold.PLP.Chemscore.CHOScore>
0.0000

> <Gold.PLP.Chemscore.Metal>
0.0000

> <Gold.Chemscore.Hbonds>
donor molecule, donor type, donor heavy atom, donor atom, acceptor molecule, acceptor atom, score
      P1  H  6931  6943       L1     8  0.91
      P1  H  6934  6947       L1     8  0.54
      P1  H 10752 10763       L1     1  0.98

> <Gold.PLP.Chemscore.Internal.Correction>
0.0643

> <Gold.Rescore>
     Score         DG    S(hbond)    S(metal)    S(lipo)     H(rot)  DE(clash)    DE(int)     intcor
     17.94     -20.42       2.61        0.00      93.91       1.86       0.14       2.35       ----

> <Gold.Chemscore.Fitness>
17.9409

> <Gold.Chemscore.DG>
-20.4246

> <Gold.Chemscore.ZeroCoef>
-5.4800

> <Gold.Chemscore.Hbond>
2.6093

> <Gold.Chemscore.Metal>
0.0000

> <Gold.Chemscore.Lipo>
93.9067

> <Gold.Chemscore.Internal_Hbond>
0.0000

> <Gold.Chemscore.DEClash>
0.1364

> <Gold.Chemscore.DEInternal>
2.3473

> <Gold.Chemscore.Rot>
1.8584

> <Gold.Chemscore.Internal.Correction>
   9.000000E+99

> <Gold.Chemscore.Hbonds>
donor molecule, donor type, donor heavy atom, donor atom, acceptor molecule, acceptor atom, score
      P1  H  6931  6943       L1     8  0.90
      P1  H  6934  6947       L1     8  0.52
      P1  H 10752 10763       L1     1  0.87

> <Gold.Chemscore.Hbond.Weighted>
-8.7151

> <Gold.Chemscore.Metal.Weighted>
-0.0000

> <Gold.Chemscore.Lipo.Weighted>
-10.9871

> <Gold.Chemscore.Internal_Hbond.Weighted>
0.0000

> <Gold.Chemscore.DEClash.Weighted>
0.1364

> <Gold.Chemscore.DEInternal.Weighted>
2.3473

> <Gold.Chemscore.Rot.Weighted>
4.7576

> <Gold.Chemscore.Internal.Correction.Weighted>
   9.000000E+99

> <Gold.Protein.RotatedTorsions>
[ 6907 6896 6895 6894 ] final -156.02 input  -60.11 | X-H torsion
[ 7974 7965 7964 7962 ] final -134.44 input  175.53 | X-H torsion
[ 8008 7997 7996 7995 ] final   80.69 input   59.86 | X-H torsion
[ 10167 10162 10161 10158 ] final   16.51 input  -65.29 | X-H torsion
[ 10718 10713 10712 10709 ] final  135.72 input   66.30 | X-H torsion
[ 10763 10752 10751 10750 ] final   92.75 input  -60.55 | X-H torsion
[ 11005 11000 10999 10996 ] final -134.95 input  -57.11 | X-H torsion

> <Gold.Protein.ActiveResidues>
 VAL166  LYS551  ARG553  GLY616  TRP617  ASP618  TYR619  PRO620  LYS621  CYS622 
 ASP623  PHE694  ASN695  SER759  ASP760  ASP761  ALA762  ILE779  LEU786  VAL792 
 PHE793  MET794  SER795  GLU796  ALA797  LYS798  CYS799  TRP800  GLU811  SER814 

> <Gold.Protein.RotatedAtoms>
  151.2813  133.4208  159.2626 H   0  0  0  0  0  0  0  0  0  0  0  0  # atno 6907 bound_to 6896
  151.0358  134.9572  159.8146 H   0  0  0  0  0  0  0  0  0  0  0  0  # atno 6908 bound_to 6896
  152.5355  134.2772  159.9046 H   0  0  0  0  0  0  0  0  0  0  0  0  # atno 6909 bound_to 6896
  144.9102  140.6885  143.5029 H   0  0  0  0  0  0  0  0  0  0  0  0  # atno 7974 bound_to 7965
  155.8869  140.3441  155.5928 H   0  0  0  0  0  0  0  0  0  0  0  0  # atno 8008 bound_to 7997
  155.7656  140.0838  157.2153 H   0  0  0  0  0  0  0  0  0  0  0  0  # atno 8009 bound_to 7997
  154.4029  140.1528  156.2870 H   0  0  0  0  0  0  0  0  0  0  0  0  # atno 8010 bound_to 7997
  140.5792  143.9013  150.6776 H   0  0  0  0  0  0  0  0  0  0  0  0  # atno 10167 bound_to 10162
  157.4542  131.1068  150.9998 H   0  0  0  0  0  0  0  0  0  0  0  0  # atno 10718 bound_to 10713
  153.2227  135.4350  155.0507 H   0  0  0  0  0  0  0  0  0  0  0  0  # atno 10763 bound_to 10752
  154.8258  135.3360  154.6904 H   0  0  0  0  0  0  0  0  0  0  0  0  # atno 10764 bound_to 10752
  153.7335  135.7009  153.5039 H   0  0  0  0  0  0  0  0  0  0  0  0  # atno 10765 bound_to 10752
  140.8942  134.1772  157.4506 H   0  0  0  0  0  0  0  0  0  0  0  0  # atno 11005 bound_to 11000
  145.3467  139.1717  143.4457 LP  0  0  0  0  0  0  0  0  0  0  0  0  # atno 17320 bound_to 7965
  146.3155  140.3514  142.8656 LP  0  0  0  0  0  0  0  0  0  0  0  0  # atno 17321 bound_to 7965
  140.2508  143.3594  152.1407 LP  0  0  0  0  0  0  0  0  0  0  0  0  # atno 17342 bound_to 10162
  139.5160  144.6971  151.5599 LP  0  0  0  0  0  0  0  0  0  0  0  0  # atno 17343 bound_to 10162
  157.0817  130.5906  149.5422 LP  0  0  0  0  0  0  0  0  0  0  0  0  # atno 17370 bound_to 10713
  156.0000  130.5077  150.7626 LP  0  0  0  0  0  0  0  0  0  0  0  0  # atno 17371 bound_to 10713
  139.8733  134.9871  156.5355 LP  0  0  0  0  0  0  0  0  0  0  0  0  # atno 17394 bound_to 11000
  140.8309  133.8280  155.8983 LP  0  0  0  0  0  0  0  0  0  0  0  0  # atno 17395 bound_to 11000

$$$$
