AV-unprocessed.smi:2784|AV-procd|sdf|10740|dock3
  -GOLD-   2272015173D 1   1.00000     0.00000
 Structure written by MMmdl.
 31 32  0  0  0  0  0  0  0  0  1 V2000
  152.0461  144.9165  158.5610 C   0  0  0  0  0  0  0  0  0  0  0  0
  151.9056  143.5497  158.2100 O   0  0  0  0  0  0  0  0  0  0  0  0
  151.6955  142.6887  159.3261 C   0  0  2  0  0  0  0  0  0  0  0  0
  152.9274  142.8252  160.2224 C   0  0  0  0  0  0  0  0  0  0  0  0
  153.9553  141.8881  159.5951 C   0  0  0  0  0  0  0  0  0  0  0  0
  153.1369  140.6936  159.0986 C   0  0  0  0  0  0  0  0  0  0  0  0
  151.6957  141.2026  158.8964 C   0  0  2  0  0  0  0  0  0  0  0  0
  151.2589  141.0054  157.5152 N   0  0  0  0  0  0  0  0  0  0  0  0
  150.0903  141.4158  157.0004 C   0  0  0  0  0  0  0  0  0  0  0  0
  149.2557  142.0105  157.6899 O   0  0  0  0  0  0  0  0  0  0  0  0
  150.0204  141.0778  155.6567 N   0  0  0  0  0  0  0  0  0  0  0  0
  148.8789  141.1146  155.0418 C   0  0  0  0  0  0  0  0  0  0  0  0
  148.6257  140.8188  153.7120 N   0  0  0  0  0  0  0  0  0  0  0  0
  147.2873  140.9852  153.4859 C   0  0  0  0  0  0  0  0  0  0  0  0
  146.7199  141.3700  154.6253 C   0  0  0  0  0  0  0  0  0  0  0  0
  147.6687  141.4596  155.5987 O   0  0  0  0  0  0  0  0  0  0  0  0
  152.1634  145.5156  157.6582 H   0  0  0  0  0  0  0  0  0  0  0  0
  152.9277  145.0704  159.1845 H   0  0  0  0  0  0  0  0  0  0  0  0
  151.1708  145.2832  159.0979 H   0  0  0  0  0  0  0  0  0  0  0  0
  150.7881  142.9486  159.8752 H   0  0  0  0  0  0  0  0  0  0  0  0
  153.2837  143.8528  160.3013 H   0  0  0  0  0  0  0  0  0  0  0  0
  152.6876  142.4801  161.2291 H   0  0  0  0  0  0  0  0  0  0  0  0
  154.4315  142.3842  158.7484 H   0  0  0  0  0  0  0  0  0  0  0  0
  154.7401  141.5974  160.2939 H   0  0  0  0  0  0  0  0  0  0  0  0
  153.5723  140.2705  158.1920 H   0  0  0  0  0  0  0  0  0  0  0  0
  153.1410  139.9040  159.8510 H   0  0  0  0  0  0  0  0  0  0  0  0
  151.0501  140.6386  159.5723 H   0  0  0  0  0  0  0  0  0  0  0  0
  151.9043  140.5329  156.8990 H   0  0  0  0  0  0  0  0  0  0  0  0
  149.2810  140.5305  152.9999 H   0  0  0  0  0  0  0  0  0  0  0  0
  146.8722  140.8049  152.5051 H   0  0  0  0  0  0  0  0  0  0  0  0
  145.7017  141.6084  154.8945 H   0  0  0  0  0  0  0  0  0  0  0  0
  1  2  1  0  0  0  0
  1 17  1  0  0  0  0
  1 18  1  0  0  0  0
  1 19  1  0  0  0  0
  2  3  1  0  0  0  0
  3  7  1  0  0  0  0
  3  4  1  0  0  0  0
  3 20  1  0  0  0  0
  4  5  1  0  0  0  0
  4 21  1  0  0  0  0
  4 22  1  0  0  0  0
  5  6  1  0  0  0  0
  5 23  1  0  0  0  0
  5 24  1  0  0  0  0
  6  7  1  0  0  0  0
  6 25  1  0  0  0  0
  6 26  1  0  0  0  0
  7  8  1  0  0  0  0
  7 27  1  0  0  0  0
  8 28  1  0  0  0  0
  8  9  1  0  0  0  0
  9 11  1  0  0  0  0
  9 10  2  0  0  0  0
 11 12  2  0  0  0  0
 12 16  1  0  0  0  0
 12 13  1  0  0  0  0
 13 29  1  0  0  0  0
 13 14  1  0  0  0  0
 14 30  1  0  0  0  0
 14 15  2  0  0  0  0
 15 31  1  0  0  0  0
 15 16  1  0  0  0  0
M  END
> <s_m_source_file>
AV-unprocessed.smi

> <i_m_source_file_index>
2784

> <i_lp_mmshare_version>
43012

> <i_f3d_flags>
0

> <s_epik_input>
W0NIM11PW0NAQEhdMVtDSDJdW0NIMl1bQ0gyXVtDQEhdMVtOSF1DKD1PKVtOSF1jMm5bY0hdW2NIXW8y

> <s_epik_cmdline>
J2VwaWtfcHl0aG9uJywgJy1waCcsICc3LjAnLCAnLXRuJywgJzgnLCAnLW1hJywgJzIwMCcsICctbWV0YWxfYmluZGluZycsICctaW1hZScsICc8aW5maWxlLm1hZT4nLCAnLW9tYWUnLCAnPG91dGZpbGUubWFlPic=

> <r_lp_tautomer_probability>
0.107061

> <r_epik_Ionization_Penalty>
1.29244

> <r_epik_Ionization_Penalty_Charging>
1.29208

> <r_epik_Ionization_Penalty_Neutral>
0.000359742

> <r_epik_State_Penalty>
2.59896

> <r_epik_Charging_Adjusted_Penalty>
3.89105

> <i_epik_Tot_Q>
0

> <i_epik_Tot_abs_Q>
0

> <r_epik_Metal_State_Penalty>
3.62496

> <b_epik_Metal_Only>
0

> <s_lp_Force_Field>
OPLS_2005

> <r_lp_Energy>
45.4205

> <b_lp_Chiralities_Consistent>
1

> <s_lp_Variant>
AV-unprocessed.smi:2784-15

> <Gold.Version>
5.8.1

> <Gold.Id.Protein>
6NUR|6NUR_protein|mol2

> <Gold.PLP.Fitness>
33.9896

> <Gold.PLP.PLP>
-31.2989

> <Gold.PLP.part.hbond>
-1.0000

> <Gold.PLP.part.metal>
0.0000

> <Gold.PLP.part.buried>
-7.4265

> <Gold.PLP.part.nonpolar>
-25.0154

> <Gold.PLP.part.repulsive>
2.0364

> <Gold.PLP.ligand.clash>
0.0000

> <Gold.PLP.ligand.torsion>
0.0773

> <Gold.PLP.Chemscore.Hbond>
0.9440

> <Gold.PLP.Chemscore.CHOScore>
0.0000

> <Gold.PLP.Chemscore.Metal>
0.0000

> <Gold.Chemscore.Hbonds>
donor molecule, donor type, donor heavy atom, donor atom, acceptor molecule, acceptor atom, score
      L1  H    13    29       P1  7957  0.98

> <Gold.PLP.Chemscore.Internal.Correction>
0.0134

> <Gold.Rescore>
     Score         DG    S(hbond)    S(metal)    S(lipo)     H(rot)  DE(clash)    DE(int)     intcor
     12.47     -14.10       0.96        0.00      75.20       1.32       0.01       1.62       ----

> <Gold.Chemscore.Fitness>
12.4703

> <Gold.Chemscore.DG>
-14.1040

> <Gold.Chemscore.ZeroCoef>
-5.4800

> <Gold.Chemscore.Hbond>
0.9621

> <Gold.Chemscore.Metal>
0.0000

> <Gold.Chemscore.Lipo>
75.2042

> <Gold.Chemscore.Internal_Hbond>
0.0000

> <Gold.Chemscore.DEClash>
0.0110

> <Gold.Chemscore.DEInternal>
1.6227

> <Gold.Chemscore.Rot>
1.3235

> <Gold.Chemscore.Internal.Correction>
   9.000000E+99

> <Gold.Chemscore.Hbonds>
donor molecule, donor type, donor heavy atom, donor atom, acceptor molecule, acceptor atom, score
      L1  H    13    29       P1  7957  0.93

> <Gold.Chemscore.Hbond.Weighted>
-3.2133

> <Gold.Chemscore.Metal.Weighted>
-0.0000

> <Gold.Chemscore.Lipo.Weighted>
-8.7989

> <Gold.Chemscore.Internal_Hbond.Weighted>
0.0000

> <Gold.Chemscore.DEClash.Weighted>
0.0110

> <Gold.Chemscore.DEInternal.Weighted>
1.6227

> <Gold.Chemscore.Rot.Weighted>
3.3882

> <Gold.Chemscore.Internal.Correction.Weighted>
   9.000000E+99

> <Gold.Protein.RotatedTorsions>
[ 6907 6896 6895 6894 ] final   31.26 input  -60.11 | X-H torsion
[ 7974 7965 7964 7962 ] final -131.94 input  175.53 | X-H torsion
[ 8008 7997 7996 7995 ] final  131.58 input   59.86 | X-H torsion
[ 10167 10162 10161 10158 ] final -119.91 input  -65.29 | X-H torsion
[ 10718 10713 10712 10709 ] final  172.49 input   66.30 | X-H torsion
[ 10763 10752 10751 10750 ] final    6.25 input  -60.55 | X-H torsion
[ 11005 11000 10999 10996 ] final -173.20 input  -57.11 | X-H torsion

> <Gold.Protein.ActiveResidues>
 VAL166  LYS551  ARG553  GLY616  TRP617  ASP618  TYR619  PRO620  LYS621  CYS622 
 ASP623  PHE694  ASN695  SER759  ASP760  ASP761  ALA762  ILE779  LEU786  VAL792 
 PHE793  MET794  SER795  GLU796  ALA797  LYS798  CYS799  TRP800  GLU811  SER814 

> <Gold.Protein.RotatedAtoms>
  152.0578  134.9613  160.0574 H   0  0  0  0  0  0  0  0  0  0  0  0  # atno 6907 bound_to 6896
  152.0989  133.4234  159.4586 H   0  0  0  0  0  0  0  0  0  0  0  0  # atno 6908 bound_to 6896
  150.6839  134.2703  159.4629 H   0  0  0  0  0  0  0  0  0  0  0  0  # atno 6909 bound_to 6896
  144.9332  140.7153  143.4892 H   0  0  0  0  0  0  0  0  0  0  0  0  # atno 7974 bound_to 7965
  156.2972  140.2568  156.2949 H   0  0  0  0  0  0  0  0  0  0  0  0  # atno 8008 bound_to 7997
  154.9474  140.0395  157.2146 H   0  0  0  0  0  0  0  0  0  0  0  0  # atno 8009 bound_to 7997
  154.8068  140.2837  155.5886 H   0  0  0  0  0  0  0  0  0  0  0  0  # atno 8010 bound_to 7997
  140.0415  143.5149  152.2128 H   0  0  0  0  0  0  0  0  0  0  0  0  # atno 10167 bound_to 10162
  156.9782  131.0111  151.2888 H   0  0  0  0  0  0  0  0  0  0  0  0  # atno 10718 bound_to 10713
  153.2499  135.6912  153.7690 H   0  0  0  0  0  0  0  0  0  0  0  0  # atno 10763 bound_to 10752
  153.6788  135.3332  155.3174 H   0  0  0  0  0  0  0  0  0  0  0  0  # atno 10764 bound_to 10752
  154.8390  135.4517  154.1453 H   0  0  0  0  0  0  0  0  0  0  0  0  # atno 10765 bound_to 10752
  140.4884  134.6008  157.4945 H   0  0  0  0  0  0  0  0  0  0  0  0  # atno 11005 bound_to 11000
  145.3108  139.1819  143.4640 LP  0  0  0  0  0  0  0  0  0  0  0  0  # atno 17320 bound_to 7965
  146.3256  140.3112  142.8627 LP  0  0  0  0  0  0  0  0  0  0  0  0  # atno 17321 bound_to 7965
  139.6011  144.7582  151.3170 LP  0  0  0  0  0  0  0  0  0  0  0  0  # atno 17342 bound_to 10162
  140.7258  143.7008  150.7846 LP  0  0  0  0  0  0  0  0  0  0  0  0  # atno 17343 bound_to 10162
  157.5545  130.8204  149.8186 LP  0  0  0  0  0  0  0  0  0  0  0  0  # atno 17370 bound_to 10713
  156.0255  130.3781  150.1836 LP  0  0  0  0  0  0  0  0  0  0  0  0  # atno 17371 bound_to 10713
  139.9784  134.7177  155.9906 LP  0  0  0  0  0  0  0  0  0  0  0  0  # atno 17394 bound_to 11000
  141.1496  133.6550  156.3973 LP  0  0  0  0  0  0  0  0  0  0  0  0  # atno 17395 bound_to 11000

$$$$
