AV-unprocessed.smi:314|AV-procd|sdf|2315|dock6
  -GOLD-   2262022223D 1   1.00000     0.00000
 Structure written by MMmdl.
 48 49  0  0  0  0  0  0  0  0  1 V2000
  144.0845  132.6933  149.1606 C   0  0  0  0  0  0  0  0  0  0  0  0
  144.5320  132.6214  150.5099 O   0  0  0  0  0  0  0  0  0  0  0  0
  144.9982  133.7743  151.1078 C   0  0  0  0  0  0  0  0  0  0  0  0
  145.5075  133.6953  152.4192 C   0  0  0  0  0  0  0  0  0  0  0  0
  145.9815  134.8692  153.0346 C   0  0  0  0  0  0  0  0  0  0  0  0
  145.9222  136.0871  152.3282 C   0  0  0  0  0  0  0  0  0  0  0  0
  146.4225  137.2560  152.9619 N   0  0  0  0  0  0  0  0  0  0  0  0
  146.8687  138.3845  152.3845 C   0  0  0  0  0  0  0  0  0  0  0  0
  146.8479  138.6197  151.1762 O   0  0  0  0  0  0  0  0  0  0  0  0
  147.3305  139.2498  153.2984 N   0  0  0  0  0  0  0  0  0  0  0  0
  147.8727  140.5705  152.9979 C   0  0  0  0  0  0  0  0  0  0  0  0
  148.6797  141.1385  154.1841 C   0  0  0  0  0  0  0  0  0  0  0  0
  149.8010  140.2067  154.6740 C   0  0  0  0  0  0  0  0  0  0  0  0
  149.8387  139.0473  154.2591 O   0  0  0  0  0  0  0  0  0  0  0  0
  150.7082  140.6851  155.5589 N   0  0  0  0  0  0  0  0  0  0  0  0
  151.7354  139.8529  156.1872 C   0  0  0  0  0  0  0  0  0  0  0  0
  151.4064  139.7378  157.6886 C   0  0  1  0  0  0  0  0  0  0  0  0
  152.4663  138.9368  158.4517 C   0  0  0  0  0  0  0  0  0  0  0  0
  151.3387  141.0449  158.2656 O   0  0  0  0  0  0  0  0  0  0  0  0
  150.4308  141.9560  157.6369 C   0  0  2  0  0  0  0  0  0  0  0  0
  148.9670  141.6058  157.9616 C   0  0  0  0  0  0  0  0  0  0  0  0
  150.7375  142.0361  156.1265 C   0  0  0  0  0  0  0  0  0  0  0  0
  145.4059  136.0608  151.0099 C   0  0  0  0  0  0  0  0  0  0  0  0
  144.9533  134.9379  150.4130 N   0  0  0  0  0  0  0  0  0  0  0  0
  143.7391  131.7100  148.8422 H   0  0  0  0  0  0  0  0  0  0  0  0
  144.8897  132.9945  148.4889 H   0  0  0  0  0  0  0  0  0  0  0  0
  143.2499  133.3876  149.0533 H   0  0  0  0  0  0  0  0  0  0  0  0
  145.5339  132.7515  152.9430 H   0  0  0  0  0  0  0  0  0  0  0  0
  146.3790  134.8327  154.0384 H   0  0  0  0  0  0  0  0  0  0  0  0
  146.4012  137.2479  153.9711 H   0  0  0  0  0  0  0  0  0  0  0  0
  147.3031  138.9785  154.2704 H   0  0  0  0  0  0  0  0  0  0  0  0
  148.4906  140.5130  152.0997 H   0  0  0  0  0  0  0  0  0  0  0  0
  147.0371  141.2300  152.7610 H   0  0  0  0  0  0  0  0  0  0  0  0
  149.1151  142.0992  153.9066 H   0  0  0  0  0  0  0  0  0  0  0  0
  147.9993  141.3207  155.0161 H   0  0  0  0  0  0  0  0  0  0  0  0
  151.8039  138.8590  155.7427 H   0  0  0  0  0  0  0  0  0  0  0  0
  152.7144  140.3130  156.0450 H   0  0  0  0  0  0  0  0  0  0  0  0
  150.4468  139.2351  157.8140 H   0  0  0  0  0  0  0  0  0  0  0  0
  152.5458  137.9216  158.0623 H   0  0  0  0  0  0  0  0  0  0  0  0
  152.2144  138.8676  159.5103 H   0  0  0  0  0  0  0  0  0  0  0  0
  153.4477  139.4047  158.3722 H   0  0  0  0  0  0  0  0  0  0  0  0
  150.6301  142.9360  158.0716 H   0  0  0  0  0  0  0  0  0  0  0  0
  148.2905  142.3600  157.5589 H   0  0  0  0  0  0  0  0  0  0  0  0
  148.8084  141.5641  159.0393 H   0  0  0  0  0  0  0  0  0  0  0  0
  148.6664  140.6454  157.5442 H   0  0  0  0  0  0  0  0  0  0  0  0
  151.7345  142.4538  155.9792 H   0  0  0  0  0  0  0  0  0  0  0  0
  150.0609  142.7367  155.6395 H   0  0  0  0  0  0  0  0  0  0  0  0
  145.3669  136.9462  150.3945 H   0  0  0  0  0  0  0  0  0  0  0  0
  1  2  1  0  0  0  0
  1 25  1  0  0  0  0
  1 26  1  0  0  0  0
  1 27  1  0  0  0  0
  2  3  1  0  0  0  0
  3 24  1  0  0  0  0
  3  4  2  0  0  0  0
  4  5  1  0  0  0  0
  4 28  1  0  0  0  0
  5  6  2  0  0  0  0
  5 29  1  0  0  0  0
  6  7  1  0  0  0  0
  6 23  1  0  0  0  0
  7  8  1  0  0  0  0
  7 30  1  0  0  0  0
  8  9  2  0  0  0  0
  8 10  1  0  0  0  0
 10 11  1  0  0  0  0
 10 31  1  0  0  0  0
 11 12  1  0  0  0  0
 11 32  1  0  0  0  0
 11 33  1  0  0  0  0
 12 13  1  0  0  0  0
 12 34  1  0  0  0  0
 12 35  1  0  0  0  0
 13 14  2  0  0  0  0
 13 15  1  0  0  0  0
 15 22  1  0  0  0  0
 15 16  1  0  0  0  0
 16 17  1  0  0  0  0
 16 36  1  0  0  0  0
 16 37  1  0  0  0  0
 17 18  1  0  0  0  0
 17 19  1  0  0  0  0
 17 38  1  0  0  0  0
 18 39  1  0  0  0  0
 18 40  1  0  0  0  0
 18 41  1  0  0  0  0
 19 20  1  0  0  0  0
 20 21  1  0  0  0  0
 20 22  1  0  0  0  0
 20 42  1  0  0  0  0
 21 43  1  0  0  0  0
 21 44  1  0  0  0  0
 21 45  1  0  0  0  0
 22 46  1  0  0  0  0
 22 47  1  0  0  0  0
 23 24  2  0  0  0  0
 23 48  1  0  0  0  0
M  END
> <s_m_source_file>
AV-unprocessed.smi

> <i_m_source_file_index>
314

> <i_lp_mmshare_version>
43012

> <i_f3d_flags>
0

> <s_epik_input>
W0NIM11PYzFbY0hdW2NIXWMoW2NIXW4xKVtOSF1DKD1PKVtOSF1bQ0gyXVtDSDJdQyg9TylOMltDSDJdW0NAQEhdKFtDSDNdKU9bQ0BASF0oW0NIM10pW0NIMl0y

> <s_epik_cmdline>
J2VwaWtfcHl0aG9uJywgJy1waCcsICc3LjAnLCAnLXRuJywgJzgnLCAnLW1hJywgJzIwMCcsICctbWV0YWxfYmluZGluZycsICctaW1hZScsICc8aW5maWxlLm1hZT4nLCAnLW9tYWUnLCAnPG91dGZpbGUubWFlPic=

> <r_lp_tautomer_probability>
1

> <r_epik_Ionization_Penalty>
8.55977e-05

> <r_epik_Ionization_Penalty_Charging>
0

> <r_epik_Ionization_Penalty_Neutral>
8.55977e-05

> <r_epik_State_Penalty>
-0

> <r_epik_Charging_Adjusted_Penalty>
0

> <i_epik_Tot_Q>
0

> <i_epik_Tot_abs_Q>
0

> <r_epik_Metal_State_Penalty>
-0

> <b_epik_Metal_Only>
0

> <s_lp_Force_Field>
OPLS_2005

> <r_lp_Energy>
24.1988

> <b_lp_Chiralities_Consistent>
1

> <s_lp_Variant>
AV-unprocessed.smi:314-3

> <Gold.Version>
5.8.1

> <Gold.Id.Protein>
6NUR|6NUR_protein|mol2

> <Gold.PLP.Fitness>
43.5971

> <Gold.PLP.PLP>
-38.2839

> <Gold.PLP.part.hbond>
-2.2403

> <Gold.PLP.part.metal>
0.0000

> <Gold.PLP.part.buried>
-0.6431

> <Gold.PLP.part.nonpolar>
-36.0022

> <Gold.PLP.part.repulsive>
1.8475

> <Gold.PLP.ligand.clash>
0.0000

> <Gold.PLP.ligand.torsion>
0.3564

> <Gold.PLP.Chemscore.Hbond>
1.0000

> <Gold.PLP.Chemscore.CHOScore>
1.0000

> <Gold.PLP.Chemscore.Metal>
0.0000

> <Gold.Chemscore.Hbonds>
donor molecule, donor type, donor heavy atom, donor atom, acceptor molecule, acceptor atom, score
      P1  H  7954  7966       L1     9  1.00
      L1  C    23    48       P1 10171  1.00

> <Gold.PLP.Chemscore.Internal.Correction>
0.0261

> <Gold.Rescore>
     Score         DG    S(hbond)    S(metal)    S(lipo)     H(rot)  DE(clash)    DE(int)     intcor
      8.22     -13.16       0.97        0.00      77.51       1.81       1.97       2.97       ----

> <Gold.Chemscore.Fitness>
8.2156

> <Gold.Chemscore.DG>
-13.1631

> <Gold.Chemscore.ZeroCoef>
-5.4800

> <Gold.Chemscore.Hbond>
0.9699

> <Gold.Chemscore.Metal>
0.0000

> <Gold.Chemscore.Lipo>
77.5105

> <Gold.Chemscore.Internal_Hbond>
0.0000

> <Gold.Chemscore.DEClash>
1.9742

> <Gold.Chemscore.DEInternal>
2.9733

> <Gold.Chemscore.Rot>
1.8067

> <Gold.Chemscore.Internal.Correction>
   9.000000E+99

> <Gold.Chemscore.Hbonds>
donor molecule, donor type, donor heavy atom, donor atom, acceptor molecule, acceptor atom, score
      P1  H  7954  7966       L1     9  0.93

> <Gold.Chemscore.Hbond.Weighted>
-3.2395

> <Gold.Chemscore.Metal.Weighted>
-0.0000

> <Gold.Chemscore.Lipo.Weighted>
-9.0687

> <Gold.Chemscore.Internal_Hbond.Weighted>
0.0000

> <Gold.Chemscore.DEClash.Weighted>
1.9742

> <Gold.Chemscore.DEInternal.Weighted>
2.9733

> <Gold.Chemscore.Rot.Weighted>
4.6252

> <Gold.Chemscore.Internal.Correction.Weighted>
   9.000000E+99

> <Gold.Protein.RotatedTorsions>
[ 6907 6896 6895 6894 ] final -144.14 input  -60.11 | X-H torsion
[ 7974 7965 7964 7962 ] final   32.57 input  175.53 | X-H torsion
[ 8008 7997 7996 7995 ] final  -65.49 input   59.86 | X-H torsion
[ 10167 10162 10161 10158 ] final  -95.07 input  -65.29 | X-H torsion
[ 10718 10713 10712 10709 ] final -135.69 input   66.30 | X-H torsion
[ 10763 10752 10751 10750 ] final  175.99 input  -60.55 | X-H torsion
[ 11005 11000 10999 10996 ] final   42.72 input  -57.11 | X-H torsion

> <Gold.Protein.ActiveResidues>
 VAL166  LYS551  ARG553  GLY616  TRP617  ASP618  TYR619  PRO620  LYS621  CYS622 
 ASP623  PHE694  ASN695  SER759  ASP760  ASP761  ALA762  ILE779  LEU786  VAL792 
 PHE793  MET794  SER795  GLU796  ALA797  LYS798  CYS799  TRP800  GLU811  SER814 

> <Gold.Protein.RotatedAtoms>
  151.1099  133.5180  159.2605 H   0  0  0  0  0  0  0  0  0  0  0  0  # atno 6907 bound_to 6896
  151.1978  135.0429  159.8869 H   0  0  0  0  0  0  0  0  0  0  0  0  # atno 6908 bound_to 6896
  152.5449  134.0931  159.8339 H   0  0  0  0  0  0  0  0  0  0  0  0  # atno 6909 bound_to 6896
  146.1477  139.6508  142.9120 H   0  0  0  0  0  0  0  0  0  0  0  0  # atno 7974 bound_to 7965
  154.4675  140.0932  156.7059 H   0  0  0  0  0  0  0  0  0  0  0  0  # atno 8008 bound_to 7997
  155.4816  140.3468  155.4322 H   0  0  0  0  0  0  0  0  0  0  0  0  # atno 8009 bound_to 7997
  156.0982  140.1415  156.9491 H   0  0  0  0  0  0  0  0  0  0  0  0  # atno 8010 bound_to 7997
  140.3079  143.3122  152.0179 H   0  0  0  0  0  0  0  0  0  0  0  0  # atno 10167 bound_to 10162
  156.2689  130.7254  151.1214 H   0  0  0  0  0  0  0  0  0  0  0  0  # atno 10718 bound_to 10713
  154.4751  135.2772  155.1613 H   0  0  0  0  0  0  0  0  0  0  0  0  # atno 10763 bound_to 10752
  154.3347  135.6183  153.5571 H   0  0  0  0  0  0  0  0  0  0  0  0  # atno 10764 bound_to 10752
  152.9868  135.5774  154.5140 H   0  0  0  0  0  0  0  0  0  0  0  0  # atno 10765 bound_to 10752
  140.1712  134.4220  155.8256 H   0  0  0  0  0  0  0  0  0  0  0  0  # atno 11005 bound_to 11000
  145.4897  141.0438  143.2600 LP  0  0  0  0  0  0  0  0  0  0  0  0  # atno 17320 bound_to 7965
  144.7866  139.6413  143.7131 LP  0  0  0  0  0  0  0  0  0  0  0  0  # atno 17321 bound_to 7965
  139.4900  144.6406  151.6884 LP  0  0  0  0  0  0  0  0  0  0  0  0  # atno 17342 bound_to 10162
  140.5594  144.0294  150.6162 LP  0  0  0  0  0  0  0  0  0  0  0  0  # atno 17343 bound_to 10162
  157.7277  131.0637  150.5853 LP  0  0  0  0  0  0  0  0  0  0  0  0  # atno 17370 bound_to 10713
  156.5948  130.4339  149.5921 LP  0  0  0  0  0  0  0  0  0  0  0  0  # atno 17371 bound_to 10713
  141.2217  133.6957  156.7767 LP  0  0  0  0  0  0  0  0  0  0  0  0  # atno 17394 bound_to 11000
  140.2375  134.8639  157.3540 LP  0  0  0  0  0  0  0  0  0  0  0  0  # atno 17395 bound_to 11000

$$$$
