AV-unprocessed.smi:1399|AV-procd|sdf|5685|dock4
  -GOLD-   22720 5313D 1   1.00000     0.00000
 Structure written by MMmdl.
 37 38  0  0  0  0  0  0  0  0  3 V2000
  142.4566  138.8204  154.3464 N   0  5  0  0  0  0  0  0  0  0  0  0
  143.0978  137.7114  154.7629 C   0  0  0  0  0  0  0  0  0  0  0  0
  142.9632  137.1165  155.8301 O   0  0  0  0  0  0  0  0  0  0  0  0
  144.0797  137.1732  153.7167 C   0  0  0  0  0  0  0  0  0  0  0  0
  145.0403  138.2331  153.3189 N   0  3  2  0  0  0  0  0  0  0  0  0
  145.9059  137.8108  152.1886 C   0  0  0  0  0  0  0  0  0  0  0  0
  146.7919  138.9705  151.7007 C   0  0  0  0  0  0  0  0  0  0  0  0
  147.6398  139.5691  152.8405 C   0  0  2  0  0  0  0  0  0  0  0  0
  148.6956  138.6542  153.2741 N   0  0  0  0  0  0  0  0  0  0  0  0
  149.7629  138.9948  154.0106 C   0  0  0  0  0  0  0  0  0  0  0  0
  149.9838  140.1419  154.3983 O   0  0  0  0  0  0  0  0  0  0  0  0
  150.5436  137.9310  154.2583 N   0  0  0  0  0  0  0  0  0  0  0  0
  151.7479  137.9065  155.0051 C   0  0  0  0  0  0  0  0  0  0  0  0
  153.0010  138.5239  154.7183 C   0  0  0  0  0  0  0  0  0  0  0  0
  153.8899  138.2673  155.6674 N   0  0  0  0  0  0  0  0  0  0  0  0
  153.2200  137.4964  156.5533 N   0  0  0  0  0  0  0  0  0  0  0  0
  151.9142  137.2527  156.1893 C   0  0  0  0  0  0  0  0  0  0  0  0
  146.7280  139.9364  154.0236 C   0  0  0  0  0  0  0  0  0  0  0  0
  145.8418  138.7554  154.4588 C   0  0  0  0  0  0  0  0  0  0  0  0
  153.6633  137.1481  157.3916 H   0  0  0  0  0  0  0  0  0  0  0  0
  142.7598  139.2736  153.4760 H   0  0  0  0  0  0  0  0  0  0  0  0
  144.6130  136.2819  154.0545 H   0  0  0  0  0  0  0  0  0  0  0  0
  143.4843  136.8681  152.8549 H   0  0  0  0  0  0  0  0  0  0  0  0
  146.5220  136.9642  152.4955 H   0  0  0  0  0  0  0  0  0  0  0  0
  145.2858  137.4660  151.3602 H   0  0  0  0  0  0  0  0  0  0  0  0
  147.4284  138.6361  150.8809 H   0  0  0  0  0  0  0  0  0  0  0  0
  146.1543  139.7513  151.2843 H   0  0  0  0  0  0  0  0  0  0  0  0
  148.1150  140.4845  152.4832 H   0  0  0  0  0  0  0  0  0  0  0  0
  148.5971  137.6861  153.0052 H   0  0  0  0  0  0  0  0  0  0  0  0
  150.2458  137.0458  153.8755 H   0  0  0  0  0  0  0  0  0  0  0  0
  153.2979  139.1347  153.8788 H   0  0  0  0  0  0  0  0  0  0  0  0
  151.2420  136.6543  156.7867 H   0  0  0  0  0  0  0  0  0  0  0  0
  147.3238  140.2890  154.8665 H   0  0  0  0  0  0  0  0  0  0  0  0
  146.0879  140.7718  153.7361 H   0  0  0  0  0  0  0  0  0  0  0  0
  145.1838  139.0883  155.2617 H   0  0  0  0  0  0  0  0  0  0  0  0
  146.4551  137.9530  154.8715 H   0  0  0  0  0  0  0  0  0  0  0  0
  144.4774  138.9997  152.9781 H   0  0  0  0  0  0  0  0  0  0  0  0
  1  2  1  0  0  0  0
  1 21  1  0  0  0  0
  2  3  2  0  0  0  0
  2  4  1  0  0  0  0
  4  5  1  0  0  0  0
  4 22  1  0  0  0  0
  4 23  1  0  0  0  0
  5 19  1  0  0  0  0
  5  6  1  0  0  0  0
  5 37  1  0  0  0  0
  6  7  1  0  0  0  0
  6 24  1  0  0  0  0
  6 25  1  0  0  0  0
  7  8  1  0  0  0  0
  7 26  1  0  0  0  0
  7 27  1  0  0  0  0
  8  9  1  0  0  0  0
  8 18  1  0  0  0  0
  8 28  1  0  0  0  0
  9 10  1  0  0  0  0
  9 29  1  0  0  0  0
 10 11  2  0  0  0  0
 10 12  1  0  0  0  0
 12 13  1  0  0  0  0
 12 30  1  0  0  0  0
 13 17  2  0  0  0  0
 13 14  1  0  0  0  0
 14 15  2  0  0  0  0
 14 31  1  0  0  0  0
 15 16  1  0  0  0  0
 16 20  1  0  0  0  0
 16 17  1  0  0  0  0
 17 32  1  0  0  0  0
 18 19  1  0  0  0  0
 18 33  1  0  0  0  0
 18 34  1  0  0  0  0
 19 35  1  0  0  0  0
 19 36  1  0  0  0  0
M  CHG  1   1  -1
M  CHG  1   5   1
M  END
> <s_m_source_file>
AV-unprocessed.smi

> <i_m_source_file_index>
1399

> <i_lp_mmshare_version>
43012

> <i_f3d_flags>
0

> <s_epik_input>
W05IMl1DKD1PKVtDSDJdTjFbQ0gyXVtDSDJdW0NIXShbQ0gyXVtDSDJdMSlbTkhdQyg9TylbTkhdYzJbY0hdbltuSF1bY0hdMg==

> <s_epik_cmdline>
J2VwaWtfcHl0aG9uJywgJy1waCcsICc3LjAnLCAnLXRuJywgJzgnLCAnLW1hJywgJzIwMCcsICctbWV0YWxfYmluZGluZycsICctaW1hZScsICc8aW5maWxlLm1hZT4nLCAnLW9tYWUnLCAnPG91dGZpbGUubWFlPic=

> <r_lp_tautomer_probability>
0.5

> <r_epik_Ionization_Penalty>
5.72885

> <r_epik_Ionization_Penalty_Charging>
5.7288

> <r_epik_Ionization_Penalty_Neutral>
4.21226e-05

> <r_epik_State_Penalty>
6.54882

> <r_epik_Charging_Adjusted_Penalty>
12.2776

> <i_epik_Tot_Q>
0

> <i_epik_Tot_abs_Q>
2

> <r_epik_Metal_State_Penalty>
2.51297

> <b_epik_Metal_Only>
1

> <s_lp_Force_Field>
OPLS_2005

> <r_lp_Energy>
10.897

> <b_lp_Chiralities_Consistent>
1

> <s_lp_Variant>
AV-unprocessed.smi:1399-5

> <Gold.Version>
5.8.1

> <Gold.Id.Protein>
6NUR|6NUR_protein|mol2

> <Gold.PLP.Fitness>
41.7724

> <Gold.PLP.PLP>
-26.8373

> <Gold.PLP.part.hbond>
-6.1983

> <Gold.PLP.part.metal>
0.0000

> <Gold.PLP.part.buried>
1.3628

> <Gold.PLP.part.nonpolar>
-22.6924

> <Gold.PLP.part.repulsive>
0.4324

> <Gold.PLP.ligand.clash>
0.0000

> <Gold.PLP.ligand.torsion>
0.8539

> <Gold.PLP.Chemscore.Hbond>
5.5360

> <Gold.PLP.Chemscore.CHOScore>
0.0000

> <Gold.PLP.Chemscore.Metal>
0.0000

> <Gold.Chemscore.Hbonds>
donor molecule, donor type, donor heavy atom, donor atom, acceptor molecule, acceptor atom, score
      L1  H     1    21       P1 10175  1.00
      L1  H     5    37       P1 10175  2.00
      L1  H     9    29       P1  7948  1.00
      P1  H  7989  7998       L1    11  0.99
      P1  H  7997  8010       L1    15  0.54

> <Gold.PLP.Chemscore.Internal.Correction>
0.0349

> <Gold.Rescore>
     Score         DG    S(hbond)    S(metal)    S(lipo)     H(rot)  DE(clash)    DE(int)     intcor
     16.51     -20.07       3.88        0.00      58.95       2.06       2.74       0.82       ----

> <Gold.Chemscore.Fitness>
16.5110

> <Gold.Chemscore.DG>
-20.0706

> <Gold.Chemscore.ZeroCoef>
-5.4800

> <Gold.Chemscore.Hbond>
3.8811

> <Gold.Chemscore.Metal>
0.0000

> <Gold.Chemscore.Lipo>
58.9503

> <Gold.Chemscore.Internal_Hbond>
0.0000

> <Gold.Chemscore.DEClash>
2.7395

> <Gold.Chemscore.DEInternal>
0.8201

> <Gold.Chemscore.Rot>
2.0584

> <Gold.Chemscore.Internal.Correction>
   9.000000E+99

> <Gold.Chemscore.Hbonds>
donor molecule, donor type, donor heavy atom, donor atom, acceptor molecule, acceptor atom, score
      L1  H     1    21       P1 10175  0.99
      L1  H     5    37       P1 10175  1.00
      L1  H     9    29       P1  7948  0.95
      P1  H  7989  7998       L1    11  0.67
      P1  H  7997  8010       L1    15  0.19

> <Gold.Chemscore.Hbond.Weighted>
-12.9629

> <Gold.Chemscore.Metal.Weighted>
-0.0000

> <Gold.Chemscore.Lipo.Weighted>
-6.8972

> <Gold.Chemscore.Internal_Hbond.Weighted>
0.0000

> <Gold.Chemscore.DEClash.Weighted>
2.7395

> <Gold.Chemscore.DEInternal.Weighted>
0.8201

> <Gold.Chemscore.Rot.Weighted>
5.2695

> <Gold.Chemscore.Internal.Correction.Weighted>
   9.000000E+99

> <Gold.Protein.RotatedTorsions>
[ 6907 6896 6895 6894 ] final    4.21 input  -60.11 | X-H torsion
[ 7974 7965 7964 7962 ] final  133.46 input  175.53 | X-H torsion
[ 8008 7997 7996 7995 ] final   78.60 input   59.86 | X-H torsion
[ 10167 10162 10161 10158 ] final -155.45 input  -65.29 | X-H torsion
[ 10718 10713 10712 10709 ] final -118.74 input   66.30 | X-H torsion
[ 10763 10752 10751 10750 ] final -164.99 input  -60.55 | X-H torsion
[ 11005 11000 10999 10996 ] final  135.53 input  -57.11 | X-H torsion

> <Gold.Protein.ActiveResidues>
 VAL166  LYS551  ARG553  GLY616  TRP617  ASP618  TYR619  PRO620  LYS621  CYS622 
 ASP623  PHE694  ASN695  SER759  ASP760  ASP761  ALA762  ILE779  LEU786  VAL792 
 PHE793  MET794  SER795  GLU796  ALA797  LYS798  CYS799  TRP800  GLU811  SER814 

> <Gold.Protein.RotatedAtoms>
  151.6376  135.1016  160.0134 H   0  0  0  0  0  0  0  0  0  0  0  0  # atno 6907 bound_to 6896
  152.4072  133.6903  159.6375 H   0  0  0  0  0  0  0  0  0  0  0  0  # atno 6908 bound_to 6896
  150.7965  133.8605  159.3271 H   0  0  0  0  0  0  0  0  0  0  0  0  # atno 6909 bound_to 6896
  144.9863  139.4452  143.5361 H   0  0  0  0  0  0  0  0  0  0  0  0  # atno 7974 bound_to 7965
  155.8580  140.3455  155.5737 H   0  0  0  0  0  0  0  0  0  0  0  0  # atno 8008 bound_to 7997
  155.7965  140.0879  157.2000 H   0  0  0  0  0  0  0  0  0  0  0  0  # atno 8009 bound_to 7997
  154.4010  140.1473  156.3211 H   0  0  0  0  0  0  0  0  0  0  0  0  # atno 8010 bound_to 7997
  139.6930  143.9388  152.2394 H   0  0  0  0  0  0  0  0  0  0  0  0  # atno 10167 bound_to 10162
  156.1129  130.6263  150.9329 H   0  0  0  0  0  0  0  0  0  0  0  0  # atno 10718 bound_to 10713
  154.6976  135.2982  154.9389 H   0  0  0  0  0  0  0  0  0  0  0  0  # atno 10763 bound_to 10752
  154.0332  135.6667  153.4787 H   0  0  0  0  0  0  0  0  0  0  0  0  # atno 10764 bound_to 10752
  153.0657  135.5089  154.8102 H   0  0  0  0  0  0  0  0  0  0  0  0  # atno 10765 bound_to 10752
  139.9986  134.9487  157.0020 H   0  0  0  0  0  0  0  0  0  0  0  0  # atno 11005 bound_to 11000
  146.3420  139.9167  142.8772 LP  0  0  0  0  0  0  0  0  0  0  0  0  # atno 17320 bound_to 7965
  145.2349  140.9987  143.3969 LP  0  0  0  0  0  0  0  0  0  0  0  0  # atno 17321 bound_to 7965
  139.9210  144.6800  150.8462 LP  0  0  0  0  0  0  0  0  0  0  0  0  # atno 17342 bound_to 10162
  140.7688  143.3375  151.2278 LP  0  0  0  0  0  0  0  0  0  0  0  0  # atno 17343 bound_to 10162
  157.6311  131.0921  150.8440 LP  0  0  0  0  0  0  0  0  0  0  0  0  # atno 17370 bound_to 10713
  156.8548  130.5093  149.5308 LP  0  0  0  0  0  0  0  0  0  0  0  0  # atno 17371 bound_to 10713
  140.4771  134.1327  155.7211 LP  0  0  0  0  0  0  0  0  0  0  0  0  # atno 17394 bound_to 11000
  141.1624  133.8768  157.1811 LP  0  0  0  0  0  0  0  0  0  0  0  0  # atno 17395 bound_to 11000

$$$$
