#       Name:                AV-unprocessed.smi:1840
#       Creating user name   scv26
#       Creation time:       Fri Mar 27 09:19:33 2020


#       File generated by GOLD software.
#

@<TRIPOS>MOLECULE
AV-unprocessed.smi:1840
    46    47     1
SMALL
NO_CHARGES


@<TRIPOS>ATOM
      1 ****        -3.6551  -1.9041   2.0467 C.3            1 S1                 0.0000
      2 ****        -3.0550  -1.1281   0.8664 C.3            1 S1                 0.0000
      3 ****        -3.4387  -1.7703  -0.4832 C.3            1 S1                 0.0000
      4 ****        -2.9822  -0.9917  -1.6216 N.pl3          1 S1                 0.0000
      5 ****        -3.4702   0.2108  -2.0876 C.2            1 S1                 0.0000
      6 ****        -2.7153   0.5641  -3.1691 C.2            1 S1                 0.0000
      7 ****        -1.7832  -0.5037  -3.2931 C.2            1 S1                 0.0000
      8 ****        -1.9460  -1.4341  -2.3666 N.2            1 S1                 0.0000
      9 ****        -1.6012  -1.0736   1.0193 N.am           1 S1                 0.0000
     10 ****        -0.8382   0.0156   0.8459 C.2            1 S1                 0.0000
     11 ****        -1.2786   1.1307   0.5651 O.2            1 S1                 0.0000
     12 ****         0.4645  -0.2639   0.9979 N.am           1 S1                 0.0000
     13 ****         1.5648   0.6918   0.8731 C.3            1 S1                 0.0000
     14 ****         2.4947   0.5372   2.0929 C.3            1 S1                 0.0000
     15 ****         3.7030   1.4809   2.0087 C.3            1 S1                 0.0000
     16 ****         4.4789   1.2646   0.7025 C.3            1 S1                 0.0000
     17 ****         3.5603   1.4284  -0.5178 C.3            1 S1                 0.0000
     18 ****         2.3426   0.4838  -0.4531 C.3            1 S1                 0.0000
     19 ****         1.4589   0.6592  -1.7010 C.3            1 S1                 0.0000
     20 ****        -4.7429  -1.9403   1.9797 H              1 S1                 0.0000
     21 ****        -3.4000  -1.4332   2.9967 H              1 S1                 0.0000
     22 ****        -3.2895  -2.9312   2.0749 H              1 S1                 0.0000
     23 ****        -3.4718  -0.1197   0.9006 H              1 S1                 0.0000
     24 ****        -3.0364  -2.7823  -0.5542 H              1 S1                 0.0000
     25 ****        -4.5229  -1.8619  -0.5579 H              1 S1                 0.0000
     26 ****        -4.2994   0.7125  -1.6108 H              1 S1                 0.0000
     27 ****        -2.8133   1.4506  -3.7775 H              1 S1                 0.0000
     28 ****        -0.9960  -0.6286  -4.0221 H              1 S1                 0.0000
     29 ****        -1.1387  -1.9420   1.2449 H              1 S1                 0.0000
     30 ****         0.7191  -1.2160   1.2163 H              1 S1                 0.0000
     31 ****         1.1732   1.7110   0.8853 H              1 S1                 0.0000
     32 ****         1.9416   0.7350   3.0120 H              1 S1                 0.0000
     33 ****         2.8473  -0.4931   2.1617 H              1 S1                 0.0000
     34 ****         3.3646   2.5161   2.0679 H              1 S1                 0.0000
     35 ****         4.3608   1.3203   2.8633 H              1 S1                 0.0000
     36 ****         5.3080   1.9700   0.6416 H              1 S1                 0.0000
     37 ****         4.9200   0.2670   0.6979 H              1 S1                 0.0000
     38 ****         3.2200   2.4631  -0.5787 H              1 S1                 0.0000
     39 ****         4.1312   1.2394  -1.4275 H              1 S1                 0.0000
     40 ****         2.7207  -0.5399  -0.4663 H              1 S1                 0.0000
     41 ****         0.9906   1.6438  -1.7203 H              1 S1                 0.0000
     42 ****         0.6666  -0.0876  -1.7370 H              1 S1                 0.0000
     43 ****         2.0427   0.5498  -2.6152 H              1 S1                 0.0000
     44 ****        -1.4200  -2.2759  -2.2452 LP             1 S1                 0.0000
     45 ****        -2.2630   1.2657   0.4524 LP             1 S1                 0.0000
     46 ****        -0.6518   1.9013   0.4498 LP             1 S1                 0.0000
@<TRIPOS>BOND
    1    1    2 1     
    2    1   20 1     
    3    1   21 1     
    4    1   22 1     
    5    2    3 1     
    6    2    9 1     
    7    2   23 1     
    8    3    4 1     
    9    3   24 1     
   10    3   25 1     
   11    4    8 1     
   12    4    5 1     
   13    5    6 2     
   14    5   26 1     
   15    6    7 1     
   16    6   27 1     
   17    7    8 2     
   18    7   28 1     
   19    9   10 am    
   20    9   29 1     
   21   10   11 2     
   22   10   12 am    
   23   12   13 1     
   24   12   30 1     
   25   13   18 1     
   26   13   14 1     
   27   13   31 1     
   28   14   15 1     
   29   14   32 1     
   30   14   33 1     
   31   15   16 1     
   32   15   34 1     
   33   15   35 1     
   34   16   17 1     
   35   16   36 1     
   36   16   37 1     
   37   17   18 1     
   38   17   38 1     
   39   17   39 1     
   40   18   19 1     
   41   18   40 1     
   42   19   41 1     
   43   19   42 1     
   44   19   43 1     
   45    8   44 1     
   46   11   45 1     
   47   11   46 1     
@<TRIPOS>SUBSTRUCTURE
      1 S1             1
@<TRIPOS>SET
LONE_PAIRS      STATIC     ATOMS    <user>   **** ""
3 44 45 46
DONOR_HYDROGENS      STATIC     ATOMS    <user>   **** ""
2 29 30
ATOM$BLUE        STATIC     ATOMS    COLORGROUP SYSTEM
3 44 45 46
ATOM$RED        STATIC     ATOMS    COLORGROUP SYSTEM
2 29 30
