#       Name:                AV-unprocessed.smi:2489
#       Creating user name   scv26
#       Creation time:       Fri Mar 27 13:44:00 2020


#       File generated by GOLD software.
#

@<TRIPOS>MOLECULE
AV-unprocessed.smi:2489
    40    41     1
SMALL
NO_CHARGES


@<TRIPOS>ATOM
      1 ****        -5.5508   1.7676  -0.1340 C.3            1 S1                 0.0000
      2 ****        -4.1446   1.6156  -0.2621 O.3            1 S1                 0.0000
      3 ****        -3.5631   0.4917   0.2834 C.ar           1 S1                 0.0000
      4 ****        -4.2749  -0.5249   0.9692 C.ar           1 S1                 0.0000
      5 ****        -3.5698  -1.6243   1.4952 C.ar           1 S1                 0.0000
      6 ****        -2.2318  -1.7060   1.3378 N.pl3          1 S1                 1.0000
      7 ****        -1.5003  -0.7779   0.6808 C.ar           1 S1                 0.0000
      8 ****        -0.0975  -0.9905   0.6066 N.am           1 S1                 0.0000
      9 ****         0.7734  -0.5167  -0.3036 C.2            1 S1                 0.0000
     10 ****         0.4639   0.2054  -1.2520 O.2            1 S1                 0.0000
     11 ****         2.2372  -0.9394  -0.0958 C.3            1 S1                 0.0000
     12 ****         3.0133  -1.2180  -1.3999 C.3            1 S1                 0.0000
     13 ****         4.1441  -0.2027  -1.3893 C.3            1 S1                 0.0000
     14 ****         3.6267   0.8829  -0.4518 C.3            1 S1                 0.0000
     15 ****         4.7260   1.7364   0.1889 C.3            1 S1                 0.0000
     16 ****         2.9348   0.1320   0.5358 O.3            1 S1                 0.0000
     17 ****        -2.1646   0.3556   0.1484 C.ar           1 S1                 0.0000
     18 ****        -5.8570   2.6969  -0.6141 H              1 S1                 0.0000
     19 ****        -5.8519   1.8227   0.9130 H              1 S1                 0.0000
     20 ****        -6.0867   0.9524  -0.6223 H              1 S1                 0.0000
     21 ****        -5.3448  -0.4815   1.1066 H              1 S1                 0.0000
     22 ****        -4.0344  -2.4369   2.0348 H              1 S1                 0.0000
     23 ****         0.2831  -1.6328   1.2864 H              1 S1                 0.0000
     24 ****         2.2788  -1.8108   0.5599 H              1 S1                 0.0000
     25 ****         3.4027  -2.2362  -1.4273 H              1 S1                 0.0000
     26 ****         2.3980  -1.0891  -2.2913 H              1 S1                 0.0000
     27 ****         5.0424  -0.6621  -0.9745 H              1 S1                 0.0000
     28 ****         4.3866   0.1756  -2.3828 H              1 S1                 0.0000
     29 ****         2.9163   1.5227  -0.9780 H              1 S1                 0.0000
     30 ****         5.2843   2.2870  -0.5684 H              1 S1                 0.0000
     31 ****         5.4327   1.1200   0.7454 H              1 S1                 0.0000
     32 ****         4.3002   2.4623   0.8819 H              1 S1                 0.0000
     33 ****        -1.6206   1.1393  -0.3565 H              1 S1                 0.0000
     34 ****        -1.7513  -2.5156   1.7312 H              1 S1                 0.0000
     35 ****        -3.7190   2.4104   0.1704 LP             1 S1                 0.0000
     36 ****        -3.9334   1.6151  -1.2396 LP             1 S1                 0.0000
     37 ****        -0.4896   0.4765  -1.3837 LP             1 S1                 0.0000
     38 ****         1.1661   0.5206  -1.8905 LP             1 S1                 0.0000
     39 ****         3.5896  -0.2375   1.1951 LP             1 S1                 0.0000
     40 ****         2.2821   0.7232   1.0096 LP             1 S1                 0.0000
@<TRIPOS>BOND
    1    1    2 1     
    2    1   18 1     
    3    1   19 1     
    4    1   20 1     
    5    2    3 1     
    6    3   17 ar    
    7    3    4 ar    
    8    4    5 ar    
    9    4   21 1     
   10    5    6 ar    
   11    5   22 1     
   12    6    7 ar    
   13    6   34 1     
   14    7    8 1     
   15    7   17 ar    
   16    8    9 am    
   17    8   23 1     
   18    9   10 2     
   19    9   11 1     
   20   11   16 1     
   21   11   12 1     
   22   11   24 1     
   23   12   13 1     
   24   12   25 1     
   25   12   26 1     
   26   13   14 1     
   27   13   27 1     
   28   13   28 1     
   29   14   15 1     
   30   14   16 1     
   31   14   29 1     
   32   15   30 1     
   33   15   31 1     
   34   15   32 1     
   35   17   33 1     
   36    2   35 1     
   37    2   36 1     
   38   10   37 1     
   39   10   38 1     
   40   16   39 1     
   41   16   40 1     
@<TRIPOS>SUBSTRUCTURE
      1 S1             1
@<TRIPOS>SET
LONE_PAIRS      STATIC     ATOMS    <user>   **** ""
6 35 36 37 38 39 40
DONOR_HYDROGENS      STATIC     ATOMS    <user>   **** ""
2 34 23
ATOM$BLUE        STATIC     ATOMS    COLORGROUP SYSTEM
6 35 36 37 38 39 40
ATOM$RED        STATIC     ATOMS    COLORGROUP SYSTEM
2 34 23
