AV-unprocessed.smi:2530|AV-procd|sdf|9963|dock4
  -GOLD-   2272014 03D 1   1.00000     0.00000
 Structure written by MMmdl.
 44 46  0  0  0  0  0  0  0  0  1 V2000
  145.1349  145.0343  152.6880 C   0  0  0  0  0  0  0  0  0  0  0  0
  145.2957  144.0446  153.8232 C   0  0  0  0  0  0  0  0  0  0  0  0
  144.7108  144.3034  155.0766 C   0  0  0  0  0  0  0  0  0  0  0  0
  144.8674  143.3828  156.1283 C   0  0  0  0  0  0  0  0  0  0  0  0
  145.6026  142.1928  155.9397 C   0  0  0  0  0  0  0  0  0  0  0  0
  145.7551  141.2416  157.1144 C   0  0  0  0  0  0  0  0  0  0  0  0
  146.1829  141.9172  154.6729 C   0  0  0  0  0  0  0  0  0  0  0  0
  146.9898  140.6439  154.4156 C   0  0  1  0  0  0  0  0  0  0  0  0
  146.4402  139.8866  153.3539 O   0  0  0  0  0  0  0  0  0  0  0  0
  148.4574  140.9840  154.0718 C   0  0  0  0  0  0  0  0  0  0  0  0
  149.3114  141.0810  155.2683 N   0  0  0  0  0  0  0  0  0  0  0  0
  148.7958  141.8263  156.3463 C   0  0  0  0  0  0  0  0  0  0  0  0
  149.4569  141.9777  157.4496 N   0  0  0  0  0  0  0  0  0  0  0  0
  150.7207  141.3929  157.5893 C   0  0  0  0  0  0  0  0  0  0  0  0
  151.4636  141.6262  158.8978 C   0  0  0  0  0  0  0  0  0  0  0  0
  152.0570  143.0308  159.1000 C   0  0  0  0  0  0  0  0  0  0  0  0
  153.2717  142.3549  159.7455 C   0  0  0  0  0  0  0  0  0  0  0  0
  152.9041  141.0919  158.9585 C   0  0  0  0  0  0  0  0  0  0  0  0
  151.2628  140.6749  156.5770 C   0  0  0  0  0  0  0  0  0  0  0  0
  150.5372  140.4830  155.3213 C   0  0  0  0  0  0  0  0  0  0  0  0
  150.9989  139.8336  154.3831 O   0  0  0  0  0  0  0  0  0  0  0  0
  146.0276  142.8571  153.6274 C   0  0  0  0  0  0  0  0  0  0  0  0
  144.9915  146.0458  153.0696 H   0  0  0  0  0  0  0  0  0  0  0  0
  144.2699  144.7702  152.0797 H   0  0  0  0  0  0  0  0  0  0  0  0
  146.0178  145.0371  152.0480 H   0  0  0  0  0  0  0  0  0  0  0  0
  144.1444  145.2093  155.2371 H   0  0  0  0  0  0  0  0  0  0  0  0
  144.4188  143.5982  157.0870 H   0  0  0  0  0  0  0  0  0  0  0  0
  145.2568  140.2942  156.9088 H   0  0  0  0  0  0  0  0  0  0  0  0
  145.3173  141.6575  158.0224 H   0  0  0  0  0  0  0  0  0  0  0  0
  146.8085  141.0491  157.3157 H   0  0  0  0  0  0  0  0  0  0  0  0
  146.9519  140.0020  155.2941 H   0  0  0  0  0  0  0  0  0  0  0  0
  145.5547  140.1817  153.2045 H   0  0  0  0  0  0  0  0  0  0  0  0
  148.8506  140.2714  153.3437 H   0  0  0  0  0  0  0  0  0  0  0  0
  148.4889  141.9445  153.5542 H   0  0  0  0  0  0  0  0  0  0  0  0
  147.8100  142.2657  156.1840 H   0  0  0  0  0  0  0  0  0  0  0  0
  150.8746  141.3069  159.7594 H   0  0  0  0  0  0  0  0  0  0  0  0
  152.3134  143.5375  158.1675 H   0  0  0  0  0  0  0  0  0  0  0  0
  151.4847  143.6766  159.7665 H   0  0  0  0  0  0  0  0  0  0  0  0
  154.2340  142.7946  159.4817 H   0  0  0  0  0  0  0  0  0  0  0  0
  153.1642  142.2292  160.8240 H   0  0  0  0  0  0  0  0  0  0  0  0
  153.0222  140.1589  159.5103 H   0  0  0  0  0  0  0  0  0  0  0  0
  153.3954  141.0511  157.9845 H   0  0  0  0  0  0  0  0  0  0  0  0
  152.2424  140.2337  156.6896 H   0  0  0  0  0  0  0  0  0  0  0  0
  146.4754  142.6688  152.6622 H   0  0  0  0  0  0  0  0  0  0  0  0
  1  2  1  0  0  0  0
  1 23  1  0  0  0  0
  1 24  1  0  0  0  0
  1 25  1  0  0  0  0
  2 22  1  0  0  0  0
  2  3  2  0  0  0  0
  3  4  1  0  0  0  0
  3 26  1  0  0  0  0
  4  5  2  0  0  0  0
  4 27  1  0  0  0  0
  5  6  1  0  0  0  0
  5  7  1  0  0  0  0
  6 28  1  0  0  0  0
  6 29  1  0  0  0  0
  6 30  1  0  0  0  0
  7  8  1  0  0  0  0
  7 22  2  0  0  0  0
  8  9  1  0  0  0  0
  8 10  1  0  0  0  0
  8 31  1  0  0  0  0
  9 32  1  0  0  0  0
 10 11  1  0  0  0  0
 10 33  1  0  0  0  0
 10 34  1  0  0  0  0
 11 20  1  0  0  0  0
 11 12  1  0  0  0  0
 12 13  2  0  0  0  0
 12 35  1  0  0  0  0
 13 14  1  0  0  0  0
 14 15  1  0  0  0  0
 14 19  2  0  0  0  0
 15 18  1  0  0  0  0
 15 16  1  0  0  0  0
 15 36  1  0  0  0  0
 16 17  1  0  0  0  0
 16 37  1  0  0  0  0
 16 38  1  0  0  0  0
 17 18  1  0  0  0  0
 17 39  1  0  0  0  0
 17 40  1  0  0  0  0
 18 41  1  0  0  0  0
 18 42  1  0  0  0  0
 19 20  1  0  0  0  0
 19 43  1  0  0  0  0
 20 21  2  0  0  0  0
 22 44  1  0  0  0  0
M  END
> <s_m_source_file>
AV-unprocessed.smi

> <i_m_source_file_index>
2530

> <i_lp_mmshare_version>
43012

> <i_f3d_flags>
0

> <s_epik_input>
W0NIM11jMVtjSF1bY0hdYyhbQ0gzXSljKFtjSF0xKVtDQEhdKFtPSF0pW0NIMl1uMltjSF1uYyhbY0hdYzI9TylbQ0hdM1tDSDJdW0NIMl1bQ0gyXTM=

> <s_epik_cmdline>
J2VwaWtfcHl0aG9uJywgJy1waCcsICc3LjAnLCAnLXRuJywgJzgnLCAnLW1hJywgJzIwMCcsICctbWV0YWxfYmluZGluZycsICctaW1hZScsICc8aW5maWxlLm1hZT4nLCAnLW9tYWUnLCAnPG91dGZpbGUubWFlPic=

> <r_lp_tautomer_probability>
1

> <r_epik_Ionization_Penalty>
2.57341e-05

> <r_epik_Ionization_Penalty_Charging>
5.39435e-08

> <r_epik_Ionization_Penalty_Neutral>
2.56801e-05

> <r_epik_State_Penalty>
-0

> <r_epik_Charging_Adjusted_Penalty>
5.39435e-08

> <i_epik_Tot_Q>
0

> <i_epik_Tot_abs_Q>
0

> <r_epik_Metal_State_Penalty>
-0

> <b_epik_Metal_Only>
0

> <s_lp_Force_Field>
OPLS_2005

> <r_lp_Energy>
28.9103

> <b_lp_Chiralities_Consistent>
1

> <s_lp_Variant>
AV-unprocessed.smi:2530-2

> <Gold.Version>
5.8.1

> <Gold.Id.Protein>
6NUR|6NUR_protein|mol2

> <Gold.PLP.Fitness>
49.4141

> <Gold.PLP.PLP>
-44.1360

> <Gold.PLP.part.hbond>
-2.0000

> <Gold.PLP.part.metal>
0.0000

> <Gold.PLP.part.buried>
-4.2136

> <Gold.PLP.part.nonpolar>
-37.6101

> <Gold.PLP.part.repulsive>
0.2430

> <Gold.PLP.ligand.clash>
0.0000

> <Gold.PLP.ligand.torsion>
0.7566

> <Gold.PLP.Chemscore.Hbond>
1.9913

> <Gold.PLP.Chemscore.CHOScore>
0.1413

> <Gold.PLP.Chemscore.Metal>
0.0000

> <Gold.Chemscore.Hbonds>
donor molecule, donor type, donor heavy atom, donor atom, acceptor molecule, acceptor atom, score
      L1  H     9    32       P1 10175  1.00
      P1  H  7989  7998       L1    21  0.93
      L1  C    12    35       P1  8028  0.14

> <Gold.PLP.Chemscore.Internal.Correction>
0.3937

> <Gold.Rescore>
     Score         DG    S(hbond)    S(metal)    S(lipo)     H(rot)  DE(clash)    DE(int)     intcor
     16.49     -18.17       1.84        0.00      99.13       1.97       0.03       1.64       ----

> <Gold.Chemscore.Fitness>
16.4926

> <Gold.Chemscore.DG>
-18.1688

> <Gold.Chemscore.ZeroCoef>
-5.4800

> <Gold.Chemscore.Hbond>
1.8354

> <Gold.Chemscore.Metal>
0.0000

> <Gold.Chemscore.Lipo>
99.1254

> <Gold.Chemscore.Internal_Hbond>
0.0000

> <Gold.Chemscore.DEClash>
0.0323

> <Gold.Chemscore.DEInternal>
1.6439

> <Gold.Chemscore.Rot>
1.9684

> <Gold.Chemscore.Internal.Correction>
   9.000000E+99

> <Gold.Chemscore.Hbonds>
donor molecule, donor type, donor heavy atom, donor atom, acceptor molecule, acceptor atom, score
      L1  H     9    32       P1 10175  0.93
      P1  H  7989  7998       L1    21  0.44

> <Gold.Chemscore.Hbond.Weighted>
-6.1303

> <Gold.Chemscore.Metal.Weighted>
-0.0000

> <Gold.Chemscore.Lipo.Weighted>
-11.5977

> <Gold.Chemscore.Internal_Hbond.Weighted>
0.0000

> <Gold.Chemscore.DEClash.Weighted>
0.0323

> <Gold.Chemscore.DEInternal.Weighted>
1.6439

> <Gold.Chemscore.Rot.Weighted>
5.0391

> <Gold.Chemscore.Internal.Correction.Weighted>
   9.000000E+99

> <Gold.Protein.RotatedTorsions>
[ 6907 6896 6895 6894 ] final   15.88 input  -60.11 | X-H torsion
[ 7974 7965 7964 7962 ] final -152.65 input  175.53 | X-H torsion
[ 8008 7997 7996 7995 ] final  -39.76 input   59.86 | X-H torsion
[ 10167 10162 10161 10158 ] final -126.26 input  -65.29 | X-H torsion
[ 10718 10713 10712 10709 ] final   -2.31 input   66.30 | X-H torsion
[ 10763 10752 10751 10750 ] final   33.43 input  -60.55 | X-H torsion
[ 11005 11000 10999 10996 ] final   99.73 input  -57.11 | X-H torsion

> <Gold.Protein.ActiveResidues>
 VAL166  LYS551  ARG553  GLY616  TRP617  ASP618  TYR619  PRO620  LYS621  CYS622 
 ASP623  PHE694  ASN695  SER759  ASP760  ASP761  ALA762  ILE779  LEU786  VAL792 
 PHE793  MET794  SER795  GLU796  ALA797  LYS798  CYS799  TRP800  GLU811  SER814 

> <Gold.Protein.RotatedAtoms>
  151.8251  135.0639  160.0429 H   0  0  0  0  0  0  0  0  0  0  0  0  # atno 6907 bound_to 6896
  152.2922  133.5568  159.5573 H   0  0  0  0  0  0  0  0  0  0  0  0  # atno 6908 bound_to 6896
  150.7235  134.0328  159.3781 H   0  0  0  0  0  0  0  0  0  0  0  0  # atno 6909 bound_to 6896
  144.7782  140.4633  143.5858 H   0  0  0  0  0  0  0  0  0  0  0  0  # atno 7974 bound_to 7965
  154.4019  140.1543  156.2916 H   0  0  0  0  0  0  0  0  0  0  0  0  # atno 8008 bound_to 7997
  155.8780  140.3445  155.5846 H   0  0  0  0  0  0  0  0  0  0  0  0  # atno 8009 bound_to 7997
  155.7699  140.0829  157.2103 H   0  0  0  0  0  0  0  0  0  0  0  0  # atno 8010 bound_to 7997
  139.9733  143.5822  152.2405 H   0  0  0  0  0  0  0  0  0  0  0  0  # atno 10167 bound_to 10162
  156.7927  130.5367  149.5733 H   0  0  0  0  0  0  0  0  0  0  0  0  # atno 10718 bound_to 10713
  153.0212  135.6387  154.1511 H   0  0  0  0  0  0  0  0  0  0  0  0  # atno 10763 bound_to 10752
  154.1245  135.2844  155.3202 H   0  0  0  0  0  0  0  0  0  0  0  0  # atno 10764 bound_to 10752
  154.6239  135.5515  153.7668 H   0  0  0  0  0  0  0  0  0  0  0  0  # atno 10765 bound_to 10752
  139.8770  134.9108  156.4649 H   0  0  0  0  0  0  0  0  0  0  0  0  # atno 11005 bound_to 11000
  145.6124  139.1515  143.3068 LP  0  0  0  0  0  0  0  0  0  0  0  0  # atno 17320 bound_to 7965
  146.1975  140.6239  142.9117 LP  0  0  0  0  0  0  0  0  0  0  0  0  # atno 17321 bound_to 7965
  139.6464  144.7658  151.2234 LP  0  0  0  0  0  0  0  0  0  0  0  0  # atno 17342 bound_to 10162
  140.7514  143.6231  150.8494 LP  0  0  0  0  0  0  0  0  0  0  0  0  # atno 17343 bound_to 10162
  156.1149  130.6067  151.0105 LP  0  0  0  0  0  0  0  0  0  0  0  0  # atno 17370 bound_to 10713
  157.6592  131.0884  150.7877 LP  0  0  0  0  0  0  0  0  0  0  0  0  # atno 17371 bound_to 10713
  140.8837  133.7899  155.9495 LP  0  0  0  0  0  0  0  0  0  0  0  0  # atno 17394 bound_to 11000
  140.8827  134.2592  157.5136 LP  0  0  0  0  0  0  0  0  0  0  0  0  # atno 17395 bound_to 11000

$$$$
