AV-unprocessed.smi:741|AV-procd|sdf|3556|dock8
  -GOLD-   22720 0553D 1   1.00000     0.00000
 Structure written by MMmdl.
 43 44  0  0  0  0  0  0  0  0  3 V2000
  147.3025  133.5999  153.0653 C   0  0  0  0  0  0  0  0  0  0  0  0
  146.3827  134.0261  151.9118 C   0  0  0  0  0  0  0  0  0  0  0  0
  145.6011  135.3253  152.1865 C   0  0  2  0  0  0  0  0  0  0  0  0
  144.5906  135.6149  151.0540 C   0  0  0  0  0  0  0  0  0  0  0  0
  143.8099  134.4188  150.6537 N   0  3  0  0  0  0  0  0  0  0  0  0
  144.4535  133.5824  149.6138 C   0  0  0  0  0  0  0  0  0  0  0  0
  144.1821  132.1179  149.9859 C   0  0  0  0  0  0  0  0  0  0  0  0
  143.1357  132.1825  151.0944 C   0  0  0  0  0  0  0  0  0  0  0  0
  143.4272  133.5207  151.7633 C   0  0  0  0  0  0  0  0  0  0  0  0
  146.5394  136.4393  152.3461 N   0  0  0  0  0  0  0  0  0  0  0  0
  146.2601  137.6408  152.8729 C   0  0  0  0  0  0  0  0  0  0  0  0
  145.1340  137.9757  153.2378 O   0  0  0  0  0  0  0  0  0  0  0  0
  147.3554  138.4192  152.9195 N   0  0  0  0  0  0  0  0  0  0  0  0
  147.4847  139.7413  153.4275 C   0  0  0  0  0  0  0  0  0  0  0  0
  148.7049  140.0845  154.0514 C   0  0  0  0  0  0  0  0  0  0  0  0
  148.8745  141.3785  154.5850 C   0  0  0  0  0  0  0  0  0  0  0  0
  147.8688  142.2757  154.5048 N   0  3  0  0  0  0  0  0  0  0  0  0
  146.6802  141.9905  153.9314 C   0  0  0  0  0  0  0  0  0  0  0  0
  146.4523  140.7129  153.3802 C   0  0  0  0  0  0  0  0  0  0  0  0
  147.7922  132.6529  152.8378 H   0  0  0  0  0  0  0  0  0  0  0  0
  146.7386  133.4667  153.9891 H   0  0  0  0  0  0  0  0  0  0  0  0
  148.0840  134.3365  153.2517 H   0  0  0  0  0  0  0  0  0  0  0  0
  146.9732  134.1337  151.0009 H   0  0  0  0  0  0  0  0  0  0  0  0
  145.6767  133.2175  151.7194 H   0  0  0  0  0  0  0  0  0  0  0  0
  145.0510  135.1748  153.1173 H   0  0  0  0  0  0  0  0  0  0  0  0
  143.8997  136.3881  151.3943 H   0  0  0  0  0  0  0  0  0  0  0  0
  145.0978  136.0229  150.1784 H   0  0  0  0  0  0  0  0  0  0  0  0
  144.0254  133.8322  148.6427 H   0  0  0  0  0  0  0  0  0  0  0  0
  145.5284  133.7620  149.5581 H   0  0  0  0  0  0  0  0  0  0  0  0
  143.8503  131.5233  149.1345 H   0  0  0  0  0  0  0  0  0  0  0  0
  145.0955  131.6626  150.3709 H   0  0  0  0  0  0  0  0  0  0  0  0
  142.1346  132.1953  150.6614 H   0  0  0  0  0  0  0  0  0  0  0  0
  143.1950  131.3404  151.7845 H   0  0  0  0  0  0  0  0  0  0  0  0
  144.2622  133.4083  152.4569 H   0  0  0  0  0  0  0  0  0  0  0  0
  142.5727  133.8982  152.3243 H   0  0  0  0  0  0  0  0  0  0  0  0
  147.4932  136.2605  152.0664 H   0  0  0  0  0  0  0  0  0  0  0  0
  148.1910  138.0334  152.5042 H   0  0  0  0  0  0  0  0  0  0  0  0
  149.5096  139.3667  154.1195 H   0  0  0  0  0  0  0  0  0  0  0  0
  149.7764  141.7193  155.0724 H   0  0  0  0  0  0  0  0  0  0  0  0
  145.9486  142.7854  153.9365 H   0  0  0  0  0  0  0  0  0  0  0  0
  145.4868  140.5027  152.9465 H   0  0  0  0  0  0  0  0  0  0  0  0
  142.9468  134.7474  150.2443 H   0  0  0  0  0  0  0  0  0  0  0  0
  148.0108  143.2063  154.8991 H   0  0  0  0  0  0  0  0  0  0  0  0
  1  2  1  0  0  0  0
  1 20  1  0  0  0  0
  1 21  1  0  0  0  0
  1 22  1  0  0  0  0
  2  3  1  0  0  0  0
  2 23  1  0  0  0  0
  2 24  1  0  0  0  0
  3  4  1  0  0  0  0
  3 10  1  0  0  0  0
  3 25  1  0  0  0  0
  4  5  1  0  0  0  0
  4 26  1  0  0  0  0
  4 27  1  0  0  0  0
  5  9  1  0  0  0  0
  5  6  1  0  0  0  0
  5 42  1  0  0  0  0
  6  7  1  0  0  0  0
  6 28  1  0  0  0  0
  6 29  1  0  0  0  0
  7  8  1  0  0  0  0
  7 30  1  0  0  0  0
  7 31  1  0  0  0  0
  8  9  1  0  0  0  0
  8 32  1  0  0  0  0
  8 33  1  0  0  0  0
  9 34  1  0  0  0  0
  9 35  1  0  0  0  0
 10 11  1  0  0  0  0
 10 36  1  0  0  0  0
 11 12  2  0  0  0  0
 11 13  1  0  0  0  0
 13 14  1  0  0  0  0
 13 37  1  0  0  0  0
 14 19  1  0  0  0  0
 14 15  2  0  0  0  0
 15 16  1  0  0  0  0
 15 38  1  0  0  0  0
 16 17  2  0  0  0  0
 16 39  1  0  0  0  0
 17 18  1  0  0  0  0
 17 43  1  0  0  0  0
 18 19  2  0  0  0  0
 18 40  1  0  0  0  0
 19 41  1  0  0  0  0
M  CHG  1   5   1
M  CHG  1  17   1
M  END
> <s_m_source_file>
AV-unprocessed.smi

> <i_m_source_file_index>
741

> <i_lp_mmshare_version>
43012

> <i_f3d_flags>
0

> <s_epik_input>
W0NIMl0xW0NIMl1bQ0gyXVtDSDJdTjFbQ0gyXVtDQEBIXShbQ0gyXVtDSDNdKVtOSF1DKD1PKVtOSF1jMltjSF1bY0hdbltjSF1bY0hdMg==

> <s_epik_cmdline>
J2VwaWtfcHl0aG9uJywgJy1waCcsICc3LjAnLCAnLXRuJywgJzgnLCAnLW1hJywgJzIwMCcsICctbWV0YWxfYmluZGluZycsICctaW1hZScsICc8aW5maWxlLm1hZT4nLCAnLW9tYWUnLCAnPG91dGZpbGUubWFlPic=

> <r_epik_Ionization_Penalty>
1.10771

> <r_epik_Ionization_Penalty_Charging>
1.10769

> <r_epik_Ionization_Penalty_Neutral>
1.91663e-05

> <r_epik_State_Penalty>
1.16347

> <r_epik_Charging_Adjusted_Penalty>
2.27116

> <i_epik_Tot_Q>
2

> <i_epik_Tot_abs_Q>
2

> <r_epik_Metal_State_Penalty>
1.24871

> <b_epik_Metal_Only>
0

> <s_lp_Force_Field>
OPLS_2005

> <r_lp_Energy>
49.4114

> <b_lp_Chiralities_Consistent>
1

> <s_lp_Variant>
AV-unprocessed.smi:741-3

> <Gold.Version>
5.8.1

> <Gold.Id.Protein>
6NUR|6NUR_protein|mol2

> <Gold.PLP.Fitness>
46.1574

> <Gold.PLP.PLP>
-30.8775

> <Gold.PLP.part.hbond>
-3.9657

> <Gold.PLP.part.metal>
0.0000

> <Gold.PLP.part.buried>
1.9063

> <Gold.PLP.part.nonpolar>
-32.3878

> <Gold.PLP.part.repulsive>
1.2688

> <Gold.PLP.ligand.clash>
0.0000

> <Gold.PLP.ligand.torsion>
0.7738

> <Gold.PLP.Chemscore.Hbond>
5.5880

> <Gold.PLP.Chemscore.CHOScore>
0.0000

> <Gold.PLP.Chemscore.Metal>
0.0000

> <Gold.Chemscore.Hbonds>
donor molecule, donor type, donor heavy atom, donor atom, acceptor molecule, acceptor atom, score
      L1  H     5    42       P1 10186  1.79
      L1  H    10    36       P1  7948  0.81
      L1  H    13    37       P1  7948  0.82
      L1  H    17    43       P1  8028  2.00

> <Gold.PLP.Chemscore.Internal.Correction>
0.0636

> <Gold.Rescore>
     Score         DG    S(hbond)    S(metal)    S(lipo)     H(rot)  DE(clash)    DE(int)     intcor
     18.37     -22.26       3.16        0.00      88.86       1.63       0.77       3.12       ----

> <Gold.Chemscore.Fitness>
18.3716

> <Gold.Chemscore.DG>
-22.2640

> <Gold.Chemscore.ZeroCoef>
-5.4800

> <Gold.Chemscore.Hbond>
3.1588

> <Gold.Chemscore.Metal>
0.0000

> <Gold.Chemscore.Lipo>
88.8569

> <Gold.Chemscore.Internal_Hbond>
0.0000

> <Gold.Chemscore.DEClash>
0.7742

> <Gold.Chemscore.DEInternal>
3.1182

> <Gold.Chemscore.Rot>
1.6260

> <Gold.Chemscore.Internal.Correction>
   9.000000E+99

> <Gold.Chemscore.Hbonds>
donor molecule, donor type, donor heavy atom, donor atom, acceptor molecule, acceptor atom, score
      L1  H     5    42       P1 10186  0.38
      L1  H    10    36       P1  7948  0.80
      L1  H    13    37       P1  7948  0.75
      L1  H    17    43       P1  8028  0.88

> <Gold.Chemscore.Hbond.Weighted>
-10.5503

> <Gold.Chemscore.Metal.Weighted>
-0.0000

> <Gold.Chemscore.Lipo.Weighted>
-10.3963

> <Gold.Chemscore.Internal_Hbond.Weighted>
0.0000

> <Gold.Chemscore.DEClash.Weighted>
0.7742

> <Gold.Chemscore.DEInternal.Weighted>
3.1182

> <Gold.Chemscore.Rot.Weighted>
4.1626

> <Gold.Chemscore.Internal.Correction.Weighted>
   9.000000E+99

> <Gold.Protein.RotatedTorsions>
[ 6907 6896 6895 6894 ] final  100.03 input  -60.11 | X-H torsion
[ 7974 7965 7964 7962 ] final   82.34 input  175.53 | X-H torsion
[ 8008 7997 7996 7995 ] final -109.90 input   59.86 | X-H torsion
[ 10167 10162 10161 10158 ] final   41.36 input  -65.29 | X-H torsion
[ 10718 10713 10712 10709 ] final  -72.71 input   66.30 | X-H torsion
[ 10763 10752 10751 10750 ] final   -7.15 input  -60.55 | X-H torsion
[ 11005 11000 10999 10996 ] final   -9.84 input  -57.11 | X-H torsion

> <Gold.Protein.ActiveResidues>
 VAL166  LYS551  ARG553  GLY616  TRP617  ASP618  TYR619  PRO620  LYS621  CYS622 
 ASP623  PHE694  ASN695  SER759  ASP760  ASP761  ALA762  ILE779  LEU786  VAL792 
 PHE793  MET794  SER795  GLU796  ALA797  LYS798  CYS799  TRP800  GLU811  SER814 

> <Gold.Protein.RotatedAtoms>
  152.5380  134.0338  159.8036 H   0  0  0  0  0  0  0  0  0  0  0  0  # atno 6907 bound_to 6896
  151.0505  133.5621  159.2650 H   0  0  0  0  0  0  0  0  0  0  0  0  # atno 6908 bound_to 6896
  151.2557  135.0645  159.9132 H   0  0  0  0  0  0  0  0  0  0  0  0  # atno 6909 bound_to 6896
  145.6263  139.2396  143.2110 H   0  0  0  0  0  0  0  0  0  0  0  0  # atno 7974 bound_to 7965
  154.9663  140.0398  157.2214 H   0  0  0  0  0  0  0  0  0  0  0  0  # atno 8008 bound_to 7997
  154.7842  140.2824  155.6018 H   0  0  0  0  0  0  0  0  0  0  0  0  # atno 8009 bound_to 7997
  156.2940  140.2586  156.2674 H   0  0  0  0  0  0  0  0  0  0  0  0  # atno 8010 bound_to 7997
  140.3651  144.2178  150.6136 H   0  0  0  0  0  0  0  0  0  0  0  0  # atno 10167 bound_to 10162
  156.0309  130.4378  150.2634 H   0  0  0  0  0  0  0  0  0  0  0  0  # atno 10718 bound_to 10713
  153.4224  135.7010  153.6285 H   0  0  0  0  0  0  0  0  0  0  0  0  # atno 10763 bound_to 10752
  153.4734  135.3709  155.2404 H   0  0  0  0  0  0  0  0  0  0  0  0  # atno 10764 bound_to 10752
  154.8722  135.4048  154.3594 H   0  0  0  0  0  0  0  0  0  0  0  0  # atno 10765 bound_to 10752
  140.7384  133.8690  155.8948 H   0  0  0  0  0  0  0  0  0  0  0  0  # atno 11005 bound_to 11000
  146.1392  140.7081  142.9375 LP  0  0  0  0  0  0  0  0  0  0  0  0  # atno 17320 bound_to 7965
  144.7211  140.4376  143.7007 LP  0  0  0  0  0  0  0  0  0  0  0  0  # atno 17321 bound_to 7965
  140.5089  143.2296  151.8566 LP  0  0  0  0  0  0  0  0  0  0  0  0  # atno 17342 bound_to 10162
  139.4809  144.4973  151.9106 LP  0  0  0  0  0  0  0  0  0  0  0  0  # atno 17343 bound_to 10162
  157.0736  131.0123  151.3181 LP  0  0  0  0  0  0  0  0  0  0  0  0  # atno 17370 bound_to 10713
  157.4981  130.7863  149.7576 LP  0  0  0  0  0  0  0  0  0  0  0  0  # atno 17371 bound_to 10713
  140.9858  134.1344  157.4453 LP  0  0  0  0  0  0  0  0  0  0  0  0  # atno 17394 bound_to 11000
  139.8811  135.0025  156.6130 LP  0  0  0  0  0  0  0  0  0  0  0  0  # atno 17395 bound_to 11000

$$$$
