AV-unprocessed.smi:623|AV-procd|sdf|3096|dock7
  -GOLD-   22720 0 13D 1   1.00000     0.00000
 Structure written by MMmdl.
 44 46  0  0  0  0  0  0  0  0  2 V2000
  144.8051  134.2409  161.1759 C   0  0  0  0  0  0  0  0  0  0  0  0
  145.9774  135.2589  161.0944 C   0  0  0  0  0  0  0  0  0  0  0  0
  145.3431  136.5636  160.5350 C   0  0  0  0  0  0  0  0  0  0  0  0
  146.7493  135.4456  162.4162 C   0  0  1  0  0  0  0  0  0  0  0  0
  147.3554  134.0486  162.6808 C   0  0  0  0  0  0  0  0  0  0  0  0
  147.6899  133.5532  161.2580 C   0  0  0  0  0  0  0  0  0  0  0  0
  147.2534  134.7463  160.3687 C   0  0  1  0  0  0  0  0  0  0  0  0
  147.0740  134.3473  158.8900 C   0  0  0  0  0  0  0  0  0  0  0  0
  148.3219  135.8517  160.6309 C   0  0  1  0  0  0  0  0  0  0  0  0
  148.3227  136.8865  159.6041 N   0  0  0  0  0  0  0  0  0  0  0  0
  149.3810  137.3294  158.9086 C   0  0  0  0  0  0  0  0  0  0  0  0
  150.5150  136.8741  159.0530 O   0  0  0  0  0  0  0  0  0  0  0  0
  149.1430  138.4746  157.9080 C   0  0  0  0  0  0  0  0  0  0  0  0
  150.2885  138.7467  157.0185 N   0  0  0  0  0  0  0  0  0  0  0  0
  150.0723  138.6343  155.6337 C   0  0  0  0  0  0  0  0  0  0  0  0
  151.0656  138.8112  154.7421 C   0  0  0  0  0  0  0  0  0  0  0  0
  152.3959  139.1293  155.2457 C   0  0  0  0  0  0  0  0  0  0  0  0
  153.3160  139.2904  154.4466 O   0  0  0  0  0  0  0  0  0  0  0  0
  152.5550  139.2315  156.5976 N   0  5  0  0  0  0  0  0  0  0  0  0
  151.5364  139.0439  157.4928 C   0  0  0  0  0  0  0  0  0  0  0  0
  151.7066  139.1196  158.7097 O   0  0  0  0  0  0  0  0  0  0  0  0
  147.9236  136.3742  162.0308 C   0  0  0  0  0  0  0  0  0  0  0  0
  144.0198  134.6118  161.8351 H   0  0  0  0  0  0  0  0  0  0  0  0
  145.0731  133.2539  161.5452 H   0  0  0  0  0  0  0  0  0  0  0  0
  144.3543  134.0922  160.1942 H   0  0  0  0  0  0  0  0  0  0  0  0
  146.0050  137.4239  160.4959 H   0  0  0  0  0  0  0  0  0  0  0  0
  144.4953  136.8706  161.1479 H   0  0  0  0  0  0  0  0  0  0  0  0
  144.9671  136.4109  159.5231 H   0  0  0  0  0  0  0  0  0  0  0  0
  146.1545  135.8243  163.2480 H   0  0  0  0  0  0  0  0  0  0  0  0
  148.2395  134.0956  163.3176 H   0  0  0  0  0  0  0  0  0  0  0  0
  146.6416  133.3877  163.1731 H   0  0  0  0  0  0  0  0  0  0  0  0
  148.7471  133.3092  161.1465 H   0  0  0  0  0  0  0  0  0  0  0  0
  147.1377  132.6441  161.0191 H   0  0  0  0  0  0  0  0  0  0  0  0
  148.0216  134.0285  158.4550 H   0  0  0  0  0  0  0  0  0  0  0  0
  146.6964  135.1735  158.2872 H   0  0  0  0  0  0  0  0  0  0  0  0
  146.3701  133.5220  158.7851 H   0  0  0  0  0  0  0  0  0  0  0  0
  149.3233  135.4176  160.6550 H   0  0  0  0  0  0  0  0  0  0  0  0
  147.4308  137.3176  159.4060 H   0  0  0  0  0  0  0  0  0  0  0  0
  148.2630  138.2292  157.3120 H   0  0  0  0  0  0  0  0  0  0  0  0
  148.8666  139.3714  158.4647 H   0  0  0  0  0  0  0  0  0  0  0  0
  149.0614  138.3853  155.3459 H   0  0  0  0  0  0  0  0  0  0  0  0
  150.8839  138.7143  153.6819 H   0  0  0  0  0  0  0  0  0  0  0  0
  147.6143  137.4194  162.0111 H   0  0  0  0  0  0  0  0  0  0  0  0
  148.7513  136.3082  162.7379 H   0  0  0  0  0  0  0  0  0  0  0  0
  1  2  1  0  0  0  0
  1 23  1  0  0  0  0
  1 24  1  0  0  0  0
  1 25  1  0  0  0  0
  2  7  1  0  0  0  0
  2  3  1  0  0  0  0
  2  4  1  0  0  0  0
  3 26  1  0  0  0  0
  3 27  1  0  0  0  0
  3 28  1  0  0  0  0
  4 22  1  0  0  0  0
  4  5  1  0  0  0  0
  4 29  1  0  0  0  0
  5  6  1  0  0  0  0
  5 30  1  0  0  0  0
  5 31  1  0  0  0  0
  6  7  1  0  0  0  0
  6 32  1  0  0  0  0
  6 33  1  0  0  0  0
  7  8  1  0  0  0  0
  7  9  1  0  0  0  0
  8 34  1  0  0  0  0
  8 35  1  0  0  0  0
  8 36  1  0  0  0  0
  9 10  1  0  0  0  0
  9 22  1  0  0  0  0
  9 37  1  0  0  0  0
 10 11  1  0  0  0  0
 10 38  1  0  0  0  0
 11 12  2  0  0  0  0
 11 13  1  0  0  0  0
 13 14  1  0  0  0  0
 13 39  1  0  0  0  0
 13 40  1  0  0  0  0
 14 20  1  0  0  0  0
 14 15  1  0  0  0  0
 15 16  2  0  0  0  0
 15 41  1  0  0  0  0
 16 17  1  0  0  0  0
 16 42  1  0  0  0  0
 17 18  2  0  0  0  0
 17 19  1  0  0  0  0
 19 20  1  0  0  0  0
 20 21  2  0  0  0  0
 22 43  1  0  0  0  0
 22 44  1  0  0  0  0
M  CHG  1  19  -1
M  END
> <s_m_source_file>
AV-unprocessed.smi

> <i_m_source_file_index>
623

> <i_lp_mmshare_version>
43012

> <i_f3d_flags>
0

> <s_epik_input>
W0NIM11bQ0BdMTJDKFtDSDNdKShbQ0gzXSlbQ0BIXShbQ0gyXVtDSDJdMSlbQ0gyXVtDQEBIXTJbTkhdQyg9TylbQ0gyXW4zW2NIXVtjSF1jKD1PKVtuSF1jMz1P

> <s_epik_cmdline>
J2VwaWtfcHl0aG9uJywgJy1waCcsICc3LjAnLCAnLXRuJywgJzgnLCAnLW1hJywgJzIwMCcsICctbWV0YWxfYmluZGluZycsICctaW1hZScsICc8aW5maWxlLm1hZT4nLCAnLW9tYWUnLCAnPG91dGZpbGUubWFlPic=

> <r_lp_tautomer_probability>
0.999537

> <r_epik_Ionization_Penalty>
3.12624

> <r_epik_Ionization_Penalty_Charging>
3.01273e-08

> <r_epik_Ionization_Penalty_Neutral>
3.12624

> <r_epik_State_Penalty>
3.12534

> <r_epik_Charging_Adjusted_Penalty>
3.12534

> <i_epik_Tot_Q>
-1

> <i_epik_Tot_abs_Q>
1

> <r_epik_Metal_State_Penalty>
0.46406

> <b_epik_Metal_Only>
1

> <s_lp_Force_Field>
OPLS_2005

> <r_lp_Energy>
63.0449

> <b_lp_Chiralities_Consistent>
1

> <s_lp_Variant>
AV-unprocessed.smi:623-6

> <Gold.Version>
5.8.1

> <Gold.Id.Protein>
6NUR|6NUR_protein|mol2

> <Gold.PLP.Fitness>
43.3574

> <Gold.PLP.PLP>
-34.0534

> <Gold.PLP.part.hbond>
-3.9775

> <Gold.PLP.part.metal>
0.0000

> <Gold.PLP.part.buried>
-3.8607

> <Gold.PLP.part.nonpolar>
-26.5978

> <Gold.PLP.part.repulsive>
0.2403

> <Gold.PLP.ligand.clash>
0.0000

> <Gold.PLP.ligand.torsion>
0.1511

> <Gold.PLP.Chemscore.Hbond>
3.1976

> <Gold.PLP.Chemscore.CHOScore>
0.0000

> <Gold.PLP.Chemscore.Metal>
0.0000

> <Gold.Chemscore.Hbonds>
donor molecule, donor type, donor heavy atom, donor atom, acceptor molecule, acceptor atom, score
      P1  H  6896  6908       L1    12  0.94
      P1  H  7997  8008       L1    18  0.15
      P1  H  7997  8010       L1    19  1.00

> <Gold.PLP.Chemscore.Internal.Correction>
0.0134

> <Gold.Rescore>
     Score         DG    S(hbond)    S(metal)    S(lipo)     H(rot)  DE(clash)    DE(int)     intcor
     15.66     -16.10       1.84        0.00      74.09       1.63       0.03       0.42       ----

> <Gold.Chemscore.Fitness>
15.6556

> <Gold.Chemscore.DG>
-16.1011

> <Gold.Chemscore.ZeroCoef>
-5.4800

> <Gold.Chemscore.Hbond>
1.8357

> <Gold.Chemscore.Metal>
0.0000

> <Gold.Chemscore.Lipo>
74.0884

> <Gold.Chemscore.Internal_Hbond>
0.0000

> <Gold.Chemscore.DEClash>
0.0285

> <Gold.Chemscore.DEInternal>
0.4170

> <Gold.Chemscore.Rot>
1.6322

> <Gold.Chemscore.Internal.Correction>
   9.000000E+99

> <Gold.Chemscore.Hbonds>
donor molecule, donor type, donor heavy atom, donor atom, acceptor molecule, acceptor atom, score
      P1  H  6896  6908       L1    12  0.90
      P1  H  7997  8008       L1    18  0.13
      P1  H  7997  8010       L1    19  0.30

> <Gold.Chemscore.Hbond.Weighted>
-6.1311

> <Gold.Chemscore.Metal.Weighted>
-0.0000

> <Gold.Chemscore.Lipo.Weighted>
-8.6683

> <Gold.Chemscore.Internal_Hbond.Weighted>
0.0000

> <Gold.Chemscore.DEClash.Weighted>
0.0285

> <Gold.Chemscore.DEInternal.Weighted>
0.4170

> <Gold.Chemscore.Rot.Weighted>
4.1783

> <Gold.Chemscore.Internal.Correction.Weighted>
   9.000000E+99

> <Gold.Protein.RotatedTorsions>
[ 6907 6896 6895 6894 ] final -151.02 input  -60.11 | X-H torsion
[ 7974 7965 7964 7962 ] final -135.94 input  175.53 | X-H torsion
[ 8008 7997 7996 7995 ] final   38.21 input   59.86 | X-H torsion
[ 10167 10162 10161 10158 ] final -129.50 input  -65.29 | X-H torsion
[ 10718 10713 10712 10709 ] final    3.60 input   66.30 | X-H torsion
[ 10763 10752 10751 10750 ] final  -40.30 input  -60.55 | X-H torsion
[ 11005 11000 10999 10996 ] final   88.59 input  -57.11 | X-H torsion

> <Gold.Protein.ActiveResidues>
 VAL166  LYS551  ARG553  GLY616  TRP617  ASP618  TYR619  PRO620  LYS621  CYS622 
 ASP623  PHE694  ASN695  SER759  ASP760  ASP761  ALA762  ILE779  LEU786  VAL792 
 PHE793  MET794  SER795  GLU796  ALA797  LYS798  CYS799  TRP800  GLU811  SER814 

> <Gold.Protein.RotatedAtoms>
  151.2071  133.4577  159.2597 H   0  0  0  0  0  0  0  0  0  0  0  0  # atno 6907 bound_to 6896
  151.1013  134.9974  159.8460 H   0  0  0  0  0  0  0  0  0  0  0  0  # atno 6908 bound_to 6896
  152.5443  134.1997  159.8760 H   0  0  0  0  0  0  0  0  0  0  0  0  # atno 6909 bound_to 6896
  144.8970  140.6720  143.5109 H   0  0  0  0  0  0  0  0  0  0  0  0  # atno 7974 bound_to 7965
  155.2164  140.3327  155.4321 H   0  0  0  0  0  0  0  0  0  0  0  0  # atno 8008 bound_to 7997
  156.2350  140.1868  156.7190 H   0  0  0  0  0  0  0  0  0  0  0  0  # atno 8009 bound_to 7997
  154.6044  140.0618  156.9397 H   0  0  0  0  0  0  0  0  0  0  0  0  # atno 8010 bound_to 7997
  139.9391  143.6184  152.2508 H   0  0  0  0  0  0  0  0  0  0  0  0  # atno 10167 bound_to 10162
  156.8802  130.5651  149.5653 H   0  0  0  0  0  0  0  0  0  0  0  0  # atno 10718 bound_to 10713
  153.9437  135.6758  153.4744 H   0  0  0  0  0  0  0  0  0  0  0  0  # atno 10763 bound_to 10752
  153.0919  135.4870  154.8702 H   0  0  0  0  0  0  0  0  0  0  0  0  # atno 10764 bound_to 10752
  154.7363  135.3150  154.8764 H   0  0  0  0  0  0  0  0  0  0  0  0  # atno 10765 bound_to 10752
  139.8893  134.8497  156.3022 H   0  0  0  0  0  0  0  0  0  0  0  0  # atno 11005 bound_to 11000
  145.3683  139.1665  143.4346 LP  0  0  0  0  0  0  0  0  0  0  0  0  # atno 17320 bound_to 7965
  146.3087  140.3752  142.8678 LP  0  0  0  0  0  0  0  0  0  0  0  0  # atno 17321 bound_to 7965
  139.6719  144.7660  151.1767 LP  0  0  0  0  0  0  0  0  0  0  0  0  # atno 17342 bound_to 10162
  140.7616  143.5852  150.8853 LP  0  0  0  0  0  0  0  0  0  0  0  0  # atno 17343 bound_to 10162
  156.0681  130.5720  150.9329 LP  0  0  0  0  0  0  0  0  0  0  0  0  # atno 17370 bound_to 10713
  157.6145  131.0934  150.8736 LP  0  0  0  0  0  0  0  0  0  0  0  0  # atno 17371 bound_to 10713
  140.9906  133.7211  156.0808 LP  0  0  0  0  0  0  0  0  0  0  0  0  # atno 17394 bound_to 11000
  140.7630  134.3917  157.5522 LP  0  0  0  0  0  0  0  0  0  0  0  0  # atno 17395 bound_to 11000

$$$$
