#       Name:                AV-unprocessed.smi:2115
#       Creating user name   scv26
#       Creation time:       Fri Mar 27 11:36:56 2020


#       File generated by GOLD software.
#

@<TRIPOS>MOLECULE
AV-unprocessed.smi:2115
    46    47     1
SMALL
NO_CHARGES


@<TRIPOS>ATOM
      1 ****        -2.9921   6.8918   0.8442 C.3            1 S1                 0.0000
      2 ****        -2.6777   5.5150   0.7334 O.3            1 S1                 0.0000
      3 ****        -2.8835   5.0141  -0.5773 C.3            1 S1                 0.0000
      4 ****        -2.5279   3.5248  -0.6064 C.3            1 S1                 0.0000
      5 ****        -1.1102   3.3897  -0.5694 O.3            1 S1                 0.0000
      6 ****        -0.5693   2.1205  -0.5561 C.ar           1 S1                 0.0000
      7 ****         0.8325   1.9865  -0.5157 C.ar           1 S1                 0.0000
      8 ****         1.3899   0.6941  -0.4994 C.ar           1 S1                 0.0000
      9 ****         0.5338  -0.4255  -0.5136 C.ar           1 S1                 0.0000
     10 ****         1.1275  -1.7170  -0.5114 N.am           1 S1                 0.0000
     11 ****         0.5831  -2.8960  -0.1550 C.2            1 S1                 0.0000
     12 ****        -0.5742  -3.0373   0.2392 O.2            1 S1                 0.0000
     13 ****         1.5005  -4.1226  -0.2643 C.3            1 S1                 0.0000
     14 ****         1.2156  -5.2195   0.7669 C.3            1 S1                 0.0000
     15 ****         2.5645  -5.8932   0.8786 C.3            1 S1                 0.0000
     16 ****         3.5190  -4.7086   0.7738 C.3            1 S1                 0.0000
     17 ****         2.8604  -3.7440  -0.0427 O.3            1 S1                 0.0000
     18 ****        -0.8612  -0.1863  -0.5675 C.ar           1 S1                 0.0000
     19 ****        -1.4019   1.0508  -0.5865 N.ar           1 S1                 0.0000
     20 ****        -2.8136   7.2273   1.8658 H              1 S1                 0.0000
     21 ****        -4.0408   7.0769   0.6074 H              1 S1                 0.0000
     22 ****        -2.3708   7.4932   0.1792 H              1 S1                 0.0000
     23 ****        -3.9322   5.1422  -0.8495 H              1 S1                 0.0000
     24 ****        -2.2867   5.5644  -1.3063 H              1 S1                 0.0000
     25 ****        -3.0007   3.0103   0.2318 H              1 S1                 0.0000
     26 ****        -2.9080   3.0837  -1.5292 H              1 S1                 0.0000
     27 ****         1.4683   2.8592  -0.4977 H              1 S1                 0.0000
     28 ****         2.4624   0.5680  -0.4712 H              1 S1                 0.0000
     29 ****         2.1096  -1.7437  -0.7455 H              1 S1                 0.0000
     30 ****         1.4265  -4.5361  -1.2712 H              1 S1                 0.0000
     31 ****         0.9295  -4.7958   1.7312 H              1 S1                 0.0000
     32 ****         0.4309  -5.9066   0.4480 H              1 S1                 0.0000
     33 ****         2.6871  -6.4602   1.8017 H              1 S1                 0.0000
     34 ****         2.7135  -6.5712   0.0372 H              1 S1                 0.0000
     35 ****         3.6877  -4.2692   1.7576 H              1 S1                 0.0000
     36 ****         4.4868  -4.9897   0.3579 H              1 S1                 0.0000
     37 ****        -1.5792  -0.9895  -0.6177 H              1 S1                 0.0000
     38 ****        -3.2565   5.0019   1.3672 LP             1 S1                 0.0000
     39 ****        -1.7172   5.3847   0.9792 LP             1 S1                 0.0000
     40 ****        -0.7909   3.8552   0.2560 LP             1 S1                 0.0000
     41 ****        -0.7481   3.8563  -1.3764 LP             1 S1                 0.0000
     42 ****        -1.1781  -2.2436   0.3116 LP             1 S1                 0.0000
     43 ****        -0.9105  -3.9458   0.4871 LP             1 S1                 0.0000
     44 ****         2.8844  -2.8546   0.4138 LP             1 S1                 0.0000
     45 ****         3.3320  -3.6800  -0.9222 LP             1 S1                 0.0000
     46 ****        -2.3935   1.1752  -0.6222 LP             1 S1                 0.0000
@<TRIPOS>BOND
    1    1    2 1     
    2    1   20 1     
    3    1   21 1     
    4    1   22 1     
    5    2    3 1     
    6    3    4 1     
    7    3   23 1     
    8    3   24 1     
    9    4    5 1     
   10    4   25 1     
   11    4   26 1     
   12    5    6 1     
   13    6   19 ar    
   14    6    7 ar    
   15    7    8 ar    
   16    7   27 1     
   17    8    9 ar    
   18    8   28 1     
   19    9   10 1     
   20    9   18 ar    
   21   10   11 am    
   22   10   29 1     
   23   11   12 2     
   24   11   13 1     
   25   13   17 1     
   26   13   14 1     
   27   13   30 1     
   28   14   15 1     
   29   14   31 1     
   30   14   32 1     
   31   15   16 1     
   32   15   33 1     
   33   15   34 1     
   34   16   17 1     
   35   16   35 1     
   36   16   36 1     
   37   18   19 ar    
   38   18   37 1     
   39    2   38 1     
   40    2   39 1     
   41    5   40 1     
   42    5   41 1     
   43   12   42 1     
   44   12   43 1     
   45   17   44 1     
   46   17   45 1     
   47   19   46 1     
@<TRIPOS>SUBSTRUCTURE
      1 S1             1
@<TRIPOS>SET
LONE_PAIRS      STATIC     ATOMS    <user>   **** ""
9 38 39 40 41 42 43 44 45 46
DONOR_HYDROGENS      STATIC     ATOMS    <user>   **** ""
1 29
ATOM$BLUE        STATIC     ATOMS    COLORGROUP SYSTEM
9 38 39 40 41 42 43 44 45 46
ATOM$RED        STATIC     ATOMS    COLORGROUP SYSTEM
1 29
