AV-unprocessed.smi:2131|AV-procd|sdf|8690|dock10
  -GOLD-   2272011443D 1   1.00000     0.00000
 Structure written by MMmdl.
 41 43  0  0  0  0  0  0  0  0  2 V2000
  149.9327  130.6812  155.2206 N   0  0  0  0  0  0  0  0  0  0  0  0
  149.5451  131.5559  154.5699 C   0  0  0  0  0  0  0  0  0  0  0  0
  149.0525  132.6681  153.7432 C   0  0  0  0  0  0  0  0  0  0  0  0
  149.1572  133.9978  154.4606 C   0  0  0  0  0  0  0  0  0  0  0  0
  148.0104  134.7936  154.6488 C   0  0  0  0  0  0  0  0  0  0  0  0
  148.1114  136.0315  155.3120 C   0  0  0  0  0  0  0  0  0  0  0  0
  149.3532  136.4940  155.7940 C   0  0  0  0  0  0  0  0  0  0  0  0
  149.3614  137.7176  156.4284 O   0  0  0  0  0  0  0  0  0  0  0  0
  150.5452  138.5021  156.3632 C   0  0  0  0  0  0  0  0  0  0  0  0
  151.0033  138.8287  157.7918 C   0  0  1  0  0  0  0  0  0  0  0  0
  151.4525  137.6374  158.4070 O   0  0  0  0  0  0  0  0  0  0  0  0
  152.1282  139.8828  157.8220 C   0  0  0  0  0  0  0  0  0  0  0  0
  151.6494  141.2356  157.5104 N   0  0  0  0  0  0  0  0  0  0  0  0
  150.9116  141.6822  156.4580 C   0  0  0  0  0  0  0  0  0  0  0  0
  150.7318  143.0224  156.6223 N   0  3  0  0  0  0  0  0  0  0  0  0
  151.3642  143.4375  157.7965 C   0  0  0  0  0  0  0  0  0  0  0  0
  151.4633  144.6948  158.3845 C   0  0  0  0  0  0  0  0  0  0  0  0
  152.1895  144.7736  159.5912 C   0  0  0  0  0  0  0  0  0  0  0  0
  152.7818  143.6315  160.1688 C   0  0  0  0  0  0  0  0  0  0  0  0
  152.6734  142.3612  159.5653 C   0  0  0  0  0  0  0  0  0  0  0  0
  151.9554  142.2931  158.3721 C   0  0  0  0  0  0  0  0  0  0  0  0
  150.5034  135.6871  155.6020 C   0  0  0  0  0  0  0  0  0  0  0  0
  150.4030  134.4482  154.9395 C   0  0  0  0  0  0  0  0  0  0  0  0
  149.6304  132.6932  152.8189 H   0  0  0  0  0  0  0  0  0  0  0  0
  148.0150  132.4665  153.4759 H   0  0  0  0  0  0  0  0  0  0  0  0
  147.0511  134.4578  154.2833 H   0  0  0  0  0  0  0  0  0  0  0  0
  147.2258  136.6346  155.4492 H   0  0  0  0  0  0  0  0  0  0  0  0
  151.3250  137.9387  155.8478 H   0  0  0  0  0  0  0  0  0  0  0  0
  150.3683  139.4241  155.8063 H   0  0  0  0  0  0  0  0  0  0  0  0
  150.1464  139.1872  158.3631 H   0  0  0  0  0  0  0  0  0  0  0  0
  150.6982  137.1374  158.6798 H   0  0  0  0  0  0  0  0  0  0  0  0
  152.5886  139.9180  158.8105 H   0  0  0  0  0  0  0  0  0  0  0  0
  152.9232  139.6303  157.1191 H   0  0  0  0  0  0  0  0  0  0  0  0
  150.5405  141.0827  155.6392 H   0  0  0  0  0  0  0  0  0  0  0  0
  151.0107  145.5714  157.9446 H   0  0  0  0  0  0  0  0  0  0  0  0
  152.2947  145.7297  160.0832 H   0  0  0  0  0  0  0  0  0  0  0  0
  153.3314  143.7313  161.0938 H   0  0  0  0  0  0  0  0  0  0  0  0
  153.1306  141.4913  160.0135 H   0  0  0  0  0  0  0  0  0  0  0  0
  151.4758  135.9955  155.9544 H   0  0  0  0  0  0  0  0  0  0  0  0
  151.2872  133.8440  154.7985 H   0  0  0  0  0  0  0  0  0  0  0  0
  150.2168  143.6080  155.9773 H   0  0  0  0  0  0  0  0  0  0  0  0
  1  2  3  0  0  0  0
  2  3  1  0  0  0  0
  3  4  1  0  0  0  0
  3 24  1  0  0  0  0
  3 25  1  0  0  0  0
  4 23  1  0  0  0  0
  4  5  2  0  0  0  0
  5  6  1  0  0  0  0
  5 26  1  0  0  0  0
  6  7  2  0  0  0  0
  6 27  1  0  0  0  0
  7  8  1  0  0  0  0
  7 22  1  0  0  0  0
  8  9  1  0  0  0  0
  9 10  1  0  0  0  0
  9 28  1  0  0  0  0
  9 29  1  0  0  0  0
 10 11  1  0  0  0  0
 10 12  1  0  0  0  0
 10 30  1  0  0  0  0
 11 31  1  0  0  0  0
 12 13  1  0  0  0  0
 12 32  1  0  0  0  0
 12 33  1  0  0  0  0
 13 21  1  0  0  0  0
 13 14  1  0  0  0  0
 14 15  2  0  0  0  0
 14 34  1  0  0  0  0
 15 16  1  0  0  0  0
 15 41  1  0  0  0  0
 16 21  2  0  0  0  0
 16 17  1  0  0  0  0
 17 18  2  0  0  0  0
 17 35  1  0  0  0  0
 18 19  1  0  0  0  0
 18 36  1  0  0  0  0
 19 20  2  0  0  0  0
 19 37  1  0  0  0  0
 20 21  1  0  0  0  0
 20 38  1  0  0  0  0
 22 23  2  0  0  0  0
 22 39  1  0  0  0  0
 23 40  1  0  0  0  0
M  CHG  1  15   1
M  END
> <s_m_source_file>
AV-unprocessed.smi

> <i_m_source_file_index>
2131

> <i_lp_mmshare_version>
43012

> <i_f3d_flags>
0

> <s_epik_input>
TiNDW0NIMl1jMVtjSF1bY0hdYyhbY0hdW2NIXTEpT1tDSDJdW0NASF0oW09IXSlbQ0gyXW4oW2NIXW4yKWMoYzIzKVtjSF1bY0hdW2NIXVtjSF0z

> <s_epik_cmdline>
J2VwaWtfcHl0aG9uJywgJy1waCcsICc3LjAnLCAnLXRuJywgJzgnLCAnLW1hJywgJzIwMCcsICctbWV0YWxfYmluZGluZycsICctaW1hZScsICc8aW5maWxlLm1hZT4nLCAnLW9tYWUnLCAnPG91dGZpbGUubWFlPic=

> <r_lp_tautomer_probability>
1

> <r_epik_Ionization_Penalty>
1.3774

> <r_epik_Ionization_Penalty_Charging>
1.37739

> <r_epik_Ionization_Penalty_Neutral>
2.3994e-06

> <r_epik_State_Penalty>
1.45762

> <r_epik_Charging_Adjusted_Penalty>
2.83501

> <i_epik_Tot_Q>
1

> <i_epik_Tot_abs_Q>
1

> <r_epik_Metal_State_Penalty>
5.49752

> <b_epik_Metal_Only>
0

> <s_lp_Force_Field>
OPLS_2005

> <r_lp_Energy>
20.3244

> <b_lp_Chiralities_Consistent>
1

> <s_lp_Variant>
AV-unprocessed.smi:2131-4

> <Gold.Version>
5.8.1

> <Gold.Id.Protein>
6NUR|6NUR_protein|mol2

> <Gold.PLP.Fitness>
47.6207

> <Gold.PLP.PLP>
-43.4252

> <Gold.PLP.part.hbond>
-1.0000

> <Gold.PLP.part.metal>
0.0000

> <Gold.PLP.part.buried>
-6.5563

> <Gold.PLP.part.nonpolar>
-35.7387

> <Gold.PLP.part.repulsive>
0.0662

> <Gold.PLP.ligand.clash>
0.0000

> <Gold.PLP.ligand.torsion>
0.9580

> <Gold.PLP.Chemscore.Hbond>
2.0000

> <Gold.PLP.Chemscore.CHOScore>
0.0000

> <Gold.PLP.Chemscore.Metal>
0.0000

> <Gold.Chemscore.Hbonds>
donor molecule, donor type, donor heavy atom, donor atom, acceptor molecule, acceptor atom, score
      L1  H    15    41       P1  8028  2.00

> <Gold.PLP.Chemscore.Internal.Correction>
0.1115

> <Gold.Rescore>
     Score         DG    S(hbond)    S(metal)    S(lipo)     H(rot)  DE(clash)    DE(int)     intcor
     14.02     -15.17       1.00        0.00     116.00       2.81       0.16       0.98       ----

> <Gold.Chemscore.Fitness>
14.0246

> <Gold.Chemscore.DG>
-15.1726

> <Gold.Chemscore.ZeroCoef>
-5.4800

> <Gold.Chemscore.Hbond>
0.9955

> <Gold.Chemscore.Metal>
0.0000

> <Gold.Chemscore.Lipo>
115.9969

> <Gold.Chemscore.Internal_Hbond>
0.0000

> <Gold.Chemscore.DEClash>
0.1644

> <Gold.Chemscore.DEInternal>
0.9837

> <Gold.Chemscore.Rot>
2.8140

> <Gold.Chemscore.Internal.Correction>
   9.000000E+99

> <Gold.Chemscore.Hbonds>
donor molecule, donor type, donor heavy atom, donor atom, acceptor molecule, acceptor atom, score
      L1  H    15    41       P1  8028  0.94

> <Gold.Chemscore.Hbond.Weighted>
-3.3249

> <Gold.Chemscore.Metal.Weighted>
-0.0000

> <Gold.Chemscore.Lipo.Weighted>
-13.5716

> <Gold.Chemscore.Internal_Hbond.Weighted>
0.0000

> <Gold.Chemscore.DEClash.Weighted>
0.1644

> <Gold.Chemscore.DEInternal.Weighted>
0.9837

> <Gold.Chemscore.Rot.Weighted>
7.2039

> <Gold.Chemscore.Internal.Correction.Weighted>
   9.000000E+99

> <Gold.Protein.RotatedTorsions>
[ 6907 6896 6895 6894 ] final -102.12 input  -60.11 | X-H torsion
[ 7974 7965 7964 7962 ] final -167.76 input  175.53 | X-H torsion
[ 8008 7997 7996 7995 ] final  175.65 input   59.86 | X-H torsion
[ 10167 10162 10161 10158 ] final -132.55 input  -65.29 | X-H torsion
[ 10718 10713 10712 10709 ] final   -8.20 input   66.30 | X-H torsion
[ 10763 10752 10751 10750 ] final   24.79 input  -60.55 | X-H torsion
[ 11005 11000 10999 10996 ] final  164.25 input  -57.11 | X-H torsion

> <Gold.Protein.ActiveResidues>
 VAL166  LYS551  ARG553  GLY616  TRP617  ASP618  TYR619  PRO620  LYS621  CYS622 
 ASP623  PHE694  ASN695  SER759  ASP760  ASP761  ALA762  ILE779  LEU786  VAL792 
 PHE793  MET794  SER795  GLU796  ALA797  LYS798  CYS799  TRP800  GLU811  SER814 

> <Gold.Protein.RotatedAtoms>
  150.7182  134.0630  159.3837 H   0  0  0  0  0  0  0  0  0  0  0  0  # atno 6907 bound_to 6896
  151.8610  135.0522  160.0478 H   0  0  0  0  0  0  0  0  0  0  0  0  # atno 6908 bound_to 6896
  152.2717  133.5352  159.5479 H   0  0  0  0  0  0  0  0  0  0  0  0  # atno 6909 bound_to 6896
  144.7216  140.2470  143.6284 H   0  0  0  0  0  0  0  0  0  0  0  0  # atno 7974 bound_to 7965
  156.0848  140.1403  156.9667 H   0  0  0  0  0  0  0  0  0  0  0  0  # atno 8008 bound_to 7997
  154.4606  140.0944  156.6931 H   0  0  0  0  0  0  0  0  0  0  0  0  # atno 8009 bound_to 7997
  155.5017  140.3451  155.4374 H   0  0  0  0  0  0  0  0  0  0  0  0  # atno 8010 bound_to 7997
  139.9074  143.6535  152.2582 H   0  0  0  0  0  0  0  0  0  0  0  0  # atno 10167 bound_to 10162
  156.7061  130.5108  149.5904 H   0  0  0  0  0  0  0  0  0  0  0  0  # atno 10718 bound_to 10713
  153.0738  135.6597  154.0189 H   0  0  0  0  0  0  0  0  0  0  0  0  # atno 10763 bound_to 10752
  153.9828  135.2953  155.3420 H   0  0  0  0  0  0  0  0  0  0  0  0  # atno 10764 bound_to 10752
  154.7121  135.5201  153.8752 H   0  0  0  0  0  0  0  0  0  0  0  0  # atno 10765 bound_to 10752
  140.2440  134.8029  157.3438 H   0  0  0  0  0  0  0  0  0  0  0  0  # atno 11005 bound_to 11000
  145.8265  139.2066  143.1908 LP  0  0  0  0  0  0  0  0  0  0  0  0  # atno 17320 bound_to 7965
  146.0469  140.8109  142.9801 LP  0  0  0  0  0  0  0  0  0  0  0  0  # atno 17321 bound_to 7965
  139.6972  144.7640  151.1335 LP  0  0  0  0  0  0  0  0  0  0  0  0  # atno 17342 bound_to 10162
  140.7693  143.5507  150.9208 LP  0  0  0  0  0  0  0  0  0  0  0  0  # atno 17343 bound_to 10162
  156.1694  130.6427  151.0818 LP  0  0  0  0  0  0  0  0  0  0  0  0  # atno 17370 bound_to 10713
  157.6954  131.0795  150.6984 LP  0  0  0  0  0  0  0  0  0  0  0  0  # atno 17371 bound_to 10713
  140.1624  134.4711  155.7885 LP  0  0  0  0  0  0  0  0  0  0  0  0  # atno 17394 bound_to 11000
  141.2208  133.6907  156.7568 LP  0  0  0  0  0  0  0  0  0  0  0  0  # atno 17395 bound_to 11000

$$$$
