AV-unprocessed.smi:1132|AV-procd|sdf|4854|dock1
  -GOLD-   22720 3423D 1   1.00000     0.00000
 Structure written by MMmdl.
 50 51  0  0  0  0  0  0  0  0  2 V2000
  153.2004  142.5006  161.3078 C   0  0  0  0  0  0  0  0  0  0  0  0
  152.3583  142.8060  160.1701 N   0  0  0  0  0  0  0  0  0  0  0  0
  151.7602  144.0860  160.0771 C   0  0  0  0  0  0  0  0  0  0  0  0
  151.9195  144.9580  160.9314 O   0  0  0  0  0  0  0  0  0  0  0  0
  150.9539  144.2885  158.8793 C   0  0  0  0  0  0  0  0  0  0  0  0
  150.8299  143.3137  157.9524 C   0  0  0  0  0  0  0  0  0  0  0  0
  151.4379  142.0761  158.0605 N   0  0  0  0  0  0  0  0  0  0  0  0
  151.2893  141.0984  156.9702 C   0  0  0  0  0  0  0  0  0  0  0  0
  150.6310  139.7710  157.3878 C   0  0  0  0  0  0  0  0  0  0  0  0
  151.1122  139.1248  158.3171 O   0  0  0  0  0  0  0  0  0  0  0  0
  149.5351  139.3779  156.7179 N   0  0  0  0  0  0  0  0  0  0  0  0
  148.7537  138.1708  156.9555 C   0  0  0  0  0  0  0  0  0  0  0  0
  149.5955  136.9035  156.7406 C   0  0  0  0  0  0  0  0  0  0  0  0
  149.8599  136.5304  155.2585 C   0  0  0  0  0  0  0  0  0  0  0  0
  150.9947  137.3694  154.6279 C   0  0  0  0  0  0  0  0  0  0  0  0
  150.3282  135.0629  155.2174 C   0  0  0  0  0  0  0  0  0  0  0  0
  148.6093  136.6045  154.4510 N   0  3  0  0  0  0  0  0  0  0  0  0
  147.6819  137.7604  154.6138 C   0  0  0  0  0  0  0  0  0  0  0  0
  148.1430  138.9796  153.7842 C   0  0  0  0  0  0  0  0  0  0  0  0
  146.3230  137.3235  154.0329 C   0  0  0  0  0  0  0  0  0  0  0  0
  147.4697  138.1090  156.1099 C   0  0  0  0  0  0  0  0  0  0  0  0
  152.2214  141.7898  159.1998 C   0  0  0  0  0  0  0  0  0  0  0  0
  152.7823  140.6980  159.3195 O   0  0  0  0  0  0  0  0  0  0  0  0
  153.1682  143.2971  162.0505 H   0  0  0  0  0  0  0  0  0  0  0  0
  154.2163  142.3768  160.9284 H   0  0  0  0  0  0  0  0  0  0  0  0
  152.8263  141.5777  161.7550 H   0  0  0  0  0  0  0  0  0  0  0  0
  150.4559  145.2352  158.7291 H   0  0  0  0  0  0  0  0  0  0  0  0
  150.2305  143.5183  157.0769 H   0  0  0  0  0  0  0  0  0  0  0  0
  150.7123  141.5311  156.1514 H   0  0  0  0  0  0  0  0  0  0  0  0
  152.2689  140.8734  156.5458 H   0  0  0  0  0  0  0  0  0  0  0  0
  149.2228  139.9732  155.9644 H   0  0  0  0  0  0  0  0  0  0  0  0
  148.4623  138.1861  158.0075 H   0  0  0  0  0  0  0  0  0  0  0  0
  150.5374  136.9806  157.2863 H   0  0  0  0  0  0  0  0  0  0  0  0
  149.0556  136.0820  157.2143 H   0  0  0  0  0  0  0  0  0  0  0  0
  151.9393  137.1974  155.1455 H   0  0  0  0  0  0  0  0  0  0  0  0
  150.8237  138.4392  154.6652 H   0  0  0  0  0  0  0  0  0  0  0  0
  151.1487  137.1052  153.5812 H   0  0  0  0  0  0  0  0  0  0  0  0
  151.2356  134.9174  155.8052 H   0  0  0  0  0  0  0  0  0  0  0  0
  150.5438  134.7398  154.1980 H   0  0  0  0  0  0  0  0  0  0  0  0
  149.5704  134.3876  155.6174 H   0  0  0  0  0  0  0  0  0  0  0  0
  148.8424  136.5046  153.4733 H   0  0  0  0  0  0  0  0  0  0  0  0
  147.3786  139.7577  153.7818 H   0  0  0  0  0  0  0  0  0  0  0  0
  148.3268  138.7050  152.7448 H   0  0  0  0  0  0  0  0  0  0  0  0
  149.0456  139.4495  154.1584 H   0  0  0  0  0  0  0  0  0  0  0  0
  145.5748  138.1110  154.1336 H   0  0  0  0  0  0  0  0  0  0  0  0
  145.9346  136.4397  154.5407 H   0  0  0  0  0  0  0  0  0  0  0  0
  146.4004  137.0800  152.9723 H   0  0  0  0  0  0  0  0  0  0  0  0
  146.8359  137.3418  156.5578 H   0  0  0  0  0  0  0  0  0  0  0  0
  146.9046  139.0371  156.2073 H   0  0  0  0  0  0  0  0  0  0  0  0
  148.0713  135.7930  154.7197 H   0  0  0  0  0  0  0  0  0  0  0  0
  1  2  1  0  0  0  0
  1 24  1  0  0  0  0
  1 25  1  0  0  0  0
  1 26  1  0  0  0  0
  2 22  1  0  0  0  0
  2  3  1  0  0  0  0
  3  4  2  0  0  0  0
  3  5  1  0  0  0  0
  5  6  2  0  0  0  0
  5 27  1  0  0  0  0
  6  7  1  0  0  0  0
  6 28  1  0  0  0  0
  7  8  1  0  0  0  0
  7 22  1  0  0  0  0
  8  9  1  0  0  0  0
  8 29  1  0  0  0  0
  8 30  1  0  0  0  0
  9 10  2  0  0  0  0
  9 11  1  0  0  0  0
 11 12  1  0  0  0  0
 11 31  1  0  0  0  0
 12 21  1  0  0  0  0
 12 13  1  0  0  0  0
 12 32  1  0  0  0  0
 13 14  1  0  0  0  0
 13 33  1  0  0  0  0
 13 34  1  0  0  0  0
 14 15  1  0  0  0  0
 14 16  1  0  0  0  0
 14 17  1  0  0  0  0
 15 35  1  0  0  0  0
 15 36  1  0  0  0  0
 15 37  1  0  0  0  0
 16 38  1  0  0  0  0
 16 39  1  0  0  0  0
 16 40  1  0  0  0  0
 17 18  1  0  0  0  0
 17 41  1  0  0  0  0
 17 50  1  0  0  0  0
 18 19  1  0  0  0  0
 18 20  1  0  0  0  0
 18 21  1  0  0  0  0
 19 42  1  0  0  0  0
 19 43  1  0  0  0  0
 19 44  1  0  0  0  0
 20 45  1  0  0  0  0
 20 46  1  0  0  0  0
 20 47  1  0  0  0  0
 21 48  1  0  0  0  0
 21 49  1  0  0  0  0
 22 23  2  0  0  0  0
M  CHG  1  17   1
M  END
> <s_m_source_file>
AV-unprocessed.smi

> <i_m_source_file_index>
1132

> <i_lp_mmshare_version>
43012

> <i_f3d_flags>
0

> <s_epik_input>
W0NIM11uMWMoPU8pW2NIXVtjSF1uKGMxPU8pW0NIMl1DKD1PKVtOSF1bQ0hdKFtDSDJdQzIoW0NIM10pW0NIM10pW0NIMl1DKFtOSF0yKShbQ0gzXSlbQ0gzXQ==

> <s_epik_cmdline>
J2VwaWtfcHl0aG9uJywgJy1waCcsICc3LjAnLCAnLXRuJywgJzgnLCAnLW1hJywgJzIwMCcsICctbWV0YWxfYmluZGluZycsICctaW1hZScsICc8aW5maWxlLm1hZT4nLCAnLW9tYWUnLCAnPG91dGZpbGUubWFlPic=

> <r_lp_tautomer_probability>
1

> <r_epik_Ionization_Penalty>
0.000184799

> <r_epik_Ionization_Penalty_Charging>
0.00018476

> <r_epik_Ionization_Penalty_Neutral>
3.8997e-08

> <r_epik_State_Penalty>
-0

> <r_epik_Charging_Adjusted_Penalty>
0.00018476

> <i_epik_Tot_Q>
1

> <i_epik_Tot_abs_Q>
1

> <r_epik_Metal_State_Penalty>
-0

> <b_epik_Metal_Only>
0

> <s_lp_Force_Field>
OPLS_2005

> <r_lp_Energy>
31.5781

> <b_lp_Chiralities_Consistent>
1

> <s_lp_Variant>
AV-unprocessed.smi:1132-1

> <Gold.Version>
5.8.1

> <Gold.Id.Protein>
6NUR|6NUR_protein|mol2

> <Gold.PLP.Fitness>
43.2780

> <Gold.PLP.PLP>
-34.3437

> <Gold.PLP.part.hbond>
-1.0000

> <Gold.PLP.part.metal>
0.0000

> <Gold.PLP.part.buried>
-4.4170

> <Gold.PLP.part.nonpolar>
-29.2436

> <Gold.PLP.part.repulsive>
0.1878

> <Gold.PLP.ligand.clash>
0.0000

> <Gold.PLP.ligand.torsion>
0.0442

> <Gold.PLP.Chemscore.Hbond>
2.0000

> <Gold.PLP.Chemscore.CHOScore>
1.0000

> <Gold.PLP.Chemscore.Metal>
0.0000

> <Gold.Chemscore.Hbonds>
donor molecule, donor type, donor heavy atom, donor atom, acceptor molecule, acceptor atom, score
      L1  H    17    41       P1  7948  2.00
      L1  C     6    28       P1  8028  1.00

> <Gold.PLP.Chemscore.Internal.Correction>
0.0227

> <Gold.Rescore>
     Score         DG    S(hbond)    S(metal)    S(lipo)     H(rot)  DE(clash)    DE(int)     intcor
     11.06     -12.83       1.00        0.00      69.08       1.59       0.06       1.70       ----

> <Gold.Chemscore.Fitness>
11.0640

> <Gold.Chemscore.DG>
-12.8254

> <Gold.Chemscore.ZeroCoef>
-5.4800

> <Gold.Chemscore.Hbond>
0.9976

> <Gold.Chemscore.Metal>
0.0000

> <Gold.Chemscore.Lipo>
69.0776

> <Gold.Chemscore.Internal_Hbond>
0.0000

> <Gold.Chemscore.DEClash>
0.0599

> <Gold.Chemscore.DEInternal>
1.7015

> <Gold.Chemscore.Rot>
1.5892

> <Gold.Chemscore.Internal.Correction>
   9.000000E+99

> <Gold.Chemscore.Hbonds>
donor molecule, donor type, donor heavy atom, donor atom, acceptor molecule, acceptor atom, score
      L1  H    17    41       P1  7948  0.99

> <Gold.Chemscore.Hbond.Weighted>
-3.3318

> <Gold.Chemscore.Metal.Weighted>
-0.0000

> <Gold.Chemscore.Lipo.Weighted>
-8.0821

> <Gold.Chemscore.Internal_Hbond.Weighted>
0.0000

> <Gold.Chemscore.DEClash.Weighted>
0.0599

> <Gold.Chemscore.DEInternal.Weighted>
1.7015

> <Gold.Chemscore.Rot.Weighted>
4.0685

> <Gold.Chemscore.Internal.Correction.Weighted>
   9.000000E+99

> <Gold.Protein.RotatedTorsions>
[ 6907 6896 6895 6894 ] final -104.05 input  -60.11 | X-H torsion
[ 7974 7965 7964 7962 ] final   34.46 input  175.53 | X-H torsion
[ 8008 7997 7996 7995 ] final   64.73 input   59.86 | X-H torsion
[ 10167 10162 10161 10158 ] final   22.21 input  -65.29 | X-H torsion
[ 10718 10713 10712 10709 ] final    8.13 input   66.30 | X-H torsion
[ 10763 10752 10751 10750 ] final   -8.74 input  -60.55 | X-H torsion
[ 11005 11000 10999 10996 ] final -176.53 input  -57.11 | X-H torsion

> <Gold.Protein.ActiveResidues>
 VAL166  LYS551  ARG553  GLY616  TRP617  ASP618  TYR619  PRO620  LYS621  CYS622 
 ASP623  PHE694  ASN695  SER759  ASP760  ASP761  ALA762  ILE779  LEU786  VAL792 
 PHE793  MET794  SER795  GLU796  ALA797  LYS798  CYS799  TRP800  GLU811  SER814 

> <Gold.Protein.RotatedAtoms>
  150.7269  134.0337  159.3741 H   0  0  0  0  0  0  0  0  0  0  0  0  # atno 6907 bound_to 6896
  151.8307  135.0620  160.0446 H   0  0  0  0  0  0  0  0  0  0  0  0  # atno 6908 bound_to 6896
  152.2936  133.5549  159.5609 H   0  0  0  0  0  0  0  0  0  0  0  0  # atno 6909 bound_to 6896
  146.1351  139.6266  142.9201 H   0  0  0  0  0  0  0  0  0  0  0  0  # atno 7974 bound_to 7965
  155.6506  140.3497  155.4747 H   0  0  0  0  0  0  0  0  0  0  0  0  # atno 8008 bound_to 7997
  155.9851  140.1182  157.0714 H   0  0  0  0  0  0  0  0  0  0  0  0  # atno 8009 bound_to 7997
  154.4202  140.1130  156.5475 H   0  0  0  0  0  0  0  0  0  0  0  0  # atno 8010 bound_to 7997
  140.5366  143.9749  150.6495 H   0  0  0  0  0  0  0  0  0  0  0  0  # atno 10167 bound_to 10162
  156.9471  130.5883  149.5655 H   0  0  0  0  0  0  0  0  0  0  0  0  # atno 10718 bound_to 10713
  153.4448  135.7014  153.6146 H   0  0  0  0  0  0  0  0  0  0  0  0  # atno 10763 bound_to 10752
  153.4505  135.3759  155.2281 H   0  0  0  0  0  0  0  0  0  0  0  0  # atno 10764 bound_to 10752
  154.8728  135.3996  154.3852 H   0  0  0  0  0  0  0  0  0  0  0  0  # atno 10765 bound_to 10752
  140.4510  134.6343  157.4801 H   0  0  0  0  0  0  0  0  0  0  0  0  # atno 11005 bound_to 11000
  145.5174  141.0433  143.2454 LP  0  0  0  0  0  0  0  0  0  0  0  0  # atno 17320 bound_to 7965
  144.7731  139.6690  143.7186 LP  0  0  0  0  0  0  0  0  0  0  0  0  # atno 17321 bound_to 7965
  140.3139  143.3180  152.0852 LP  0  0  0  0  0  0  0  0  0  0  0  0  # atno 17342 bound_to 10162
  139.4973  144.6618  151.6446 LP  0  0  0  0  0  0  0  0  0  0  0  0  # atno 17343 bound_to 10162
  156.0379  130.5465  150.8699 LP  0  0  0  0  0  0  0  0  0  0  0  0  # atno 17370 bound_to 10713
  157.5747  131.0946  150.9364 LP  0  0  0  0  0  0  0  0  0  0  0  0  # atno 17371 bound_to 10713
  140.0006  134.6842  155.9536 LP  0  0  0  0  0  0  0  0  0  0  0  0  # atno 17394 bound_to 11000
  141.1664  133.6537  156.4494 LP  0  0  0  0  0  0  0  0  0  0  0  0  # atno 17395 bound_to 11000

$$$$
