#       Name:                AV-unprocessed.smi:2068
#       Creating user name   scv26
#       Creation time:       Fri Mar 27 11:12:39 2020


#       File generated by GOLD software.
#

@<TRIPOS>MOLECULE
AV-unprocessed.smi:2068
    38    39     1
SMALL
NO_CHARGES


@<TRIPOS>ATOM
      1 ****        -3.6249  -2.4412   0.4993 N.am           1 S1                 0.0000
      2 ****        -4.6734  -1.6168   0.5856 C.2            1 S1                 0.0000
      3 ****        -5.7544  -1.9773   1.0475 O.2            1 S1                 0.0000
      4 ****        -4.4915  -0.1882   0.0646 C.3            1 S1                 0.0000
      5 ****        -3.4198   0.5291   0.8344 C.2            1 S1                 0.0000
      6 ****        -3.5529   1.1613   2.0439 C.2            1 S1                 0.0000
      7 ****        -2.0472   1.8513   2.5787 S.3            1 S1                 0.0000
      8 ****        -1.2649   1.2497   1.1162 C.2            1 S1                 0.0000
      9 ****         0.0302   1.4204   0.8096 N.pl3          1 S1                -1.0000
     10 ****         0.9482   0.5424   1.2809 C.2            1 S1                 0.0000
     11 ****         0.7775  -0.4373   2.0081 O.2            1 S1                 0.0000
     12 ****         2.3662   0.8672   0.7904 C.3            1 S1                 0.0000
     13 ****         2.8808  -0.1281  -0.2727 C.3            1 S1                 0.0000
     14 ****         2.0778  -0.1287  -1.5513 C.2            1 S1                 0.0000
     15 ****         2.8351   0.0329  -2.6338 C.2            1 S1                 0.0000
     16 ****         4.2940   0.1750  -2.2995 C.3            1 S1                 0.0000
     17 ****         4.3215   0.1806  -0.7546 C.3            1 S1                 0.0000
     18 ****        -2.1222   0.6024   0.3196 N.2            1 S1                 0.0000
     19 ****        -3.6950  -3.3848   0.8513 H              1 S1                 0.0000
     20 ****        -2.7576  -2.1088   0.1013 H              1 S1                 0.0000
     21 ****        -4.2487  -0.2282  -0.9982 H              1 S1                 0.0000
     22 ****        -5.4382   0.3478   0.1432 H              1 S1                 0.0000
     23 ****        -4.4391   1.2574   2.6529 H              1 S1                 0.0000
     24 ****         2.4191   1.8864   0.4014 H              1 S1                 0.0000
     25 ****         3.0297   0.8448   1.6556 H              1 S1                 0.0000
     26 ****         2.8454  -1.1415   0.1303 H              1 S1                 0.0000
     27 ****         1.0056  -0.2622  -1.5601 H              1 S1                 0.0000
     28 ****         2.4718   0.0518  -3.6507 H              1 S1                 0.0000
     29 ****         4.8514  -0.6674  -2.7104 H              1 S1                 0.0000
     30 ****         4.6970   1.0984  -2.7162 H              1 S1                 0.0000
     31 ****         4.6457   1.1602  -0.4006 H              1 S1                 0.0000
     32 ****         5.0333  -0.5489  -0.3669 H              1 S1                 0.0000
     33 ****        -5.8707  -2.9152   1.3742 LP             1 S1                 0.0000
     34 ****        -6.5172  -1.3325   1.0964 LP             1 S1                 0.0000
     35 ****         0.3156   2.1896   0.2378 LP             1 S1                 0.0000
     36 ****        -0.1413  -0.6686   2.3278 LP             1 S1                 0.0000
     37 ****         1.5578  -1.0012   2.2787 LP             1 S1                 0.0000
     38 ****        -1.8598   0.2081  -0.5611 LP             1 S1                 0.0000
@<TRIPOS>BOND
    1    1    2 am    
    2    1   19 1     
    3    1   20 1     
    4    2    3 2     
    5    2    4 1     
    6    4    5 1     
    7    4   21 1     
    8    4   22 1     
    9    5   18 1     
   10    5    6 2     
   11    6    7 1     
   12    6   23 1     
   13    7    8 1     
   14    8    9 1     
   15    8   18 2     
   16    9   10 1     
   17   10   11 2     
   18   10   12 1     
   19   12   13 1     
   20   12   24 1     
   21   12   25 1     
   22   13   17 1     
   23   13   14 1     
   24   13   26 1     
   25   14   15 2     
   26   14   27 1     
   27   15   16 1     
   28   15   28 1     
   29   16   17 1     
   30   16   29 1     
   31   16   30 1     
   32   17   31 1     
   33   17   32 1     
   34    3   33 1     
   35    3   34 1     
   36    9   35 1     
   37   11   36 1     
   38   11   37 1     
   39   18   38 1     
@<TRIPOS>SUBSTRUCTURE
      1 S1             1
@<TRIPOS>SET
LONE_PAIRS      STATIC     ATOMS    <user>   **** ""
6 33 34 35 36 37 38
DONOR_HYDROGENS      STATIC     ATOMS    <user>   **** ""
2 19 20
ATOM$BLUE        STATIC     ATOMS    COLORGROUP SYSTEM
6 33 34 35 36 37 38
ATOM$RED        STATIC     ATOMS    COLORGROUP SYSTEM
2 19 20
