AV-unprocessed.smi:166|AV-procd|sdf|1389|dock10
  -GOLD-   2262019123D 1   1.00000     0.00000
 Structure written by MMmdl.
 54 58  0  0  0  0  0  0  0  0  1 V2000
  148.2462  131.9637  152.7676 O   0  0  0  0  0  0  0  0  0  0  0  0
  146.9400  132.5139  152.7903 C   0  0  2  0  0  0  0  0  0  0  0  0
  146.6939  133.1805  154.1645 C   0  0  0  0  0  0  0  0  0  0  0  0
  147.6017  134.2808  154.4543 N   0  0  0  0  0  0  0  0  0  0  0  0
  148.9620  134.1947  154.6498 C   0  0  0  0  0  0  0  0  0  0  0  0
  149.5606  135.3249  154.9082 N   0  0  0  0  0  0  0  0  0  0  0  0
  148.5350  136.2627  154.8990 C   0  0  0  0  0  0  0  0  0  0  0  0
  148.4761  137.6682  155.1169 C   0  0  0  0  0  0  0  0  0  0  0  0
  149.5767  138.4136  155.3900 N   0  0  0  0  0  0  0  0  0  0  0  0
  150.7395  138.1229  154.5524 C   0  0  0  0  0  0  0  0  0  0  0  0
  152.0233  138.6798  155.1883 C   0  0  0  0  0  0  0  0  0  0  0  0
  151.8746  140.1752  155.5063 C   0  0  0  0  0  0  0  0  0  0  0  0
  150.6387  140.4173  156.3883 C   0  0  1  0  0  0  0  0  0  0  0  0
  150.5132  141.8210  156.5712 O   0  0  0  0  0  0  0  0  0  0  0  0
  151.4836  142.3925  157.4389 C   0  0  0  0  0  0  0  0  0  0  0  0
  151.4653  143.9082  157.3601 C   0  0  0  0  0  0  0  0  0  0  0  0
  152.4608  144.7424  158.1400 C   0  0  0  0  0  0  0  0  0  0  0  0
  151.0093  144.7458  158.5372 C   0  0  0  0  0  0  0  0  0  0  0  0
  149.3798  139.8267  155.7185 C   0  0  0  0  0  0  0  0  0  0  0  0
  147.2538  138.2608  155.0476 N   0  0  0  0  0  0  0  0  0  0  0  0
  146.1652  137.5337  154.7793 C   0  0  0  0  0  0  0  0  0  0  0  0
  146.0726  136.2218  154.5541 N   0  0  0  0  0  0  0  0  0  0  0  0
  147.2944  135.6200  154.6242 C   0  0  0  0  0  0  0  0  0  0  0  0
  145.9475  131.3962  152.4922 C   0  0  0  0  0  0  0  0  0  0  0  0
  145.8559  131.4220  150.9727 C   0  0  0  0  0  0  0  0  0  0  0  0
  145.8757  132.8087  150.6817 O   0  0  0  0  0  0  0  0  0  0  0  0
  146.7813  133.4510  151.5742 C   0  0  0  0  0  0  0  0  0  0  0  0
  148.4295  131.6668  151.8895 H   0  0  0  0  0  0  0  0  0  0  0  0
  145.6713  133.5556  154.2214 H   0  0  0  0  0  0  0  0  0  0  0  0
  146.7911  132.4423  154.9617 H   0  0  0  0  0  0  0  0  0  0  0  0
  149.5008  133.2598  154.5944 H   0  0  0  0  0  0  0  0  0  0  0  0
  150.8549  137.0524  154.3860 H   0  0  0  0  0  0  0  0  0  0  0  0
  150.5846  138.5758  153.5722 H   0  0  0  0  0  0  0  0  0  0  0  0
  152.2439  138.1308  156.1046 H   0  0  0  0  0  0  0  0  0  0  0  0
  152.8698  138.5213  154.5199 H   0  0  0  0  0  0  0  0  0  0  0  0
  152.7712  140.5425  156.0068 H   0  0  0  0  0  0  0  0  0  0  0  0
  151.7821  140.7392  154.5772 H   0  0  0  0  0  0  0  0  0  0  0  0
  150.8053  139.9322  157.3520 H   0  0  0  0  0  0  0  0  0  0  0  0
  151.2991  142.0997  158.4723 H   0  0  0  0  0  0  0  0  0  0  0  0
  152.4816  142.0446  157.1688 H   0  0  0  0  0  0  0  0  0  0  0  0
  151.1947  144.2882  156.3767 H   0  0  0  0  0  0  0  0  0  0  0  0
  153.1597  144.2276  158.7966 H   0  0  0  0  0  0  0  0  0  0  0  0
  152.8510  145.6363  157.6577 H   0  0  0  0  0  0  0  0  0  0  0  0
  150.4320  145.6421  158.3198 H   0  0  0  0  0  0  0  0  0  0  0  0
  150.7396  144.2328  159.4583 H   0  0  0  0  0  0  0  0  0  0  0  0
  149.1497  140.3787  154.8061 H   0  0  0  0  0  0  0  0  0  0  0  0
  148.5219  139.9279  156.3838 H   0  0  0  0  0  0  0  0  0  0  0  0
  145.2353  138.0816  154.7401 H   0  0  0  0  0  0  0  0  0  0  0  0
  146.2462  130.4246  152.8879 H   0  0  0  0  0  0  0  0  0  0  0  0
  144.9687  131.6372  152.9096 H   0  0  0  0  0  0  0  0  0  0  0  0
  146.7217  130.9380  150.5179 H   0  0  0  0  0  0  0  0  0  0  0  0
  144.9526  130.9433  150.5943 H   0  0  0  0  0  0  0  0  0  0  0  0
  146.3589  134.4175  151.8448 H   0  0  0  0  0  0  0  0  0  0  0  0
  147.7307  133.6393  151.0708 H   0  0  0  0  0  0  0  0  0  0  0  0
  1  2  1  0  0  0  0
  1 28  1  0  0  0  0
  2 27  1  0  0  0  0
  2  3  1  0  0  0  0
  2 24  1  0  0  0  0
  3  4  1  0  0  0  0
  3 29  1  0  0  0  0
  3 30  1  0  0  0  0
  4 23  1  0  0  0  0
  4  5  1  0  0  0  0
  5  6  2  0  0  0  0
  5 31  1  0  0  0  0
  6  7  1  0  0  0  0
  7 23  2  0  0  0  0
  7  8  1  0  0  0  0
  8  9  1  0  0  0  0
  8 20  2  0  0  0  0
  9 19  1  0  0  0  0
  9 10  1  0  0  0  0
 10 11  1  0  0  0  0
 10 32  1  0  0  0  0
 10 33  1  0  0  0  0
 11 12  1  0  0  0  0
 11 34  1  0  0  0  0
 11 35  1  0  0  0  0
 12 13  1  0  0  0  0
 12 36  1  0  0  0  0
 12 37  1  0  0  0  0
 13 14  1  0  0  0  0
 13 19  1  0  0  0  0
 13 38  1  0  0  0  0
 14 15  1  0  0  0  0
 15 16  1  0  0  0  0
 15 39  1  0  0  0  0
 15 40  1  0  0  0  0
 16 18  1  0  0  0  0
 16 17  1  0  0  0  0
 16 41  1  0  0  0  0
 17 18  1  0  0  0  0
 17 42  1  0  0  0  0
 17 43  1  0  0  0  0
 18 44  1  0  0  0  0
 18 45  1  0  0  0  0
 19 46  1  0  0  0  0
 19 47  1  0  0  0  0
 20 21  1  0  0  0  0
 21 22  2  0  0  0  0
 21 48  1  0  0  0  0
 22 23  1  0  0  0  0
 24 25  1  0  0  0  0
 24 49  1  0  0  0  0
 24 50  1  0  0  0  0
 25 26  1  0  0  0  0
 25 51  1  0  0  0  0
 25 52  1  0  0  0  0
 26 27  1  0  0  0  0
 27 53  1  0  0  0  0
 27 54  1  0  0  0  0
M  END
> <s_m_source_file>
AV-unprocessed.smi

> <i_m_source_file_index>
166

> <i_lp_mmshare_version>
43012

> <i_f3d_flags>
0

> <s_epik_input>
W0NIMl0xT1tDSDJdW0NIMl1bQ0BAXTEoW09IXSlbQ0gyXW4oW2NIXW4yKWMoYzIzKW5bY0hdbmMzTjRbQ0gyXVtDSDJdW0NIMl1bQ0BIXShbQ0gyXTQpT1tDSDJdW0NIXTVbQ0gyXVtDSDJdNQ==

> <s_epik_cmdline>
J2VwaWtfcHl0aG9uJywgJy1waCcsICc3LjAnLCAnLXRuJywgJzgnLCAnLW1hJywgJzIwMCcsICctbWV0YWxfYmluZGluZycsICctaW1hZScsICc8aW5maWxlLm1hZT4nLCAnLW9tYWUnLCAnPG91dGZpbGUubWFlPic=

> <r_lp_tautomer_probability>
1

> <r_epik_Ionization_Penalty>
0.00342552

> <r_epik_Ionization_Penalty_Charging>
0

> <r_epik_Ionization_Penalty_Neutral>
0.00342552

> <r_epik_State_Penalty>
0.0022204

> <r_epik_Charging_Adjusted_Penalty>
0.0022204

> <i_epik_Tot_Q>
0

> <i_epik_Tot_abs_Q>
0

> <r_epik_Metal_State_Penalty>
-0

> <b_epik_Metal_Only>
0

> <s_lp_Force_Field>
OPLS_2005

> <r_lp_Energy>
44.6649

> <b_lp_Chiralities_Consistent>
1

> <s_lp_Variant>
AV-unprocessed.smi:166-2

> <Gold.Version>
5.8.1

> <Gold.Id.Protein>
6NUR|6NUR_protein|mol2

> <Gold.PLP.Fitness>
42.2090

> <Gold.PLP.PLP>
-39.7099

> <Gold.PLP.part.hbond>
-1.0000

> <Gold.PLP.part.metal>
0.0000

> <Gold.PLP.part.buried>
-4.3113

> <Gold.PLP.part.nonpolar>
-34.9933

> <Gold.PLP.part.repulsive>
0.5163

> <Gold.PLP.ligand.clash>
0.0000

> <Gold.PLP.ligand.torsion>
0.7362

> <Gold.PLP.Chemscore.Hbond>
1.0000

> <Gold.PLP.Chemscore.CHOScore>
0.0000

> <Gold.PLP.Chemscore.Metal>
0.0000

> <Gold.Chemscore.Hbonds>
donor molecule, donor type, donor heavy atom, donor atom, acceptor molecule, acceptor atom, score
      L1  H     1    28       P1 10747  1.00

> <Gold.PLP.Chemscore.Internal.Correction>
0.9715

> <Gold.Rescore>
     Score         DG    S(hbond)    S(metal)    S(lipo)     H(rot)  DE(clash)    DE(int)     intcor
     13.99     -14.94       0.99        0.00     111.29       2.68       0.13       0.82       ----

> <Gold.Chemscore.Fitness>
13.9946

> <Gold.Chemscore.DG>
-14.9435

> <Gold.Chemscore.ZeroCoef>
-5.4800

> <Gold.Chemscore.Hbond>
0.9905

> <Gold.Chemscore.Metal>
0.0000

> <Gold.Chemscore.Lipo>
111.2859

> <Gold.Chemscore.Internal_Hbond>
0.0000

> <Gold.Chemscore.DEClash>
0.1280

> <Gold.Chemscore.DEInternal>
0.8209

> <Gold.Chemscore.Rot>
2.6817

> <Gold.Chemscore.Internal.Correction>
   9.000000E+99

> <Gold.Chemscore.Hbonds>
donor molecule, donor type, donor heavy atom, donor atom, acceptor molecule, acceptor atom, score
      L1  H     1    28       P1 10747  1.00

> <Gold.Chemscore.Hbond.Weighted>
-3.3082

> <Gold.Chemscore.Metal.Weighted>
-0.0000

> <Gold.Chemscore.Lipo.Weighted>
-13.0204

> <Gold.Chemscore.Internal_Hbond.Weighted>
0.0000

> <Gold.Chemscore.DEClash.Weighted>
0.1280

> <Gold.Chemscore.DEInternal.Weighted>
0.8209

> <Gold.Chemscore.Rot.Weighted>
6.8651

> <Gold.Chemscore.Internal.Correction.Weighted>
   9.000000E+99

> <Gold.Protein.RotatedTorsions>
[ 6907 6896 6895 6894 ] final -105.10 input  -60.11 | X-H torsion
[ 7974 7965 7964 7962 ] final  128.21 input  175.53 | X-H torsion
[ 8008 7997 7996 7995 ] final   83.93 input   59.86 | X-H torsion
[ 10167 10162 10161 10158 ] final   63.35 input  -65.29 | X-H torsion
[ 10718 10713 10712 10709 ] final  155.40 input   66.30 | X-H torsion
[ 10763 10752 10751 10750 ] final -146.12 input  -60.55 | X-H torsion
[ 11005 11000 10999 10996 ] final   57.29 input  -57.11 | X-H torsion

> <Gold.Protein.ActiveResidues>
 VAL166  LYS551  ARG553  GLY616  TRP617  ASP618  TYR619  PRO620  LYS621  CYS622 
 ASP623  PHE694  ASN695  SER759  ASP760  ASP761  ALA762  ILE779  LEU786  VAL792 
 PHE793  MET794  SER795  GLU796  ALA797  LYS798  CYS799  TRP800  GLU811  SER814 

> <Gold.Protein.RotatedAtoms>
  150.7320  134.0177  159.3690 H   0  0  0  0  0  0  0  0  0  0  0  0  # atno 6907 bound_to 6896
  151.8140  135.0670  160.0426 H   0  0  0  0  0  0  0  0  0  0  0  0  # atno 6908 bound_to 6896
  152.3052  133.5659  159.5680 H   0  0  0  0  0  0  0  0  0  0  0  0  # atno 6909 bound_to 6896
  145.0420  139.3955  143.5097 H   0  0  0  0  0  0  0  0  0  0  0  0  # atno 7974 bound_to 7965
  155.9304  140.3415  155.6244 H   0  0  0  0  0  0  0  0  0  0  0  0  # atno 8008 bound_to 7997
  155.7164  140.0778  157.2368 H   0  0  0  0  0  0  0  0  0  0  0  0  # atno 8009 bound_to 7997
  154.4084  140.1613  156.2341 H   0  0  0  0  0  0  0  0  0  0  0  0  # atno 8010 bound_to 7997
  140.1340  144.4616  150.6849 H   0  0  0  0  0  0  0  0  0  0  0  0  # atno 10167 bound_to 10162
  157.2188  131.0714  151.1925 H   0  0  0  0  0  0  0  0  0  0  0  0  # atno 10718 bound_to 10713
  154.8351  135.3395  154.6611 H   0  0  0  0  0  0  0  0  0  0  0  0  # atno 10763 bound_to 10752
  153.7227  135.6957  153.5013 H   0  0  0  0  0  0  0  0  0  0  0  0  # atno 10764 bound_to 10752
  153.2369  135.4397  155.0609 H   0  0  0  0  0  0  0  0  0  0  0  0  # atno 10765 bound_to 10752
  140.0464  134.5800  155.9317 H   0  0  0  0  0  0  0  0  0  0  0  0  # atno 11005 bound_to 11000
  146.3510  140.0026  142.8674 LP  0  0  0  0  0  0  0  0  0  0  0  0  # atno 17320 bound_to 7965
  145.1635  140.9685  143.4363 LP  0  0  0  0  0  0  0  0  0  0  0  0  # atno 17321 bound_to 7965
  140.6800  143.2322  151.5408 LP  0  0  0  0  0  0  0  0  0  0  0  0  # atno 17342 bound_to 10162
  139.5505  144.2407  152.1522 LP  0  0  0  0  0  0  0  0  0  0  0  0  # atno 17343 bound_to 10162
  157.3597  130.7125  149.6494 LP  0  0  0  0  0  0  0  0  0  0  0  0  # atno 17370 bound_to 10713
  155.9684  130.4229  150.4537 LP  0  0  0  0  0  0  0  0  0  0  0  0  # atno 17371 bound_to 10713
  141.1909  133.6570  156.5432 LP  0  0  0  0  0  0  0  0  0  0  0  0  # atno 17394 bound_to 11000
  140.3987  134.7376  157.4766 LP  0  0  0  0  0  0  0  0  0  0  0  0  # atno 17395 bound_to 11000

$$$$
