AV-unprocessed.smi:946|AV-procd|sdf|4234|dock6
  -GOLD-   22720 2143D 1   1.00000     0.00000
 Structure written by MMmdl.
 42 43  0  0  0  0  0  0  0  0  1 V2000
  154.9417  138.4785  161.8928 C   0  0  0  0  0  0  0  0  0  0  0  0
  155.3152  139.9296  161.5546 C   0  0  2  0  0  0  0  0  0  0  0  0
  155.0991  140.7120  162.7255 O   0  0  0  0  0  0  0  0  0  0  0  0
  155.6726  140.1945  163.9205 C   0  0  0  0  0  0  0  0  0  0  0  0
  154.9404  140.8064  165.1215 C   0  0  2  0  0  0  0  0  0  0  0  0
  155.1773  142.3258  165.2282 C   0  0  0  0  0  0  0  0  0  0  0  0
  154.5086  142.8888  166.4879 C   0  0  0  0  0  0  0  0  0  0  0  0
  154.9664  142.0942  167.7157 C   0  0  0  0  0  0  0  0  0  0  0  0
  154.7532  140.5898  167.4865 C   0  0  0  0  0  0  0  0  0  0  0  0
  155.4339  140.1807  166.3044 O   0  0  0  0  0  0  0  0  0  0  0  0
  154.4724  140.4704  160.3882 C   0  0  0  0  0  0  0  0  0  0  0  0
  154.5725  139.9566  159.2734 O   0  0  0  0  0  0  0  0  0  0  0  0
  153.6456  141.4898  160.6882 N   0  0  0  0  0  0  0  0  0  0  0  0
  152.7669  142.1926  159.8223 C   0  0  0  0  0  0  0  0  0  0  0  0
  152.7025  143.5872  160.0355 C   0  0  0  0  0  0  0  0  0  0  0  0
  151.8608  144.3723  159.2252 C   0  0  0  0  0  0  0  0  0  0  0  0
  151.1054  143.7439  158.2195 C   0  0  0  0  0  0  0  0  0  0  0  0
  151.2263  142.3462  158.0671 C   0  0  0  0  0  0  0  0  0  0  0  0
  150.4477  141.5884  157.0010 C   0  0  0  0  0  0  0  0  0  0  0  0
  150.6714  140.2751  157.0660 F   0  0  0  0  0  0  0  0  0  0  0  0
  149.1416  141.8017  157.1622 F   0  0  0  0  0  0  0  0  0  0  0  0
  150.8073  142.0176  155.7912 F   0  0  0  0  0  0  0  0  0  0  0  0
  152.0356  141.5964  158.8489 N   0  0  0  0  0  0  0  0  0  0  0  0
  155.0612  137.8258  161.0273 H   0  0  0  0  0  0  0  0  0  0  0  0
  153.9089  138.3985  162.2341 H   0  0  0  0  0  0  0  0  0  0  0  0
  155.5804  138.0918  162.6873 H   0  0  0  0  0  0  0  0  0  0  0  0
  156.3744  139.9539  161.2901 H   0  0  0  0  0  0  0  0  0  0  0  0
  155.5996  139.1060  163.9459 H   0  0  0  0  0  0  0  0  0  0  0  0
  156.7307  140.4536  163.9697 H   0  0  0  0  0  0  0  0  0  0  0  0
  153.8709  140.6129  165.0208 H   0  0  0  0  0  0  0  0  0  0  0  0
  156.2482  142.5306  165.2616 H   0  0  0  0  0  0  0  0  0  0  0  0
  154.7896  142.8332  164.3442 H   0  0  0  0  0  0  0  0  0  0  0  0
  154.7463  143.9463  166.6072 H   0  0  0  0  0  0  0  0  0  0  0  0
  153.4248  142.8192  166.3889 H   0  0  0  0  0  0  0  0  0  0  0  0
  156.0230  142.2871  167.9052 H   0  0  0  0  0  0  0  0  0  0  0  0
  154.4236  142.4228  168.6022 H   0  0  0  0  0  0  0  0  0  0  0  0
  155.1434  140.0231  168.3320 H   0  0  0  0  0  0  0  0  0  0  0  0
  153.6910  140.3532  167.4082 H   0  0  0  0  0  0  0  0  0  0  0  0
  153.6455  141.7952  161.6503 H   0  0  0  0  0  0  0  0  0  0  0  0
  153.2897  144.0553  160.8122 H   0  0  0  0  0  0  0  0  0  0  0  0
  151.7963  145.4400  159.3735 H   0  0  0  0  0  0  0  0  0  0  0  0
  150.4532  144.3264  157.5856 H   0  0  0  0  0  0  0  0  0  0  0  0
  1  2  1  0  0  0  0
  1 24  1  0  0  0  0
  1 25  1  0  0  0  0
  1 26  1  0  0  0  0
  2  3  1  0  0  0  0
  2 11  1  0  0  0  0
  2 27  1  0  0  0  0
  3  4  1  0  0  0  0
  4  5  1  0  0  0  0
  4 28  1  0  0  0  0
  4 29  1  0  0  0  0
  5 10  1  0  0  0  0
  5  6  1  0  0  0  0
  5 30  1  0  0  0  0
  6  7  1  0  0  0  0
  6 31  1  0  0  0  0
  6 32  1  0  0  0  0
  7  8  1  0  0  0  0
  7 33  1  0  0  0  0
  7 34  1  0  0  0  0
  8  9  1  0  0  0  0
  8 35  1  0  0  0  0
  8 36  1  0  0  0  0
  9 10  1  0  0  0  0
  9 37  1  0  0  0  0
  9 38  1  0  0  0  0
 11 12  2  0  0  0  0
 11 13  1  0  0  0  0
 13 14  1  0  0  0  0
 13 39  1  0  0  0  0
 14 23  1  0  0  0  0
 14 15  2  0  0  0  0
 15 16  1  0  0  0  0
 15 40  1  0  0  0  0
 16 17  2  0  0  0  0
 16 41  1  0  0  0  0
 17 18  1  0  0  0  0
 17 42  1  0  0  0  0
 18 19  1  0  0  0  0
 18 23  2  0  0  0  0
 19 20  1  0  0  0  0
 19 21  1  0  0  0  0
 19 22  1  0  0  0  0
M  END
> <s_m_source_file>
AV-unprocessed.smi

> <i_m_source_file_index>
946

> <i_lp_mmshare_version>
43012

> <i_f3d_flags>
0

> <s_epik_input>
TzFbQ0gyXVtDSDJdW0NIMl1bQ0gyXVtDQEhdMVtDSDJdT1tDQEBIXShbQ0gzXSlDKD1PKVtOSF1jMltjSF1bY0hdW2NIXWMobjIpQyhGKShGKUY=

> <s_epik_cmdline>
J2VwaWtfcHl0aG9uJywgJy1waCcsICc3LjAnLCAnLXRuJywgJzgnLCAnLW1hJywgJzIwMCcsICctbWV0YWxfYmluZGluZycsICctaW1hZScsICc8aW5maWxlLm1hZT4nLCAnLW9tYWUnLCAnPG91dGZpbGUubWFlPic=

> <r_lp_tautomer_probability>
1

> <r_epik_Ionization_Penalty>
1.32683e-06

> <r_epik_Ionization_Penalty_Charging>
0

> <r_epik_Ionization_Penalty_Neutral>
1.32683e-06

> <r_epik_State_Penalty>
-0

> <r_epik_Charging_Adjusted_Penalty>
0

> <i_epik_Tot_Q>
0

> <i_epik_Tot_abs_Q>
0

> <r_epik_Metal_State_Penalty>
-0

> <b_epik_Metal_Only>
0

> <s_lp_Force_Field>
OPLS_2005

> <r_lp_Energy>
15.1486

> <b_lp_Chiralities_Consistent>
1

> <s_lp_Variant>
AV-unprocessed.smi:946-1

> <Gold.Version>
5.8.1

> <Gold.Id.Protein>
6NUR|6NUR_protein|mol2

> <Gold.PLP.Fitness>
46.8569

> <Gold.PLP.PLP>
-44.8770

> <Gold.PLP.part.hbond>
-2.0000

> <Gold.PLP.part.metal>
0.0000

> <Gold.PLP.part.buried>
-4.3818

> <Gold.PLP.part.nonpolar>
-37.5377

> <Gold.PLP.part.repulsive>
0.0426

> <Gold.PLP.ligand.clash>
0.0000

> <Gold.PLP.ligand.torsion>
0.5230

> <Gold.PLP.Chemscore.Hbond>
1.0000

> <Gold.PLP.Chemscore.CHOScore>
0.0000

> <Gold.PLP.Chemscore.Metal>
0.0000

> <Gold.Chemscore.Hbonds>
donor molecule, donor type, donor heavy atom, donor atom, acceptor molecule, acceptor atom, score
      P1  H  7997  8010       L1    12  1.00

> <Gold.PLP.Chemscore.Internal.Correction>
0.0259

> <Gold.Rescore>
     Score         DG    S(hbond)    S(metal)    S(lipo)     H(rot)  DE(clash)    DE(int)     intcor
     12.52     -16.28       0.95        0.00     103.75       1.76       1.84       1.92       ----

> <Gold.Chemscore.Fitness>
12.5213

> <Gold.Chemscore.DG>
-16.2815

> <Gold.Chemscore.ZeroCoef>
-5.4800

> <Gold.Chemscore.Hbond>
0.9454

> <Gold.Chemscore.Metal>
0.0000

> <Gold.Chemscore.Lipo>
103.7470

> <Gold.Chemscore.Internal_Hbond>
0.0000

> <Gold.Chemscore.DEClash>
1.8448

> <Gold.Chemscore.DEInternal>
1.9154

> <Gold.Chemscore.Rot>
1.7557

> <Gold.Chemscore.Internal.Correction>
   9.000000E+99

> <Gold.Chemscore.Hbonds>
donor molecule, donor type, donor heavy atom, donor atom, acceptor molecule, acceptor atom, score
      P1  H  7997  8010       L1    12  0.90

> <Gold.Chemscore.Hbond.Weighted>
-3.1578

> <Gold.Chemscore.Metal.Weighted>
-0.0000

> <Gold.Chemscore.Lipo.Weighted>
-12.1384

> <Gold.Chemscore.Internal_Hbond.Weighted>
0.0000

> <Gold.Chemscore.DEClash.Weighted>
1.8448

> <Gold.Chemscore.DEInternal.Weighted>
1.9154

> <Gold.Chemscore.Rot.Weighted>
4.4946

> <Gold.Chemscore.Internal.Correction.Weighted>
   9.000000E+99

> <Gold.Protein.RotatedTorsions>
[ 6907 6896 6895 6894 ] final -108.46 input  -60.11 | X-H torsion
[ 7974 7965 7964 7962 ] final  -69.34 input  175.53 | X-H torsion
[ 8008 7997 7996 7995 ] final   -7.62 input   59.86 | X-H torsion
[ 10167 10162 10161 10158 ] final  121.01 input  -65.29 | X-H torsion
[ 10718 10713 10712 10709 ] final   76.23 input   66.30 | X-H torsion
[ 10763 10752 10751 10750 ] final  140.46 input  -60.55 | X-H torsion
[ 11005 11000 10999 10996 ] final   77.43 input  -57.11 | X-H torsion

> <Gold.Protein.ActiveResidues>
 VAL166  LYS551  ARG553  GLY616  TRP617  ASP618  TYR619  PRO620  LYS621  CYS622 
 ASP623  PHE694  ASN695  SER759  ASP760  ASP761  ALA762  ILE779  LEU786  VAL792 
 PHE793  MET794  SER795  GLU796  ALA797  LYS798  CYS799  TRP800  GLU811  SER814 

> <Gold.Protein.RotatedAtoms>
  150.7503  133.9675  159.3534 H   0  0  0  0  0  0  0  0  0  0  0  0  # atno 6907 bound_to 6896
  151.7606  135.0809  160.0354 H   0  0  0  0  0  0  0  0  0  0  0  0  # atno 6908 bound_to 6896
  152.3406  133.6025  159.5909 H   0  0  0  0  0  0  0  0  0  0  0  0  # atno 6909 bound_to 6896
  145.7050  140.9101  143.0710 H   0  0  0  0  0  0  0  0  0  0  0  0  # atno 7974 bound_to 7965
  154.5821  140.2402  155.8039 H   0  0  0  0  0  0  0  0  0  0  0  0  # atno 8008 bound_to 7997
  156.2186  140.3004  155.9855 H   0  0  0  0  0  0  0  0  0  0  0  0  # atno 8009 bound_to 7997
  155.2523  140.0411  157.2978 H   0  0  0  0  0  0  0  0  0  0  0  0  # atno 8010 bound_to 7997
  139.5946  144.7037  151.3207 H   0  0  0  0  0  0  0  0  0  0  0  0  # atno 10167 bound_to 10162
  157.6665  130.9764  150.1467 H   0  0  0  0  0  0  0  0  0  0  0  0  # atno 10718 bound_to 10713
  153.9231  135.2998  155.3447 H   0  0  0  0  0  0  0  0  0  0  0  0  # atno 10763 bound_to 10752
  154.7565  135.4955  153.9387 H   0  0  0  0  0  0  0  0  0  0  0  0  # atno 10764 bound_to 10752
  153.1131  135.6764  153.9569 H   0  0  0  0  0  0  0  0  0  0  0  0  # atno 10765 bound_to 10752
  139.9255  134.7682  156.1521 H   0  0  0  0  0  0  0  0  0  0  0  0  # atno 11005 bound_to 11000
  144.6957  139.8999  143.7458 LP  0  0  0  0  0  0  0  0  0  0  0  0  # atno 17320 bound_to 7965
  146.0763  139.3751  143.0492 LP  0  0  0  0  0  0  0  0  0  0  0  0  # atno 17321 bound_to 7965
  140.7201  143.7158  150.7734 LP  0  0  0  0  0  0  0  0  0  0  0  0  # atno 17342 bound_to 10162
  140.0722  143.5050  152.2574 LP  0  0  0  0  0  0  0  0  0  0  0  0  # atno 17343 bound_to 10162
  156.2276  130.3679  149.8482 LP  0  0  0  0  0  0  0  0  0  0  0  0  # atno 17370 bound_to 10713
  156.6318  130.8669  151.3497 LP  0  0  0  0  0  0  0  0  0  0  0  0  # atno 17371 bound_to 10713
  141.0808  133.6755  156.2333 LP  0  0  0  0  0  0  0  0  0  0  0  0  # atno 17394 bound_to 11000
  140.6350  134.5225  157.5563 LP  0  0  0  0  0  0  0  0  0  0  0  0  # atno 17395 bound_to 11000

$$$$
