#       Name:                AV-unprocessed.smi:87
#       Creating user name   scv26
#       Creation time:       Thu Mar 26 17:23:15 2020


#       File generated by GOLD software.
#

@<TRIPOS>MOLECULE
AV-unprocessed.smi:87
    66    68     1
SMALL
NO_CHARGES


@<TRIPOS>ATOM
      1 ****        -1.1911   5.1433   0.2641 C.3            1 S1                 0.0000
      2 ****        -1.2735   3.6170   0.1160 C.3            1 S1                 0.0000
      3 ****        -1.8230   3.1272  -1.2457 C.3            1 S1                 0.0000
      4 ****        -3.3196   3.4851  -1.4060 C.3            1 S1                 0.0000
      5 ****        -3.8610   3.3089  -2.8328 C.3            1 S1                 0.0000
      6 ****        -1.6118   1.6007  -1.4174 C.3            1 S1                 0.0000
      7 ****        -0.2148   1.1953  -1.6094 N.pl3          1 S1                 0.0000
      8 ****         0.5405   1.7058  -2.7568 C.3            1 S1                 0.0000
      9 ****        -0.2004   1.5216  -4.0878 C.3            1 S1                 0.0000
     10 ****         0.6088   1.9427  -5.2407 C.1            1 S1                 0.0000
     11 ****         1.2458   2.2743  -6.1477 N.1            1 S1                 0.0000
     12 ****         0.4838   0.7781  -0.5191 C.ar           1 S1                 0.0000
     13 ****         1.7065   1.3210  -0.2708 N.ar           1 S1                 0.0000
     14 ****         2.4075   0.9540   0.8051 C.ar           1 S1                 0.0000
     15 ****         2.0839   0.0689   1.7484 N.ar           1 S1                 0.0000
     16 ****         0.8687  -0.4961   1.4990 C.ar           1 S1                 0.0000
     17 ****         0.0097  -0.2028   0.4008 C.ar           1 S1                 0.0000
     18 ****        -1.1367  -0.9859   0.4834 N.2            1 S1                 0.0000
     19 ****        -0.9764  -1.6797   1.5763 C.2            1 S1                 0.0000
     20 ****         0.2098  -1.4626   2.2389 N.pl3          1 S1                 0.0000
     21 ****         0.6418  -2.0914   3.4754 C.3            1 S1                 0.0000
     22 ****         1.9186  -2.9539   3.3373 C.3            1 S1                 0.0000
     23 ****         2.3175  -3.2512   4.6603 O.3            1 S1                 0.0000
     24 ****         1.7360  -4.3039   2.6062 C.3            1 S1                 0.0000
     25 ****         1.2225  -4.2279   1.1649 C.3            1 S1                 0.0000
     26 ****         1.7859  -5.4735   0.4980 C.3            1 S1                 0.0000
     27 ****         2.8340  -5.9785   1.4889 C.3            1 S1                 0.0000
     28 ****         3.0072  -4.9041   2.3995 O.3            1 S1                 0.0000
     29 ****        -0.6865   5.4089   1.1931 H              1 S1                 0.0000
     30 ****        -2.1755   5.6086   0.2909 H              1 S1                 0.0000
     31 ****        -0.6270   5.5889  -0.5557 H              1 S1                 0.0000
     32 ****        -0.2637   3.2383   0.2600 H              1 S1                 0.0000
     33 ****        -1.8672   3.1989   0.9297 H              1 S1                 0.0000
     34 ****        -1.2799   3.6492  -2.0340 H              1 S1                 0.0000
     35 ****        -3.9198   2.8978  -0.7100 H              1 S1                 0.0000
     36 ****        -3.4836   4.5265  -1.1349 H              1 S1                 0.0000
     37 ****        -4.8862   3.6734  -2.8998 H              1 S1                 0.0000
     38 ****        -3.8704   2.2651  -3.1441 H              1 S1                 0.0000
     39 ****        -3.2648   3.8704  -3.5528 H              1 S1                 0.0000
     40 ****        -2.0647   1.0965  -0.5665 H              1 S1                 0.0000
     41 ****        -2.1605   1.2341  -2.2826 H              1 S1                 0.0000
     42 ****         0.7785   2.7582  -2.5990 H              1 S1                 0.0000
     43 ****         1.4926   1.1783  -2.8293 H              1 S1                 0.0000
     44 ****        -0.4691   0.4752  -4.2340 H              1 S1                 0.0000
     45 ****        -1.1216   2.1037  -4.1081 H              1 S1                 0.0000
     46 ****         3.3642   1.4402   0.9277 H              1 S1                 0.0000
     47 ****        -1.7184  -2.3841   1.9236 H              1 S1                 0.0000
     48 ****         0.8125  -1.2877   4.1935 H              1 S1                 0.0000
     49 ****        -0.1784  -2.6901   3.8740 H              1 S1                 0.0000
     50 ****         2.7144  -2.3782   2.8643 H              1 S1                 0.0000
     51 ****         2.5114  -2.4403   5.1047 H              1 S1                 0.0000
     52 ****         1.1028  -4.9783   3.1866 H              1 S1                 0.0000
     53 ****         0.1350  -4.1897   1.1099 H              1 S1                 0.0000
     54 ****         1.6204  -3.3428   0.6666 H              1 S1                 0.0000
     55 ****         1.0161  -6.2272   0.3296 H              1 S1                 0.0000
     56 ****         2.2316  -5.2260  -0.4661 H              1 S1                 0.0000
     57 ****         2.4651  -6.8516   2.0292 H              1 S1                 0.0000
     58 ****         3.7748  -6.2463   1.0080 H              1 S1                 0.0000
     59 ****         1.7964   2.5609  -6.9318 LP             1 S1                 0.0000
     60 ****         2.0836   2.0009  -0.8997 LP             1 S1                 0.0000
     61 ****         2.6582  -0.1519   2.5366 LP             1 S1                 0.0000
     62 ****        -1.9090  -1.0114  -0.1514 LP             1 S1                 0.0000
     63 ****         3.1325  -3.8305   4.6446 LP             1 S1                 0.0000
     64 ****         1.5786  -3.7283   5.1361 LP             1 S1                 0.0000
     65 ****         3.3668  -5.2476   3.2670 LP             1 S1                 0.0000
     66 ****         3.6426  -4.2331   2.0175 LP             1 S1                 0.0000
@<TRIPOS>BOND
    1    1    2 1     
    2    1   29 1     
    3    1   30 1     
    4    1   31 1     
    5    2    3 1     
    6    2   32 1     
    7    2   33 1     
    8    3    4 1     
    9    3    6 1     
   10    3   34 1     
   11    4    5 1     
   12    4   35 1     
   13    4   36 1     
   14    5   37 1     
   15    5   38 1     
   16    5   39 1     
   17    6    7 1     
   18    6   40 1     
   19    6   41 1     
   20    7    8 1     
   21    7   12 1     
   22    8    9 1     
   23    8   42 1     
   24    8   43 1     
   25    9   10 1     
   26    9   44 1     
   27    9   45 1     
   28   10   11 3     
   29   12   17 ar    
   30   12   13 ar    
   31   13   14 ar    
   32   14   15 ar    
   33   14   46 1     
   34   15   16 ar    
   35   16   20 1     
   36   16   17 ar    
   37   17   18 1     
   38   18   19 2     
   39   19   20 1     
   40   19   47 1     
   41   20   21 1     
   42   21   22 1     
   43   21   48 1     
   44   21   49 1     
   45   22   23 1     
   46   22   24 1     
   47   22   50 1     
   48   23   51 1     
   49   24   28 1     
   50   24   25 1     
   51   24   52 1     
   52   25   26 1     
   53   25   53 1     
   54   25   54 1     
   55   26   27 1     
   56   26   55 1     
   57   26   56 1     
   58   27   28 1     
   59   27   57 1     
   60   27   58 1     
   61   11   59 1     
   62   13   60 1     
   63   15   61 1     
   64   18   62 1     
   65   23   63 1     
   66   23   64 1     
   67   28   65 1     
   68   28   66 1     
@<TRIPOS>SUBSTRUCTURE
      1 S1             1
@<TRIPOS>SET
LONE_PAIRS      STATIC     ATOMS    <user>   **** ""
8 59 60 61 62 63 64 65 66
DONOR_HYDROGENS      STATIC     ATOMS    <user>   **** ""
1 51
ATOM$BLUE        STATIC     ATOMS    COLORGROUP SYSTEM
8 59 60 61 62 63 64 65 66
ATOM$RED        STATIC     ATOMS    COLORGROUP SYSTEM
1 51
