AV-unprocessed.smi:2115|AV-procd|sdf|8624|dock4
  -GOLD-   2272011373D 1   1.00000     0.00000
 Structure written by MMmdl.
 37 38  0  0  0  0  0  0  0  0  1 V2000
  145.8218  136.7614  150.6956 C   0  0  0  0  0  0  0  0  0  0  0  0
  146.6472  137.8032  151.1863 O   0  0  0  0  0  0  0  0  0  0  0  0
  146.2260  138.2780  152.4543 C   0  0  0  0  0  0  0  0  0  0  0  0
  147.1324  139.4349  152.8854 C   0  0  0  0  0  0  0  0  0  0  0  0
  148.2682  138.9030  153.5612 O   0  0  0  0  0  0  0  0  0  0  0  0
  148.9750  139.7279  154.4120 C   0  0  0  0  0  0  0  0  0  0  0  0
  150.1809  139.2519  154.9635 C   0  0  0  0  0  0  0  0  0  0  0  0
  150.9094  140.0912  155.8273 C   0  0  0  0  0  0  0  0  0  0  0  0
  150.4194  141.3828  156.1064 C   0  0  0  0  0  0  0  0  0  0  0  0
  151.1666  142.2040  156.9930 N   0  0  0  0  0  0  0  0  0  0  0  0
  151.8230  141.8468  158.1121 C   0  0  0  0  0  0  0  0  0  0  0  0
  151.8704  140.7005  158.5588 O   0  0  0  0  0  0  0  0  0  0  0  0
  152.5386  142.9822  158.8535 C   0  0  1  0  0  0  0  0  0  0  0  0
  152.4731  144.3403  158.1295 C   0  0  0  0  0  0  0  0  0  0  0  0
  151.5669  145.1766  159.0118 C   0  0  0  0  0  0  0  0  0  0  0  0
  151.8159  144.5665  160.3834 C   0  0  0  0  0  0  0  0  0  0  0  0
  151.8836  143.1769  160.1056 O   0  0  0  0  0  0  0  0  0  0  0  0
  149.1895  141.7628  155.5160 C   0  0  0  0  0  0  0  0  0  0  0  0
  148.4854  140.9618  154.6882 N   0  0  0  0  0  0  0  0  0  0  0  0
  146.1857  136.4331  149.7221 H   0  0  0  0  0  0  0  0  0  0  0  0
  144.7919  137.0990  150.5737 H   0  0  0  0  0  0  0  0  0  0  0  0
  145.8318  135.9010  151.3660 H   0  0  0  0  0  0  0  0  0  0  0  0
  145.1835  138.5994  152.4269 H   0  0  0  0  0  0  0  0  0  0  0  0
  146.3007  137.4685  153.1820 H   0  0  0  0  0  0  0  0  0  0  0  0
  147.4605  139.9795  151.9985 H   0  0  0  0  0  0  0  0  0  0  0  0
  146.5808  140.1295  153.5212 H   0  0  0  0  0  0  0  0  0  0  0  0
  150.5402  138.2609  154.7280 H   0  0  0  0  0  0  0  0  0  0  0  0
  151.8358  139.7465  156.2634 H   0  0  0  0  0  0  0  0  0  0  0  0
  151.1479  143.1928  156.7896 H   0  0  0  0  0  0  0  0  0  0  0  0
  153.5812  142.7166  159.0379 H   0  0  0  0  0  0  0  0  0  0  0  0
  153.4693  144.7835  158.0915 H   0  0  0  0  0  0  0  0  0  0  0  0
  152.1046  144.2833  157.1041 H   0  0  0  0  0  0  0  0  0  0  0  0
  151.7914  146.2426  158.9703 H   0  0  0  0  0  0  0  0  0  0  0  0
  150.5250  145.0320  158.7230 H   0  0  0  0  0  0  0  0  0  0  0  0
  152.7677  144.9051  160.7951 H   0  0  0  0  0  0  0  0  0  0  0  0
  151.0262  144.7962  161.0989 H   0  0  0  0  0  0  0  0  0  0  0  0
  148.7313  142.7189  155.7156 H   0  0  0  0  0  0  0  0  0  0  0  0
  1  2  1  0  0  0  0
  1 20  1  0  0  0  0
  1 21  1  0  0  0  0
  1 22  1  0  0  0  0
  2  3  1  0  0  0  0
  3  4  1  0  0  0  0
  3 23  1  0  0  0  0
  3 24  1  0  0  0  0
  4  5  1  0  0  0  0
  4 25  1  0  0  0  0
  4 26  1  0  0  0  0
  5  6  1  0  0  0  0
  6 19  1  0  0  0  0
  6  7  2  0  0  0  0
  7  8  1  0  0  0  0
  7 27  1  0  0  0  0
  8  9  2  0  0  0  0
  8 28  1  0  0  0  0
  9 10  1  0  0  0  0
  9 18  1  0  0  0  0
 10 11  1  0  0  0  0
 10 29  1  0  0  0  0
 11 12  2  0  0  0  0
 11 13  1  0  0  0  0
 13 17  1  0  0  0  0
 13 14  1  0  0  0  0
 13 30  1  0  0  0  0
 14 15  1  0  0  0  0
 14 31  1  0  0  0  0
 14 32  1  0  0  0  0
 15 16  1  0  0  0  0
 15 33  1  0  0  0  0
 15 34  1  0  0  0  0
 16 17  1  0  0  0  0
 16 35  1  0  0  0  0
 16 36  1  0  0  0  0
 18 19  2  0  0  0  0
 18 37  1  0  0  0  0
M  END
> <s_m_source_file>
AV-unprocessed.smi

> <i_m_source_file_index>
2115

> <i_lp_mmshare_version>
43012

> <i_f3d_flags>
0

> <s_epik_input>
W0NIM11PW0NIMl1bQ0gyXU9jMVtjSF1bY0hdYyhbY0hdbjEpW05IXUMoPU8pW0NAQEhdMltDSDJdW0NIMl1bQ0gyXU8y

> <s_epik_cmdline>
J2VwaWtfcHl0aG9uJywgJy1waCcsICc3LjAnLCAnLXRuJywgJzgnLCAnLW1hJywgJzIwMCcsICctbWV0YWxfYmluZGluZycsICctaW1hZScsICc8aW5maWxlLm1hZT4nLCAnLW9tYWUnLCAnPG91dGZpbGUubWFlPic=

> <r_lp_tautomer_probability>
1

> <r_epik_Ionization_Penalty>
1.60185e-05

> <r_epik_Ionization_Penalty_Charging>
0

> <r_epik_Ionization_Penalty_Neutral>
1.60185e-05

> <r_epik_State_Penalty>
-0

> <r_epik_Charging_Adjusted_Penalty>
0

> <i_epik_Tot_Q>
0

> <i_epik_Tot_abs_Q>
0

> <r_epik_Metal_State_Penalty>
-0

> <b_epik_Metal_Only>
0

> <s_lp_Force_Field>
OPLS_2005

> <r_lp_Energy>
23.9239

> <b_lp_Chiralities_Consistent>
1

> <s_lp_Variant>
AV-unprocessed.smi:2115-2

> <Gold.Version>
5.8.1

> <Gold.Id.Protein>
6NUR|6NUR_protein|mol2

> <Gold.PLP.Fitness>
40.9430

> <Gold.PLP.PLP>
-36.2053

> <Gold.PLP.part.hbond>
-1.0000

> <Gold.PLP.part.metal>
0.0000

> <Gold.PLP.part.buried>
-1.9035

> <Gold.PLP.part.nonpolar>
-37.9150

> <Gold.PLP.part.repulsive>
3.8665

> <Gold.PLP.ligand.clash>
0.0012

> <Gold.PLP.ligand.torsion>
0.6857

> <Gold.PLP.Chemscore.Hbond>
1.0000

> <Gold.PLP.Chemscore.CHOScore>
1.0000

> <Gold.PLP.Chemscore.Metal>
0.0000

> <Gold.Chemscore.Hbonds>
donor molecule, donor type, donor heavy atom, donor atom, acceptor molecule, acceptor atom, score
      P1  H  7954  7966       L1     2  1.00
      L1  C    18    37       P1  8028  0.93

> <Gold.PLP.Chemscore.Internal.Correction>
0.1104

> <Gold.Rescore>
     Score         DG    S(hbond)    S(metal)    S(lipo)     H(rot)  DE(clash)    DE(int)     intcor
      9.97     -13.84       0.36        0.00     101.26       1.84       1.82       2.04       ----

> <Gold.Chemscore.Fitness>
9.9748

> <Gold.Chemscore.DG>
-13.8356

> <Gold.Chemscore.ZeroCoef>
-5.4800

> <Gold.Chemscore.Hbond>
0.3648

> <Gold.Chemscore.Metal>
0.0000

> <Gold.Chemscore.Lipo>
101.2576

> <Gold.Chemscore.Internal_Hbond>
0.0000

> <Gold.Chemscore.DEClash>
1.8222

> <Gold.Chemscore.DEInternal>
2.0385

> <Gold.Chemscore.Rot>
1.8398

> <Gold.Chemscore.Internal.Correction>
   9.000000E+99

> <Gold.Chemscore.Hbonds>
donor molecule, donor type, donor heavy atom, donor atom, acceptor molecule, acceptor atom, score
      P1  H  7954  7966       L1     2  0.43

> <Gold.Chemscore.Hbond.Weighted>
-1.2183

> <Gold.Chemscore.Metal.Weighted>
-0.0000

> <Gold.Chemscore.Lipo.Weighted>
-11.8471

> <Gold.Chemscore.Internal_Hbond.Weighted>
0.0000

> <Gold.Chemscore.DEClash.Weighted>
1.8222

> <Gold.Chemscore.DEInternal.Weighted>
2.0385

> <Gold.Chemscore.Rot.Weighted>
4.7099

> <Gold.Chemscore.Internal.Correction.Weighted>
   9.000000E+99

> <Gold.Protein.RotatedTorsions>
[ 6907 6896 6895 6894 ] final -176.72 input  -60.11 | X-H torsion
[ 7974 7965 7964 7962 ] final  -68.94 input  175.53 | X-H torsion
[ 8008 7997 7996 7995 ] final   65.87 input   59.86 | X-H torsion
[ 10167 10162 10161 10158 ] final  -41.84 input  -65.29 | X-H torsion
[ 10718 10713 10712 10709 ] final  -65.53 input   66.30 | X-H torsion
[ 10763 10752 10751 10750 ] final   94.03 input  -60.55 | X-H torsion
[ 11005 11000 10999 10996 ] final  114.69 input  -57.11 | X-H torsion

> <Gold.Protein.ActiveResidues>
 VAL166  LYS551  ARG553  GLY616  TRP617  ASP618  TYR619  PRO620  LYS621  CYS622 
 ASP623  PHE694  ASN695  SER759  ASP760  ASP761  ALA762  ILE779  LEU786  VAL792 
 PHE793  MET794  SER795  GLU796  ALA797  LYS798  CYS799  TRP800  GLU811  SER814 

> <Gold.Protein.RotatedAtoms>
  151.6094  133.3348  159.3063 H   0  0  0  0  0  0  0  0  0  0  0  0  # atno 6907 bound_to 6896
  150.8165  134.7353  159.6746 H   0  0  0  0  0  0  0  0  0  0  0  0  # atno 6908 bound_to 6896
  152.4260  134.5872  160.0016 H   0  0  0  0  0  0  0  0  0  0  0  0  # atno 6909 bound_to 6896
  145.7101  140.9082  143.0685 H   0  0  0  0  0  0  0  0  0  0  0  0  # atno 7974 bound_to 7965
  155.6685  140.3497  155.4809 H   0  0  0  0  0  0  0  0  0  0  0  0  # atno 8008 bound_to 7997
  155.9709  140.1155  157.0836 H   0  0  0  0  0  0  0  0  0  0  0  0  # atno 8009 bound_to 7997
  154.4166  140.1157  156.5291 H   0  0  0  0  0  0  0  0  0  0  0  0  # atno 8010 bound_to 7997
  140.6989  143.3072  151.3123 H   0  0  0  0  0  0  0  0  0  0  0  0  # atno 10167 bound_to 10162
  156.0664  130.4249  150.1578 H   0  0  0  0  0  0  0  0  0  0  0  0  # atno 10718 bound_to 10713
  153.2370  135.4304  155.0657 H   0  0  0  0  0  0  0  0  0  0  0  0  # atno 10763 bound_to 10752
  154.8323  135.3393  154.6704 H   0  0  0  0  0  0  0  0  0  0  0  0  # atno 10764 bound_to 10752
  153.7129  135.7021  153.5089 H   0  0  0  0  0  0  0  0  0  0  0  0  # atno 10765 bound_to 10752
  139.8988  134.9572  156.6930 H   0  0  0  0  0  0  0  0  0  0  0  0  # atno 11005 bound_to 11000
  144.6944  139.9063  143.7461 LP  0  0  0  0  0  0  0  0  0  0  0  0  # atno 17320 bound_to 7965
  146.0720  139.3709  143.0517 LP  0  0  0  0  0  0  0  0  0  0  0  0  # atno 17321 bound_to 7965
  139.6481  144.0412  152.2606 LP  0  0  0  0  0  0  0  0  0  0  0  0  # atno 17342 bound_to 10162
  139.9940  144.6341  150.7789 LP  0  0  0  0  0  0  0  0  0  0  0  0  # atno 17343 bound_to 10162
  156.9637  130.9813  151.3473 LP  0  0  0  0  0  0  0  0  0  0  0  0  # atno 17370 bound_to 10713
  157.5708  130.8309  149.8389 LP  0  0  0  0  0  0  0  0  0  0  0  0  # atno 17371 bound_to 10713
  140.7210  133.9141  155.8147 LP  0  0  0  0  0  0  0  0  0  0  0  0  # atno 17394 bound_to 11000
  141.0227  134.0866  157.4102 LP  0  0  0  0  0  0  0  0  0  0  0  0  # atno 17395 bound_to 11000

$$$$
