AV-unprocessed.smi:276|AV-procd|sdf|2085|dock3
  -GOLD-   2262021363D 1   1.00000     0.00000
 Structure written by MMmdl.
 57 61  0  0  0  0  0  0  0  0  1 V2000
  154.0838  141.4378  160.8438 C   0  0  0  0  0  0  0  0  0  0  0  0
  153.5103  142.5570  160.1920 O   0  0  0  0  0  0  0  0  0  0  0  0
  152.6811  142.1881  159.1013 C   0  0  1  0  0  0  0  0  0  0  0  0
  151.4881  141.3023  159.4800 C   0  0  0  0  0  0  0  0  0  0  0  0
  150.6169  142.1359  158.5196 C   0  0  2  0  0  0  0  0  0  0  0  0
  150.5574  141.5310  157.1814 N   0  0  0  0  0  0  0  0  0  0  0  0
  151.7689  140.8559  156.7258 C   0  0  0  0  0  0  0  0  0  0  0  0
  149.4755  140.7626  156.9230 C   0  0  0  0  0  0  0  0  0  0  0  0
  148.5227  140.7008  157.8864 N   0  0  0  0  0  0  0  0  0  0  0  0
  147.4312  139.9525  157.7009 C   0  0  0  0  0  0  0  0  0  0  0  0
  147.0993  139.2065  156.6450 N   0  0  0  0  0  0  0  0  0  0  0  0
  148.0488  139.2797  155.6689 C   0  0  0  0  0  0  0  0  0  0  0  0
  149.2562  140.0317  155.7195 C   0  0  0  0  0  0  0  0  0  0  0  0
  149.9646  139.8653  154.5349 N   0  0  0  0  0  0  0  0  0  0  0  0
  149.2234  139.0551  153.8295 C   0  0  0  0  0  0  0  0  0  0  0  0
  148.0552  138.6540  154.4358 N   0  0  0  0  0  0  0  0  0  0  0  0
  147.0473  137.7641  153.8885 C   0  0  0  0  0  0  0  0  0  0  0  0
  146.4451  138.2989  152.5753 C   0  0  1  0  0  0  0  0  0  0  0  0
  147.4199  138.3125  151.5495 O   0  0  0  0  0  0  0  0  0  0  0  0
  145.1979  137.5106  152.1277 C   0  0  1  0  0  0  0  0  0  0  0  0
  145.4205  136.0515  151.7219 C   0  0  0  0  0  0  0  0  0  0  0  0
  144.0323  135.4814  151.9083 C   0  0  0  0  0  0  0  0  0  0  0  0
  143.5579  136.2135  153.1618 C   0  0  0  0  0  0  0  0  0  0  0  0
  144.1882  137.4918  153.1340 O   0  0  0  0  0  0  0  0  0  0  0  0
  151.6627  143.2698  158.6982 C   0  0  0  0  0  0  0  0  0  0  0  0
  151.3580  144.4331  159.6599 C   0  0  0  0  0  0  0  0  0  0  0  0
  152.2849  145.3061  158.8096 C   0  0  0  0  0  0  0  0  0  0  0  0
  152.0185  144.3424  157.6506 C   0  0  0  0  0  0  0  0  0  0  0  0
  154.7129  141.7767  161.6667 H   0  0  0  0  0  0  0  0  0  0  0  0
  154.7065  140.8608  160.1591 H   0  0  0  0  0  0  0  0  0  0  0  0
  153.3162  140.7819  161.2563 H   0  0  0  0  0  0  0  0  0  0  0  0
  153.2347  141.8103  158.2389 H   0  0  0  0  0  0  0  0  0  0  0  0
  151.6178  140.2488  159.2340 H   0  0  0  0  0  0  0  0  0  0  0  0
  151.1894  141.4264  160.5222 H   0  0  0  0  0  0  0  0  0  0  0  0
  149.6422  142.3664  158.9493 H   0  0  0  0  0  0  0  0  0  0  0  0
  151.5713  140.1363  155.9290 H   0  0  0  0  0  0  0  0  0  0  0  0
  152.2447  140.3228  157.5497 H   0  0  0  0  0  0  0  0  0  0  0  0
  152.4803  141.5823  156.3341 H   0  0  0  0  0  0  0  0  0  0  0  0
  146.7226  139.9500  158.5159 H   0  0  0  0  0  0  0  0  0  0  0  0
  149.5081  138.7285  152.8400 H   0  0  0  0  0  0  0  0  0  0  0  0
  147.4958  136.7814  153.7359 H   0  0  0  0  0  0  0  0  0  0  0  0
  146.2647  137.6367  154.6374 H   0  0  0  0  0  0  0  0  0  0  0  0
  146.1443  139.3359  152.7302 H   0  0  0  0  0  0  0  0  0  0  0  0
  147.9476  137.5326  151.6306 H   0  0  0  0  0  0  0  0  0  0  0  0
  144.7566  138.0269  151.2733 H   0  0  0  0  0  0  0  0  0  0  0  0
  145.7938  135.9458  150.7030 H   0  0  0  0  0  0  0  0  0  0  0  0
  146.1153  135.5468  152.3938 H   0  0  0  0  0  0  0  0  0  0  0  0
  143.4020  135.7446  151.0575 H   0  0  0  0  0  0  0  0  0  0  0  0
  144.0239  134.3967  152.0182 H   0  0  0  0  0  0  0  0  0  0  0  0
  142.4725  136.3049  153.2052 H   0  0  0  0  0  0  0  0  0  0  0  0
  143.8891  135.6862  154.0571 H   0  0  0  0  0  0  0  0  0  0  0  0
  150.3171  144.7573  159.6091 H   0  0  0  0  0  0  0  0  0  0  0  0
  151.6791  144.2901  160.6919 H   0  0  0  0  0  0  0  0  0  0  0  0
  151.9338  146.3257  158.6487 H   0  0  0  0  0  0  0  0  0  0  0  0
  153.3211  145.2811  159.1511 H   0  0  0  0  0  0  0  0  0  0  0  0
  152.8887  144.1142  157.0347 H   0  0  0  0  0  0  0  0  0  0  0  0
  151.1743  144.6767  157.0481 H   0  0  0  0  0  0  0  0  0  0  0  0
  1  2  1  0  0  0  0
  1 29  1  0  0  0  0
  1 30  1  0  0  0  0
  1 31  1  0  0  0  0
  2  3  1  0  0  0  0
  3 25  1  0  0  0  0
  3  4  1  0  0  0  0
  3 32  1  0  0  0  0
  4  5  1  0  0  0  0
  4 33  1  0  0  0  0
  4 34  1  0  0  0  0
  5  6  1  0  0  0  0
  5 25  1  0  0  0  0
  5 35  1  0  0  0  0
  6  7  1  0  0  0  0
  6  8  1  0  0  0  0
  7 36  1  0  0  0  0
  7 37  1  0  0  0  0
  7 38  1  0  0  0  0
  8 13  1  0  0  0  0
  8  9  2  0  0  0  0
  9 10  1  0  0  0  0
 10 11  2  0  0  0  0
 10 39  1  0  0  0  0
 11 12  1  0  0  0  0
 12 16  1  0  0  0  0
 12 13  2  0  0  0  0
 13 14  1  0  0  0  0
 14 15  2  0  0  0  0
 15 16  1  0  0  0  0
 15 40  1  0  0  0  0
 16 17  1  0  0  0  0
 17 18  1  0  0  0  0
 17 41  1  0  0  0  0
 17 42  1  0  0  0  0
 18 19  1  0  0  0  0
 18 20  1  0  0  0  0
 18 43  1  0  0  0  0
 19 44  1  0  0  0  0
 20 24  1  0  0  0  0
 20 21  1  0  0  0  0
 20 45  1  0  0  0  0
 21 22  1  0  0  0  0
 21 46  1  0  0  0  0
 21 47  1  0  0  0  0
 22 23  1  0  0  0  0
 22 48  1  0  0  0  0
 22 49  1  0  0  0  0
 23 24  1  0  0  0  0
 23 50  1  0  0  0  0
 23 51  1  0  0  0  0
 25 28  1  0  0  0  0
 25 26  1  0  0  0  0
 26 27  1  0  0  0  0
 26 52  1  0  0  0  0
 26 53  1  0  0  0  0
 27 28  1  0  0  0  0
 27 54  1  0  0  0  0
 27 55  1  0  0  0  0
 28 56  1  0  0  0  0
 28 57  1  0  0  0  0
M  END
> <s_m_source_file>
AV-unprocessed.smi

> <i_m_source_file_index>
276

> <i_lp_mmshare_version>
43012

> <i_f3d_flags>
0

> <s_epik_input>
W0NIMl0xW0NIMl1bQ0gyXUMxMltDQEhdKE9bQ0gzXSlbQ0gyXVtDQEhdMk4oW0NIM10pYyhuW2NIXW4zKWMoYzM0KW5bY0hdbjRbQ0gyXVtDQEhdKFtPSF0pW0NAQEhdNVtDSDJdW0NIMl1bQ0gyXU81

> <s_epik_cmdline>
J2VwaWtfcHl0aG9uJywgJy1waCcsICc3LjAnLCAnLXRuJywgJzgnLCAnLW1hJywgJzIwMCcsICctbWV0YWxfYmluZGluZycsICctaW1hZScsICc8aW5maWxlLm1hZT4nLCAnLW9tYWUnLCAnPG91dGZpbGUubWFlPic=

> <r_lp_tautomer_probability>
1

> <r_epik_Ionization_Penalty>
0.00204117

> <r_epik_Ionization_Penalty_Charging>
0

> <r_epik_Ionization_Penalty_Neutral>
0.00204117

> <r_epik_State_Penalty>
0.00127401

> <r_epik_Charging_Adjusted_Penalty>
0.00127401

> <i_epik_Tot_Q>
0

> <i_epik_Tot_abs_Q>
0

> <r_epik_Metal_State_Penalty>
-0

> <b_epik_Metal_Only>
0

> <s_lp_Force_Field>
OPLS_2005

> <r_lp_Energy>
58.9981

> <b_lp_Chiralities_Consistent>
1

> <s_lp_Variant>
AV-unprocessed.smi:276-16

> <Gold.Version>
5.8.1

> <Gold.Id.Protein>
6NUR|6NUR_protein|mol2

> <Gold.PLP.Fitness>
47.1107

> <Gold.PLP.PLP>
-43.5181

> <Gold.PLP.part.hbond>
-3.9400

> <Gold.PLP.part.metal>
0.0000

> <Gold.PLP.part.buried>
-2.2165

> <Gold.PLP.part.nonpolar>
-38.2575

> <Gold.PLP.part.repulsive>
0.3405

> <Gold.PLP.ligand.clash>
4.1650

> <Gold.PLP.ligand.torsion>
0.8721

> <Gold.PLP.Chemscore.Hbond>
1.8125

> <Gold.PLP.Chemscore.CHOScore>
1.0877

> <Gold.PLP.Chemscore.Metal>
0.0000

> <Gold.Chemscore.Hbonds>
donor molecule, donor type, donor heavy atom, donor atom, acceptor molecule, acceptor atom, score
      L1  H    19    44       P1  7948  1.00
      P1  H  7989  7998       L1    14  0.57
      L1  C    15    40       P1  7948  0.53
      L1  C    15    40       P1  7957  0.89

> <Gold.PLP.Chemscore.Internal.Correction>
0.8012

> <Gold.Rescore>
     Score         DG    S(hbond)    S(metal)    S(lipo)     H(rot)  DE(clash)    DE(int)     intcor
     14.16     -18.49       1.74        0.00     121.00       2.72       2.34       1.99       ----

> <Gold.Chemscore.Fitness>
14.1645

> <Gold.Chemscore.DG>
-18.4946

> <Gold.Chemscore.ZeroCoef>
-5.4800

> <Gold.Chemscore.Hbond>
1.7405

> <Gold.Chemscore.Metal>
0.0000

> <Gold.Chemscore.Lipo>
121.0028

> <Gold.Chemscore.Internal_Hbond>
0.0000

> <Gold.Chemscore.DEClash>
2.3388

> <Gold.Chemscore.DEInternal>
1.9913

> <Gold.Chemscore.Rot>
2.7172

> <Gold.Chemscore.Internal.Correction>
   9.000000E+99

> <Gold.Chemscore.Hbonds>
donor molecule, donor type, donor heavy atom, donor atom, acceptor molecule, acceptor atom, score
      L1  H    19    44       P1  7948  0.99
      P1  H  7989  7998       L1    14  0.54

> <Gold.Chemscore.Hbond.Weighted>
-5.8133

> <Gold.Chemscore.Metal.Weighted>
-0.0000

> <Gold.Chemscore.Lipo.Weighted>
-14.1573

> <Gold.Chemscore.Internal_Hbond.Weighted>
0.0000

> <Gold.Chemscore.DEClash.Weighted>
2.3388

> <Gold.Chemscore.DEInternal.Weighted>
1.9913

> <Gold.Chemscore.Rot.Weighted>
6.9560

> <Gold.Chemscore.Internal.Correction.Weighted>
   9.000000E+99

> <Gold.Protein.RotatedTorsions>
[ 6907 6896 6895 6894 ] final  178.79 input  -60.11 | X-H torsion
[ 7974 7965 7964 7962 ] final -157.05 input  175.53 | X-H torsion
[ 8008 7997 7996 7995 ] final  -45.38 input   59.86 | X-H torsion
[ 10167 10162 10161 10158 ] final -131.01 input  -65.29 | X-H torsion
[ 10718 10713 10712 10709 ] final  173.73 input   66.30 | X-H torsion
[ 10763 10752 10751 10750 ] final  153.10 input  -60.55 | X-H torsion
[ 11005 11000 10999 10996 ] final  134.21 input  -57.11 | X-H torsion

> <Gold.Protein.ActiveResidues>
 VAL166  LYS551  ARG553  GLY616  TRP617  ASP618  TYR619  PRO620  LYS621  CYS622 
 ASP623  PHE694  ASN695  SER759  ASP760  ASP761  ALA762  ILE779  LEU786  VAL792 
 PHE793  MET794  SER795  GLU796  ALA797  LYS798  CYS799  TRP800  GLU811  SER814 

> <Gold.Protein.RotatedAtoms>
  151.6821  133.3312  159.3221 H   0  0  0  0  0  0  0  0  0  0  0  0  # atno 6907 bound_to 6896
  150.7818  134.6772  159.6433 H   0  0  0  0  0  0  0  0  0  0  0  0  # atno 6908 bound_to 6896
  152.3877  134.6494  160.0171 H   0  0  0  0  0  0  0  0  0  0  0  0  # atno 6909 bound_to 6896
  144.7566  140.4024  143.6008 H   0  0  0  0  0  0  0  0  0  0  0  0  # atno 7974 bound_to 7965
  154.4001  140.1398  156.3837 H   0  0  0  0  0  0  0  0  0  0  0  0  # atno 8008 bound_to 7997
  155.7979  140.3477  155.5365 H   0  0  0  0  0  0  0  0  0  0  0  0  # atno 8009 bound_to 7997
  155.8513  140.0942  157.1663 H   0  0  0  0  0  0  0  0  0  0  0  0  # atno 8010 bound_to 7997
  139.9234  143.6356  152.2548 H   0  0  0  0  0  0  0  0  0  0  0  0  # atno 10167 bound_to 10162
  156.9601  131.0058  151.2929 H   0  0  0  0  0  0  0  0  0  0  0  0  # atno 10718 bound_to 10713
  154.1307  135.2827  155.3186 H   0  0  0  0  0  0  0  0  0  0  0  0  # atno 10763 bound_to 10752
  154.6357  135.5420  153.7735 H   0  0  0  0  0  0  0  0  0  0  0  0  # atno 10764 bound_to 10752
  153.0282  135.6474  154.1457 H   0  0  0  0  0  0  0  0  0  0  0  0  # atno 10765 bound_to 10752
  139.9900  134.9518  156.9834 H   0  0  0  0  0  0  0  0  0  0  0  0  # atno 11005 bound_to 11000
  145.6760  139.1608  143.2727 LP  0  0  0  0  0  0  0  0  0  0  0  0  # atno 17320 bound_to 7965
  146.1582  140.6827  142.9290 LP  0  0  0  0  0  0  0  0  0  0  0  0  # atno 17321 bound_to 7965
  139.6843  144.7653  151.1553 LP  0  0  0  0  0  0  0  0  0  0  0  0  # atno 17342 bound_to 10162
  140.7656  143.5680  150.9026 LP  0  0  0  0  0  0  0  0  0  0  0  0  # atno 17343 bound_to 10162
  157.5664  130.8280  149.8333 LP  0  0  0  0  0  0  0  0  0  0  0  0  # atno 17370 bound_to 10713
  156.0326  130.3760  150.1646 LP  0  0  0  0  0  0  0  0  0  0  0  0  # atno 17371 bound_to 10713
  140.4926  134.1177  155.7235 LP  0  0  0  0  0  0  0  0  0  0  0  0  # atno 17394 bound_to 11000
  141.1558  133.8885  157.1981 LP  0  0  0  0  0  0  0  0  0  0  0  0  # atno 17395 bound_to 11000

$$$$
