AV-unprocessed.smi:1088|AV-procd|sdf|4733|dock5
  -GOLD-   22720 3273D 1   1.00000     0.00000
 Structure written by MMmdl.
 47 48  0  0  0  0  0  0  0  0  1 V2000
  152.0586  142.5586  159.6440 C   0  0  0  0  0  0  0  0  0  0  0  0
  151.5231  143.0722  158.4375 O   0  0  0  0  0  0  0  0  0  0  0  0
  150.4009  142.3336  157.9824 C   0  0  0  0  0  0  0  0  0  0  0  0
  150.8411  141.2623  156.9722 C   0  0  0  0  0  0  0  0  0  0  0  0
  149.7565  140.6384  156.2102 N   0  0  0  0  0  0  0  0  0  0  0  0
  149.2778  141.4705  155.1189 C   0  0  0  0  0  0  0  0  0  0  0  0
  148.5006  140.5483  154.1784 C   0  0  0  0  0  0  0  0  0  0  0  0
  149.0054  139.1459  154.5372 C   0  0  0  0  0  0  0  0  0  0  0  0
  150.1332  139.3917  155.5496 C   0  0  2  0  0  0  0  0  0  0  0  0
  150.3370  138.1767  156.4792 C   0  0  0  0  0  0  0  0  0  0  0  0
  149.0705  137.5169  156.7762 N   0  0  0  0  0  0  0  0  0  0  0  0
  148.8594  136.6490  157.7762 C   0  0  0  0  0  0  0  0  0  0  0  0
  149.7159  136.3480  158.6083 O   0  0  0  0  0  0  0  0  0  0  0  0
  147.4549  136.0359  157.8477 C   0  0  0  0  0  0  0  0  0  0  0  0
  147.1051  135.5801  159.1988 N   0  0  0  0  0  0  0  0  0  0  0  0
  147.0058  134.2260  159.4613 C   0  0  0  0  0  0  0  0  0  0  0  0
  146.6697  133.7244  160.6696 C   0  0  0  0  0  0  0  0  0  0  0  0
  146.3880  134.6072  161.7951 C   0  0  0  0  0  0  0  0  0  0  0  0
  146.0555  134.1930  162.9062 O   0  0  0  0  0  0  0  0  0  0  0  0
  146.5143  135.9869  161.5046 N   0  0  0  0  0  0  0  0  0  0  0  0
  146.2330  136.9402  162.5582 C   0  0  0  0  0  0  0  0  0  0  0  0
  146.8504  136.5060  160.2339 C   0  0  0  0  0  0  0  0  0  0  0  0
  146.9151  137.7195  160.0209 O   0  0  0  0  0  0  0  0  0  0  0  0
  152.9199  143.1550  159.9452 H   0  0  0  0  0  0  0  0  0  0  0  0
  152.3899  141.5266  159.5219 H   0  0  0  0  0  0  0  0  0  0  0  0
  151.3239  142.5986  160.4488 H   0  0  0  0  0  0  0  0  0  0  0  0
  149.9282  141.8466  158.8368 H   0  0  0  0  0  0  0  0  0  0  0  0
  149.6562  142.9932  157.5339 H   0  0  0  0  0  0  0  0  0  0  0  0
  151.5964  141.6712  156.2996 H   0  0  0  0  0  0  0  0  0  0  0  0
  151.3409  140.4908  157.5533 H   0  0  0  0  0  0  0  0  0  0  0  0
  148.6596  142.2921  155.4815 H   0  0  0  0  0  0  0  0  0  0  0  0
  150.1232  141.9023  154.5802 H   0  0  0  0  0  0  0  0  0  0  0  0
  147.4270  140.6238  154.3542 H   0  0  0  0  0  0  0  0  0  0  0  0
  148.6900  140.7989  153.1343 H   0  0  0  0  0  0  0  0  0  0  0  0
  148.1960  138.5725  154.9922 H   0  0  0  0  0  0  0  0  0  0  0  0
  149.3542  138.5935  153.6641 H   0  0  0  0  0  0  0  0  0  0  0  0
  151.0461  139.5572  154.9736 H   0  0  0  0  0  0  0  0  0  0  0  0
  151.0746  137.4944  156.0528 H   0  0  0  0  0  0  0  0  0  0  0  0
  150.7431  138.5094  157.4351 H   0  0  0  0  0  0  0  0  0  0  0  0
  148.3040  137.7059  156.1469 H   0  0  0  0  0  0  0  0  0  0  0  0
  146.7398  136.7858  157.5073 H   0  0  0  0  0  0  0  0  0  0  0  0
  147.3706  135.2061  157.1434 H   0  0  0  0  0  0  0  0  0  0  0  0
  147.1996  133.5299  158.6582 H   0  0  0  0  0  0  0  0  0  0  0  0
  146.6037  132.6547  160.8046 H   0  0  0  0  0  0  0  0  0  0  0  0
  146.9284  137.7770  162.4724 H   0  0  0  0  0  0  0  0  0  0  0  0
  146.3807  136.4781  163.5348 H   0  0  0  0  0  0  0  0  0  0  0  0
  145.1996  137.2635  162.4245 H   0  0  0  0  0  0  0  0  0  0  0  0
  1  2  1  0  0  0  0
  1 24  1  0  0  0  0
  1 25  1  0  0  0  0
  1 26  1  0  0  0  0
  2  3  1  0  0  0  0
  3  4  1  0  0  0  0
  3 27  1  0  0  0  0
  3 28  1  0  0  0  0
  4  5  1  0  0  0  0
  4 29  1  0  0  0  0
  4 30  1  0  0  0  0
  5  9  1  0  0  0  0
  5  6  1  0  0  0  0
  6  7  1  0  0  0  0
  6 31  1  0  0  0  0
  6 32  1  0  0  0  0
  7  8  1  0  0  0  0
  7 33  1  0  0  0  0
  7 34  1  0  0  0  0
  8  9  1  0  0  0  0
  8 35  1  0  0  0  0
  8 36  1  0  0  0  0
  9 10  1  0  0  0  0
  9 37  1  0  0  0  0
 10 11  1  0  0  0  0
 10 38  1  0  0  0  0
 10 39  1  0  0  0  0
 11 12  1  0  0  0  0
 11 40  1  0  0  0  0
 12 13  2  0  0  0  0
 12 14  1  0  0  0  0
 14 15  1  0  0  0  0
 14 41  1  0  0  0  0
 14 42  1  0  0  0  0
 15 22  1  0  0  0  0
 15 16  1  0  0  0  0
 16 17  2  0  0  0  0
 16 43  1  0  0  0  0
 17 18  1  0  0  0  0
 17 44  1  0  0  0  0
 18 19  2  0  0  0  0
 18 20  1  0  0  0  0
 20 21  1  0  0  0  0
 20 22  1  0  0  0  0
 21 45  1  0  0  0  0
 21 46  1  0  0  0  0
 21 47  1  0  0  0  0
 22 23  2  0  0  0  0
M  END
> <s_m_source_file>
AV-unprocessed.smi

> <i_m_source_file_index>
1088

> <i_lp_mmshare_version>
43012

> <i_f3d_flags>
0

> <s_epik_input>
W0NIM11PW0NIMl1bQ0gyXU4xW0NIMl1bQ0gyXVtDSDJdW0NASF0xW0NIMl1bTkhdQyg9TylbQ0gyXW4yW2NIXVtjSF1jKD1PKW4oW0NIM10pYzI9Tw==

> <s_epik_cmdline>
J2VwaWtfcHl0aG9uJywgJy1waCcsICc3LjAnLCAnLXRuJywgJzgnLCAnLW1hJywgJzIwMCcsICctbWV0YWxfYmluZGluZycsICctaW1hZScsICc8aW5maWxlLm1hZT4nLCAnLW9tYWUnLCAnPG91dGZpbGUubWFlPic=

> <r_lp_tautomer_probability>
1

> <r_epik_Ionization_Penalty>
2.28131

> <r_epik_Ionization_Penalty_Charging>
1.22971e-08

> <r_epik_Ionization_Penalty_Neutral>
2.28131

> <r_epik_State_Penalty>
2.43063

> <r_epik_Charging_Adjusted_Penalty>
2.43063

> <i_epik_Tot_Q>
0

> <i_epik_Tot_abs_Q>
0

> <r_epik_Metal_State_Penalty>
2.43056

> <b_epik_Metal_Only>
0

> <s_lp_Force_Field>
OPLS_2005

> <r_lp_Energy>
54.0247

> <b_lp_Chiralities_Consistent>
1

> <s_lp_Variant>
AV-unprocessed.smi:1088-6

> <Gold.Version>
5.8.1

> <Gold.Id.Protein>
6NUR|6NUR_protein|mol2

> <Gold.PLP.Fitness>
43.2434

> <Gold.PLP.PLP>
-40.0710

> <Gold.PLP.part.hbond>
-3.8639

> <Gold.PLP.part.metal>
0.0000

> <Gold.PLP.part.buried>
-1.4121

> <Gold.PLP.part.nonpolar>
-34.0019

> <Gold.PLP.part.repulsive>
0.1345

> <Gold.PLP.ligand.clash>
0.0000

> <Gold.PLP.ligand.torsion>
1.2363

> <Gold.PLP.Chemscore.Hbond>
1.8583

> <Gold.PLP.Chemscore.CHOScore>
0.0000

> <Gold.PLP.Chemscore.Metal>
0.0000

> <Gold.Chemscore.Hbonds>
donor molecule, donor type, donor heavy atom, donor atom, acceptor molecule, acceptor atom, score
      P1  H  6896  6909       L1    13  0.67
      P1  H  6934  6947       L1    23  1.00

> <Gold.PLP.Chemscore.Internal.Correction>
0.0702

> <Gold.Rescore>
     Score         DG    S(hbond)    S(metal)    S(lipo)     H(rot)  DE(clash)    DE(int)     intcor
     12.71     -14.24       1.92        0.00      74.47       2.49       0.03       1.50       ----

> <Gold.Chemscore.Fitness>
12.7051

> <Gold.Chemscore.DG>
-14.2355

> <Gold.Chemscore.ZeroCoef>
-5.4800

> <Gold.Chemscore.Hbond>
1.9241

> <Gold.Chemscore.Metal>
0.0000

> <Gold.Chemscore.Lipo>
74.4722

> <Gold.Chemscore.Internal_Hbond>
0.0000

> <Gold.Chemscore.DEClash>
0.0343

> <Gold.Chemscore.DEInternal>
1.4961

> <Gold.Chemscore.Rot>
2.4938

> <Gold.Chemscore.Internal.Correction>
   9.000000E+99

> <Gold.Chemscore.Hbonds>
donor molecule, donor type, donor heavy atom, donor atom, acceptor molecule, acceptor atom, score
      P1  H  6896  6909       L1    13  0.66
      P1  H  6934  6947       L1    23  0.96

> <Gold.Chemscore.Hbond.Weighted>
-6.4263

> <Gold.Chemscore.Metal.Weighted>
-0.0000

> <Gold.Chemscore.Lipo.Weighted>
-8.7132

> <Gold.Chemscore.Internal_Hbond.Weighted>
0.0000

> <Gold.Chemscore.DEClash.Weighted>
0.0343

> <Gold.Chemscore.DEInternal.Weighted>
1.4961

> <Gold.Chemscore.Rot.Weighted>
6.3841

> <Gold.Chemscore.Internal.Correction.Weighted>
   9.000000E+99

> <Gold.Protein.RotatedTorsions>
[ 6907 6896 6895 6894 ] final   76.67 input  -60.11 | X-H torsion
[ 7974 7965 7964 7962 ] final  -57.90 input  175.53 | X-H torsion
[ 8008 7997 7996 7995 ] final -153.70 input   59.86 | X-H torsion
[ 10167 10162 10161 10158 ] final   79.61 input  -65.29 | X-H torsion
[ 10718 10713 10712 10709 ] final -142.89 input   66.30 | X-H torsion
[ 10763 10752 10751 10750 ] final -105.01 input  -60.55 | X-H torsion
[ 11005 11000 10999 10996 ] final   -1.21 input  -57.11 | X-H torsion

> <Gold.Protein.ActiveResidues>
 VAL166  LYS551  ARG553  GLY616  TRP617  ASP618  TYR619  PRO620  LYS621  CYS622 
 ASP623  PHE694  ASN695  SER759  ASP760  ASP761  ALA762  ILE779  LEU786  VAL792 
 PHE793  MET794  SER795  GLU796  ALA797  LYS798  CYS799  TRP800  GLU811  SER814 

> <Gold.Protein.RotatedAtoms>
  152.5083  134.3934  159.9391 H   0  0  0  0  0  0  0  0  0  0  0  0  # atno 6907 bound_to 6896
  151.3895  133.3787  159.2727 H   0  0  0  0  0  0  0  0  0  0  0  0  # atno 6908 bound_to 6896
  150.9443  134.8870  159.7691 H   0  0  0  0  0  0  0  0  0  0  0  0  # atno 6909 bound_to 6896
  145.8456  140.8387  143.0012 H   0  0  0  0  0  0  0  0  0  0  0  0  # atno 7974 bound_to 7965
  155.6749  140.0737  157.2506 H   0  0  0  0  0  0  0  0  0  0  0  0  # atno 8008 bound_to 7997
  154.4116  140.1692  156.1971 H   0  0  0  0  0  0  0  0  0  0  0  0  # atno 8009 bound_to 7997
  155.9584  140.3372  155.6472 H   0  0  0  0  0  0  0  0  0  0  0  0  # atno 8010 bound_to 7997
  139.9585  144.5977  150.8094 H   0  0  0  0  0  0  0  0  0  0  0  0  # atno 10167 bound_to 10162
  156.3513  130.7690  151.1843 H   0  0  0  0  0  0  0  0  0  0  0  0  # atno 10718 bound_to 10713
  154.7917  135.4765  154.0068 H   0  0  0  0  0  0  0  0  0  0  0  0  # atno 10763 bound_to 10752
  153.1641  135.6814  153.8707 H   0  0  0  0  0  0  0  0  0  0  0  0  # atno 10764 bound_to 10752
  153.8311  135.3191  155.3396 H   0  0  0  0  0  0  0  0  0  0  0  0  # atno 10765 bound_to 10752
  140.6448  133.9457  155.8346 H   0  0  0  0  0  0  0  0  0  0  0  0  # atno 11005 bound_to 11000
  144.6731  140.0877  143.7466 LP  0  0  0  0  0  0  0  0  0  0  0  0  # atno 17320 bound_to 7965
  145.9416  139.2672  143.1265 LP  0  0  0  0  0  0  0  0  0  0  0  0  # atno 17321 bound_to 7965
  140.7561  143.3058  151.2965 LP  0  0  0  0  0  0  0  0  0  0  0  0  # atno 17342 bound_to 10162
  139.6573  144.0254  152.2668 LP  0  0  0  0  0  0  0  0  0  0  0  0  # atno 17343 bound_to 10162
  157.7461  131.0426  150.4705 LP  0  0  0  0  0  0  0  0  0  0  0  0  # atno 17370 bound_to 10713
  156.4901  130.4093  149.6411 LP  0  0  0  0  0  0  0  0  0  0  0  0  # atno 17371 bound_to 10713
  141.0580  134.0387  157.3696 LP  0  0  0  0  0  0  0  0  0  0  0  0  # atno 17394 bound_to 11000
  139.9067  135.0181  156.7516 LP  0  0  0  0  0  0  0  0  0  0  0  0  # atno 17395 bound_to 11000

$$$$
