AV-unprocessed.smi:743|AV-procd|sdf|3561|dock9
  -GOLD-   22720 0563D 1   1.00000     0.00000
 Structure written by MMmdl.
 29 30  0  0  0  0  0  0  0  0  2 V2000
  148.2263  141.2278  153.8852 C   0  0  0  0  0  0  0  0  0  0  0  0
  149.2438  141.0463  154.8981 N   0  0  0  0  0  0  0  0  0  0  0  0
  149.3252  141.6218  156.1473 C   0  0  0  0  0  0  0  0  0  0  0  0
  150.4637  141.1535  156.7446 C   0  0  0  0  0  0  0  0  0  0  0  0
  151.0204  141.4586  158.1148 C   0  0  1  0  0  0  0  0  0  0  0  0
  152.2083  140.6436  158.3832 N   0  0  0  0  0  0  0  0  0  0  0  0
  153.2900  141.0039  159.0970 C   0  0  0  0  0  0  0  0  0  0  0  0
  154.2051  140.2142  159.3149 O   0  0  0  0  0  0  0  0  0  0  0  0
  153.3981  142.4455  159.6175 C   0  0  0  0  0  0  0  0  0  0  0  0
  152.0676  143.2158  159.5889 C   0  0  0  0  0  0  0  0  0  0  0  0
  151.3186  142.9678  158.2744 C   0  0  2  0  0  0  0  0  0  0  0  0
  150.0894  143.7785  158.2007 N   0  3  0  0  0  0  0  0  0  0  0  0
  151.0158  140.2874  155.7568 C   0  0  0  0  0  0  0  0  0  0  0  0
  150.2841  140.2230  154.6576 N   0  0  0  0  0  0  0  0  0  0  0  0
  151.9588  143.2919  157.4519 H   0  0  0  0  0  0  0  0  0  0  0  0
  147.3299  141.6607  154.3302 H   0  0  0  0  0  0  0  0  0  0  0  0
  147.9689  140.2673  153.4369 H   0  0  0  0  0  0  0  0  0  0  0  0
  148.5976  141.8975  153.1089 H   0  0  0  0  0  0  0  0  0  0  0  0
  148.5726  142.3093  156.5055 H   0  0  0  0  0  0  0  0  0  0  0  0
  150.2926  141.1728  158.8760 H   0  0  0  0  0  0  0  0  0  0  0  0
  152.1853  139.6954  158.0355 H   0  0  0  0  0  0  0  0  0  0  0  0
  153.8040  142.4374  160.6299 H   0  0  0  0  0  0  0  0  0  0  0  0
  154.1286  142.9627  158.9946 H   0  0  0  0  0  0  0  0  0  0  0  0
  151.4489  142.9124  160.4351 H   0  0  0  0  0  0  0  0  0  0  0  0
  152.2641  144.2810  159.7166 H   0  0  0  0  0  0  0  0  0  0  0  0
  150.2037  144.6177  158.7511 H   0  0  0  0  0  0  0  0  0  0  0  0
  149.3126  143.2424  158.5604 H   0  0  0  0  0  0  0  0  0  0  0  0
  151.9225  139.7029  155.8082 H   0  0  0  0  0  0  0  0  0  0  0  0
  149.9079  144.0288  157.2391 H   0  0  0  0  0  0  0  0  0  0  0  0
  1  2  1  0  0  0  0
  1 16  1  0  0  0  0
  1 17  1  0  0  0  0
  1 18  1  0  0  0  0
  2 14  1  0  0  0  0
  2  3  1  0  0  0  0
  3  4  2  0  0  0  0
  3 19  1  0  0  0  0
  4  5  1  0  0  0  0
  4 13  1  0  0  0  0
  5 11  1  0  0  0  0
  5  6  1  0  0  0  0
  5 20  1  0  0  0  0
  6  7  1  0  0  0  0
  6 21  1  0  0  0  0
  7  8  2  0  0  0  0
  7  9  1  0  0  0  0
  9 10  1  0  0  0  0
  9 22  1  0  0  0  0
  9 23  1  0  0  0  0
 10 11  1  0  0  0  0
 10 24  1  0  0  0  0
 10 25  1  0  0  0  0
 11 15  1  0  0  0  0
 11 12  1  0  0  0  0
 12 26  1  0  0  0  0
 12 27  1  0  0  0  0
 12 29  1  0  0  0  0
 13 14  2  0  0  0  0
 13 28  1  0  0  0  0
M  CHG  1  12   1
M  END
> <s_m_source_file>
AV-unprocessed.smi

> <i_m_source_file_index>
743

> <i_lp_mmshare_version>
43012

> <i_f3d_flags>
0

> <s_epik_input>
W0NIM11uMVtjSF1jKFtjSF1uMSlbQ0BASF0yW05IXUMoPU8pW0NIMl1bQ0gyXVtDQEBIXTJbTkgyXQ==

> <s_epik_cmdline>
J2VwaWtfcHl0aG9uJywgJy1waCcsICc3LjAnLCAnLXRuJywgJzgnLCAnLW1hJywgJzIwMCcsICctbWV0YWxfYmluZGluZycsICctaW1hZScsICc8aW5maWxlLm1hZT4nLCAnLW9tYWUnLCAnPG91dGZpbGUubWFlPic=

> <r_lp_tautomer_probability>
1

> <r_epik_Ionization_Penalty>
0.00878543

> <r_epik_Ionization_Penalty_Charging>
0.00874185

> <r_epik_Ionization_Penalty_Neutral>
4.35793e-05

> <r_epik_State_Penalty>
0.00660351

> <r_epik_Charging_Adjusted_Penalty>
0.0153454

> <i_epik_Tot_Q>
1

> <i_epik_Tot_abs_Q>
1

> <r_epik_Metal_State_Penalty>
0.00660727

> <b_epik_Metal_Only>
0

> <s_lp_Force_Field>
OPLS_2005

> <r_lp_Energy>
10.7235

> <b_lp_Chiralities_Consistent>
1

> <s_lp_Variant>
AV-unprocessed.smi:743-2

> <Gold.Version>
5.8.1

> <Gold.Id.Protein>
6NUR|6NUR_protein|mol2

> <Gold.PLP.Fitness>
41.5419

> <Gold.PLP.PLP>
-28.6611

> <Gold.PLP.part.hbond>
-3.3250

> <Gold.PLP.part.metal>
0.0000

> <Gold.PLP.part.buried>
-0.3616

> <Gold.PLP.part.nonpolar>
-24.2340

> <Gold.PLP.part.repulsive>
0.2375

> <Gold.PLP.ligand.clash>
0.0000

> <Gold.PLP.ligand.torsion>
0.0217

> <Gold.PLP.Chemscore.Hbond>
3.5834

> <Gold.PLP.Chemscore.CHOScore>
0.7176

> <Gold.PLP.Chemscore.Metal>
0.0000

> <Gold.Chemscore.Hbonds>
donor molecule, donor type, donor heavy atom, donor atom, acceptor molecule, acceptor atom, score
      L1  H    12    29       P1  8028  2.00
      P1  H  7989  7998       L1    14  0.80
      P1  H  7997  8008       L1     8  0.62
      L1  C     3    19       P1  8028  0.62

> <Gold.PLP.Chemscore.Internal.Correction>
0.0215

> <Gold.Rescore>
     Score         DG    S(hbond)    S(metal)    S(lipo)     H(rot)  DE(clash)    DE(int)     intcor
     15.13     -15.55       1.50        0.00      65.16       1.00       0.04       0.38       ----

> <Gold.Chemscore.Fitness>
15.1281

> <Gold.Chemscore.DG>
-15.5495

> <Gold.Chemscore.ZeroCoef>
-5.4800

> <Gold.Chemscore.Hbond>
1.4988

> <Gold.Chemscore.Metal>
0.0000

> <Gold.Chemscore.Lipo>
65.1588

> <Gold.Chemscore.Internal_Hbond>
0.0000

> <Gold.Chemscore.DEClash>
0.0407

> <Gold.Chemscore.DEInternal>
0.3807

> <Gold.Chemscore.Rot>
1.0000

> <Gold.Chemscore.Internal.Correction>
   9.000000E+99

> <Gold.Chemscore.Hbonds>
donor molecule, donor type, donor heavy atom, donor atom, acceptor molecule, acceptor atom, score
      L1  H    12    29       P1  8028  0.72
      P1  H  7989  7998       L1    14  0.11
      P1  H  7997  8008       L1     8  0.15

> <Gold.Chemscore.Hbond.Weighted>
-5.0059

> <Gold.Chemscore.Metal.Weighted>
-0.0000

> <Gold.Chemscore.Lipo.Weighted>
-7.6236

> <Gold.Chemscore.Internal_Hbond.Weighted>
0.0000

> <Gold.Chemscore.DEClash.Weighted>
0.0407

> <Gold.Chemscore.DEInternal.Weighted>
0.3807

> <Gold.Chemscore.Rot.Weighted>
2.5600

> <Gold.Chemscore.Internal.Correction.Weighted>
   9.000000E+99

> <Gold.Protein.RotatedTorsions>
[ 6907 6896 6895 6894 ] final  -44.96 input  -60.11 | X-H torsion
[ 7974 7965 7964 7962 ] final -178.17 input  175.53 | X-H torsion
[ 8008 7997 7996 7995 ] final -116.15 input   59.86 | X-H torsion
[ 10167 10162 10161 10158 ] final  -71.22 input  -65.29 | X-H torsion
[ 10718 10713 10712 10709 ] final -125.10 input   66.30 | X-H torsion
[ 10763 10752 10751 10750 ] final  -76.04 input  -60.55 | X-H torsion
[ 11005 11000 10999 10996 ] final  -88.99 input  -57.11 | X-H torsion

> <Gold.Protein.ActiveResidues>
 VAL166  LYS551  ARG553  GLY616  TRP617  ASP618  TYR619  PRO620  LYS621  CYS622 
 ASP623  PHE694  ASN695  SER759  ASP760  ASP761  ALA762  ILE779  LEU786  VAL792 
 PHE793  MET794  SER795  GLU796  ALA797  LYS798  CYS799  TRP800  GLU811  SER814 

> <Gold.Protein.RotatedAtoms>
  150.9271  134.8687  159.7526 H   0  0  0  0  0  0  0  0  0  0  0  0  # atno 6907 bound_to 6896
  152.5020  134.4133  159.9466 H   0  0  0  0  0  0  0  0  0  0  0  0  # atno 6908 bound_to 6896
  151.4163  133.3672  159.2785 H   0  0  0  0  0  0  0  0  0  0  0  0  # atno 6909 bound_to 6896
  144.7130  140.0909  143.6421 H   0  0  0  0  0  0  0  0  0  0  0  0  # atno 7974 bound_to 7965
  155.0633  140.0393  157.2584 H   0  0  0  0  0  0  0  0  0  0  0  0  # atno 8008 bound_to 7997
  154.7042  140.2679  155.6666 H   0  0  0  0  0  0  0  0  0  0  0  0  # atno 8009 bound_to 7997
  156.2769  140.2734  156.1662 H   0  0  0  0  0  0  0  0  0  0  0  0  # atno 8010 bound_to 7997
  140.5290  143.2323  151.7295 H   0  0  0  0  0  0  0  0  0  0  0  0  # atno 10167 bound_to 10162
  156.1646  130.6625  151.0097 H   0  0  0  0  0  0  0  0  0  0  0  0  # atno 10718 bound_to 10713
  154.4946  135.5811  153.6485 H   0  0  0  0  0  0  0  0  0  0  0  0  # atno 10763 bound_to 10752
  152.9868  135.6121  154.3081 H   0  0  0  0  0  0  0  0  0  0  0  0  # atno 10764 bound_to 10752
  154.2983  135.2847  155.2602 H   0  0  0  0  0  0  0  0  0  0  0  0  # atno 10765 bound_to 10752
  141.1592  133.7603  156.9531 H   0  0  0  0  0  0  0  0  0  0  0  0  # atno 11005 bound_to 11000
  145.9621  139.2808  143.1149 LP  0  0  0  0  0  0  0  0  0  0  0  0  # atno 17320 bound_to 7965
  145.9209  140.9116  143.0405 LP  0  0  0  0  0  0  0  0  0  0  0  0  # atno 17321 bound_to 7965
  139.4948  144.4142  152.0048 LP  0  0  0  0  0  0  0  0  0  0  0  0  # atno 17342 bound_to 10162
  140.3243  144.3391  150.6002 LP  0  0  0  0  0  0  0  0  0  0  0  0  # atno 17343 bound_to 10162
  157.6758  131.0850  150.7498 LP  0  0  0  0  0  0  0  0  0  0  0  0  # atno 17370 bound_to 10713
  156.7559  130.4783  149.5447 LP  0  0  0  0  0  0  0  0  0  0  0  0  # atno 17371 bound_to 10713
  140.1244  134.9396  157.2249 LP  0  0  0  0  0  0  0  0  0  0  0  0  # atno 17394 bound_to 11000
  140.3032  134.3108  155.7285 LP  0  0  0  0  0  0  0  0  0  0  0  0  # atno 17395 bound_to 11000

$$$$
