AV-unprocessed.smi:1269|AV-procd|sdf|5329|dock5
  -GOLD-   22720 4463D 1   1.00000     0.00000
 Structure written by MMmdl.
 44 45  0  0  0  0  0  0  0  0  2 V2000
  146.4364  128.4888  151.9460 C   0  0  0  0  0  0  0  0  0  0  0  0
  145.4413  129.4174  151.5291 O   0  0  0  0  0  0  0  0  0  0  0  0
  145.7195  130.7650  151.6303 C   0  0  0  0  0  0  0  0  0  0  0  0
  144.7908  131.6864  151.1076 C   0  0  0  0  0  0  0  0  0  0  0  0
  145.0650  133.0636  151.2088 C   0  0  0  0  0  0  0  0  0  0  0  0
  146.2695  133.4791  151.8270 C   0  0  0  0  0  0  0  0  0  0  0  0
  146.6647  134.8334  152.0102 N   0  0  0  0  0  0  0  0  0  0  0  0
  145.9008  135.9287  152.1625 C   0  0  0  0  0  0  0  0  0  0  0  0
  144.6712  135.9537  152.1345 O   0  0  0  0  0  0  0  0  0  0  0  0
  146.6554  137.0203  152.3590 N   0  0  0  0  0  0  0  0  0  0  0  0
  146.1620  138.3858  152.5493 C   0  0  2  0  0  0  0  0  0  0  0  0
  146.6403  139.2582  151.3806 C   0  0  0  0  0  0  0  0  0  0  0  0
  146.6207  138.9661  153.9074 C   0  0  0  0  0  0  0  0  0  0  0  0
  146.0508  140.3082  154.1889 N   0  3  0  0  0  0  0  0  0  0  0  0
  145.6779  140.4977  155.6101 C   0  0  0  0  0  0  0  0  0  0  0  0
  145.0171  141.8731  155.8060 C   0  0  0  0  0  0  0  0  0  0  0  0
  145.8975  142.8968  155.3576 O   0  0  0  0  0  0  0  0  0  0  0  0
  146.2052  142.7697  153.9743 C   0  0  0  0  0  0  0  0  0  0  0  0
  146.9089  141.4257  153.7262 C   0  0  0  0  0  0  0  0  0  0  0  0
  147.1286  132.4760  152.3227 C   0  0  0  0  0  0  0  0  0  0  0  0
  146.8709  131.1547  152.2309 N   0  0  0  0  0  0  0  0  0  0  0  0
  146.0648  127.4744  151.8022 H   0  0  0  0  0  0  0  0  0  0  0  0
  146.6742  128.6073  153.0041 H   0  0  0  0  0  0  0  0  0  0  0  0
  147.3506  128.5926  151.3595 H   0  0  0  0  0  0  0  0  0  0  0  0
  143.8803  131.3422  150.6396 H   0  0  0  0  0  0  0  0  0  0  0  0
  144.3407  133.7609  150.8202 H   0  0  0  0  0  0  0  0  0  0  0  0
  147.6622  134.9899  152.0030 H   0  0  0  0  0  0  0  0  0  0  0  0
  147.6583  136.9013  152.3630 H   0  0  0  0  0  0  0  0  0  0  0  0
  145.0719  138.3810  152.5110 H   0  0  0  0  0  0  0  0  0  0  0  0
  146.2613  140.2766  151.4706 H   0  0  0  0  0  0  0  0  0  0  0  0
  146.2913  138.8627  150.4259 H   0  0  0  0  0  0  0  0  0  0  0  0
  147.7289  139.3112  151.3414 H   0  0  0  0  0  0  0  0  0  0  0  0
  146.3087  138.2751  154.6924 H   0  0  0  0  0  0  0  0  0  0  0  0
  147.7096  139.0126  153.9613 H   0  0  0  0  0  0  0  0  0  0  0  0
  144.9866  139.7135  155.9212 H   0  0  0  0  0  0  0  0  0  0  0  0
  146.5664  140.4130  156.2377 H   0  0  0  0  0  0  0  0  0  0  0  0
  144.0701  141.9302  155.2665 H   0  0  0  0  0  0  0  0  0  0  0  0
  144.7930  142.0362  156.8604 H   0  0  0  0  0  0  0  0  0  0  0  0
  145.2955  142.8487  153.3764 H   0  0  0  0  0  0  0  0  0  0  0  0
  146.8543  143.5942  153.6784 H   0  0  0  0  0  0  0  0  0  0  0  0
  147.8635  141.4006  154.2541 H   0  0  0  0  0  0  0  0  0  0  0  0
  147.1293  141.3232  152.6641 H   0  0  0  0  0  0  0  0  0  0  0  0
  148.0559  132.7410  152.8098 H   0  0  0  0  0  0  0  0  0  0  0  0
  145.1899  140.3648  153.6632 H   0  0  0  0  0  0  0  0  0  0  0  0
  1  2  1  0  0  0  0
  1 22  1  0  0  0  0
  1 23  1  0  0  0  0
  1 24  1  0  0  0  0
  2  3  1  0  0  0  0
  3 21  1  0  0  0  0
  3  4  2  0  0  0  0
  4  5  1  0  0  0  0
  4 25  1  0  0  0  0
  5  6  2  0  0  0  0
  5 26  1  0  0  0  0
  6  7  1  0  0  0  0
  6 20  1  0  0  0  0
  7  8  1  0  0  0  0
  7 27  1  0  0  0  0
  8  9  2  0  0  0  0
  8 10  1  0  0  0  0
 10 11  1  0  0  0  0
 10 28  1  0  0  0  0
 11 12  1  0  0  0  0
 11 13  1  0  0  0  0
 11 29  1  0  0  0  0
 12 30  1  0  0  0  0
 12 31  1  0  0  0  0
 12 32  1  0  0  0  0
 13 14  1  0  0  0  0
 13 33  1  0  0  0  0
 13 34  1  0  0  0  0
 14 19  1  0  0  0  0
 14 15  1  0  0  0  0
 14 44  1  0  0  0  0
 15 16  1  0  0  0  0
 15 35  1  0  0  0  0
 15 36  1  0  0  0  0
 16 17  1  0  0  0  0
 16 37  1  0  0  0  0
 16 38  1  0  0  0  0
 17 18  1  0  0  0  0
 18 19  1  0  0  0  0
 18 39  1  0  0  0  0
 18 40  1  0  0  0  0
 19 41  1  0  0  0  0
 19 42  1  0  0  0  0
 20 21  2  0  0  0  0
 20 43  1  0  0  0  0
M  CHG  1  14   1
M  END
> <s_m_source_file>
AV-unprocessed.smi

> <i_m_source_file_index>
1269

> <i_lp_mmshare_version>
43012

> <i_f3d_flags>
0

> <s_epik_input>
W0NIM11PYzFbY0hdW2NIXWMoW2NIXW4xKVtOSF1DKD1PKVtOSF1bQ0BIXShbQ0gzXSlbQ0gyXU4yW0NIMl1bQ0gyXU9bQ0gyXVtDSDJdMg==

> <s_epik_cmdline>
J2VwaWtfcHl0aG9uJywgJy1waCcsICc3LjAnLCAnLXRuJywgJzgnLCAnLW1hJywgJzIwMCcsICctbWV0YWxfYmluZGluZycsICctaW1hZScsICc8aW5maWxlLm1hZT4nLCAnLW9tYWUnLCAnPG91dGZpbGUubWFlPic=

> <r_lp_tautomer_probability>
1

> <r_epik_Ionization_Penalty>
0.602604

> <r_epik_Ionization_Penalty_Charging>
0.602531

> <r_epik_Ionization_Penalty_Neutral>
7.37831e-05

> <r_epik_State_Penalty>
0.617039

> <r_epik_Charging_Adjusted_Penalty>
1.21957

> <i_epik_Tot_Q>
1

> <i_epik_Tot_abs_Q>
1

> <r_epik_Metal_State_Penalty>
0.617045

> <b_epik_Metal_Only>
0

> <s_lp_Force_Field>
OPLS_2005

> <r_lp_Energy>
25.4267

> <b_lp_Chiralities_Consistent>
1

> <s_lp_Variant>
AV-unprocessed.smi:1269-3

> <Gold.Version>
5.8.1

> <Gold.Id.Protein>
6NUR|6NUR_protein|mol2

> <Gold.PLP.Fitness>
43.6943

> <Gold.PLP.PLP>
-33.4121

> <Gold.PLP.part.hbond>
-2.7954

> <Gold.PLP.part.metal>
0.0000

> <Gold.PLP.part.buried>
-3.3789

> <Gold.PLP.part.nonpolar>
-28.3551

> <Gold.PLP.part.repulsive>
1.0314

> <Gold.PLP.ligand.clash>
0.0000

> <Gold.PLP.ligand.torsion>
0.7059

> <Gold.PLP.Chemscore.Hbond>
3.8880

> <Gold.PLP.Chemscore.CHOScore>
0.0000

> <Gold.PLP.Chemscore.Metal>
0.0000

> <Gold.Chemscore.Hbonds>
donor molecule, donor type, donor heavy atom, donor atom, acceptor molecule, acceptor atom, score
      L1  H     7    27       P1  7948  0.91
      L1  H    10    28       P1  7948  1.00
      L1  H    14    44       P1 10175  2.00

> <Gold.PLP.Chemscore.Internal.Correction>
0.0300

> <Gold.Rescore>
     Score         DG    S(hbond)    S(metal)    S(lipo)     H(rot)  DE(clash)    DE(int)     intcor
     18.10     -19.62       2.83        0.00      79.17       1.78       0.53       0.99       ----

> <Gold.Chemscore.Fitness>
18.1010

> <Gold.Chemscore.DG>
-19.6219

> <Gold.Chemscore.ZeroCoef>
-5.4800

> <Gold.Chemscore.Hbond>
2.8251

> <Gold.Chemscore.Metal>
0.0000

> <Gold.Chemscore.Lipo>
79.1705

> <Gold.Chemscore.Internal_Hbond>
0.0000

> <Gold.Chemscore.DEClash>
0.5318

> <Gold.Chemscore.DEInternal>
0.9891

> <Gold.Chemscore.Rot>
1.7801

> <Gold.Chemscore.Internal.Correction>
   9.000000E+99

> <Gold.Chemscore.Hbonds>
donor molecule, donor type, donor heavy atom, donor atom, acceptor molecule, acceptor atom, score
      L1  H     7    27       P1  7948  0.74
      L1  H    10    28       P1  7948  0.89
      L1  H    14    44       P1 10175  1.00

> <Gold.Chemscore.Hbond.Weighted>
-9.4360

> <Gold.Chemscore.Metal.Weighted>
-0.0000

> <Gold.Chemscore.Lipo.Weighted>
-9.2629

> <Gold.Chemscore.Internal_Hbond.Weighted>
0.0000

> <Gold.Chemscore.DEClash.Weighted>
0.5318

> <Gold.Chemscore.DEInternal.Weighted>
0.9891

> <Gold.Chemscore.Rot.Weighted>
4.5570

> <Gold.Chemscore.Internal.Correction.Weighted>
   9.000000E+99

> <Gold.Protein.RotatedTorsions>
[ 6907 6896 6895 6894 ] final   42.86 input  -60.11 | X-H torsion
[ 7974 7965 7964 7962 ] final   64.05 input  175.53 | X-H torsion
[ 8008 7997 7996 7995 ] final   -5.87 input   59.86 | X-H torsion
[ 10167 10162 10161 10158 ] final  118.48 input  -65.29 | X-H torsion
[ 10718 10713 10712 10709 ] final   -1.87 input   66.30 | X-H torsion
[ 10763 10752 10751 10750 ] final -110.57 input  -60.55 | X-H torsion
[ 11005 11000 10999 10996 ] final  139.42 input  -57.11 | X-H torsion

> <Gold.Protein.ActiveResidues>
 VAL166  LYS551  ARG553  GLY616  TRP617  ASP618  TYR619  PRO620  LYS621  CYS622 
 ASP623  PHE694  ASN695  SER759  ASP760  ASP761  ALA762  ILE779  LEU786  VAL792 
 PHE793  MET794  SER795  GLU796  ALA797  LYS798  CYS799  TRP800  GLU811  SER814 

> <Gold.Protein.RotatedAtoms>
  152.2131  134.8483  160.0494 H   0  0  0  0  0  0  0  0  0  0  0  0  # atno 6907 bound_to 6896
  151.9294  133.3602  159.3933 H   0  0  0  0  0  0  0  0  0  0  0  0  # atno 6908 bound_to 6896
  150.6981  134.4478  159.5366 H   0  0  0  0  0  0  0  0  0  0  0  0  # atno 6909 bound_to 6896
  145.8547  139.3276  143.0854 H   0  0  0  0  0  0  0  0  0  0  0  0  # atno 7974 bound_to 7965
  154.5995  140.2447  155.7812 H   0  0  0  0  0  0  0  0  0  0  0  0  # atno 8008 bound_to 7997
  156.2301  140.2969  156.0119 H   0  0  0  0  0  0  0  0  0  0  0  0  # atno 8009 bound_to 7997
  155.2236  140.0401  157.2942 H   0  0  0  0  0  0  0  0  0  0  0  0  # atno 8010 bound_to 7997
  139.6109  144.7081  151.2847 H   0  0  0  0  0  0  0  0  0  0  0  0  # atno 10167 bound_to 10162
  156.7992  130.5387  149.5724 H   0  0  0  0  0  0  0  0  0  0  0  0  # atno 10718 bound_to 10713
  154.8255  135.4559  154.0906 H   0  0  0  0  0  0  0  0  0  0  0  0  # atno 10763 bound_to 10752
  153.2224  135.6895  153.7991 H   0  0  0  0  0  0  0  0  0  0  0  0  # atno 10764 bound_to 10752
  153.7403  135.3313  155.3279 H   0  0  0  0  0  0  0  0  0  0  0  0  # atno 10765 bound_to 10752
  140.0253  134.9377  157.0556 H   0  0  0  0  0  0  0  0  0  0  0  0  # atno 11005 bound_to 11000
  145.9317  140.9043  143.0353 LP  0  0  0  0  0  0  0  0  0  0  0  0  # atno 17320 bound_to 7965
  144.6728  140.1427  143.7436 LP  0  0  0  0  0  0  0  0  0  0  0  0  # atno 17321 bound_to 7965
  140.7318  143.6841  150.7976 LP  0  0  0  0  0  0  0  0  0  0  0  0  # atno 17342 bound_to 10162
  140.0436  143.5321  152.2706 LP  0  0  0  0  0  0  0  0  0  0  0  0  # atno 17343 bound_to 10162
  156.1112  130.6041  151.0049 LP  0  0  0  0  0  0  0  0  0  0  0  0  # atno 17370 bound_to 10713
  157.6562  131.0889  150.7941 LP  0  0  0  0  0  0  0  0  0  0  0  0  # atno 17371 bound_to 10713
  140.4316  134.1774  155.7168 LP  0  0  0  0  0  0  0  0  0  0  0  0  # atno 17394 bound_to 11000
  141.1799  133.8436  157.1294 LP  0  0  0  0  0  0  0  0  0  0  0  0  # atno 17395 bound_to 11000

$$$$
