AV-unprocessed.smi:3111|AV-procd|sdf|11832|dock7
  -GOLD-   2272017203D 1   1.00000     0.00000
 Structure written by MMmdl.
 29 29  0  0  0  0  0  0  0  0  1 V2000
  148.3738  145.0227  160.4202 C   0  0  0  0  0  0  0  0  0  0  0  0
  147.4459  144.6567  159.3612 N   0  0  0  0  0  0  0  0  0  0  0  0
  146.7282  143.5247  159.3444 C   0  0  0  0  0  0  0  0  0  0  0  0
  146.7748  142.6844  160.2443 O   0  0  0  0  0  0  0  0  0  0  0  0
  145.8032  143.3292  158.1366 C   0  0  0  0  0  0  0  0  0  0  0  0
  146.5341  143.1429  156.8854 N   0  0  0  0  0  0  0  0  0  0  0  0
  146.8477  141.9553  156.3422 C   0  0  0  0  0  0  0  0  0  0  0  0
  146.5550  140.8792  156.8654 O   0  0  0  0  0  0  0  0  0  0  0  0
  147.6100  141.9968  155.0084 C   0  0  2  0  0  0  0  0  0  0  0  0
  146.8249  141.3473  153.8533 C   0  0  0  0  0  0  0  0  0  0  0  0
  148.9278  141.3944  155.1536 N   0  0  0  0  0  0  0  0  0  0  0  0
  149.8948  141.7258  156.0951 C   0  0  0  0  0  0  0  0  0  0  0  0
  150.9739  140.9039  155.8611 C   0  0  0  0  0  0  0  0  0  0  0  0
  150.6977  140.0615  154.7875 N   0  0  0  0  0  0  0  0  0  0  0  0
  149.4712  140.4094  154.4205 C   0  0  0  0  0  0  0  0  0  0  0  0
  148.8503  145.9743  160.1846 H   0  0  0  0  0  0  0  0  0  0  0  0
  149.1546  144.2688  160.5306 H   0  0  0  0  0  0  0  0  0  0  0  0
  147.8536  145.1283  161.3734 H   0  0  0  0  0  0  0  0  0  0  0  0
  147.3482  145.3001  158.5890 H   0  0  0  0  0  0  0  0  0  0  0  0
  145.1900  142.4447  158.3101 H   0  0  0  0  0  0  0  0  0  0  0  0
  145.1166  144.1731  158.0464 H   0  0  0  0  0  0  0  0  0  0  0  0
  146.8099  143.9787  156.3907 H   0  0  0  0  0  0  0  0  0  0  0  0
  147.7557  143.0476  154.7517 H   0  0  0  0  0  0  0  0  0  0  0  0
  145.8428  141.8071  153.7354 H   0  0  0  0  0  0  0  0  0  0  0  0
  146.6750  140.2789  154.0133 H   0  0  0  0  0  0  0  0  0  0  0  0
  147.3561  141.4666  152.9086 H   0  0  0  0  0  0  0  0  0  0  0  0
  149.7405  142.4988  156.8335 H   0  0  0  0  0  0  0  0  0  0  0  0
  151.9205  140.8543  156.3789 H   0  0  0  0  0  0  0  0  0  0  0  0
  148.9542  139.9349  153.5990 H   0  0  0  0  0  0  0  0  0  0  0  0
  1  2  1  0  0  0  0
  1 16  1  0  0  0  0
  1 17  1  0  0  0  0
  1 18  1  0  0  0  0
  2  3  1  0  0  0  0
  2 19  1  0  0  0  0
  3  4  2  0  0  0  0
  3  5  1  0  0  0  0
  5  6  1  0  0  0  0
  5 20  1  0  0  0  0
  5 21  1  0  0  0  0
  6  7  1  0  0  0  0
  6 22  1  0  0  0  0
  7  8  2  0  0  0  0
  7  9  1  0  0  0  0
  9 10  1  0  0  0  0
  9 11  1  0  0  0  0
  9 23  1  0  0  0  0
 10 24  1  0  0  0  0
 10 25  1  0  0  0  0
 10 26  1  0  0  0  0
 11 15  1  0  0  0  0
 11 12  1  0  0  0  0
 12 13  2  0  0  0  0
 12 27  1  0  0  0  0
 13 14  1  0  0  0  0
 13 28  1  0  0  0  0
 14 15  2  0  0  0  0
 15 29  1  0  0  0  0
M  END
> <s_m_source_file>
AV-unprocessed.smi

> <i_m_source_file_index>
3111

> <i_lp_mmshare_version>
43012

> <i_f3d_flags>
0

> <s_epik_input>
W0NIM11bTkhdQyg9TylbQ0gyXVtOSF1DKD1PKVtDQEhdKFtDSDNdKW4xW2NIXVtjSF1uW2NIXTE=

> <s_epik_cmdline>
J2VwaWtfcHl0aG9uJywgJy1waCcsICc3LjAnLCAnLXRuJywgJzgnLCAnLW1hJywgJzIwMCcsICctbWV0YWxfYmluZGluZycsICctaW1hZScsICc8aW5maWxlLm1hZT4nLCAnLW9tYWUnLCAnPG91dGZpbGUubWFlPic=

> <r_lp_tautomer_probability>
1

> <r_epik_Ionization_Penalty>
0.278299

> <r_epik_Ionization_Penalty_Charging>
0.278299

> <r_epik_Ionization_Penalty_Neutral>
1.78617e-07

> <r_epik_State_Penalty>
0.270759

> <r_epik_Charging_Adjusted_Penalty>
0.549058

> <i_epik_Tot_Q>
0

> <i_epik_Tot_abs_Q>
0

> <r_epik_Metal_State_Penalty>
0.183212

> <b_epik_Metal_Only>
0

> <s_lp_Force_Field>
OPLS_2005

> <r_lp_Energy>
5.209

> <b_lp_Chiralities_Consistent>
1

> <s_lp_Variant>
AV-unprocessed.smi:3111-1

> <Gold.Version>
5.8.1

> <Gold.Id.Protein>
6NUR|6NUR_protein|mol2

> <Gold.PLP.Fitness>
39.0028

> <Gold.PLP.PLP>
-24.3536

> <Gold.PLP.part.hbond>
-5.5922

> <Gold.PLP.part.metal>
0.0000

> <Gold.PLP.part.buried>
0.9762

> <Gold.PLP.part.nonpolar>
-19.0974

> <Gold.PLP.part.repulsive>
0.2061

> <Gold.PLP.ligand.clash>
0.0000

> <Gold.PLP.ligand.torsion>
0.2748

> <Gold.PLP.Chemscore.Hbond>
3.6767

> <Gold.PLP.Chemscore.CHOScore>
1.3668

> <Gold.PLP.Chemscore.Metal>
0.0000

> <Gold.Chemscore.Hbonds>
donor molecule, donor type, donor heavy atom, donor atom, acceptor molecule, acceptor atom, score
      L1  H     2    19       P1  8029  1.00
      P1  H  6933  6944       L1     4  0.64
      P1  H  6934  6946       L1     4  0.99
      P1  H  7989  7998       L1    14  0.95
      L1  C    12    27       P1  8028  0.42
      L1  C    15    29       P1  7957  0.93

> <Gold.PLP.Chemscore.Internal.Correction>
0.0682

> <Gold.Rescore>
     Score         DG    S(hbond)    S(metal)    S(lipo)     H(rot)  DE(clash)    DE(int)     intcor
     11.67     -11.97       2.62        0.00      30.46       2.27       0.02       0.29       ----

> <Gold.Chemscore.Fitness>
11.6699

> <Gold.Chemscore.DG>
-11.9733

> <Gold.Chemscore.ZeroCoef>
-5.4800

> <Gold.Chemscore.Hbond>
2.6176

> <Gold.Chemscore.Metal>
0.0000

> <Gold.Chemscore.Lipo>
30.4621

> <Gold.Chemscore.Internal_Hbond>
0.0000

> <Gold.Chemscore.DEClash>
0.0170

> <Gold.Chemscore.DEInternal>
0.2864

> <Gold.Chemscore.Rot>
2.2709

> <Gold.Chemscore.Internal.Correction>
   9.000000E+99

> <Gold.Chemscore.Hbonds>
donor molecule, donor type, donor heavy atom, donor atom, acceptor molecule, acceptor atom, score
      L1  H     2    19       P1  8029  0.92
      P1  H  6933  6944       L1     4  0.62
      P1  H  6934  6946       L1     4  0.93
      P1  H  7989  7998       L1    14  0.06

> <Gold.Chemscore.Hbond.Weighted>
-8.7427

> <Gold.Chemscore.Metal.Weighted>
-0.0000

> <Gold.Chemscore.Lipo.Weighted>
-3.5641

> <Gold.Chemscore.Internal_Hbond.Weighted>
0.0000

> <Gold.Chemscore.DEClash.Weighted>
0.0170

> <Gold.Chemscore.DEInternal.Weighted>
0.2864

> <Gold.Chemscore.Rot.Weighted>
5.8135

> <Gold.Chemscore.Internal.Correction.Weighted>
   9.000000E+99

> <Gold.Protein.RotatedTorsions>
[ 6907 6896 6895 6894 ] final   86.96 input  -60.11 | X-H torsion
[ 7974 7965 7964 7962 ] final   93.37 input  175.53 | X-H torsion
[ 8008 7997 7996 7995 ] final -159.52 input   59.86 | X-H torsion
[ 10167 10162 10161 10158 ] final  179.14 input  -65.29 | X-H torsion
[ 10718 10713 10712 10709 ] final  -50.27 input   66.30 | X-H torsion
[ 10763 10752 10751 10750 ] final -126.31 input  -60.55 | X-H torsion
[ 11005 11000 10999 10996 ] final    1.88 input  -57.11 | X-H torsion

> <Gold.Protein.ActiveResidues>
 VAL166  LYS551  ARG553  GLY616  TRP617  ASP618  TYR619  PRO620  LYS621  CYS622 
 ASP623  PHE694  ASN695  SER759  ASP760  ASP761  ALA762  ILE779  LEU786  VAL792 
 PHE793  MET794  SER795  GLU796  ALA797  LYS798  CYS799  TRP800  GLU811  SER814 

> <Gold.Protein.RotatedAtoms>
  152.5403  134.2350  159.8839 H   0  0  0  0  0  0  0  0  0  0  0  0  # atno 6907 bound_to 6896
  151.2320  133.4438  159.2611 H   0  0  0  0  0  0  0  0  0  0  0  0  # atno 6908 bound_to 6896
  151.0707  134.9810  159.8363 H   0  0  0  0  0  0  0  0  0  0  0  0  # atno 6909 bound_to 6896
  145.4798  139.2279  143.2889 H   0  0  0  0  0  0  0  0  0  0  0  0  # atno 7974 bound_to 7965
  155.7638  140.0843  157.2142 H   0  0  0  0  0  0  0  0  0  0  0  0  # atno 8008 bound_to 7997
  154.4001  140.1538  156.2920 H   0  0  0  0  0  0  0  0  0  0  0  0  # atno 8009 bound_to 7997
  155.8813  140.3420  155.5893 H   0  0  0  0  0  0  0  0  0  0  0  0  # atno 8010 bound_to 7997
  139.5323  144.2597  152.0717 H   0  0  0  0  0  0  0  0  0  0  0  0  # atno 10167 bound_to 10162
  156.1816  130.4150  149.9498 H   0  0  0  0  0  0  0  0  0  0  0  0  # atno 10718 bound_to 10713
  154.8744  135.4000  154.3410 H   0  0  0  0  0  0  0  0  0  0  0  0  # atno 10763 bound_to 10752
  153.4210  135.7023  153.6300 H   0  0  0  0  0  0  0  0  0  0  0  0  # atno 10764 bound_to 10752
  153.4962  135.3737  155.2487 H   0  0  0  0  0  0  0  0  0  0  0  0  # atno 10765 bound_to 10752
  140.6105  133.9752  155.8175 H   0  0  0  0  0  0  0  0  0  0  0  0  # atno 11005 bound_to 11000
  146.2348  140.5584  142.8960 LP  0  0  0  0  0  0  0  0  0  0  0  0  # atno 17320 bound_to 7965
  144.7895  140.6004  143.6551 LP  0  0  0  0  0  0  0  0  0  0  0  0  # atno 17321 bound_to 7965
  140.2062  144.4609  150.6407 LP  0  0  0  0  0  0  0  0  0  0  0  0  # atno 17342 bound_to 10162
  140.6510  143.2225  151.6078 LP  0  0  0  0  0  0  0  0  0  0  0  0  # atno 17343 bound_to 10162
  156.7267  130.9027  151.3622 LP  0  0  0  0  0  0  0  0  0  0  0  0  # atno 17370 bound_to 10713
  157.6872  130.9197  150.0417 LP  0  0  0  0  0  0  0  0  0  0  0  0  # atno 17371 bound_to 10713
  141.0811  134.0061  157.3384 LP  0  0  0  0  0  0  0  0  0  0  0  0  # atno 17394 bound_to 11000
  139.9194  135.0199  156.8007 LP  0  0  0  0  0  0  0  0  0  0  0  0  # atno 17395 bound_to 11000

$$$$
