AV-unprocessed.smi:36|AV-procd|sdf|282|dock2
  -GOLD-   2262016 53D 1   1.00000     0.00000
 Structure written by MMmdl.
 64 67  0  0  0  0  0  0  0  0  1 V2000
  145.7662  134.2050  151.8895 C   0  0  0  0  0  0  0  0  0  0  0  0
  146.0479  133.6290  153.2878 C   0  0  0  0  0  0  0  0  0  0  0  0
  145.2111  132.3544  153.4904 C   0  0  0  0  0  0  0  0  0  0  0  0
  147.5423  133.2912  153.4202 C   0  0  0  0  0  0  0  0  0  0  0  0
  145.5866  134.9401  154.6070 Si  0  0  0  0  0  0  0  0  0  0  0  0
  143.7531  135.4113  154.4495 C   0  0  0  0  0  0  0  0  0  0  0  0
  145.9380  134.3036  156.3634 C   0  0  0  0  0  0  0  0  0  0  0  0
  146.4917  136.3469  154.3421 O   0  0  0  0  0  0  0  0  0  0  0  0
  146.2725  137.2407  153.2696 C   0  0  0  0  0  0  0  0  0  0  0  0
  146.7867  138.6357  153.6553 C   0  0  1  0  0  0  0  0  0  0  0  0
  148.2025  138.6390  153.8032 O   0  0  0  0  0  0  0  0  0  0  0  0
  148.7144  139.9089  153.5229 C   0  0  2  0  0  0  0  0  0  0  0  0
  149.3103  140.4630  154.7740 N   0  0  0  0  0  0  0  0  0  0  0  0
  148.8961  141.5382  155.5304 C   0  0  0  0  0  0  0  0  0  0  0  0
  149.6248  141.7919  156.5848 N   0  0  0  0  0  0  0  0  0  0  0  0
  150.6175  140.8202  156.5500 C   0  0  0  0  0  0  0  0  0  0  0  0
  151.7244  140.5121  157.3835 C   0  0  0  0  0  0  0  0  0  0  0  0
  151.9773  141.2582  158.4844 N   0  0  0  0  0  0  0  0  0  0  0  0
  152.5160  140.8192  159.7599 C   0  0  0  0  0  0  0  0  0  0  0  0
  152.8677  139.6556  159.9564 O   0  0  0  0  0  0  0  0  0  0  0  0
  152.6883  141.8818  160.8065 C   0  0  0  0  0  0  0  0  0  0  0  0
  153.3232  141.5709  162.0302 C   0  0  0  0  0  0  0  0  0  0  0  0
  153.4736  142.5549  163.0265 C   0  0  0  0  0  0  0  0  0  0  0  0
  152.9845  143.8571  162.8108 C   0  0  0  0  0  0  0  0  0  0  0  0
  152.3412  144.1733  161.5995 C   0  0  0  0  0  0  0  0  0  0  0  0
  152.1897  143.1898  160.6024 C   0  0  0  0  0  0  0  0  0  0  0  0
  152.5061  139.4608  157.0206 N   0  0  0  0  0  0  0  0  0  0  0  0
  152.2212  138.7571  155.9208 C   0  0  0  0  0  0  0  0  0  0  0  0
  151.2196  138.9303  155.0557 N   0  0  0  0  0  0  0  0  0  0  0  0
  150.4315  139.9845  155.4141 C   0  0  0  0  0  0  0  0  0  0  0  0
  147.5500  140.7923  153.0606 C   0  0  0  0  0  0  0  0  0  0  0  0
  146.5046  139.7702  152.6628 C   0  0  1  0  0  0  0  0  0  0  0  0
  146.6800  139.3663  151.3182 O   0  0  0  0  0  0  0  0  0  0  0  0
  146.0179  133.4880  151.1073 H   0  0  0  0  0  0  0  0  0  0  0  0
  146.3499  135.1070  151.7043 H   0  0  0  0  0  0  0  0  0  0  0  0
  144.7136  134.4636  151.7716 H   0  0  0  0  0  0  0  0  0  0  0  0
  144.1427  132.5678  153.4550 H   0  0  0  0  0  0  0  0  0  0  0  0
  145.4244  131.8811  154.4471 H   0  0  0  0  0  0  0  0  0  0  0  0
  145.4221  131.6174  152.7146 H   0  0  0  0  0  0  0  0  0  0  0  0
  147.8455  132.5401  152.6899 H   0  0  0  0  0  0  0  0  0  0  0  0
  147.7732  132.8991  154.4112 H   0  0  0  0  0  0  0  0  0  0  0  0
  148.1652  134.1719  153.2626 H   0  0  0  0  0  0  0  0  0  0  0  0
  143.1009  134.5582  154.6352 H   0  0  0  0  0  0  0  0  0  0  0  0
  143.5196  135.7896  153.4545 H   0  0  0  0  0  0  0  0  0  0  0  0
  143.4797  136.1881  155.1632 H   0  0  0  0  0  0  0  0  0  0  0  0
  145.3655  133.4031  156.5844 H   0  0  0  0  0  0  0  0  0  0  0  0
  145.6764  135.0471  157.1160 H   0  0  0  0  0  0  0  0  0  0  0  0
  146.9913  134.0607  156.5017 H   0  0  0  0  0  0  0  0  0  0  0  0
  146.8120  136.8774  152.3946 H   0  0  0  0  0  0  0  0  0  0  0  0
  145.2182  137.2700  152.9980 H   0  0  0  0  0  0  0  0  0  0  0  0
  146.3646  138.9129  154.6227 H   0  0  0  0  0  0  0  0  0  0  0  0
  149.5342  139.8400  152.8068 H   0  0  0  0  0  0  0  0  0  0  0  0
  148.0301  142.1318  155.2768 H   0  0  0  0  0  0  0  0  0  0  0  0
  151.7339  142.2360  158.4214 H   0  0  0  0  0  0  0  0  0  0  0  0
  153.7024  140.5756  162.2126 H   0  0  0  0  0  0  0  0  0  0  0  0
  153.9634  142.3095  163.9573 H   0  0  0  0  0  0  0  0  0  0  0  0
  153.0992  144.6112  163.5752 H   0  0  0  0  0  0  0  0  0  0  0  0
  151.9608  145.1707  161.4359 H   0  0  0  0  0  0  0  0  0  0  0  0
  151.6842  143.4529  159.6846 H   0  0  0  0  0  0  0  0  0  0  0  0
  152.8914  137.9385  155.7040 H   0  0  0  0  0  0  0  0  0  0  0  0
  147.1846  141.3904  153.8974 H   0  0  0  0  0  0  0  0  0  0  0  0
  147.8542  141.4640  152.2571 H   0  0  0  0  0  0  0  0  0  0  0  0
  145.4927  140.1609  152.7745 H   0  0  0  0  0  0  0  0  0  0  0  0
  147.5877  139.4892  151.0851 H   0  0  0  0  0  0  0  0  0  0  0  0
  1  2  1  0  0  0  0
  1 34  1  0  0  0  0
  1 35  1  0  0  0  0
  1 36  1  0  0  0  0
  2  3  1  0  0  0  0
  2  4  1  0  0  0  0
  2  5  1  0  0  0  0
  3 37  1  0  0  0  0
  3 38  1  0  0  0  0
  3 39  1  0  0  0  0
  4 40  1  0  0  0  0
  4 41  1  0  0  0  0
  4 42  1  0  0  0  0
  5  6  1  0  0  0  0
  5  7  1  0  0  0  0
  5  8  1  0  0  0  0
  6 43  1  0  0  0  0
  6 44  1  0  0  0  0
  6 45  1  0  0  0  0
  7 46  1  0  0  0  0
  7 47  1  0  0  0  0
  7 48  1  0  0  0  0
  8  9  1  0  0  0  0
  9 10  1  0  0  0  0
  9 49  1  0  0  0  0
  9 50  1  0  0  0  0
 10 32  1  0  0  0  0
 10 11  1  0  0  0  0
 10 51  1  0  0  0  0
 11 12  1  0  0  0  0
 12 13  1  0  0  0  0
 12 31  1  0  0  0  0
 12 52  1  0  0  0  0
 13 30  1  0  0  0  0
 13 14  1  0  0  0  0
 14 15  2  0  0  0  0
 14 53  1  0  0  0  0
 15 16  1  0  0  0  0
 16 30  2  0  0  0  0
 16 17  1  0  0  0  0
 17 18  1  0  0  0  0
 17 27  2  0  0  0  0
 18 19  1  0  0  0  0
 18 54  1  0  0  0  0
 19 20  2  0  0  0  0
 19 21  1  0  0  0  0
 21 26  1  0  0  0  0
 21 22  2  0  0  0  0
 22 23  1  0  0  0  0
 22 55  1  0  0  0  0
 23 24  2  0  0  0  0
 23 56  1  0  0  0  0
 24 25  1  0  0  0  0
 24 57  1  0  0  0  0
 25 26  2  0  0  0  0
 25 58  1  0  0  0  0
 26 59  1  0  0  0  0
 27 28  1  0  0  0  0
 28 29  2  0  0  0  0
 28 60  1  0  0  0  0
 29 30  1  0  0  0  0
 31 32  1  0  0  0  0
 31 61  1  0  0  0  0
 31 62  1  0  0  0  0
 32 33  1  0  0  0  0
 32 63  1  0  0  0  0
 33 64  1  0  0  0  0
M  END
> <s_m_source_file>
AV-unprocessed.smi

> <i_m_source_file_index>
36

> <i_lp_mmshare_version>
43012

> <i_f3d_flags>
0

> <s_epik_input>
W0NIM11DKFtDSDNdKShbQ0gzXSlbU2ldKFtDSDNdKShbQ0gzXSlPW0NIMl1bQ0BASF0xT1tDQEhdKFtDSDJdW0NASF0xW09IXSluKFtjSF1uMiljKGMyMyluW2NIXW5jM1tOSF1DKD1PKWM0W2NIXVtjSF1bY0hdW2NIXVtjSF00

> <s_epik_cmdline>
J2VwaWtfcHl0aG9uJywgJy1waCcsICc3LjAnLCAnLXRuJywgJzgnLCAnLW1hJywgJzIwMCcsICctbWV0YWxfYmluZGluZycsICctaW1hZScsICc8aW5maWxlLm1hZT4nLCAnLW9tYWUnLCAnPG91dGZpbGUubWFlPic=

> <r_lp_tautomer_probability>
1

> <r_epik_Ionization_Penalty>
0.00150433

> <r_epik_Ionization_Penalty_Charging>
0

> <r_epik_Ionization_Penalty_Neutral>
0.00150433

> <r_epik_State_Penalty>
0.00724046

> <r_epik_Charging_Adjusted_Penalty>
0.00724046

> <i_epik_Tot_Q>
0

> <i_epik_Tot_abs_Q>
0

> <r_epik_Metal_State_Penalty>
0.323355

> <b_epik_Metal_Only>
0

> <s_epik_Chemistry_Notes>
This compound contains an acetal/aminal-like group ( X-CH(R)-Y where X, Y are N, S, or O) that may be acid/base labile, releasing an aldehyde.

> <s_lp_Force_Field>
OPLS_2005

> <r_lp_Energy>
37.9666

> <b_lp_Chiralities_Consistent>
1

> <s_lp_Variant>
AV-unprocessed.smi:36-4

> <Gold.Version>
5.8.1

> <Gold.Id.Protein>
6NUR|6NUR_protein|mol2

> <Gold.PLP.Fitness>
57.0704

> <Gold.PLP.PLP>
-51.5967

> <Gold.PLP.part.hbond>
-2.7481

> <Gold.PLP.part.metal>
0.0000

> <Gold.PLP.part.buried>
3.2699

> <Gold.PLP.part.nonpolar>
-50.1194

> <Gold.PLP.part.repulsive>
0.7972

> <Gold.PLP.ligand.clash>
0.0000

> <Gold.PLP.ligand.torsion>
0.6177

> <Gold.PLP.Chemscore.Hbond>
2.0000

> <Gold.PLP.Chemscore.CHOScore>
0.1296

> <Gold.PLP.Chemscore.Metal>
0.0000

> <Gold.Chemscore.Hbonds>
donor molecule, donor type, donor heavy atom, donor atom, acceptor molecule, acceptor atom, score
      L1  H    33    64       P1  7957  0.98
      P1  H  7997  8010       L1    27  1.00
      L1  C    14    53       P1  8028  0.24

> <Gold.PLP.Chemscore.Internal.Correction>
0.3201

> <Gold.Rescore>
     Score         DG    S(hbond)    S(metal)    S(lipo)     H(rot)  DE(clash)    DE(int)     intcor
     12.00     -17.48       1.46        0.00     119.94       2.70       4.18       1.30       ----

> <Gold.Chemscore.Fitness>
12.0003

> <Gold.Chemscore.DG>
-17.4784

> <Gold.Chemscore.ZeroCoef>
-5.4800

> <Gold.Chemscore.Hbond>
1.4634

> <Gold.Chemscore.Metal>
0.0000

> <Gold.Chemscore.Lipo>
119.9405

> <Gold.Chemscore.Internal_Hbond>
0.0000

> <Gold.Chemscore.DEClash>
4.1819

> <Gold.Chemscore.DEInternal>
1.2961

> <Gold.Chemscore.Rot>
2.7041

> <Gold.Chemscore.Internal.Correction>
   9.000000E+99

> <Gold.Chemscore.Hbonds>
donor molecule, donor type, donor heavy atom, donor atom, acceptor molecule, acceptor atom, score
      L1  H    33    64       P1  7957  0.76
      P1  H  7997  8010       L1    27  0.25

> <Gold.Chemscore.Hbond.Weighted>
-4.8878

> <Gold.Chemscore.Metal.Weighted>
-0.0000

> <Gold.Chemscore.Lipo.Weighted>
-14.0330

> <Gold.Chemscore.Internal_Hbond.Weighted>
0.0000

> <Gold.Chemscore.DEClash.Weighted>
4.1819

> <Gold.Chemscore.DEInternal.Weighted>
1.2961

> <Gold.Chemscore.Rot.Weighted>
6.9225

> <Gold.Chemscore.Internal.Correction.Weighted>
   9.000000E+99

> <Gold.Protein.RotatedTorsions>
[ 6907 6896 6895 6894 ] final  103.56 input  -60.11 | X-H torsion
[ 7974 7965 7964 7962 ] final  153.51 input  175.53 | X-H torsion
[ 8008 7997 7996 7995 ] final   59.36 input   59.86 | X-H torsion
[ 10167 10162 10161 10158 ] final   60.88 input  -65.29 | X-H torsion
[ 10718 10713 10712 10709 ] final -146.76 input   66.30 | X-H torsion
[ 10763 10752 10751 10750 ] final -174.27 input  -60.55 | X-H torsion
[ 11005 11000 10999 10996 ] final -150.86 input  -57.11 | X-H torsion

> <Gold.Protein.ActiveResidues>
 VAL166  LYS551  ARG553  GLY616  TRP617  ASP618  TYR619  PRO620  LYS621  CYS622 
 ASP623  PHE694  ASN695  SER759  ASP760  ASP761  ALA762  ILE779  LEU786  VAL792 
 PHE793  MET794  SER795  GLU796  ALA797  LYS798  CYS799  TRP800  GLU811  SER814 

> <Gold.Protein.RotatedAtoms>
  152.5291  133.9807  159.7804 H   0  0  0  0  0  0  0  0  0  0  0  0  # atno 6907 bound_to 6896
  151.0061  133.6001  159.2695 H   0  0  0  0  0  0  0  0  0  0  0  0  # atno 6908 bound_to 6896
  151.3093  135.0796  159.9320 H   0  0  0  0  0  0  0  0  0  0  0  0  # atno 6909 bound_to 6896
  144.8149  139.6810  143.6125 H   0  0  0  0  0  0  0  0  0  0  0  0  # atno 7974 bound_to 7965
  155.5649  140.3489  155.4500 H   0  0  0  0  0  0  0  0  0  0  0  0  # atno 8008 bound_to 7997
  156.0487  140.1312  157.0100 H   0  0  0  0  0  0  0  0  0  0  0  0  # atno 8009 bound_to 7997
  154.4424  140.1009  156.6329 H   0  0  0  0  0  0  0  0  0  0  0  0  # atno 8010 bound_to 7997
  140.1608  144.4372  150.6710 H   0  0  0  0  0  0  0  0  0  0  0  0  # atno 10167 bound_to 10162
  156.3989  130.7924  151.2133 H   0  0  0  0  0  0  0  0  0  0  0  0  # atno 10718 bound_to 10713
  154.5981  135.2852  155.0564 H   0  0  0  0  0  0  0  0  0  0  0  0  # atno 10763 bound_to 10752
  154.1839  135.6452  153.5045 H   0  0  0  0  0  0  0  0  0  0  0  0  # atno 10764 bound_to 10752
  153.0146  135.5430  154.6691 H   0  0  0  0  0  0  0  0  0  0  0  0  # atno 10765 bound_to 10752
  140.7357  134.3571  157.5158 H   0  0  0  0  0  0  0  0  0  0  0  0  # atno 11005 bound_to 11000
  146.2452  139.6083  142.9465 LP  0  0  0  0  0  0  0  0  0  0  0  0  # atno 17320 bound_to 7965
  145.5237  141.0430  143.2421 LP  0  0  0  0  0  0  0  0  0  0  0  0  # atno 17321 bound_to 7965
  140.6644  143.2263  151.5778 LP  0  0  0  0  0  0  0  0  0  0  0  0  # atno 17342 bound_to 10162
  139.5382  144.2721  152.1296 LP  0  0  0  0  0  0  0  0  0  0  0  0  # atno 17343 bound_to 10162
  157.7503  131.0293  150.4085 LP  0  0  0  0  0  0  0  0  0  0  0  0  # atno 17370 bound_to 10713
  156.4361  130.3982  149.6728 LP  0  0  0  0  0  0  0  0  0  0  0  0  # atno 17371 bound_to 10713
  139.8816  134.9048  156.2885 LP  0  0  0  0  0  0  0  0  0  0  0  0  # atno 17394 bound_to 11000
  140.9881  133.7225  156.0773 LP  0  0  0  0  0  0  0  0  0  0  0  0  # atno 17395 bound_to 11000

$$$$
