AV-unprocessed.smi:2519|AV-procd|sdf|9903|dock2
  -GOLD-   2272013543D 1   1.00000     0.00000
 Structure written by MMmdl.
 43 44  0  0  0  0  0  0  0  0  1 V2000
  147.5986  127.5415  151.9638 C   0  0  0  0  0  0  0  0  0  0  0  0
  147.3007  128.9592  151.8331 N   0  0  0  0  0  0  0  0  0  0  0  0
  146.0833  129.5005  152.0048 C   0  0  0  0  0  0  0  0  0  0  0  0
  145.0906  128.8351  152.3042 O   0  0  0  0  0  0  0  0  0  0  0  0
  145.9903  130.9934  151.8195 C   0  0  0  0  0  0  0  0  0  0  0  0
  145.0077  131.5407  150.9645 C   0  0  0  0  0  0  0  0  0  0  0  0
  144.9502  132.9367  150.8061 C   0  0  0  0  0  0  0  0  0  0  0  0
  145.8715  133.7391  151.5038 C   0  0  0  0  0  0  0  0  0  0  0  0
  146.8267  133.1249  152.3418 C   0  0  0  0  0  0  0  0  0  0  0  0
  147.7085  134.0162  153.0071 N   0  0  0  0  0  0  0  0  0  0  0  0
  148.2073  133.9213  154.2560 C   0  0  0  0  0  0  0  0  0  0  0  0
  148.0102  132.9772  155.0192 O   0  0  0  0  0  0  0  0  0  0  0  0
  148.9731  134.9642  154.6264 N   0  0  0  0  0  0  0  0  0  0  0  0
  149.6664  135.1878  155.8998 C   0  0  2  0  0  0  0  0  0  0  0  0
  148.6391  135.3883  157.0303 C   0  0  0  0  0  0  0  0  0  0  0  0
  147.8984  136.7312  156.9105 C   0  0  0  0  0  0  0  0  0  0  0  0
  148.8804  137.9110  156.8368 C   0  0  0  0  0  0  0  0  0  0  0  0
  149.8924  137.7421  155.6844 C   0  0  1  0  0  0  0  0  0  0  0  0
  150.8727  138.9297  155.5965 C   0  0  0  0  0  0  0  0  0  0  0  0
  150.2290  140.0545  155.2834 F   0  0  0  0  0  0  0  0  0  0  0  0
  151.4913  139.0983  156.7653 F   0  0  0  0  0  0  0  0  0  0  0  0
  151.7983  138.6897  154.6675 F   0  0  0  0  0  0  0  0  0  0  0  0
  150.6321  136.3925  155.8239 C   0  0  0  0  0  0  0  0  0  0  0  0
  146.8723  131.7782  152.4851 N   0  0  0  0  0  0  0  0  0  0  0  0
  148.6698  127.3754  151.8490 H   0  0  0  0  0  0  0  0  0  0  0  0
  147.0793  126.9657  151.1968 H   0  0  0  0  0  0  0  0  0  0  0  0
  147.2988  127.1676  152.9435 H   0  0  0  0  0  0  0  0  0  0  0  0
  148.0636  129.5761  151.5913 H   0  0  0  0  0  0  0  0  0  0  0  0
  144.3073  130.9107  150.4357 H   0  0  0  0  0  0  0  0  0  0  0  0
  144.2110  133.3856  150.1593 H   0  0  0  0  0  0  0  0  0  0  0  0
  145.8407  134.8135  151.3941 H   0  0  0  0  0  0  0  0  0  0  0  0
  147.9707  134.8384  152.4839 H   0  0  0  0  0  0  0  0  0  0  0  0
  149.1069  135.6835  153.9304 H   0  0  0  0  0  0  0  0  0  0  0  0
  150.2404  134.2910  156.1392 H   0  0  0  0  0  0  0  0  0  0  0  0
  147.9229  134.5658  157.0419 H   0  0  0  0  0  0  0  0  0  0  0  0
  149.1547  135.3529  157.9908 H   0  0  0  0  0  0  0  0  0  0  0  0
  147.2646  136.7269  156.0229 H   0  0  0  0  0  0  0  0  0  0  0  0
  147.2299  136.8606  157.7619 H   0  0  0  0  0  0  0  0  0  0  0  0
  148.3203  138.8379  156.7115 H   0  0  0  0  0  0  0  0  0  0  0  0
  149.4121  137.9988  157.7849 H   0  0  0  0  0  0  0  0  0  0  0  0
  149.3296  137.7211  154.7497 H   0  0  0  0  0  0  0  0  0  0  0  0
  151.2410  136.4109  156.7287 H   0  0  0  0  0  0  0  0  0  0  0  0
  151.3335  136.2638  154.9995 H   0  0  0  0  0  0  0  0  0  0  0  0
  1  2  1  0  0  0  0
  1 25  1  0  0  0  0
  1 26  1  0  0  0  0
  1 27  1  0  0  0  0
  2  3  1  0  0  0  0
  2 28  1  0  0  0  0
  3  4  2  0  0  0  0
  3  5  1  0  0  0  0
  5 24  1  0  0  0  0
  5  6  2  0  0  0  0
  6  7  1  0  0  0  0
  6 29  1  0  0  0  0
  7  8  2  0  0  0  0
  7 30  1  0  0  0  0
  8  9  1  0  0  0  0
  8 31  1  0  0  0  0
  9 10  1  0  0  0  0
  9 24  2  0  0  0  0
 10 11  1  0  0  0  0
 10 32  1  0  0  0  0
 11 12  2  0  0  0  0
 11 13  1  0  0  0  0
 13 14  1  0  0  0  0
 13 33  1  0  0  0  0
 14 23  1  0  0  0  0
 14 15  1  0  0  0  0
 14 34  1  0  0  0  0
 15 16  1  0  0  0  0
 15 35  1  0  0  0  0
 15 36  1  0  0  0  0
 16 17  1  0  0  0  0
 16 37  1  0  0  0  0
 16 38  1  0  0  0  0
 17 18  1  0  0  0  0
 17 39  1  0  0  0  0
 17 40  1  0  0  0  0
 18 19  1  0  0  0  0
 18 23  1  0  0  0  0
 18 41  1  0  0  0  0
 19 20  1  0  0  0  0
 19 21  1  0  0  0  0
 19 22  1  0  0  0  0
 23 42  1  0  0  0  0
 23 43  1  0  0  0  0
M  END
> <s_m_source_file>
AV-unprocessed.smi

> <i_m_source_file_index>
2519

> <i_lp_mmshare_version>
43012

> <i_f3d_flags>
0

> <s_epik_input>
W0NIM11bTkhdQyg9TyljMVtjSF1bY0hdW2NIXWMobjEpW05IXUMoPU8pW05IXVtDQEBIXTJbQ0gyXVtDSDJdW0NIMl1bQ0BASF0oQyhGKShGKUYpW0NIMl0y

> <s_epik_cmdline>
J2VwaWtfcHl0aG9uJywgJy1waCcsICc3LjAnLCAnLXRuJywgJzgnLCAnLW1hJywgJzIwMCcsICctbWV0YWxfYmluZGluZycsICctaW1hZScsICc8aW5maWxlLm1hZT4nLCAnLW9tYWUnLCAnPG91dGZpbGUubWFlPic=

> <r_lp_tautomer_probability>
1

> <r_epik_Ionization_Penalty>
3.74915e-05

> <r_epik_Ionization_Penalty_Charging>
0

> <r_epik_Ionization_Penalty_Neutral>
3.74915e-05

> <r_epik_State_Penalty>
-0

> <r_epik_Charging_Adjusted_Penalty>
0

> <i_epik_Tot_Q>
0

> <i_epik_Tot_abs_Q>
0

> <r_epik_Metal_State_Penalty>
-0

> <b_epik_Metal_Only>
0

> <s_lp_Force_Field>
OPLS_2005

> <r_lp_Energy>
26.8043

> <b_lp_Chiralities_Consistent>
1

> <s_lp_Variant>
AV-unprocessed.smi:2519-1

> <Gold.Version>
5.8.1

> <Gold.Id.Protein>
6NUR|6NUR_protein|mol2

> <Gold.PLP.Fitness>
44.6047

> <Gold.PLP.PLP>
-38.4363

> <Gold.PLP.part.hbond>
-3.0000

> <Gold.PLP.part.metal>
0.0000

> <Gold.PLP.part.buried>
-6.2890

> <Gold.PLP.part.nonpolar>
-29.8021

> <Gold.PLP.part.repulsive>
1.4793

> <Gold.PLP.ligand.clash>
0.0000

> <Gold.PLP.ligand.torsion>
1.3243

> <Gold.PLP.Chemscore.Hbond>
2.9280

> <Gold.PLP.Chemscore.CHOScore>
0.0000

> <Gold.PLP.Chemscore.Metal>
0.0000

> <Gold.Chemscore.Hbonds>
donor molecule, donor type, donor heavy atom, donor atom, acceptor molecule, acceptor atom, score
      L1  H     2    28       P1 10747  1.00
      L1  H    10    32       P1  7948  1.00
      L1  H    13    33       P1  7948  0.72

> <Gold.PLP.Chemscore.Internal.Correction>
0.0329

> <Gold.Rescore>
     Score         DG    S(hbond)    S(metal)    S(lipo)     H(rot)  DE(clash)    DE(int)     intcor
     15.36     -17.99       2.26        0.00      64.34       1.00       0.42       2.21       ----

> <Gold.Chemscore.Fitness>
15.3603

> <Gold.Chemscore.DG>
-17.9925

> <Gold.Chemscore.ZeroCoef>
-5.4800

> <Gold.Chemscore.Hbond>
2.2587

> <Gold.Chemscore.Metal>
0.0000

> <Gold.Chemscore.Lipo>
64.3449

> <Gold.Chemscore.Internal_Hbond>
0.0000

> <Gold.Chemscore.DEClash>
0.4172

> <Gold.Chemscore.DEInternal>
2.2150

> <Gold.Chemscore.Rot>
1.0000

> <Gold.Chemscore.Internal.Correction>
   9.000000E+99

> <Gold.Chemscore.Hbonds>
donor molecule, donor type, donor heavy atom, donor atom, acceptor molecule, acceptor atom, score
      L1  H     2    28       P1 10747  0.64
      L1  H    10    32       P1  7948  0.74
      L1  H    13    33       P1  7948  0.57

> <Gold.Chemscore.Hbond.Weighted>
-7.5441

> <Gold.Chemscore.Metal.Weighted>
-0.0000

> <Gold.Chemscore.Lipo.Weighted>
-7.5284

> <Gold.Chemscore.Internal_Hbond.Weighted>
0.0000

> <Gold.Chemscore.DEClash.Weighted>
0.4172

> <Gold.Chemscore.DEInternal.Weighted>
2.2150

> <Gold.Chemscore.Rot.Weighted>
2.5600

> <Gold.Chemscore.Internal.Correction.Weighted>
   9.000000E+99

> <Gold.Protein.RotatedTorsions>
[ 6907 6896 6895 6894 ] final  -54.76 input  -60.11 | X-H torsion
[ 7974 7965 7964 7962 ] final   92.13 input  175.53 | X-H torsion
[ 8008 7997 7996 7995 ] final  -12.18 input   59.86 | X-H torsion
[ 10167 10162 10161 10158 ] final -119.20 input  -65.29 | X-H torsion
[ 10718 10713 10712 10709 ] final -105.46 input   66.30 | X-H torsion
[ 10763 10752 10751 10750 ] final   92.22 input  -60.55 | X-H torsion
[ 11005 11000 10999 10996 ] final  145.20 input  -57.11 | X-H torsion

> <Gold.Protein.ActiveResidues>
 VAL166  LYS551  ARG553  GLY616  TRP617  ASP618  TYR619  PRO620  LYS621  CYS622 
 ASP623  PHE694  ASN695  SER759  ASP760  ASP761  ALA762  ILE779  LEU786  VAL792 
 PHE793  MET794  SER795  GLU796  ALA797  LYS798  CYS799  TRP800  GLU811  SER814 

> <Gold.Protein.RotatedAtoms>
  150.8310  134.7563  159.6852 H   0  0  0  0  0  0  0  0  0  0  0  0  # atno 6907 bound_to 6896
  152.4414  134.5579  159.9895 H   0  0  0  0  0  0  0  0  0  0  0  0  # atno 6908 bound_to 6896
  151.5740  133.3348  159.3031 H   0  0  0  0  0  0  0  0  0  0  0  0  # atno 6909 bound_to 6896
  145.4965  139.2276  143.2801 H   0  0  0  0  0  0  0  0  0  0  0  0  # atno 7974 bound_to 7965
  154.5400  140.2283  155.8658 H   0  0  0  0  0  0  0  0  0  0  0  0  # atno 8008 bound_to 7997
  156.1848  140.3091  155.9181 H   0  0  0  0  0  0  0  0  0  0  0  0  # atno 8009 bound_to 7997
  155.3278  140.0444  157.3032 H   0  0  0  0  0  0  0  0  0  0  0  0  # atno 8010 bound_to 7997
  140.0492  143.5076  152.2090 H   0  0  0  0  0  0  0  0  0  0  0  0  # atno 10167 bound_to 10162
  156.0347  130.5565  150.7542 H   0  0  0  0  0  0  0  0  0  0  0  0  # atno 10718 bound_to 10713
  153.2168  135.4369  155.0443 H   0  0  0  0  0  0  0  0  0  0  0  0  # atno 10763 bound_to 10752
  154.8229  135.3346  154.6987 H   0  0  0  0  0  0  0  0  0  0  0  0  # atno 10764 bound_to 10752
  153.7421  135.7004  153.5020 H   0  0  0  0  0  0  0  0  0  0  0  0  # atno 10765 bound_to 10752
  140.0693  134.9161  157.1317 H   0  0  0  0  0  0  0  0  0  0  0  0  # atno 11005 bound_to 11000
  146.2252  140.5762  142.8999 LP  0  0  0  0  0  0  0  0  0  0  0  0  # atno 17320 bound_to 7965
  144.7804  140.5829  143.6609 LP  0  0  0  0  0  0  0  0  0  0  0  0  # atno 17321 bound_to 7965
  139.5964  144.7568  151.3277 LP  0  0  0  0  0  0  0  0  0  0  0  0  # atno 17342 bound_to 10162
  140.7224  143.7097  150.7779 LP  0  0  0  0  0  0  0  0  0  0  0  0  # atno 17343 bound_to 10162
  157.5079  131.0923  151.0235 LP  0  0  0  0  0  0  0  0  0  0  0  0  # atno 17370 bound_to 10713
  157.0598  130.5821  149.5384 LP  0  0  0  0  0  0  0  0  0  0  0  0  # atno 17371 bound_to 10713
  140.3652  134.2451  155.7183 LP  0  0  0  0  0  0  0  0  0  0  0  0  # atno 17394 bound_to 11000
  141.2005  133.7985  157.0485 LP  0  0  0  0  0  0  0  0  0  0  0  0  # atno 17395 bound_to 11000

$$$$
