AV-unprocessed.smi:1507|AV-procd|sdf|6085|dock10
  -GOLD-   22720 6203D 1   1.00000     0.00000
 Structure written by MMmdl.
 33 34  0  0  0  0  0  0  0  0  4 V2000
  150.8670  136.5595  153.9509 N   0  5  0  0  0  0  0  0  0  0  0  0
  150.0264  136.7774  155.3176 S   0  0  0  0  0  0  0  0  0  0  0  0
  149.2419  135.5694  155.6125 O   0  0  0  0  0  0  0  0  0  0  0  0
  150.8970  137.2462  156.4105 O   0  0  0  0  0  0  0  0  0  0  0  0
  149.0468  137.9457  154.7310 N   0  5  0  0  0  0  0  0  0  0  0  0
  149.5536  139.1724  154.1182 C   0  0  0  0  0  0  0  0  0  0  0  0
  150.2034  140.1086  155.1283 C   0  0  0  0  0  0  0  0  0  0  0  0
  151.4858  139.8319  155.6534 C   0  0  0  0  0  0  0  0  0  0  0  0
  152.0448  140.6990  156.6150 C   0  0  0  0  0  0  0  0  0  0  0  0
  151.3215  141.8372  157.0469 C   0  0  0  0  0  0  0  0  0  0  0  0
  151.8266  142.7331  158.0146 N   0  0  0  0  0  0  0  0  0  0  0  0
  152.1920  142.1907  159.3220 C   0  0  0  0  0  0  0  0  0  0  0  0
  152.9872  143.2282  160.1315 C   0  0  0  0  0  0  0  0  0  0  0  0
  152.2411  144.4368  160.2227 O   0  0  0  0  0  0  0  0  0  0  0  0
  152.0049  145.0095  158.9414 C   0  0  0  0  0  0  0  0  0  0  0  0
  151.1763  144.0395  158.0816 C   0  0  0  0  0  0  0  0  0  0  0  0
  150.0949  142.0580  156.5121 N   0  3  0  0  0  0  0  0  0  0  0  0
  149.5211  141.2554  155.5893 C   0  0  0  0  0  0  0  0  0  0  0  0
  150.2009  136.4696  153.1746 H   0  0  0  0  0  0  0  0  0  0  0  0
  150.3026  138.9489  153.3577 H   0  0  0  0  0  0  0  0  0  0  0  0
  148.7696  139.7164  153.5902 H   0  0  0  0  0  0  0  0  0  0  0  0
  152.0409  138.9563  155.3456 H   0  0  0  0  0  0  0  0  0  0  0  0
  153.0138  140.4609  157.0259 H   0  0  0  0  0  0  0  0  0  0  0  0
  151.2865  141.9093  159.8612 H   0  0  0  0  0  0  0  0  0  0  0  0
  152.7966  141.2905  159.2044 H   0  0  0  0  0  0  0  0  0  0  0  0
  153.1801  142.8524  161.1363 H   0  0  0  0  0  0  0  0  0  0  0  0
  153.9581  143.4201  159.6719 H   0  0  0  0  0  0  0  0  0  0  0  0
  151.4687  145.9501  159.0670 H   0  0  0  0  0  0  0  0  0  0  0  0
  152.9530  145.2466  158.4560 H   0  0  0  0  0  0  0  0  0  0  0  0
  151.0420  144.4767  157.0937 H   0  0  0  0  0  0  0  0  0  0  0  0
  150.1821  143.9151  158.5128 H   0  0  0  0  0  0  0  0  0  0  0  0
  148.5306  141.5504  155.2701 H   0  0  0  0  0  0  0  0  0  0  0  0
  149.5678  142.8711  156.8297 H   0  0  0  0  0  0  0  0  0  0  0  0
  1  2  1  0  0  0  0
  1 19  1  0  0  0  0
  2  3  2  0  0  0  0
  2  4  2  0  0  0  0
  2  5  1  0  0  0  0
  5  6  1  0  0  0  0
  6  7  1  0  0  0  0
  6 20  1  0  0  0  0
  6 21  1  0  0  0  0
  7 18  1  0  0  0  0
  7  8  2  0  0  0  0
  8  9  1  0  0  0  0
  8 22  1  0  0  0  0
  9 10  2  0  0  0  0
  9 23  1  0  0  0  0
 10 11  1  0  0  0  0
 10 17  1  0  0  0  0
 11 16  1  0  0  0  0
 11 12  1  0  0  0  0
 12 13  1  0  0  0  0
 12 24  1  0  0  0  0
 12 25  1  0  0  0  0
 13 14  1  0  0  0  0
 13 26  1  0  0  0  0
 13 27  1  0  0  0  0
 14 15  1  0  0  0  0
 15 16  1  0  0  0  0
 15 28  1  0  0  0  0
 15 29  1  0  0  0  0
 16 30  1  0  0  0  0
 16 31  1  0  0  0  0
 17 18  2  0  0  0  0
 17 33  1  0  0  0  0
 18 32  1  0  0  0  0
M  CHG  1   1  -1
M  CHG  1   5  -1
M  CHG  1  17   1
M  END
> <s_m_source_file>
AV-unprocessed.smi

> <i_m_source_file_index>
1507

> <i_lp_mmshare_version>
43012

> <i_f3d_flags>
0

> <s_epik_input>
W05IMl1TKD1PKSg9TylbTkhdW0NIMl1jMVtjSF1bY0hdYyhuW2NIXTEpTjJbQ0gyXVtDSDJdT1tDSDJdW0NIMl0y

> <s_epik_cmdline>
J2VwaWtfcHl0aG9uJywgJy1waCcsICc3LjAnLCAnLXRuJywgJzgnLCAnLW1hJywgJzIwMCcsICctbWV0YWxfYmluZGluZycsICctaW1hZScsICc8aW5maWxlLm1hZT4nLCAnLW9tYWUnLCAnPG91dGZpbGUubWFlPic=

> <r_epik_Ionization_Penalty>
8.77184

> <r_epik_Ionization_Penalty_Charging>
8.77184

> <r_epik_Ionization_Penalty_Neutral>
3.18726e-12

> <r_epik_State_Penalty>
5.60098

> <r_epik_Charging_Adjusted_Penalty>
14.3728

> <i_epik_Tot_Q>
-1

> <i_epik_Tot_abs_Q>
3

> <r_epik_Metal_State_Penalty>
2.46454

> <b_epik_Metal_Only>
1

> <s_lp_Force_Field>
OPLS_2005

> <r_lp_Energy>
15.9769

> <b_lp_Chiralities_Consistent>
1

> <s_lp_Variant>
AV-unprocessed.smi:1507-6

> <Gold.Version>
5.8.1

> <Gold.Id.Protein>
6NUR|6NUR_protein|mol2

> <Gold.PLP.Fitness>
40.9289

> <Gold.PLP.PLP>
-32.6638

> <Gold.PLP.part.hbond>
-2.9303

> <Gold.PLP.part.metal>
0.0000

> <Gold.PLP.part.buried>
-2.2360

> <Gold.PLP.part.nonpolar>
-27.4062

> <Gold.PLP.part.repulsive>
0.3959

> <Gold.PLP.ligand.clash>
0.0232

> <Gold.PLP.ligand.torsion>
1.0501

> <Gold.PLP.Chemscore.Hbond>
3.0000

> <Gold.PLP.Chemscore.CHOScore>
0.0000

> <Gold.PLP.Chemscore.Metal>
0.0000

> <Gold.Chemscore.Hbonds>
donor molecule, donor type, donor heavy atom, donor atom, acceptor molecule, acceptor atom, score
      L1  H     1    19       P1  7948  0.30
      L1  H    17    33       P1  8028  0.43

> <Gold.PLP.Chemscore.Internal.Correction>
1.3885

> <Gold.Rescore>
     Score         DG    S(hbond)    S(metal)    S(lipo)     H(rot)  DE(clash)    DE(int)     intcor
     13.57     -16.10       1.83        0.00      79.86       1.89       0.02       2.51       ----

> <Gold.Chemscore.Fitness>
13.5734

> <Gold.Chemscore.DG>
-16.0975

> <Gold.Chemscore.ZeroCoef>
-5.4800

> <Gold.Chemscore.Hbond>
1.8317

> <Gold.Chemscore.Metal>
0.0000

> <Gold.Chemscore.Lipo>
79.8621

> <Gold.Chemscore.Internal_Hbond>
0.0000

> <Gold.Chemscore.DEClash>
0.0172

> <Gold.Chemscore.DEInternal>
2.5069

> <Gold.Chemscore.Rot>
1.8922

> <Gold.Chemscore.Internal.Correction>
   9.000000E+99

> <Gold.Chemscore.Hbonds>
donor molecule, donor type, donor heavy atom, donor atom, acceptor molecule, acceptor atom, score
      L1  H    17    33       P1  8028  0.21
      P1  H 10752 10764       L1     1  0.01

> <Gold.Chemscore.Hbond.Weighted>
-6.1178

> <Gold.Chemscore.Metal.Weighted>
-0.0000

> <Gold.Chemscore.Lipo.Weighted>
-9.3439

> <Gold.Chemscore.Internal_Hbond.Weighted>
0.0000

> <Gold.Chemscore.DEClash.Weighted>
0.0172

> <Gold.Chemscore.DEInternal.Weighted>
2.5069

> <Gold.Chemscore.Rot.Weighted>
4.8441

> <Gold.Chemscore.Internal.Correction.Weighted>
   9.000000E+99

> <Gold.Protein.RotatedTorsions>
[ 6907 6896 6895 6894 ] final   36.21 input  -60.11 | X-H torsion
[ 7974 7965 7964 7962 ] final  -34.83 input  175.53 | X-H torsion
[ 8008 7997 7996 7995 ] final   27.43 input   59.86 | X-H torsion
[ 10167 10162 10161 10158 ] final  149.52 input  -65.29 | X-H torsion
[ 10718 10713 10712 10709 ] final  117.25 input   66.30 | X-H torsion
[ 10763 10752 10751 10750 ] final  -46.83 input  -60.55 | X-H torsion
[ 11005 11000 10999 10996 ] final   72.14 input  -57.11 | X-H torsion

> <Gold.Protein.ActiveResidues>
 VAL166  LYS551  ARG553  GLY616  TRP617  ASP618  TYR619  PRO620  LYS621  CYS622 
 ASP623  PHE694  ASN695  SER759  ASP760  ASP761  ALA762  ILE779  LEU786  VAL792 
 PHE793  MET794  SER795  GLU796  ALA797  LYS798  CYS799  TRP800  GLU811  SER814 

> <Gold.Protein.RotatedAtoms>
  152.1267  134.9166  160.0560 H   0  0  0  0  0  0  0  0  0  0  0  0  # atno 6907 bound_to 6896
  152.0286  133.3923  159.4296 H   0  0  0  0  0  0  0  0  0  0  0  0  # atno 6908 bound_to 6896
  150.6853  134.3467  159.4935 H   0  0  0  0  0  0  0  0  0  0  0  0  # atno 6909 bound_to 6896
  146.0797  140.6086  142.8914 H   0  0  0  0  0  0  0  0  0  0  0  0  # atno 7974 bound_to 7965
  155.0427  140.3171  155.4719 H   0  0  0  0  0  0  0  0  0  0  0  0  # atno 8008 bound_to 7997
  156.2851  140.2160  156.5495 H   0  0  0  0  0  0  0  0  0  0  0  0  # atno 8009 bound_to 7997
  154.7276  140.0484  157.0685 H   0  0  0  0  0  0  0  0  0  0  0  0  # atno 8010 bound_to 7997
  139.4860  144.5595  151.7257 H   0  0  0  0  0  0  0  0  0  0  0  0  # atno 10167 bound_to 10162
  157.6109  131.1035  150.7588 H   0  0  0  0  0  0  0  0  0  0  0  0  # atno 10718 bound_to 10713
  154.0514  135.6630  153.4801 H   0  0  0  0  0  0  0  0  0  0  0  0  # atno 10763 bound_to 10752
  153.0462  135.5113  154.7747 H   0  0  0  0  0  0  0  0  0  0  0  0  # atno 10764 bound_to 10752
  154.6754  135.3036  154.9651 H   0  0  0  0  0  0  0  0  0  0  0  0  # atno 10765 bound_to 10752
  139.9506  134.7233  156.0871 H   0  0  0  0  0  0  0  0  0  0  0  0  # atno 11005 bound_to 11000
  144.7285  140.4599  143.6955 LP  0  0  0  0  0  0  0  0  0  0  0  0  # atno 17320 bound_to 7965
  145.6241  139.1528  143.3006 LP  0  0  0  0  0  0  0  0  0  0  0  0  # atno 17321 bound_to 7965
  140.5162  144.0949  150.6009 LP  0  0  0  0  0  0  0  0  0  0  0  0  # atno 17342 bound_to 10162
  140.3892  143.2761  152.0080 LP  0  0  0  0  0  0  0  0  0  0  0  0  # atno 17343 bound_to 10162
  156.7966  130.4907  149.5376 LP  0  0  0  0  0  0  0  0  0  0  0  0  # atno 17370 bound_to 10713
  156.1211  130.6110  151.0195 LP  0  0  0  0  0  0  0  0  0  0  0  0  # atno 17371 bound_to 10713
  141.1168  133.6625  156.3114 LP  0  0  0  0  0  0  0  0  0  0  0  0  # atno 17394 bound_to 11000
  140.5728  134.5823  157.5461 LP  0  0  0  0  0  0  0  0  0  0  0  0  # atno 17395 bound_to 11000

$$$$
