AV-unprocessed.smi:2368|AV-procd|sdf|9428|dock1
  -GOLD-   2272013 63D 1   1.00000     0.00000
 Structure written by MMmdl.
 35 36  0  0  0  0  0  0  0  0  1 V2000
  146.1827  130.4891  151.7826 C   0  0  0  0  0  0  0  0  0  0  0  0
  147.3352  130.9592  152.6499 C   0  0  0  0  0  0  0  0  0  0  0  0
  148.0105  129.9877  153.3020 N   0  0  0  0  0  0  0  0  0  0  0  0
  149.0398  130.3523  154.0934 C   0  0  0  0  0  0  0  0  0  0  0  0
  149.4474  131.6885  154.2681 C   0  0  0  0  0  0  0  0  0  0  0  0
  148.7532  132.7079  153.5731 C   0  0  0  0  0  0  0  0  0  0  0  0
  149.0679  134.0908  153.6907 N   0  0  0  0  0  0  0  0  0  0  0  0
  149.7764  134.7148  154.6474 C   0  0  0  0  0  0  0  0  0  0  0  0
  150.2937  134.1708  155.6230 O   0  0  0  0  0  0  0  0  0  0  0  0
  149.8715  136.0285  154.3990 N   0  0  0  0  0  0  0  0  0  0  0  0
  150.5854  136.9849  155.2374 C   0  0  1  0  0  0  0  0  0  0  0  0
  151.6195  137.7235  154.4331 C   0  0  0  0  0  0  0  0  0  0  0  0
  151.4825  139.0453  154.5100 C   0  0  0  0  0  0  0  0  0  0  0  0
  150.3248  139.4647  155.3774 C   0  0  1  0  0  0  0  0  0  0  0  0
  149.3748  140.4293  154.6486 C   0  0  0  0  0  0  0  0  0  0  0  0
  148.7438  139.7709  153.5709 O   0  0  0  0  0  0  0  0  0  0  0  0
  149.6694  138.1157  155.7747 C   0  0  0  0  0  0  0  0  0  0  0  0
  147.6620  132.3317  152.7546 C   0  0  0  0  0  0  0  0  0  0  0  0
  146.7487  133.5249  151.8923 Cl  0  0  0  0  0  0  0  0  0  0  0  0
  151.0919  136.4701  156.0556 H   0  0  0  0  0  0  0  0  0  0  0  0
  150.7406  139.9522  156.2603 H   0  0  0  0  0  0  0  0  0  0  0  0
  146.3553  130.7635  150.7417 H   0  0  0  0  0  0  0  0  0  0  0  0
  145.2500  130.9479  152.1107 H   0  0  0  0  0  0  0  0  0  0  0  0
  146.0602  129.4064  151.8297 H   0  0  0  0  0  0  0  0  0  0  0  0
  149.5516  129.5542  154.6104 H   0  0  0  0  0  0  0  0  0  0  0  0
  150.2681  131.9020  154.9352 H   0  0  0  0  0  0  0  0  0  0  0  0
  148.7789  134.6630  152.9109 H   0  0  0  0  0  0  0  0  0  0  0  0
  149.4201  136.3939  153.5733 H   0  0  0  0  0  0  0  0  0  0  0  0
  152.3901  137.2112  153.8758 H   0  0  0  0  0  0  0  0  0  0  0  0
  152.1246  139.7644  154.0229 H   0  0  0  0  0  0  0  0  0  0  0  0
  148.6043  140.7924  155.3293 H   0  0  0  0  0  0  0  0  0  0  0  0
  149.9133  141.3012  154.2750 H   0  0  0  0  0  0  0  0  0  0  0  0
  149.1925  140.0027  152.7721 H   0  0  0  0  0  0  0  0  0  0  0  0
  148.6680  138.0383  155.3480 H   0  0  0  0  0  0  0  0  0  0  0  0
  149.5516  138.0421  156.8563 H   0  0  0  0  0  0  0  0  0  0  0  0
  1  2  1  0  0  0  0
  1 22  1  0  0  0  0
  1 23  1  0  0  0  0
  1 24  1  0  0  0  0
  2 18  1  0  0  0  0
  2  3  2  0  0  0  0
  3  4  1  0  0  0  0
  4  5  2  0  0  0  0
  4 25  1  0  0  0  0
  5  6  1  0  0  0  0
  5 26  1  0  0  0  0
  6  7  1  0  0  0  0
  6 18  2  0  0  0  0
  7  8  1  0  0  0  0
  7 27  1  0  0  0  0
  8  9  2  0  0  0  0
  8 10  1  0  0  0  0
 10 11  1  0  0  0  0
 10 28  1  0  0  0  0
 11 20  1  0  0  0  0
 11 17  1  0  0  0  0
 11 12  1  0  0  0  0
 12 13  2  0  0  0  0
 12 29  1  0  0  0  0
 13 14  1  0  0  0  0
 13 30  1  0  0  0  0
 14 21  1  0  0  0  0
 14 15  1  0  0  0  0
 14 17  1  0  0  0  0
 15 16  1  0  0  0  0
 15 31  1  0  0  0  0
 15 32  1  0  0  0  0
 16 33  1  0  0  0  0
 17 34  1  0  0  0  0
 17 35  1  0  0  0  0
 18 19  1  0  0  0  0
M  END
> <s_m_source_file>
AV-unprocessed.smi

> <i_m_source_file_index>
2368

> <i_lp_mmshare_version>
43012

> <i_f3d_flags>
0

> <s_epik_input>
W0NIM11jMW5bY0hdW2NIXWMoYzFDbClbTkhdQyg9TylbTkhdW0NAQEhdMltDSF09W0NIXVtDQEBIXShbQ0gyXTIpW0NIMl1bT0hd

> <s_epik_cmdline>
J2VwaWtfcHl0aG9uJywgJy1waCcsICc3LjAnLCAnLXRuJywgJzgnLCAnLW1hJywgJzIwMCcsICctbWV0YWxfYmluZGluZycsICctaW1hZScsICc8aW5maWxlLm1hZT4nLCAnLW9tYWUnLCAnPG91dGZpbGUubWFlPic=

> <r_epik_Ionization_Penalty>
0.00964582

> <r_epik_Ionization_Penalty_Charging>
0

> <r_epik_Ionization_Penalty_Neutral>
0.00964582

> <r_epik_State_Penalty>
0.00730775

> <r_epik_Charging_Adjusted_Penalty>
0.00730775

> <i_epik_Tot_Q>
0

> <i_epik_Tot_abs_Q>
0

> <r_epik_Metal_State_Penalty>
0.00719079

> <b_epik_Metal_Only>
0

> <s_lp_Force_Field>
OPLS_2005

> <r_lp_Energy>
21.5673

> <b_lp_Chiralities_Consistent>
1

> <s_lp_Variant>
AV-unprocessed.smi:2368-4

> <Gold.Version>
5.8.1

> <Gold.Id.Protein>
6NUR|6NUR_protein|mol2

> <Gold.PLP.Fitness>
42.1131

> <Gold.PLP.PLP>
-33.3953

> <Gold.PLP.part.hbond>
-3.1697

> <Gold.PLP.part.metal>
0.0000

> <Gold.PLP.part.buried>
-2.0654

> <Gold.PLP.part.nonpolar>
-27.8330

> <Gold.PLP.part.repulsive>
0.1761

> <Gold.PLP.ligand.clash>
0.0000

> <Gold.PLP.ligand.torsion>
0.1165

> <Gold.PLP.Chemscore.Hbond>
2.9760

> <Gold.PLP.Chemscore.CHOScore>
0.0000

> <Gold.PLP.Chemscore.Metal>
0.0000

> <Gold.Chemscore.Hbonds>
donor molecule, donor type, donor heavy atom, donor atom, acceptor molecule, acceptor atom, score
      L1  H     7    27       P1  7948  0.75
      L1  H    10    28       P1  7948  0.99
      L1  H    16    33       P1  7957  1.00

> <Gold.PLP.Chemscore.Internal.Correction>
0.0228

> <Gold.Rescore>
     Score         DG    S(hbond)    S(metal)    S(lipo)     H(rot)  DE(clash)    DE(int)     intcor
     16.64     -18.17       2.49        0.00      76.33       1.78       0.18       1.36       ----

> <Gold.Chemscore.Fitness>
16.6382

> <Gold.Chemscore.DG>
-18.1709

> <Gold.Chemscore.ZeroCoef>
-5.4800

> <Gold.Chemscore.Hbond>
2.4898

> <Gold.Chemscore.Metal>
0.0000

> <Gold.Chemscore.Lipo>
76.3305

> <Gold.Chemscore.Internal_Hbond>
0.0000

> <Gold.Chemscore.DEClash>
0.1770

> <Gold.Chemscore.DEInternal>
1.3556

> <Gold.Chemscore.Rot>
1.7796

> <Gold.Chemscore.Internal.Correction>
   9.000000E+99

> <Gold.Chemscore.Hbonds>
donor molecule, donor type, donor heavy atom, donor atom, acceptor molecule, acceptor atom, score
      L1  H     7    27       P1  7948  0.09
      L1  H    10    28       P1  7948  0.73
      L1  H    16    33       P1  7957  0.99

> <Gold.Chemscore.Hbond.Weighted>
-8.3161

> <Gold.Chemscore.Metal.Weighted>
-0.0000

> <Gold.Chemscore.Lipo.Weighted>
-8.9307

> <Gold.Chemscore.Internal_Hbond.Weighted>
0.0000

> <Gold.Chemscore.DEClash.Weighted>
0.1770

> <Gold.Chemscore.DEInternal.Weighted>
1.3556

> <Gold.Chemscore.Rot.Weighted>
4.5558

> <Gold.Chemscore.Internal.Correction.Weighted>
   9.000000E+99

> <Gold.Protein.RotatedTorsions>
[ 6907 6896 6895 6894 ] final  103.56 input  -60.11 | X-H torsion
[ 7974 7965 7964 7962 ] final  161.90 input  175.53 | X-H torsion
[ 8008 7997 7996 7995 ] final   26.58 input   59.86 | X-H torsion
[ 10167 10162 10161 10158 ] final -139.21 input  -65.29 | X-H torsion
[ 10718 10713 10712 10709 ] final  -82.93 input   66.30 | X-H torsion
[ 10763 10752 10751 10750 ] final   85.79 input  -60.55 | X-H torsion
[ 11005 11000 10999 10996 ] final   90.09 input  -57.11 | X-H torsion

> <Gold.Protein.ActiveResidues>
 VAL166  LYS551  ARG553  GLY616  TRP617  ASP618  TYR619  PRO620  LYS621  CYS622 
 ASP623  PHE694  ASN695  SER759  ASP760  ASP761  ALA762  ILE779  LEU786  VAL792 
 PHE793  MET794  SER795  GLU796  ALA797  LYS798  CYS799  TRP800  GLU811  SER814 

> <Gold.Protein.RotatedAtoms>
  152.5291  133.9807  159.7804 H   0  0  0  0  0  0  0  0  0  0  0  0  # atno 6907 bound_to 6896
  151.0061  133.6001  159.2695 H   0  0  0  0  0  0  0  0  0  0  0  0  # atno 6908 bound_to 6896
  151.3093  135.0796  159.9320 H   0  0  0  0  0  0  0  0  0  0  0  0  # atno 6909 bound_to 6896
  144.7663  139.7963  143.6314 H   0  0  0  0  0  0  0  0  0  0  0  0  # atno 7974 bound_to 7965
  155.0295  140.3157  155.4763 H   0  0  0  0  0  0  0  0  0  0  0  0  # atno 8008 bound_to 7997
  156.2876  140.2183  156.5359 H   0  0  0  0  0  0  0  0  0  0  0  0  # atno 8009 bound_to 7997
  154.7382  140.0476  157.0775 H   0  0  0  0  0  0  0  0  0  0  0  0  # atno 8010 bound_to 7997
  139.8402  143.7332  152.2663 H   0  0  0  0  0  0  0  0  0  0  0  0  # atno 10167 bound_to 10162
  156.0025  130.4649  150.4180 H   0  0  0  0  0  0  0  0  0  0  0  0  # atno 10718 bound_to 10713
  153.1508  135.4604  154.9634 H   0  0  0  0  0  0  0  0  0  0  0  0  # atno 10763 bound_to 10752
  154.7823  135.3192  154.7965 H   0  0  0  0  0  0  0  0  0  0  0  0  # atno 10764 bound_to 10752
  153.8470  135.6925  153.4851 H   0  0  0  0  0  0  0  0  0  0  0  0  # atno 10765 bound_to 10752
  139.8862  134.8592  156.3236 H   0  0  0  0  0  0  0  0  0  0  0  0  # atno 11005 bound_to 11000
  146.1773  139.4949  142.9889 LP  0  0  0  0  0  0  0  0  0  0  0  0  # atno 17320 bound_to 7965
  145.6460  141.0274  143.1786 LP  0  0  0  0  0  0  0  0  0  0  0  0  # atno 17321 bound_to 7965
  139.7566  144.7519  151.0426 LP  0  0  0  0  0  0  0  0  0  0  0  0  # atno 17342 bound_to 10162
  140.7799  143.4798  151.0033 LP  0  0  0  0  0  0  0  0  0  0  0  0  # atno 17343 bound_to 10162
  157.2238  131.0488  151.2531 LP  0  0  0  0  0  0  0  0  0  0  0  0  # atno 17370 bound_to 10713
  157.3775  130.7214  149.6607 LP  0  0  0  0  0  0  0  0  0  0  0  0  # atno 17371 bound_to 10713
  140.9770  133.7291  156.0617 LP  0  0  0  0  0  0  0  0  0  0  0  0  # atno 17394 bound_to 11000
  140.7798  134.3738  157.5490 LP  0  0  0  0  0  0  0  0  0  0  0  0  # atno 17395 bound_to 11000

$$$$
