#       Name:                AV-unprocessed.smi:1782
#       Creating user name   scv26
#       Creation time:       Fri Mar 27 08:43:04 2020


#       File generated by GOLD software.
#

@<TRIPOS>MOLECULE
AV-unprocessed.smi:1782
    46    48     1
SMALL
NO_CHARGES


@<TRIPOS>ATOM
      1 ****        -0.1155   1.8008  -0.4429 O.2            1 S1                 0.0000
      2 ****         0.4883   1.1620   0.4198 C.2            1 S1                 0.0000
      3 ****         1.8464   1.6449   0.9483 C.3            1 S1                 0.0000
      4 ****         2.6056   2.4293  -0.0409 N.am           1 S1                 0.0000
      5 ****         2.5633   3.8292   0.0864 C.2            1 S1                 0.0000
      6 ****         3.2163   4.6344  -0.7622 C.2            1 S1                 0.0000
      7 ****         3.9777   4.0296  -1.8278 C.2            1 S1                 0.0000
      8 ****         4.0344   2.6860  -1.9781 C.2            1 S1                 0.0000
      9 ****         4.8339   2.0295  -3.1013 C.3            1 S1                 0.0000
     10 ****         5.7760   1.2296  -2.6000 F              1 S1                 0.0000
     11 ****         4.0354   1.2967  -3.8783 F              1 S1                 0.0000
     12 ****         5.4365   2.9343  -3.8743 F              1 S1                 0.0000
     13 ****         3.3085   1.8073  -1.0381 C.2            1 S1                 0.0000
     14 ****         3.3257   0.5788  -1.1355 O.2            1 S1                 0.0000
     15 ****         0.0104   0.0328   0.9629 N.am           1 S1                 0.0000
     16 ****        -1.2517  -0.5966   0.5915 C.3            1 S1                 0.0000
     17 ****        -1.2377  -1.2973  -0.7641 C.3            1 S1                 0.0000
     18 ****        -2.4214  -2.2643  -0.6515 C.3            1 S1                 0.0000
     19 ****        -2.5770  -2.5839   0.7898 N.4            1 S1                 1.0000
     20 ****        -3.9706  -2.4719   1.2731 C.3            1 S1                 0.0000
     21 ****        -4.2918  -3.4101   2.4119 C.3            1 S1                 0.0000
     22 ****        -4.7996  -3.7078   1.0176 C.3            1 S1                 0.0000
     23 ****        -1.6215  -1.7377   1.5384 C.3            1 S1                 0.0000
     24 ****         1.6682   2.2311   1.8510 H              1 S1                 0.0000
     25 ****         2.4387   0.7888   1.2775 H              1 S1                 0.0000
     26 ****         1.9660   4.2021   0.9057 H              1 S1                 0.0000
     27 ****         3.1707   5.7082  -0.6540 H              1 S1                 0.0000
     28 ****         4.5061   4.6774  -2.5112 H              1 S1                 0.0000
     29 ****         0.5661  -0.4265   1.6704 H              1 S1                 0.0000
     30 ****        -2.0506   0.1477   0.6073 H              1 S1                 0.0000
     31 ****        -1.3349  -0.6073  -1.6030 H              1 S1                 0.0000
     32 ****        -0.3097  -1.8570  -0.8925 H              1 S1                 0.0000
     33 ****        -3.3230  -1.7787  -1.0293 H              1 S1                 0.0000
     34 ****        -2.2670  -3.1701  -1.2383 H              1 S1                 0.0000
     35 ****        -4.4231  -1.4825   1.2275 H              1 S1                 0.0000
     36 ****        -3.4938  -4.0397   2.8015 H              1 S1                 0.0000
     37 ****        -5.0215  -3.0766   3.1472 H              1 S1                 0.0000
     38 ****        -5.8635  -3.5703   0.8352 H              1 S1                 0.0000
     39 ****        -4.3395  -4.5364   0.4821 H              1 S1                 0.0000
     40 ****        -0.7438  -2.3455   1.7636 H              1 S1                 0.0000
     41 ****        -2.0242  -1.3790   2.4870 H              1 S1                 0.0000
     42 ****        -2.2916  -3.5431   0.9265 H              1 S1                 0.0000
     43 ****         0.2782   2.6447  -0.8074 LP             1 S1                 0.0000
     44 ****        -0.9995   1.4756  -0.7788 LP             1 S1                 0.0000
     45 ****         2.8205   0.0181  -0.4794 LP             1 S1                 0.0000
     46 ****         3.8448   0.1428  -1.8706 LP             1 S1                 0.0000
@<TRIPOS>BOND
    1    1    2 2     
    2    2    3 1     
    3    2   15 am    
    4    3    4 1     
    5    3   24 1     
    6    3   25 1     
    7    4   13 am    
    8    4    5 1     
    9    5    6 2     
   10    5   26 1     
   11    6    7 1     
   12    6   27 1     
   13    7    8 2     
   14    7   28 1     
   15    8    9 1     
   16    8   13 1     
   17    9   10 1     
   18    9   11 1     
   19    9   12 1     
   20   13   14 2     
   21   15   16 1     
   22   15   29 1     
   23   16   23 1     
   24   16   17 1     
   25   16   30 1     
   26   17   18 1     
   27   17   31 1     
   28   17   32 1     
   29   18   19 1     
   30   18   33 1     
   31   18   34 1     
   32   19   20 1     
   33   19   23 1     
   34   19   42 1     
   35   20   22 1     
   36   20   21 1     
   37   20   35 1     
   38   21   22 1     
   39   21   36 1     
   40   21   37 1     
   41   22   38 1     
   42   22   39 1     
   43   23   40 1     
   44   23   41 1     
   45    1   43 1     
   46    1   44 1     
   47   14   45 1     
   48   14   46 1     
@<TRIPOS>SUBSTRUCTURE
      1 S1             1
@<TRIPOS>SET
LONE_PAIRS      STATIC     ATOMS    <user>   **** ""
4 43 44 45 46
DONOR_HYDROGENS      STATIC     ATOMS    <user>   **** ""
2 29 42
ATOM$BLUE        STATIC     ATOMS    COLORGROUP SYSTEM
4 43 44 45 46
ATOM$RED        STATIC     ATOMS    COLORGROUP SYSTEM
2 29 42
