AV-unprocessed.smi:273|AV-procd|sdf|2057|dock4
  -GOLD-   2262021303D 1   1.00000     0.00000
 Structure written by MMmdl.
 59 62  0  0  0  0  0  0  0  0  1 V2000
  146.4268  132.5590  151.0543 C   0  0  0  0  0  0  0  0  0  0  0  0
  146.4701  133.9407  151.7200 C   0  0  0  0  0  0  0  0  0  0  0  0
  147.0253  133.8666  153.0662 N   0  0  0  0  0  0  0  0  0  0  0  0
  148.2654  133.4528  153.3700 C   0  0  0  0  0  0  0  0  0  0  0  0
  149.0679  133.0704  152.5184 O   0  0  0  0  0  0  0  0  0  0  0  0
  148.6472  133.4846  154.8619 C   0  0  0  0  0  0  0  0  0  0  0  0
  148.1205  134.7456  155.5834 C   0  0  0  0  0  0  0  0  0  0  0  0
  148.9410  136.0104  155.2683 C   0  0  0  0  0  0  0  0  0  0  0  0
  150.3655  135.7849  155.5098 N   0  0  0  0  0  0  0  0  0  0  0  0
  151.1101  136.9174  155.5953 C   0  0  0  0  0  0  0  0  0  0  0  0
  151.7774  137.3750  154.5015 N   0  0  0  0  0  0  0  0  0  0  0  0
  152.5066  138.4924  154.5715 C   0  0  0  0  0  0  0  0  0  0  0  0
  152.7054  139.2945  155.6188 N   0  0  0  0  0  0  0  0  0  0  0  0
  152.0434  138.8400  156.7206 C   0  0  0  0  0  0  0  0  0  0  0  0
  151.2338  137.6712  156.7972 C   0  0  0  0  0  0  0  0  0  0  0  0
  150.7411  137.5239  158.0892 N   0  0  0  0  0  0  0  0  0  0  0  0
  151.2219  138.5512  158.7348 C   0  0  0  0  0  0  0  0  0  0  0  0
  152.0070  139.3983  157.9861 N   0  0  0  0  0  0  0  0  0  0  0  0
  152.6712  140.6065  158.4458 C   0  0  0  0  0  0  0  0  0  0  0  0
  152.0925  141.9080  157.8323 C   0  0  1  0  0  0  0  0  0  0  0  0
  150.5488  141.8307  157.7062 C   0  0  0  0  0  0  0  0  0  0  0  0
  150.1039  142.2332  156.4280 O   0  0  0  0  0  0  0  0  0  0  0  0
  152.5549  143.1440  158.6528 C   0  0  1  0  0  0  0  0  0  0  0  0
  151.9780  144.4722  158.1904 C   0  0  0  0  0  0  0  0  0  0  0  0
  152.2232  145.3754  159.3939 C   0  0  0  0  0  0  0  0  0  0  0  0
  152.1402  144.5278  160.5329 O   0  0  0  0  0  0  0  0  0  0  0  0
  152.1194  143.1643  160.1230 C   0  0  0  0  0  0  0  0  0  0  0  0
  150.9447  134.6465  154.7944 C   0  0  0  0  0  0  0  0  0  0  0  0
  150.1689  133.3501  155.0944 C   0  0  0  0  0  0  0  0  0  0  0  0
  146.0389  132.6304  150.0381 H   0  0  0  0  0  0  0  0  0  0  0  0
  145.7844  131.8719  151.6055 H   0  0  0  0  0  0  0  0  0  0  0  0
  147.4221  132.1172  150.9995 H   0  0  0  0  0  0  0  0  0  0  0  0
  147.0941  134.6128  151.1307 H   0  0  0  0  0  0  0  0  0  0  0  0
  145.4730  134.3835  151.7427 H   0  0  0  0  0  0  0  0  0  0  0  0
  146.4267  134.1633  153.8234 H   0  0  0  0  0  0  0  0  0  0  0  0
  148.1709  132.6208  155.3288 H   0  0  0  0  0  0  0  0  0  0  0  0
  147.0725  134.9168  155.3340 H   0  0  0  0  0  0  0  0  0  0  0  0
  148.1458  134.5708  156.6597 H   0  0  0  0  0  0  0  0  0  0  0  0
  148.8032  136.3068  154.2283 H   0  0  0  0  0  0  0  0  0  0  0  0
  148.5613  136.8350  155.8703 H   0  0  0  0  0  0  0  0  0  0  0  0
  152.9999  138.7864  153.6568 H   0  0  0  0  0  0  0  0  0  0  0  0
  151.0114  138.7217  159.7806 H   0  0  0  0  0  0  0  0  0  0  0  0
  152.6065  140.6456  159.5339 H   0  0  0  0  0  0  0  0  0  0  0  0
  153.7279  140.4990  158.2018 H   0  0  0  0  0  0  0  0  0  0  0  0
  152.5041  141.9980  156.8258 H   0  0  0  0  0  0  0  0  0  0  0  0
  150.1850  140.8133  157.8424 H   0  0  0  0  0  0  0  0  0  0  0  0
  150.0667  142.4409  158.4705 H   0  0  0  0  0  0  0  0  0  0  0  0
  149.9085  143.1574  156.4539 H   0  0  0  0  0  0  0  0  0  0  0  0
  153.6433  143.2138  158.6146 H   0  0  0  0  0  0  0  0  0  0  0  0
  152.4489  144.8586  157.2864 H   0  0  0  0  0  0  0  0  0  0  0  0
  150.9069  144.3780  158.0051 H   0  0  0  0  0  0  0  0  0  0  0  0
  153.2264  145.8012  159.3518 H   0  0  0  0  0  0  0  0  0  0  0  0
  151.5080  146.1963  159.4526 H   0  0  0  0  0  0  0  0  0  0  0  0
  151.0988  142.7943  160.2296 H   0  0  0  0  0  0  0  0  0  0  0  0
  152.7668  142.5612  160.7596 H   0  0  0  0  0  0  0  0  0  0  0  0
  150.9459  134.8526  153.7239 H   0  0  0  0  0  0  0  0  0  0  0  0
  151.9859  134.5137  155.0915 H   0  0  0  0  0  0  0  0  0  0  0  0
  150.3407  133.0724  156.1349 H   0  0  0  0  0  0  0  0  0  0  0  0
  150.5752  132.5327  154.4976 H   0  0  0  0  0  0  0  0  0  0  0  0
  1  2  1  0  0  0  0
  1 30  1  0  0  0  0
  1 31  1  0  0  0  0
  1 32  1  0  0  0  0
  2  3  1  0  0  0  0
  2 33  1  0  0  0  0
  2 34  1  0  0  0  0
  3  4  1  0  0  0  0
  3 35  1  0  0  0  0
  4  5  2  0  0  0  0
  4  6  1  0  0  0  0
  6 29  1  0  0  0  0
  6  7  1  0  0  0  0
  6 36  1  0  0  0  0
  7  8  1  0  0  0  0
  7 37  1  0  0  0  0
  7 38  1  0  0  0  0
  8  9  1  0  0  0  0
  8 39  1  0  0  0  0
  8 40  1  0  0  0  0
  9 10  1  0  0  0  0
  9 28  1  0  0  0  0
 10 15  1  0  0  0  0
 10 11  2  0  0  0  0
 11 12  1  0  0  0  0
 12 13  2  0  0  0  0
 12 41  1  0  0  0  0
 13 14  1  0  0  0  0
 14 18  1  0  0  0  0
 14 15  2  0  0  0  0
 15 16  1  0  0  0  0
 16 17  2  0  0  0  0
 17 18  1  0  0  0  0
 17 42  1  0  0  0  0
 18 19  1  0  0  0  0
 19 20  1  0  0  0  0
 19 43  1  0  0  0  0
 19 44  1  0  0  0  0
 20 21  1  0  0  0  0
 20 23  1  0  0  0  0
 20 45  1  0  0  0  0
 21 22  1  0  0  0  0
 21 46  1  0  0  0  0
 21 47  1  0  0  0  0
 22 48  1  0  0  0  0
 23 27  1  0  0  0  0
 23 24  1  0  0  0  0
 23 49  1  0  0  0  0
 24 25  1  0  0  0  0
 24 50  1  0  0  0  0
 24 51  1  0  0  0  0
 25 26  1  0  0  0  0
 25 52  1  0  0  0  0
 25 53  1  0  0  0  0
 26 27  1  0  0  0  0
 27 54  1  0  0  0  0
 27 55  1  0  0  0  0
 28 29  1  0  0  0  0
 28 56  1  0  0  0  0
 28 57  1  0  0  0  0
 29 58  1  0  0  0  0
 29 59  1  0  0  0  0
M  END
> <s_m_source_file>
AV-unprocessed.smi

> <i_m_source_file_index>
273

> <i_lp_mmshare_version>
43012

> <i_f3d_flags>
0

> <s_epik_input>
W0NIM11bQ0gyXVtOSF1DKD1PKVtDSF0xW0NIMl1bQ0gyXU4oW0NIMl1bQ0gyXTEpYyhuW2NIXW4yKWMoYzIzKW5bY0hdbjNbQ0gyXVtDQEhdKFtDSDJdW09IXSlbQ0BASF00W0NIMl1bQ0gyXU9bQ0gyXTQ=

> <s_epik_cmdline>
J2VwaWtfcHl0aG9uJywgJy1waCcsICc3LjAnLCAnLXRuJywgJzgnLCAnLW1hJywgJzIwMCcsICctbWV0YWxfYmluZGluZycsICctaW1hZScsICc8aW5maWxlLm1hZT4nLCAnLW9tYWUnLCAnPG91dGZpbGUubWFlPic=

> <r_lp_tautomer_probability>
1

> <r_epik_Ionization_Penalty>
0.00226556

> <r_epik_Ionization_Penalty_Charging>
0

> <r_epik_Ionization_Penalty_Neutral>
0.00226556

> <r_epik_State_Penalty>
0.00139883

> <r_epik_Charging_Adjusted_Penalty>
0.00139883

> <i_epik_Tot_Q>
0

> <i_epik_Tot_abs_Q>
0

> <r_epik_Metal_State_Penalty>
-0

> <b_epik_Metal_Only>
0

> <s_lp_Force_Field>
OPLS_2005

> <r_lp_Energy>
41.2023

> <b_lp_Chiralities_Consistent>
1

> <s_lp_Variant>
AV-unprocessed.smi:273-4

> <Gold.Version>
5.8.1

> <Gold.Id.Protein>
6NUR|6NUR_protein|mol2

> <Gold.PLP.Fitness>
50.2946

> <Gold.PLP.PLP>
-45.5045

> <Gold.PLP.part.hbond>
-2.7836

> <Gold.PLP.part.metal>
0.0000

> <Gold.PLP.part.buried>
-8.7618

> <Gold.PLP.part.nonpolar>
-33.7740

> <Gold.PLP.part.repulsive>
0.5889

> <Gold.PLP.ligand.clash>
0.0000

> <Gold.PLP.ligand.torsion>
1.9145

> <Gold.PLP.Chemscore.Hbond>
2.6738

> <Gold.PLP.Chemscore.CHOScore>
0.0000

> <Gold.PLP.Chemscore.Metal>
0.0000

> <Gold.Chemscore.Hbonds>
donor molecule, donor type, donor heavy atom, donor atom, acceptor molecule, acceptor atom, score
      L1  H    22    48       P1  8028  0.96
      P1  H  7997  8010       L1    13  1.00
      P1  H 10752 10764       L1    11  0.70

> <Gold.PLP.Chemscore.Internal.Correction>
0.5978

> <Gold.Rescore>
     Score         DG    S(hbond)    S(metal)    S(lipo)     H(rot)  DE(clash)    DE(int)     intcor
     12.01     -15.41       1.63        0.00     108.79       3.22       0.24       3.16       ----

> <Gold.Chemscore.Fitness>
12.0129

> <Gold.Chemscore.DG>
-15.4142

> <Gold.Chemscore.ZeroCoef>
-5.4800

> <Gold.Chemscore.Hbond>
1.6349

> <Gold.Chemscore.Metal>
0.0000

> <Gold.Chemscore.Lipo>
108.7890

> <Gold.Chemscore.Internal_Hbond>
0.0000

> <Gold.Chemscore.DEClash>
0.2389

> <Gold.Chemscore.DEInternal>
3.1624

> <Gold.Chemscore.Rot>
3.2244

> <Gold.Chemscore.Internal.Correction>
   9.000000E+99

> <Gold.Chemscore.Hbonds>
donor molecule, donor type, donor heavy atom, donor atom, acceptor molecule, acceptor atom, score
      L1  H    22    48       P1  8028  0.86
      P1  H  7997  8010       L1    13  0.78
      P1  H 10752 10764       L1    11  0.08

> <Gold.Chemscore.Hbond.Weighted>
-5.4604

> <Gold.Chemscore.Metal.Weighted>
-0.0000

> <Gold.Chemscore.Lipo.Weighted>
-12.7283

> <Gold.Chemscore.Internal_Hbond.Weighted>
0.0000

> <Gold.Chemscore.DEClash.Weighted>
0.2389

> <Gold.Chemscore.DEInternal.Weighted>
3.1624

> <Gold.Chemscore.Rot.Weighted>
8.2545

> <Gold.Chemscore.Internal.Correction.Weighted>
   9.000000E+99

> <Gold.Protein.RotatedTorsions>
[ 6907 6896 6895 6894 ] final  174.30 input  -60.11 | X-H torsion
[ 7974 7965 7964 7962 ] final   88.09 input  175.53 | X-H torsion
[ 8008 7997 7996 7995 ] final   89.58 input   59.86 | X-H torsion
[ 10167 10162 10161 10158 ] final   86.53 input  -65.29 | X-H torsion
[ 10718 10713 10712 10709 ] final   94.58 input   66.30 | X-H torsion
[ 10763 10752 10751 10750 ] final  -80.78 input  -60.55 | X-H torsion
[ 11005 11000 10999 10996 ] final -160.40 input  -57.11 | X-H torsion

> <Gold.Protein.ActiveResidues>
 VAL166  LYS551  ARG553  GLY616  TRP617  ASP618  TYR619  PRO620  LYS621  CYS622 
 ASP623  PHE694  ASN695  SER759  ASP760  ASP761  ALA762  ILE779  LEU786  VAL792 
 PHE793  MET794  SER795  GLU796  ALA797  LYS798  CYS799  TRP800  GLU811  SER814 

> <Gold.Protein.RotatedAtoms>
  151.7544  133.3329  159.3400 H   0  0  0  0  0  0  0  0  0  0  0  0  # atno 6907 bound_to 6896
  150.7522  134.6163  159.6122 H   0  0  0  0  0  0  0  0  0  0  0  0  # atno 6908 bound_to 6896
  152.3447  134.7089  160.0305 H   0  0  0  0  0  0  0  0  0  0  0  0  # atno 6909 bound_to 6896
  145.5503  139.2295  143.2516 H   0  0  0  0  0  0  0  0  0  0  0  0  # atno 7974 bound_to 7965
  156.0016  140.3359  155.6851 H   0  0  0  0  0  0  0  0  0  0  0  0  # atno 8008 bound_to 7997
  155.6282  140.0682  157.2675 H   0  0  0  0  0  0  0  0  0  0  0  0  # atno 8009 bound_to 7997
  154.4251  140.1764  156.1431 H   0  0  0  0  0  0  0  0  0  0  0  0  # atno 8010 bound_to 7997
  139.8866  144.6410  150.8784 H   0  0  0  0  0  0  0  0  0  0  0  0  # atno 10167 bound_to 10162
  157.6946  131.0517  150.4208 H   0  0  0  0  0  0  0  0  0  0  0  0  # atno 10718 bound_to 10713
  154.5555  135.5649  153.6960 H   0  0  0  0  0  0  0  0  0  0  0  0  # atno 10763 bound_to 10752
  153.0002  135.6261  154.2316 H   0  0  0  0  0  0  0  0  0  0  0  0  # atno 10764 bound_to 10752
  154.2252  135.2868  155.2890 H   0  0  0  0  0  0  0  0  0  0  0  0  # atno 10765 bound_to 10752
  140.6319  134.4642  157.5230 H   0  0  0  0  0  0  0  0  0  0  0  0  # atno 11005 bound_to 11000
  146.1921  140.6326  142.9141 LP  0  0  0  0  0  0  0  0  0  0  0  0  # atno 17320 bound_to 7965
  144.7533  140.5244  143.6787 LP  0  0  0  0  0  0  0  0  0  0  0  0  # atno 17321 bound_to 7965
  140.7734  143.3543  151.1952 LP  0  0  0  0  0  0  0  0  0  0  0  0  # atno 17342 bound_to 10162
  139.7147  143.9319  152.2962 LP  0  0  0  0  0  0  0  0  0  0  0  0  # atno 17343 bound_to 10162
  156.4583  130.4026  149.6592 LP  0  0  0  0  0  0  0  0  0  0  0  0  # atno 17370 bound_to 10713
  156.3716  130.7533  151.2517 LP  0  0  0  0  0  0  0  0  0  0  0  0  # atno 17371 bound_to 10713
  139.9113  134.8339  156.1520 LP  0  0  0  0  0  0  0  0  0  0  0  0  # atno 17394 bound_to 11000
  141.0669  133.6815  156.2063 LP  0  0  0  0  0  0  0  0  0  0  0  0  # atno 17395 bound_to 11000

$$$$
