AV-unprocessed.smi:1697|AV-procd|sdf|6803|dock4
  -GOLD-   22720 7573D 1   1.00000     0.00000
 Structure written by MMmdl.
 54 56  0  0  0  0  0  0  0  0  2 V2000
  144.0620  134.3144  151.3372 C   0  0  0  0  0  0  0  0  0  0  0  0
  144.6352  135.3088  152.3493 C   0  0  0  0  0  0  0  0  0  0  0  0
  145.1645  136.4212  151.6434 O   0  0  0  0  0  0  0  0  0  0  0  0
  146.0040  137.2691  152.4159 C   0  0  2  0  0  0  0  0  0  0  0  0
  145.2743  137.7897  153.6685 C   0  0  0  0  0  0  0  0  0  0  0  0
  146.1198  138.8408  154.4077 C   0  0  0  0  0  0  0  0  0  0  0  0
  146.4816  139.9678  153.5073 N   0  3  1  0  0  0  0  0  0  0  0  0
  147.1782  141.0804  154.2035 C   0  0  0  0  0  0  0  0  0  0  0  0
  148.3615  140.5862  155.0584 C   0  0  2  0  0  0  0  0  0  0  0  0
  147.9299  140.4532  156.3996 O   0  0  0  0  0  0  0  0  0  0  0  0
  149.5580  141.5555  155.0031 C   0  0  0  0  0  0  0  0  0  0  0  0
  150.6363  141.1498  155.8863 N   0  0  0  0  0  0  0  0  0  0  0  0
  151.4772  140.1097  155.7247 C   0  0  0  0  0  0  0  0  0  0  0  0
  152.4044  139.9258  156.6599 N   0  0  0  0  0  0  0  0  0  0  0  0
  152.1313  140.9657  157.5320 C   0  0  0  0  0  0  0  0  0  0  0  0
  152.7591  141.3385  158.7405 C   0  0  0  0  0  0  0  0  0  0  0  0
  152.3057  142.4551  159.4783 C   0  0  0  0  0  0  0  0  0  0  0  0
  153.0122  142.8221  160.7714 C   0  0  0  0  0  0  0  0  0  0  0  0
  151.2053  143.2174  159.0099 C   0  0  0  0  0  0  0  0  0  0  0  0
  150.6985  144.4185  159.7881 C   0  0  0  0  0  0  0  0  0  0  0  0
  150.5678  142.8602  157.8034 C   0  0  0  0  0  0  0  0  0  0  0  0
  151.0297  141.7480  157.0779 C   0  0  0  0  0  0  0  0  0  0  0  0
  147.2238  139.4914  152.3123 C   0  0  0  0  0  0  0  0  0  0  0  0
  146.3991  138.4581  151.5279 C   0  0  0  0  0  0  0  0  0  0  0  0
  143.6480  133.4406  151.8410 H   0  0  0  0  0  0  0  0  0  0  0  0
  144.8328  133.9694  150.6478 H   0  0  0  0  0  0  0  0  0  0  0  0
  143.2648  134.7700  150.7488 H   0  0  0  0  0  0  0  0  0  0  0  0
  143.8510  135.6227  153.0381 H   0  0  0  0  0  0  0  0  0  0  0  0
  145.4184  134.8270  152.9364 H   0  0  0  0  0  0  0  0  0  0  0  0
  146.9114  136.7357  152.7058 H   0  0  0  0  0  0  0  0  0  0  0  0
  144.3177  138.2286  153.3812 H   0  0  0  0  0  0  0  0  0  0  0  0
  145.0465  136.9698  154.3492 H   0  0  0  0  0  0  0  0  0  0  0  0
  145.5573  139.2048  155.2666 H   0  0  0  0  0  0  0  0  0  0  0  0
  147.0282  138.3804  154.7996 H   0  0  0  0  0  0  0  0  0  0  0  0
  147.5142  141.8115  153.4666 H   0  0  0  0  0  0  0  0  0  0  0  0
  146.4797  141.6081  154.8551 H   0  0  0  0  0  0  0  0  0  0  0  0
  148.6938  139.6078  154.7126 H   0  0  0  0  0  0  0  0  0  0  0  0
  147.0244  140.1815  156.4022 H   0  0  0  0  0  0  0  0  0  0  0  0
  149.9541  141.6078  153.9882 H   0  0  0  0  0  0  0  0  0  0  0  0
  149.2481  142.5674  155.2692 H   0  0  0  0  0  0  0  0  0  0  0  0
  151.4085  139.4533  154.8695 H   0  0  0  0  0  0  0  0  0  0  0  0
  153.5960  140.7565  159.0977 H   0  0  0  0  0  0  0  0  0  0  0  0
  152.3201  142.7720  161.6123 H   0  0  0  0  0  0  0  0  0  0  0  0
  153.4150  143.8335  160.7128 H   0  0  0  0  0  0  0  0  0  0  0  0
  153.8407  142.1442  160.9790 H   0  0  0  0  0  0  0  0  0  0  0  0
  149.8331  144.8707  159.3028 H   0  0  0  0  0  0  0  0  0  0  0  0
  151.4757  145.1792  159.8646 H   0  0  0  0  0  0  0  0  0  0  0  0
  150.4009  144.1245  160.7950 H   0  0  0  0  0  0  0  0  0  0  0  0
  149.7297  143.4325  157.4347 H   0  0  0  0  0  0  0  0  0  0  0  0
  147.4502  140.3344  151.6583 H   0  0  0  0  0  0  0  0  0  0  0  0
  148.1783  139.0608  152.6197 H   0  0  0  0  0  0  0  0  0  0  0  0
  146.9675  138.1058  150.6665 H   0  0  0  0  0  0  0  0  0  0  0  0
  145.5019  138.9358  151.1311 H   0  0  0  0  0  0  0  0  0  0  0  0
  145.6160  140.3569  153.1603 H   0  0  0  0  0  0  0  0  0  0  0  0
  1  2  1  0  0  0  0
  1 25  1  0  0  0  0
  1 26  1  0  0  0  0
  1 27  1  0  0  0  0
  2  3  1  0  0  0  0
  2 28  1  0  0  0  0
  2 29  1  0  0  0  0
  3  4  1  0  0  0  0
  4 24  1  0  0  0  0
  4  5  1  0  0  0  0
  4 30  1  0  0  0  0
  5  6  1  0  0  0  0
  5 31  1  0  0  0  0
  5 32  1  0  0  0  0
  6  7  1  0  0  0  0
  6 33  1  0  0  0  0
  6 34  1  0  0  0  0
  7  8  1  0  0  0  0
  7 23  1  0  0  0  0
  7 54  1  0  0  0  0
  8  9  1  0  0  0  0
  8 35  1  0  0  0  0
  8 36  1  0  0  0  0
  9 10  1  0  0  0  0
  9 11  1  0  0  0  0
  9 37  1  0  0  0  0
 10 38  1  0  0  0  0
 11 12  1  0  0  0  0
 11 39  1  0  0  0  0
 11 40  1  0  0  0  0
 12 22  1  0  0  0  0
 12 13  1  0  0  0  0
 13 14  2  0  0  0  0
 13 41  1  0  0  0  0
 14 15  1  0  0  0  0
 15 22  2  0  0  0  0
 15 16  1  0  0  0  0
 16 17  2  0  0  0  0
 16 42  1  0  0  0  0
 17 18  1  0  0  0  0
 17 19  1  0  0  0  0
 18 43  1  0  0  0  0
 18 44  1  0  0  0  0
 18 45  1  0  0  0  0
 19 20  1  0  0  0  0
 19 21  2  0  0  0  0
 20 46  1  0  0  0  0
 20 47  1  0  0  0  0
 20 48  1  0  0  0  0
 21 22  1  0  0  0  0
 21 49  1  0  0  0  0
 23 24  1  0  0  0  0
 23 50  1  0  0  0  0
 23 51  1  0  0  0  0
 24 52  1  0  0  0  0
 24 53  1  0  0  0  0
M  CHG  1   7   1
M  END
> <s_m_source_file>
AV-unprocessed.smi

> <i_m_source_file_index>
1697

> <i_lp_mmshare_version>
43012

> <i_f3d_flags>
0

> <s_epik_input>
W0NIM11bQ0gyXU9bQ0hdMVtDSDJdW0NIMl1OKFtDSDJdW0NIMl0xKVtDSDJdW0NASF0oW09IXSlbQ0gyXW4oW2NIXW4yKWMoYzIzKVtjSF1jKFtDSDNdKWMoW2NIXTMpW0NIM10=

> <s_epik_cmdline>
J2VwaWtfcHl0aG9uJywgJy1waCcsICc3LjAnLCAnLXRuJywgJzgnLCAnLW1hJywgJzIwMCcsICctbWV0YWxfYmluZGluZycsICctaW1hZScsICc8aW5maWxlLm1hZT4nLCAnLW9tYWUnLCAnPG91dGZpbGUubWFlPic=

> <r_epik_Ionization_Penalty>
0.112476

> <r_epik_Ionization_Penalty_Charging>
0.0244612

> <r_epik_Ionization_Penalty_Neutral>
0.0880147

> <r_epik_State_Penalty>
0.0961447

> <r_epik_Charging_Adjusted_Penalty>
0.120606

> <i_epik_Tot_Q>
1

> <i_epik_Tot_abs_Q>
1

> <r_epik_Metal_State_Penalty>
0.0206204

> <b_epik_Metal_Only>
0

> <s_lp_Force_Field>
OPLS_2005

> <r_lp_Energy>
22.6968

> <b_lp_Chiralities_Consistent>
1

> <s_lp_Variant>
AV-unprocessed.smi:1697-1

> <Gold.Version>
5.8.1

> <Gold.Id.Protein>
6NUR|6NUR_protein|mol2

> <Gold.PLP.Fitness>
50.7252

> <Gold.PLP.PLP>
-43.1240

> <Gold.PLP.part.hbond>
-2.0000

> <Gold.PLP.part.metal>
0.0000

> <Gold.PLP.part.buried>
-1.4985

> <Gold.PLP.part.nonpolar>
-40.8695

> <Gold.PLP.part.repulsive>
0.2064

> <Gold.PLP.ligand.clash>
0.0000

> <Gold.PLP.ligand.torsion>
0.8125

> <Gold.PLP.Chemscore.Hbond>
2.9738

> <Gold.PLP.Chemscore.CHOScore>
0.0000

> <Gold.PLP.Chemscore.Metal>
0.0000

> <Gold.Chemscore.Hbonds>
donor molecule, donor type, donor heavy atom, donor atom, acceptor molecule, acceptor atom, score
      L1  H     7    54       P1 10175  1.89
      P1  H  7997  8008       L1    14  1.00

> <Gold.PLP.Chemscore.Internal.Correction>
0.3049

> <Gold.Rescore>
     Score         DG    S(hbond)    S(metal)    S(lipo)     H(rot)  DE(clash)    DE(int)     intcor
     17.64     -20.35       1.71        0.00     127.86       2.27       1.76       0.95       ----

> <Gold.Chemscore.Fitness>
17.6437

> <Gold.Chemscore.DG>
-20.3463

> <Gold.Chemscore.ZeroCoef>
-5.4800

> <Gold.Chemscore.Hbond>
1.7126

> <Gold.Chemscore.Metal>
0.0000

> <Gold.Chemscore.Lipo>
127.8627

> <Gold.Chemscore.Internal_Hbond>
0.0000

> <Gold.Chemscore.DEClash>
1.7553

> <Gold.Chemscore.DEInternal>
0.9473

> <Gold.Chemscore.Rot>
2.2710

> <Gold.Chemscore.Internal.Correction>
   9.000000E+99

> <Gold.Chemscore.Hbonds>
donor molecule, donor type, donor heavy atom, donor atom, acceptor molecule, acceptor atom, score
      L1  H     7    54       P1 10175  0.86
      P1  H  7997  8008       L1    14  0.34

> <Gold.Chemscore.Hbond.Weighted>
-5.7200

> <Gold.Chemscore.Metal.Weighted>
-0.0000

> <Gold.Chemscore.Lipo.Weighted>
-14.9599

> <Gold.Chemscore.Internal_Hbond.Weighted>
0.0000

> <Gold.Chemscore.DEClash.Weighted>
1.7553

> <Gold.Chemscore.DEInternal.Weighted>
0.9473

> <Gold.Chemscore.Rot.Weighted>
5.8137

> <Gold.Chemscore.Internal.Correction.Weighted>
   9.000000E+99

> <Gold.Protein.RotatedTorsions>
[ 6907 6896 6895 6894 ] final   47.33 input  -60.11 | X-H torsion
[ 7974 7965 7964 7962 ] final  101.08 input  175.53 | X-H torsion
[ 8008 7997 7996 7995 ] final  -44.65 input   59.86 | X-H torsion
[ 10167 10162 10161 10158 ] final   60.84 input  -65.29 | X-H torsion
[ 10718 10713 10712 10709 ] final   80.97 input   66.30 | X-H torsion
[ 10763 10752 10751 10750 ] final   -9.08 input  -60.55 | X-H torsion
[ 11005 11000 10999 10996 ] final    5.34 input  -57.11 | X-H torsion

> <Gold.Protein.ActiveResidues>
 VAL166  LYS551  ARG553  GLY616  TRP617  ASP618  TYR619  PRO620  LYS621  CYS622 
 ASP623  PHE694  ASN695  SER759  ASP760  ASP761  ALA762  ILE779  LEU786  VAL792 
 PHE793  MET794  SER795  GLU796  ALA797  LYS798  CYS799  TRP800  GLU811  SER814 

> <Gold.Protein.RotatedAtoms>
  152.2668  134.7976  160.0421 H   0  0  0  0  0  0  0  0  0  0  0  0  # atno 6907 bound_to 6896
  151.8603  133.3451  159.3710 H   0  0  0  0  0  0  0  0  0  0  0  0  # atno 6908 bound_to 6896
  150.7136  134.5140  159.5665 H   0  0  0  0  0  0  0  0  0  0  0  0  # atno 6909 bound_to 6896
  145.3771  139.2387  143.3423 H   0  0  0  0  0  0  0  0  0  0  0  0  # atno 7974 bound_to 7965
  154.3998  140.1417  156.3718 H   0  0  0  0  0  0  0  0  0  0  0  0  # atno 8008 bound_to 7997
  155.8085  140.3473  155.5423 H   0  0  0  0  0  0  0  0  0  0  0  0  # atno 8009 bound_to 7997
  155.8411  140.0927  157.1724 H   0  0  0  0  0  0  0  0  0  0  0  0  # atno 8010 bound_to 7997
  140.1613  144.4368  150.6708 H   0  0  0  0  0  0  0  0  0  0  0  0  # atno 10167 bound_to 10162
  157.6820  130.9983  150.2157 H   0  0  0  0  0  0  0  0  0  0  0  0  # atno 10718 bound_to 10713
  153.4496  135.7015  153.6117 H   0  0  0  0  0  0  0  0  0  0  0  0  # atno 10763 bound_to 10752
  153.4458  135.3769  155.2255 H   0  0  0  0  0  0  0  0  0  0  0  0  # atno 10764 bound_to 10752
  154.8728  135.3985  154.3906 H   0  0  0  0  0  0  0  0  0  0  0  0  # atno 10765 bound_to 10752
  140.5717  134.0096  155.8011 H   0  0  0  0  0  0  0  0  0  0  0  0  # atno 11005 bound_to 11000
  146.2859  140.4432  142.8758 LP  0  0  0  0  0  0  0  0  0  0  0  0  # atno 17320 bound_to 7965
  144.8534  140.7035  143.6153 LP  0  0  0  0  0  0  0  0  0  0  0  0  # atno 17321 bound_to 7965
  140.6641  143.2262  151.5785 LP  0  0  0  0  0  0  0  0  0  0  0  0  # atno 17342 bound_to 10162
  139.5380  144.2727  152.1292 LP  0  0  0  0  0  0  0  0  0  0  0  0  # atno 17343 bound_to 10162
  156.2819  130.3734  149.7927 LP  0  0  0  0  0  0  0  0  0  0  0  0  # atno 17370 bound_to 10713
  156.5612  130.8384  151.3329 LP  0  0  0  0  0  0  0  0  0  0  0  0  # atno 17371 bound_to 10713
  141.1052  133.9705  157.3010 LP  0  0  0  0  0  0  0  0  0  0  0  0  # atno 17394 bound_to 11000
  139.9358  135.0196  156.8552 LP  0  0  0  0  0  0  0  0  0  0  0  0  # atno 17395 bound_to 11000

$$$$
