AV-unprocessed.smi:2973|AV-procd|sdf|11338|dock7
  -GOLD-   2272016253D 1   1.00000     0.00000
 Structure written by MMmdl.
 49 51  0  0  0  0  0  0  0  0  1 V2000
  147.4810  136.9555  155.9821 C   0  0  0  0  0  0  0  0  0  0  0  0
  147.5927  135.4742  155.5613 C   0  0  1  0  0  0  0  0  0  0  0  0
  146.7775  135.2281  154.2730 C   0  0  0  0  0  0  0  0  0  0  0  0
  146.8046  133.7526  153.8449 C   0  0  0  0  0  0  0  0  0  0  0  0
  148.2439  133.2489  153.6685 C   0  0  0  0  0  0  0  0  0  0  0  0
  149.0625  133.4692  154.9503 C   0  0  0  0  0  0  0  0  0  0  0  0
  149.0539  134.9513  155.3962 C   0  0  1  0  0  0  0  0  0  0  0  0
  149.8326  135.7726  154.4839 N   0  0  0  0  0  0  0  0  0  0  0  0
  150.9087  136.3199  155.0628 C   0  0  0  0  0  0  0  0  0  0  0  0
  151.7274  137.0426  154.4974 O   0  0  0  0  0  0  0  0  0  0  0  0
  150.9371  135.9358  156.3524 N   0  0  0  0  0  0  0  0  0  0  0  0
  151.9839  136.3232  157.3103 C   0  0  0  0  0  0  0  0  0  0  0  0
  151.6949  137.6039  158.1128 C   0  0  0  0  0  0  0  0  0  0  0  0
  151.8986  137.6042  159.3262 O   0  0  0  0  0  0  0  0  0  0  0  0
  151.2219  138.6775  157.4568 N   0  0  0  0  0  0  0  0  0  0  0  0
  150.8663  139.9514  158.0700 C   0  0  0  0  0  0  0  0  0  0  0  0
  152.0570  140.5628  158.8275 C   0  0  0  0  0  0  0  0  0  0  0  0
  151.9302  142.0657  158.9876 C   0  0  0  0  0  0  0  0  0  0  0  0
  152.2799  142.6928  160.2026 C   0  0  0  0  0  0  0  0  0  0  0  0
  152.1427  144.0913  160.2996 C   0  0  0  0  0  0  0  0  0  0  0  0
  151.6653  144.8050  159.1833 C   0  0  0  0  0  0  0  0  0  0  0  0
  151.3477  144.0859  158.0140 C   0  0  0  0  0  0  0  0  0  0  0  0
  151.4757  142.7452  157.9102 N   0  0  0  0  0  0  0  0  0  0  0  0
  149.9039  135.1348  156.6476 C   0  0  0  0  0  0  0  0  0  0  0  0
  149.6551  134.6118  157.7340 O   0  0  0  0  0  0  0  0  0  0  0  0
  147.9180  137.6204  155.2368 H   0  0  0  0  0  0  0  0  0  0  0  0
  147.9779  137.1477  156.9331 H   0  0  0  0  0  0  0  0  0  0  0  0
  146.4373  137.2458  156.1044 H   0  0  0  0  0  0  0  0  0  0  0  0
  147.1227  134.8871  156.3523 H   0  0  0  0  0  0  0  0  0  0  0  0
  145.7427  135.5384  154.4231 H   0  0  0  0  0  0  0  0  0  0  0  0
  147.1664  135.8476  153.4637 H   0  0  0  0  0  0  0  0  0  0  0  0
  146.2937  133.1454  154.5930 H   0  0  0  0  0  0  0  0  0  0  0  0
  146.2509  133.6266  152.9141 H   0  0  0  0  0  0  0  0  0  0  0  0
  148.2367  132.1895  153.4107 H   0  0  0  0  0  0  0  0  0  0  0  0
  148.7157  133.7660  152.8322 H   0  0  0  0  0  0  0  0  0  0  0  0
  148.6474  132.8445  155.7431 H   0  0  0  0  0  0  0  0  0  0  0  0
  150.0847  133.1198  154.7945 H   0  0  0  0  0  0  0  0  0  0  0  0
  149.5805  135.9008  153.5147 H   0  0  0  0  0  0  0  0  0  0  0  0
  152.1502  135.5090  158.0176 H   0  0  0  0  0  0  0  0  0  0  0  0
  152.9344  136.4533  156.7901 H   0  0  0  0  0  0  0  0  0  0  0  0
  151.0850  138.5992  156.4596 H   0  0  0  0  0  0  0  0  0  0  0  0
  150.4965  140.6440  157.3119 H   0  0  0  0  0  0  0  0  0  0  0  0
  150.0396  139.7713  158.7578 H   0  0  0  0  0  0  0  0  0  0  0  0
  152.1433  140.1091  159.8158 H   0  0  0  0  0  0  0  0  0  0  0  0
  152.9900  140.3401  158.3079 H   0  0  0  0  0  0  0  0  0  0  0  0
  152.6446  142.1172  161.0408 H   0  0  0  0  0  0  0  0  0  0  0  0
  152.3986  144.6068  161.2134 H   0  0  0  0  0  0  0  0  0  0  0  0
  151.5460  145.8776  159.2220 H   0  0  0  0  0  0  0  0  0  0  0  0
  150.9798  144.6009  157.1390 H   0  0  0  0  0  0  0  0  0  0  0  0
  1  2  1  0  0  0  0
  1 26  1  0  0  0  0
  1 27  1  0  0  0  0
  1 28  1  0  0  0  0
  2  7  1  0  0  0  0
  2  3  1  0  0  0  0
  2 29  1  0  0  0  0
  3  4  1  0  0  0  0
  3 30  1  0  0  0  0
  3 31  1  0  0  0  0
  4  5  1  0  0  0  0
  4 32  1  0  0  0  0
  4 33  1  0  0  0  0
  5  6  1  0  0  0  0
  5 34  1  0  0  0  0
  5 35  1  0  0  0  0
  6  7  1  0  0  0  0
  6 36  1  0  0  0  0
  6 37  1  0  0  0  0
  7 24  1  0  0  0  0
  7  8  1  0  0  0  0
  8  9  1  0  0  0  0
  8 38  1  0  0  0  0
  9 10  2  0  0  0  0
  9 11  1  0  0  0  0
 11 12  1  0  0  0  0
 11 24  1  0  0  0  0
 12 13  1  0  0  0  0
 12 39  1  0  0  0  0
 12 40  1  0  0  0  0
 13 14  2  0  0  0  0
 13 15  1  0  0  0  0
 15 16  1  0  0  0  0
 15 41  1  0  0  0  0
 16 17  1  0  0  0  0
 16 42  1  0  0  0  0
 16 43  1  0  0  0  0
 17 18  1  0  0  0  0
 17 44  1  0  0  0  0
 17 45  1  0  0  0  0
 18 23  1  0  0  0  0
 18 19  2  0  0  0  0
 19 20  1  0  0  0  0
 19 46  1  0  0  0  0
 20 21  2  0  0  0  0
 20 47  1  0  0  0  0
 21 22  1  0  0  0  0
 21 48  1  0  0  0  0
 22 23  2  0  0  0  0
 22 49  1  0  0  0  0
 24 25  2  0  0  0  0
M  END
> <s_m_source_file>
AV-unprocessed.smi

> <i_m_source_file_index>
2973

> <i_lp_mmshare_version>
43012

> <i_f3d_flags>
0

> <s_epik_input>
W0NIMl0xW0NIMl1bQ0gyXVtDSDJdW0NAQEhdKFtDSDNdKVtDQF0xMltOSF1DKD1PKU4oQzI9TylbQ0gyXUMoPU8pW05IXVtDSDJdW0NIMl1jM1tjSF1bY0hdW2NIXVtjSF1uMw==

> <s_epik_cmdline>
J2VwaWtfcHl0aG9uJywgJy1waCcsICc3LjAnLCAnLXRuJywgJzgnLCAnLW1hJywgJzIwMCcsICctbWV0YWxfYmluZGluZycsICctaW1hZScsICc8aW5maWxlLm1hZT4nLCAnLW9tYWUnLCAnPG91dGZpbGUubWFlPic=

> <r_lp_tautomer_probability>
1

> <r_epik_Ionization_Penalty>
0.0245152

> <r_epik_Ionization_Penalty_Charging>
0

> <r_epik_Ionization_Penalty_Neutral>
0.0245152

> <r_epik_State_Penalty>
0.0198648

> <r_epik_Charging_Adjusted_Penalty>
0.0198648

> <i_epik_Tot_Q>
0

> <i_epik_Tot_abs_Q>
0

> <r_epik_Metal_State_Penalty>
0.0400162

> <b_epik_Metal_Only>
0

> <s_lp_Force_Field>
OPLS_2005

> <r_lp_Energy>
22.4148

> <b_lp_Chiralities_Consistent>
1

> <s_lp_Variant>
AV-unprocessed.smi:2973-2

> <Gold.Version>
5.8.1

> <Gold.Id.Protein>
6NUR|6NUR_protein|mol2

> <Gold.PLP.Fitness>
47.6896

> <Gold.PLP.PLP>
-37.7952

> <Gold.PLP.part.hbond>
-3.3367

> <Gold.PLP.part.metal>
0.0000

> <Gold.PLP.part.buried>
-4.6129

> <Gold.PLP.part.nonpolar>
-31.4243

> <Gold.PLP.part.repulsive>
0.3034

> <Gold.PLP.ligand.clash>
0.0000

> <Gold.PLP.ligand.torsion>
0.9340

> <Gold.PLP.Chemscore.Hbond>
2.9120

> <Gold.PLP.Chemscore.CHOScore>
1.0000

> <Gold.PLP.Chemscore.Metal>
0.0000

> <Gold.Chemscore.Hbonds>
donor molecule, donor type, donor heavy atom, donor atom, acceptor molecule, acceptor atom, score
      L1  H     8    38       P1  7948  1.00
      P1  H  6896  6908       L1    25  1.00
      P1  H 10752 10765       L1    10  0.87
      L1  C    22    49       P1  8028  1.00

> <Gold.PLP.Chemscore.Internal.Correction>
0.0264

> <Gold.Rescore>
     Score         DG    S(hbond)    S(metal)    S(lipo)     H(rot)  DE(clash)    DE(int)     intcor
     21.48     -22.32       3.63        0.00      80.89       1.86       0.00       0.84       ----

> <Gold.Chemscore.Fitness>
21.4764

> <Gold.Chemscore.DG>
-22.3210

> <Gold.Chemscore.ZeroCoef>
-5.4800

> <Gold.Chemscore.Hbond>
3.6309

> <Gold.Chemscore.Metal>
0.0000

> <Gold.Chemscore.Lipo>
80.8859

> <Gold.Chemscore.Internal_Hbond>
0.0000

> <Gold.Chemscore.DEClash>
0.0044

> <Gold.Chemscore.DEInternal>
0.8403

> <Gold.Chemscore.Rot>
1.8553

> <Gold.Chemscore.Internal.Correction>
   9.000000E+99

> <Gold.Chemscore.Hbonds>
donor molecule, donor type, donor heavy atom, donor atom, acceptor molecule, acceptor atom, score
      L1  H     8    38       P1  7948  0.26
      P1  H  6896  6908       L1    25  0.96
      P1  H 10752 10765       L1    10  0.19

> <Gold.Chemscore.Hbond.Weighted>
-12.1271

> <Gold.Chemscore.Metal.Weighted>
-0.0000

> <Gold.Chemscore.Lipo.Weighted>
-9.4637

> <Gold.Chemscore.Internal_Hbond.Weighted>
0.0000

> <Gold.Chemscore.DEClash.Weighted>
0.0044

> <Gold.Chemscore.DEInternal.Weighted>
0.8403

> <Gold.Chemscore.Rot.Weighted>
4.7497

> <Gold.Chemscore.Internal.Correction.Weighted>
   9.000000E+99

> <Gold.Protein.RotatedTorsions>
[ 6907 6896 6895 6894 ] final  142.71 input  -60.11 | X-H torsion
[ 7974 7965 7964 7962 ] final -176.30 input  175.53 | X-H torsion
[ 8008 7997 7996 7995 ] final   20.28 input   59.86 | X-H torsion
[ 10167 10162 10161 10158 ] final  -54.04 input  -65.29 | X-H torsion
[ 10718 10713 10712 10709 ] final  130.91 input   66.30 | X-H torsion
[ 10763 10752 10751 10750 ] final  145.76 input  -60.55 | X-H torsion
[ 11005 11000 10999 10996 ] final  116.34 input  -57.11 | X-H torsion

> <Gold.Protein.ActiveResidues>
 VAL166  LYS551  ARG553  GLY616  TRP617  ASP618  TYR619  PRO620  LYS621  CYS622 
 ASP623  PHE694  ASN695  SER759  ASP760  ASP761  ALA762  ILE779  LEU786  VAL792 
 PHE793  MET794  SER795  GLU796  ALA797  LYS798  CYS799  TRP800  GLU811  SER814 

> <Gold.Protein.RotatedAtoms>
  152.2153  133.4942  159.5132 H   0  0  0  0  0  0  0  0  0  0  0  0  # atno 6907 bound_to 6896
  150.7000  134.1413  159.4115 H   0  0  0  0  0  0  0  0  0  0  0  0  # atno 6908 bound_to 6896
  151.9333  135.0246  160.0581 H   0  0  0  0  0  0  0  0  0  0  0  0  # atno 6909 bound_to 6896
  144.7127  140.1191  143.6406 H   0  0  0  0  0  0  0  0  0  0  0  0  # atno 7974 bound_to 7965
  154.9332  140.3043  155.5157 H   0  0  0  0  0  0  0  0  0  0  0  0  # atno 8008 bound_to 7997
  156.3002  140.2350  156.4331 H   0  0  0  0  0  0  0  0  0  0  0  0  # atno 8009 bound_to 7997
  154.8217  140.0423  157.1404 H   0  0  0  0  0  0  0  0  0  0  0  0  # atno 8010 bound_to 7997
  140.6452  143.2531  151.4879 H   0  0  0  0  0  0  0  0  0  0  0  0  # atno 10167 bound_to 10162
  157.5018  131.1094  150.9417 H   0  0  0  0  0  0  0  0  0  0  0  0  # atno 10718 bound_to 10713
  154.0108  135.2914  155.3392 H   0  0  0  0  0  0  0  0  0  0  0  0  # atno 10763 bound_to 10752
  154.7104  135.5151  153.8661 H   0  0  0  0  0  0  0  0  0  0  0  0  # atno 10764 bound_to 10752
  153.0724  135.6652  154.0340 H   0  0  0  0  0  0  0  0  0  0  0  0  # atno 10765 bound_to 10752
  139.9038  134.9596  156.7182 H   0  0  0  0  0  0  0  0  0  0  0  0  # atno 11005 bound_to 11000
  145.9387  139.2654  143.1281 LP  0  0  0  0  0  0  0  0  0  0  0  0  # atno 17320 bound_to 7965
  145.9446  140.8954  143.0290 LP  0  0  0  0  0  0  0  0  0  0  0  0  # atno 17321 bound_to 7965
  139.5662  144.2036  152.1769 LP  0  0  0  0  0  0  0  0  0  0  0  0  # atno 17342 bound_to 10162
  140.1318  144.5281  150.6797 LP  0  0  0  0  0  0  0  0  0  0  0  0  # atno 17343 bound_to 10162
  157.0085  130.5627  149.5318 LP  0  0  0  0  0  0  0  0  0  0  0  0  # atno 17370 bound_to 10713
  156.0234  130.5328  150.8338 LP  0  0  0  0  0  0  0  0  0  0  0  0  # atno 17371 bound_to 10713
  140.7021  133.9297  155.8031 LP  0  0  0  0  0  0  0  0  0  0  0  0  # atno 17394 bound_to 11000
  141.0364  134.0684  157.3955 LP  0  0  0  0  0  0  0  0  0  0  0  0  # atno 17395 bound_to 11000

$$$$
