AV-unprocessed.smi:1029|AV-procd|sdf|4476|dock10
  -GOLD-   22720 2453D 1   1.00000     0.00000
 Structure written by MMmdl.
 46 47  0  0  0  0  0  0  0  0  2 V2000
  152.2775  140.7816  159.1361 C   0  0  0  0  0  0  0  0  0  0  0  0
  151.9609  140.4099  157.7175 C   0  0  0  0  0  0  0  0  0  0  0  0
  150.7674  140.6617  156.9856 C   0  0  0  0  0  0  0  0  0  0  0  0
  151.0381  140.1073  155.7627 C   0  0  0  0  0  0  0  0  0  0  0  0
  150.2432  140.0603  154.6613 N   0  0  0  0  0  0  0  0  0  0  0  0
  148.9013  140.0031  154.5923 C   0  0  0  0  0  0  0  0  0  0  0  0
  148.1358  139.9533  155.5552 O   0  0  0  0  0  0  0  0  0  0  0  0
  148.4772  140.0101  153.3215 N   0  0  0  0  0  0  0  0  0  0  0  0
  147.0731  139.9980  152.9303 C   0  0  0  0  0  0  0  0  0  0  0  0
  146.7395  138.7549  152.0877 C   0  0  2  0  0  0  0  0  0  0  0  0
  146.1348  139.1867  150.8836 O   0  0  0  0  0  0  0  0  0  0  0  0
  145.7378  137.8336  152.8136 C   0  0  0  0  0  0  0  0  0  0  0  0
  145.9318  136.4010  152.4708 N   0  3  2  0  0  0  0  0  0  0  0  0
  145.4437  136.0734  151.1066 C   0  0  0  0  0  0  0  0  0  0  0  0
  145.7978  134.6254  150.7220 C   0  0  0  0  0  0  0  0  0  0  0  0
  145.2695  133.6038  151.7452 C   0  0  2  0  0  0  0  0  0  0  0  0
  143.7479  133.3968  151.6471 C   0  0  0  0  0  0  0  0  0  0  0  0
  145.7267  134.0104  153.1584 C   0  0  0  0  0  0  0  0  0  0  0  0
  145.3738  135.4721  153.4887 C   0  0  0  0  0  0  0  0  0  0  0  0
  152.2780  139.5611  155.7353 O   0  0  0  0  0  0  0  0  0  0  0  0
  152.8600  139.7600  156.9930 N   0  0  0  0  0  0  0  0  0  0  0  0
  151.5913  141.5443  159.5052 H   0  0  0  0  0  0  0  0  0  0  0  0
  153.2894  141.1777  159.2260 H   0  0  0  0  0  0  0  0  0  0  0  0
  152.1975  139.9158  159.7938 H   0  0  0  0  0  0  0  0  0  0  0  0
  149.8750  141.1677  157.3215 H   0  0  0  0  0  0  0  0  0  0  0  0
  150.7329  140.0923  153.7795 H   0  0  0  0  0  0  0  0  0  0  0  0
  149.1630  140.0544  152.5820 H   0  0  0  0  0  0  0  0  0  0  0  0
  146.4746  139.9937  153.8426 H   0  0  0  0  0  0  0  0  0  0  0  0
  146.8193  140.9119  152.3897 H   0  0  0  0  0  0  0  0  0  0  0  0
  147.6575  138.2147  151.8554 H   0  0  0  0  0  0  0  0  0  0  0  0
  145.4298  138.5945  150.6686 H   0  0  0  0  0  0  0  0  0  0  0  0
  145.8143  137.9565  153.8953 H   0  0  0  0  0  0  0  0  0  0  0  0
  144.7268  138.1468  152.5474 H   0  0  0  0  0  0  0  0  0  0  0  0
  144.3662  136.2346  151.0528 H   0  0  0  0  0  0  0  0  0  0  0  0
  145.8988  136.7502  150.3825 H   0  0  0  0  0  0  0  0  0  0  0  0
  145.4150  134.3970  149.7267 H   0  0  0  0  0  0  0  0  0  0  0  0
  146.8829  134.5339  150.6554 H   0  0  0  0  0  0  0  0  0  0  0  0
  145.7264  132.6403  151.5153 H   0  0  0  0  0  0  0  0  0  0  0  0
  143.1927  134.3105  151.8576 H   0  0  0  0  0  0  0  0  0  0  0  0
  143.4112  132.6365  152.3524 H   0  0  0  0  0  0  0  0  0  0  0  0
  143.4636  133.0624  150.6489 H   0  0  0  0  0  0  0  0  0  0  0  0
  145.2914  133.3420  153.9020 H   0  0  0  0  0  0  0  0  0  0  0  0
  146.8076  133.8830  153.2343 H   0  0  0  0  0  0  0  0  0  0  0  0
  145.7670  135.7138  154.4756 H   0  0  0  0  0  0  0  0  0  0  0  0
  144.2918  135.5989  153.5466 H   0  0  0  0  0  0  0  0  0  0  0  0
  146.9309  136.2517  152.4518 H   0  0  0  0  0  0  0  0  0  0  0  0
  1  2  1  0  0  0  0
  1 22  1  0  0  0  0
  1 23  1  0  0  0  0
  1 24  1  0  0  0  0
  2 21  2  0  0  0  0
  2  3  1  0  0  0  0
  3  4  2  0  0  0  0
  3 25  1  0  0  0  0
  4  5  1  0  0  0  0
  4 20  1  0  0  0  0
  5  6  1  0  0  0  0
  5 26  1  0  0  0  0
  6  7  2  0  0  0  0
  6  8  1  0  0  0  0
  8  9  1  0  0  0  0
  8 27  1  0  0  0  0
  9 10  1  0  0  0  0
  9 28  1  0  0  0  0
  9 29  1  0  0  0  0
 10 11  1  0  0  0  0
 10 12  1  0  0  0  0
 10 30  1  0  0  0  0
 11 31  1  0  0  0  0
 12 13  1  0  0  0  0
 12 32  1  0  0  0  0
 12 33  1  0  0  0  0
 13 19  1  0  0  0  0
 13 14  1  0  0  0  0
 13 46  1  0  0  0  0
 14 15  1  0  0  0  0
 14 34  1  0  0  0  0
 14 35  1  0  0  0  0
 15 16  1  0  0  0  0
 15 36  1  0  0  0  0
 15 37  1  0  0  0  0
 16 17  1  0  0  0  0
 16 18  1  0  0  0  0
 16 38  1  0  0  0  0
 17 39  1  0  0  0  0
 17 40  1  0  0  0  0
 17 41  1  0  0  0  0
 18 19  1  0  0  0  0
 18 42  1  0  0  0  0
 18 43  1  0  0  0  0
 19 44  1  0  0  0  0
 19 45  1  0  0  0  0
 20 21  1  0  0  0  0
M  CHG  1  13   1
M  END
> <s_m_source_file>
AV-unprocessed.smi

> <i_m_source_file_index>
1029

> <i_lp_mmshare_version>
43012

> <i_f3d_flags>
0

> <s_epik_input>
W0NIM11jMVtjSF1jKG9uMSlbTkhdQyg9TylbTkhdW0NIMl1bQ0BIXShbT0hdKVtDSDJdTjJbQ0gyXVtDSDJdW0NIXShbQ0gzXSlbQ0gyXVtDSDJdMg==

> <s_epik_cmdline>
J2VwaWtfcHl0aG9uJywgJy1waCcsICc3LjAnLCAnLXRuJywgJzgnLCAnLW1hJywgJzIwMCcsICctbWV0YWxfYmluZGluZycsICctaW1hZScsICc8aW5maWxlLm1hZT4nLCAnLW9tYWUnLCAnPG91dGZpbGUubWFlPic=

> <r_lp_tautomer_probability>
1

> <r_epik_Ionization_Penalty>
0.00211787

> <r_epik_Ionization_Penalty_Charging>
0.00153238

> <r_epik_Ionization_Penalty_Neutral>
0.000585488

> <r_epik_State_Penalty>
-0

> <r_epik_Charging_Adjusted_Penalty>
0.00153238

> <i_epik_Tot_Q>
1

> <i_epik_Tot_abs_Q>
1

> <r_epik_Metal_State_Penalty>
-0

> <b_epik_Metal_Only>
0

> <s_lp_Force_Field>
OPLS_2005

> <r_lp_Energy>
23.9078

> <b_lp_Chiralities_Consistent>
1

> <s_lp_Variant>
AV-unprocessed.smi:1029-3

> <Gold.Version>
5.8.1

> <Gold.Id.Protein>
6NUR|6NUR_protein|mol2

> <Gold.PLP.Fitness>
46.0172

> <Gold.PLP.PLP>
-34.8084

> <Gold.PLP.part.hbond>
-4.6460

> <Gold.PLP.part.metal>
0.0000

> <Gold.PLP.part.buried>
-4.3576

> <Gold.PLP.part.nonpolar>
-25.5272

> <Gold.PLP.part.repulsive>
1.3420

> <Gold.PLP.ligand.clash>
0.0000

> <Gold.PLP.ligand.torsion>
1.4977

> <Gold.PLP.Chemscore.Hbond>
4.7200

> <Gold.PLP.Chemscore.CHOScore>
0.0000

> <Gold.PLP.Chemscore.Metal>
0.0000

> <Gold.Chemscore.Hbonds>
donor molecule, donor type, donor heavy atom, donor atom, acceptor molecule, acceptor atom, score
      L1  H     8    27       P1  7957  0.89
      L1  H    11    31       P1 10171  0.77
      L1  H    13    46       P1  7948  1.69
      P1  H  7997  8010       L1    21  1.00

> <Gold.PLP.Chemscore.Internal.Correction>
0.0442

> <Gold.Rescore>
     Score         DG    S(hbond)    S(metal)    S(lipo)     H(rot)  DE(clash)    DE(int)     intcor
     16.26     -18.09       3.34        0.00      66.28       2.46       0.08       1.75       ----

> <Gold.Chemscore.Fitness>
16.2622

> <Gold.Chemscore.DG>
-18.0852

> <Gold.Chemscore.ZeroCoef>
-5.4800

> <Gold.Chemscore.Hbond>
3.3397

> <Gold.Chemscore.Metal>
0.0000

> <Gold.Chemscore.Lipo>
66.2758

> <Gold.Chemscore.Internal_Hbond>
0.0000

> <Gold.Chemscore.DEClash>
0.0752

> <Gold.Chemscore.DEInternal>
1.7478

> <Gold.Chemscore.Rot>
2.4624

> <Gold.Chemscore.Internal.Correction>
   9.000000E+99

> <Gold.Chemscore.Hbonds>
donor molecule, donor type, donor heavy atom, donor atom, acceptor molecule, acceptor atom, score
      L1  H     8    27       P1  7957  0.85
      L1  H    11    31       P1 10171  0.78
      L1  H    13    46       P1  7948  0.82
      P1  H  7997  8010       L1    21  0.59

> <Gold.Chemscore.Hbond.Weighted>
-11.1547

> <Gold.Chemscore.Metal.Weighted>
-0.0000

> <Gold.Chemscore.Lipo.Weighted>
-7.7543

> <Gold.Chemscore.Internal_Hbond.Weighted>
0.0000

> <Gold.Chemscore.DEClash.Weighted>
0.0752

> <Gold.Chemscore.DEInternal.Weighted>
1.7478

> <Gold.Chemscore.Rot.Weighted>
6.3037

> <Gold.Chemscore.Internal.Correction.Weighted>
   9.000000E+99

> <Gold.Protein.RotatedTorsions>
[ 6907 6896 6895 6894 ] final   62.72 input  -60.11 | X-H torsion
[ 7974 7965 7964 7962 ] final   69.65 input  175.53 | X-H torsion
[ 8008 7997 7996 7995 ] final   53.17 input   59.86 | X-H torsion
[ 10167 10162 10161 10158 ] final -123.01 input  -65.29 | X-H torsion
[ 10718 10713 10712 10709 ] final  163.67 input   66.30 | X-H torsion
[ 10763 10752 10751 10750 ] final    6.47 input  -60.55 | X-H torsion
[ 11005 11000 10999 10996 ] final  -71.64 input  -57.11 | X-H torsion

> <Gold.Protein.ActiveResidues>
 VAL166  LYS551  ARG553  GLY616  TRP617  ASP618  TYR619  PRO620  LYS621  CYS622 
 ASP623  PHE694  ASN695  SER759  ASP760  ASP761  ALA762  ILE779  LEU786  VAL792 
 PHE793  MET794  SER795  GLU796  ALA797  LYS798  CYS799  TRP800  GLU811  SER814 

> <Gold.Protein.RotatedAtoms>
  152.4195  134.5980  159.9992 H   0  0  0  0  0  0  0  0  0  0  0  0  # atno 6907 bound_to 6896
  151.6134  133.3339  159.3080 H   0  0  0  0  0  0  0  0  0  0  0  0  # atno 6908 bound_to 6896
  150.8083  134.7261  159.6731 H   0  0  0  0  0  0  0  0  0  0  0  0  # atno 6909 bound_to 6896
  145.7878  139.2919  143.1228 H   0  0  0  0  0  0  0  0  0  0  0  0  # atno 7974 bound_to 7965
  155.4638  140.3462  155.4316 H   0  0  0  0  0  0  0  0  0  0  0  0  # atno 8008 bound_to 7997
  156.1144  140.1470  156.9323 H   0  0  0  0  0  0  0  0  0  0  0  0  # atno 8009 bound_to 7997
  154.4779  140.0879  156.7285 H   0  0  0  0  0  0  0  0  0  0  0  0  # atno 8010 bound_to 7997
  140.0081  143.5470  152.2275 H   0  0  0  0  0  0  0  0  0  0  0  0  # atno 10167 bound_to 10162
  157.1052  131.0453  151.2481 H   0  0  0  0  0  0  0  0  0  0  0  0  # atno 10718 bound_to 10713
  153.2473  135.6910  153.7717 H   0  0  0  0  0  0  0  0  0  0  0  0  # atno 10763 bound_to 10752
  153.6824  135.3326  155.3182 H   0  0  0  0  0  0  0  0  0  0  0  0  # atno 10764 bound_to 10752
  154.8380  135.4526  154.1418 H   0  0  0  0  0  0  0  0  0  0  0  0  # atno 10765 bound_to 10752
  141.1595  133.6823  156.6936 H   0  0  0  0  0  0  0  0  0  0  0  0  # atno 11005 bound_to 11000
  146.0008  140.8522  143.0019 LP  0  0  0  0  0  0  0  0  0  0  0  0  # atno 17320 bound_to 7965
  144.6786  140.2350  143.7351 LP  0  0  0  0  0  0  0  0  0  0  0  0  # atno 17321 bound_to 7965
  139.6224  144.7631  151.2711 LP  0  0  0  0  0  0  0  0  0  0  0  0  # atno 17342 bound_to 10162
  140.7392  143.6624  150.8152 LP  0  0  0  0  0  0  0  0  0  0  0  0  # atno 17343 bound_to 10162
  157.4606  130.7651  149.7233 LP  0  0  0  0  0  0  0  0  0  0  0  0  # atno 17370 bound_to 10713
  155.9864  130.3975  150.3216 LP  0  0  0  0  0  0  0  0  0  0  0  0  # atno 17371 bound_to 10713
  140.3011  134.8162  157.4099 LP  0  0  0  0  0  0  0  0  0  0  0  0  # atno 17394 bound_to 11000
  140.1261  134.5156  155.8144 LP  0  0  0  0  0  0  0  0  0  0  0  0  # atno 17395 bound_to 11000

$$$$
