AV-unprocessed.smi:2585|AV-procd|sdf|10144|dock4
  -GOLD-   2272014153D 1   1.00000     0.00000
 Structure written by MMmdl.
 34 35  0  0  0  0  0  0  0  0  1 V2000
  150.6213  141.5831  156.1925 C   0  0  0  0  0  0  0  0  0  0  0  0
  151.0448  140.2696  155.6060 C   0  0  0  0  0  0  0  0  0  0  0  0
  152.3238  140.0289  155.4061 N   0  0  0  0  0  0  0  0  0  0  0  0
  152.5063  138.4951  154.7468 S   0  0  0  0  0  0  0  0  0  0  0  0
  150.8053  138.1166  154.7185 C   0  0  0  0  0  0  0  0  0  0  0  0
  150.2267  136.9683  154.2804 N   0  0  0  0  0  0  0  0  0  0  0  0
  149.9315  135.8564  154.9753 C   0  0  0  0  0  0  0  0  0  0  0  0
  150.1514  135.6877  156.1744 O   0  0  0  0  0  0  0  0  0  0  0  0
  149.3574  134.9372  154.1809 N   0  0  0  0  0  0  0  0  0  0  0  0
  148.8878  133.5879  154.5311 C   0  0  0  0  0  0  0  0  0  0  0  0
  149.8377  132.9542  155.5705 C   0  0  0  0  0  0  0  0  0  0  0  0
  147.4782  133.7235  155.1471 C   0  0  0  0  0  0  0  0  0  0  0  0
  146.4281  134.1539  154.1052 C   0  0  0  0  0  0  0  0  0  0  0  0
  146.4112  133.2344  153.0197 O   0  0  0  0  0  0  0  0  0  0  0  0
  147.6528  133.1711  152.3282 C   0  0  0  0  0  0  0  0  0  0  0  0
  148.7579  132.6825  153.2817 C   0  0  0  0  0  0  0  0  0  0  0  0
  150.1580  139.2093  155.2278 C   0  0  0  0  0  0  0  0  0  0  0  0
  148.4752  139.3753  155.4282 Cl  0  0  0  0  0  0  0  0  0  0  0  0
  149.9372  142.1079  155.5254 H   0  0  0  0  0  0  0  0  0  0  0  0
  151.4716  142.2423  156.3730 H   0  0  0  0  0  0  0  0  0  0  0  0
  150.1103  141.4406  157.1452 H   0  0  0  0  0  0  0  0  0  0  0  0
  149.9855  136.9570  153.3002 H   0  0  0  0  0  0  0  0  0  0  0  0
  149.2313  135.1970  153.2135 H   0  0  0  0  0  0  0  0  0  0  0  0
  149.4589  131.9920  155.9167 H   0  0  0  0  0  0  0  0  0  0  0  0
  149.9507  133.5944  156.4462 H   0  0  0  0  0  0  0  0  0  0  0  0
  150.8321  132.7750  155.1616 H   0  0  0  0  0  0  0  0  0  0  0  0
  147.1698  132.7661  155.5698 H   0  0  0  0  0  0  0  0  0  0  0  0
  147.4897  134.4309  155.9776 H   0  0  0  0  0  0  0  0  0  0  0  0
  145.4384  134.1734  154.5614 H   0  0  0  0  0  0  0  0  0  0  0  0
  146.6244  135.1623  153.7378 H   0  0  0  0  0  0  0  0  0  0  0  0
  147.5511  132.4801  151.4914 H   0  0  0  0  0  0  0  0  0  0  0  0
  147.8987  134.1459  151.9044 H   0  0  0  0  0  0  0  0  0  0  0  0
  149.7035  132.6030  152.7457 H   0  0  0  0  0  0  0  0  0  0  0  0
  148.5138  131.6673  153.5973 H   0  0  0  0  0  0  0  0  0  0  0  0
  1  2  1  0  0  0  0
  1 19  1  0  0  0  0
  1 20  1  0  0  0  0
  1 21  1  0  0  0  0
  2 17  1  0  0  0  0
  2  3  2  0  0  0  0
  3  4  1  0  0  0  0
  4  5  1  0  0  0  0
  5  6  1  0  0  0  0
  5 17  2  0  0  0  0
  6  7  1  0  0  0  0
  6 22  1  0  0  0  0
  7  8  2  0  0  0  0
  7  9  1  0  0  0  0
  9 10  1  0  0  0  0
  9 23  1  0  0  0  0
 10 16  1  0  0  0  0
 10 11  1  0  0  0  0
 10 12  1  0  0  0  0
 11 24  1  0  0  0  0
 11 25  1  0  0  0  0
 11 26  1  0  0  0  0
 12 13  1  0  0  0  0
 12 27  1  0  0  0  0
 12 28  1  0  0  0  0
 13 14  1  0  0  0  0
 13 29  1  0  0  0  0
 13 30  1  0  0  0  0
 14 15  1  0  0  0  0
 15 16  1  0  0  0  0
 15 31  1  0  0  0  0
 15 32  1  0  0  0  0
 16 33  1  0  0  0  0
 16 34  1  0  0  0  0
 17 18  1  0  0  0  0
M  END
> <s_m_source_file>
AV-unprocessed.smi

> <i_m_source_file_index>
2585

> <i_lp_mmshare_version>
43012

> <i_f3d_flags>
0

> <s_epik_input>
W0NIM11jMW5zYyhjMUNsKVtOSF1DKD1PKVtOSF1DMihbQ0gzXSlbQ0gyXVtDSDJdT1tDSDJdW0NIMl0y

> <s_epik_cmdline>
J2VwaWtfcHl0aG9uJywgJy1waCcsICc3LjAnLCAnLXRuJywgJzgnLCAnLW1hJywgJzIwMCcsICctbWV0YWxfYmluZGluZycsICctaW1hZScsICc8aW5maWxlLm1hZT4nLCAnLW9tYWUnLCAnPG91dGZpbGUubWFlPic=

> <r_lp_tautomer_probability>
1

> <r_epik_Ionization_Penalty>
3.55893e-05

> <r_epik_Ionization_Penalty_Charging>
0

> <r_epik_Ionization_Penalty_Neutral>
3.55893e-05

> <r_epik_State_Penalty>
-0

> <r_epik_Charging_Adjusted_Penalty>
0

> <i_epik_Tot_Q>
0

> <i_epik_Tot_abs_Q>
0

> <r_epik_Metal_State_Penalty>
-0

> <b_epik_Metal_Only>
0

> <s_lp_Force_Field>
OPLS_2005

> <r_lp_Energy>
7.47922

> <b_lp_Chiralities_Consistent>
1

> <s_lp_Variant>
AV-unprocessed.smi:2585-1

> <Gold.Version>
5.8.1

> <Gold.Id.Protein>
6NUR|6NUR_protein|mol2

> <Gold.PLP.Fitness>
36.6446

> <Gold.PLP.PLP>
-30.0785

> <Gold.PLP.part.hbond>
-4.8419

> <Gold.PLP.part.metal>
0.0000

> <Gold.PLP.part.buried>
-1.7000

> <Gold.PLP.part.nonpolar>
-24.0668

> <Gold.PLP.part.repulsive>
0.2087

> <Gold.PLP.ligand.clash>
0.0000

> <Gold.PLP.ligand.torsion>
1.2203

> <Gold.PLP.Chemscore.Hbond>
3.0000

> <Gold.PLP.Chemscore.CHOScore>
0.0000

> <Gold.PLP.Chemscore.Metal>
0.0000

> <Gold.Chemscore.Hbonds>
donor molecule, donor type, donor heavy atom, donor atom, acceptor molecule, acceptor atom, score
      L1  H     6    22       P1  7948  0.90
      L1  H     9    23       P1  7948  0.80
      P1  H  7997  8010       L1     3  0.44

> <Gold.PLP.Chemscore.Internal.Correction>
0.0065

> <Gold.Rescore>
     Score         DG    S(hbond)    S(metal)    S(lipo)     H(rot)  DE(clash)    DE(int)     intcor
     15.96     -18.38       2.69        0.00      55.22       1.00       0.01       2.40       ----

> <Gold.Chemscore.Fitness>
15.9648

> <Gold.Chemscore.DG>
-18.3778

> <Gold.Chemscore.ZeroCoef>
-5.4800

> <Gold.Chemscore.Hbond>
2.6937

> <Gold.Chemscore.Metal>
0.0000

> <Gold.Chemscore.Lipo>
55.2223

> <Gold.Chemscore.Internal_Hbond>
0.0000

> <Gold.Chemscore.DEClash>
0.0144

> <Gold.Chemscore.DEInternal>
2.3987

> <Gold.Chemscore.Rot>
1.0000

> <Gold.Chemscore.Internal.Correction>
   9.000000E+99

> <Gold.Chemscore.Hbonds>
donor molecule, donor type, donor heavy atom, donor atom, acceptor molecule, acceptor atom, score
      L1  H     6    22       P1  7948  0.17
      L1  H     9    23       P1  7948  0.12
      P1  H  7997  8010       L1     3  0.05

> <Gold.Chemscore.Hbond.Weighted>
-8.9968

> <Gold.Chemscore.Metal.Weighted>
-0.0000

> <Gold.Chemscore.Lipo.Weighted>
-6.4610

> <Gold.Chemscore.Internal_Hbond.Weighted>
0.0000

> <Gold.Chemscore.DEClash.Weighted>
0.0144

> <Gold.Chemscore.DEInternal.Weighted>
2.3987

> <Gold.Chemscore.Rot.Weighted>
2.5600

> <Gold.Chemscore.Internal.Correction.Weighted>
   9.000000E+99

> <Gold.Protein.RotatedTorsions>
[ 6907 6896 6895 6894 ] final  -51.80 input  -60.11 | X-H torsion
[ 7974 7965 7964 7962 ] final -169.30 input  175.53 | X-H torsion
[ 8008 7997 7996 7995 ] final  103.45 input   59.86 | X-H torsion
[ 10167 10162 10161 10158 ] final -110.16 input  -65.29 | X-H torsion
[ 10718 10713 10712 10709 ] final   40.48 input   66.30 | X-H torsion
[ 10763 10752 10751 10750 ] final   37.70 input  -60.55 | X-H torsion
[ 11005 11000 10999 10996 ] final   44.01 input  -57.11 | X-H torsion

> <Gold.Protein.ActiveResidues>
 VAL166  LYS551  ARG553  GLY616  TRP617  ASP618  TYR619  PRO620  LYS621  CYS622 
 ASP623  PHE694  ASN695  SER759  ASP760  ASP761  ALA762  ILE779  LEU786  VAL792 
 PHE793  MET794  SER795  GLU796  ALA797  LYS798  CYS799  TRP800  GLU811  SER814 

> <Gold.Protein.RotatedAtoms>
  150.8577  134.7920  159.7058 H   0  0  0  0  0  0  0  0  0  0  0  0  # atno 6907 bound_to 6896
  152.4623  134.5151  159.9775 H   0  0  0  0  0  0  0  0  0  0  0  0  # atno 6908 bound_to 6896
  151.5261  133.3419  159.2945 H   0  0  0  0  0  0  0  0  0  0  0  0  # atno 6909 bound_to 6896
  144.7188  140.2242  143.6312 H   0  0  0  0  0  0  0  0  0  0  0  0  # atno 7974 bound_to 7965
  156.1485  140.3164  155.8608 H   0  0  0  0  0  0  0  0  0  0  0  0  # atno 8008 bound_to 7997
  155.4018  140.0500  157.3053 H   0  0  0  0  0  0  0  0  0  0  0  0  # atno 8009 bound_to 7997
  154.5037  140.2139  155.9306 H   0  0  0  0  0  0  0  0  0  0  0  0  # atno 8010 bound_to 7997
  140.1475  143.4227  152.1518 H   0  0  0  0  0  0  0  0  0  0  0  0  # atno 10167 bound_to 10162
  157.3826  130.7762  149.7205 H   0  0  0  0  0  0  0  0  0  0  0  0  # atno 10718 bound_to 10713
  153.0028  135.6270  154.2187 H   0  0  0  0  0  0  0  0  0  0  0  0  # atno 10763 bound_to 10752
  154.1930  135.2808  155.3017 H   0  0  0  0  0  0  0  0  0  0  0  0  # atno 10764 bound_to 10752
  154.5744  135.5666  153.7185 H   0  0  0  0  0  0  0  0  0  0  0  0  # atno 10765 bound_to 10752
  140.1592  134.4363  155.8329 H   0  0  0  0  0  0  0  0  0  0  0  0  # atno 11005 bound_to 11000
  145.8472  139.2158  143.1793 LP  0  0  0  0  0  0  0  0  0  0  0  0  # atno 17320 bound_to 7965
  146.0293  140.8273  142.9884 LP  0  0  0  0  0  0  0  0  0  0  0  0  # atno 17321 bound_to 7965
  139.5442  144.7283  151.4637 LP  0  0  0  0  0  0  0  0  0  0  0  0  # atno 17342 bound_to 10162
  140.6723  143.8267  150.7014 LP  0  0  0  0  0  0  0  0  0  0  0  0  # atno 17343 bound_to 10162
  155.9779  130.4057  150.3681 LP  0  0  0  0  0  0  0  0  0  0  0  0  # atno 17370 bound_to 10713
  157.1787  131.0387  151.2759 LP  0  0  0  0  0  0  0  0  0  0  0  0  # atno 17371 bound_to 10713
  141.2207  133.6906  156.7562 LP  0  0  0  0  0  0  0  0  0  0  0  0  # atno 17394 bound_to 11000
  140.2511  134.8540  157.3668 LP  0  0  0  0  0  0  0  0  0  0  0  0  # atno 17395 bound_to 11000

$$$$
