AV-unprocessed.smi:400|AV-procd|sdf|2493|dock7
  -GOLD-   2262022443D 1   1.00000     0.00000
 Structure written by MMmdl.
 40 41  0  0  0  0  0  0  0  0  1 V2000
  153.7634  135.9426  163.9259 C   0  0  0  0  0  0  0  0  0  0  0  0
  154.4472  135.0245  162.9003 C   0  0  0  0  0  0  0  0  0  0  0  0
  155.2370  135.7736  161.8039 C   0  0  1  0  0  0  0  0  0  0  0  0
  155.8421  134.7859  160.7912 C   0  0  0  0  0  0  0  0  0  0  0  0
  154.3647  136.8108  161.0791 C   0  0  0  0  0  0  0  0  0  0  0  0
  153.4685  136.4314  160.3240 O   0  0  0  0  0  0  0  0  0  0  0  0
  154.6547  138.1012  161.3325 N   0  0  0  0  0  0  0  0  0  0  0  0
  153.9970  139.2628  160.8483 C   0  0  0  0  0  0  0  0  0  0  0  0
  154.3369  140.4628  161.5079 C   0  0  0  0  0  0  0  0  0  0  0  0
  153.7274  141.6689  161.1131 C   0  0  0  0  0  0  0  0  0  0  0  0
  152.7782  141.6603  160.0633 C   0  0  0  0  0  0  0  0  0  0  0  0
  152.1221  142.8278  159.6159 N   0  0  0  0  0  0  0  0  0  0  0  0
  152.9916  143.9322  159.2175 C   0  0  0  0  0  0  0  0  0  0  0  0
  152.1769  145.2288  159.0673 C   0  0  0  0  0  0  0  0  0  0  0  0
  151.0981  145.0182  158.1624 O   0  0  0  0  0  0  0  0  0  0  0  0
  150.2024  144.0168  158.6324 C   0  0  0  0  0  0  0  0  0  0  0  0
  150.9455  142.6764  158.7644 C   0  0  0  0  0  0  0  0  0  0  0  0
  152.5119  140.4086  159.4616 C   0  0  0  0  0  0  0  0  0  0  0  0
  153.0966  139.2521  159.8368 N   0  0  0  0  0  0  0  0  0  0  0  0
  153.2822  135.3552  164.7081 H   0  0  0  0  0  0  0  0  0  0  0  0
  152.9944  136.5623  163.4643 H   0  0  0  0  0  0  0  0  0  0  0  0
  154.4856  136.6042  164.4052 H   0  0  0  0  0  0  0  0  0  0  0  0
  155.1284  134.3625  163.4362 H   0  0  0  0  0  0  0  0  0  0  0  0
  153.6993  134.3739  162.4445 H   0  0  0  0  0  0  0  0  0  0  0  0
  156.0663  136.2956  162.2848 H   0  0  0  0  0  0  0  0  0  0  0  0
  156.3916  135.3070  160.0060 H   0  0  0  0  0  0  0  0  0  0  0  0
  155.0723  134.1786  160.3131 H   0  0  0  0  0  0  0  0  0  0  0  0
  156.5405  134.1060  161.2798 H   0  0  0  0  0  0  0  0  0  0  0  0
  155.4294  138.2690  161.9576 H   0  0  0  0  0  0  0  0  0  0  0  0
  155.0560  140.4646  162.3143 H   0  0  0  0  0  0  0  0  0  0  0  0
  153.9928  142.5765  161.6338 H   0  0  0  0  0  0  0  0  0  0  0  0
  153.7916  144.0988  159.9375 H   0  0  0  0  0  0  0  0  0  0  0  0
  153.4666  143.6800  158.2684 H   0  0  0  0  0  0  0  0  0  0  0  0
  151.7959  145.5627  160.0339 H   0  0  0  0  0  0  0  0  0  0  0  0
  152.8112  146.0274  158.6828 H   0  0  0  0  0  0  0  0  0  0  0  0
  149.7720  144.3187  159.5884 H   0  0  0  0  0  0  0  0  0  0  0  0
  149.3763  143.9203  157.9278 H   0  0  0  0  0  0  0  0  0  0  0  0
  151.2542  142.3246  157.7790 H   0  0  0  0  0  0  0  0  0  0  0  0
  150.2694  141.9306  159.1843 H   0  0  0  0  0  0  0  0  0  0  0  0
  151.8191  140.3220  158.6378 H   0  0  0  0  0  0  0  0  0  0  0  0
  1  2  1  0  0  0  0
  1 20  1  0  0  0  0
  1 21  1  0  0  0  0
  1 22  1  0  0  0  0
  2  3  1  0  0  0  0
  2 23  1  0  0  0  0
  2 24  1  0  0  0  0
  3  4  1  0  0  0  0
  3  5  1  0  0  0  0
  3 25  1  0  0  0  0
  4 26  1  0  0  0  0
  4 27  1  0  0  0  0
  4 28  1  0  0  0  0
  5  6  2  0  0  0  0
  5  7  1  0  0  0  0
  7  8  1  0  0  0  0
  7 29  1  0  0  0  0
  8 19  1  0  0  0  0
  8  9  2  0  0  0  0
  9 10  1  0  0  0  0
  9 30  1  0  0  0  0
 10 11  2  0  0  0  0
 10 31  1  0  0  0  0
 11 12  1  0  0  0  0
 11 18  1  0  0  0  0
 12 17  1  0  0  0  0
 12 13  1  0  0  0  0
 13 14  1  0  0  0  0
 13 32  1  0  0  0  0
 13 33  1  0  0  0  0
 14 15  1  0  0  0  0
 14 34  1  0  0  0  0
 14 35  1  0  0  0  0
 15 16  1  0  0  0  0
 16 17  1  0  0  0  0
 16 36  1  0  0  0  0
 16 37  1  0  0  0  0
 17 38  1  0  0  0  0
 17 39  1  0  0  0  0
 18 19  2  0  0  0  0
 18 40  1  0  0  0  0
M  END
> <s_m_source_file>
AV-unprocessed.smi

> <i_m_source_file_index>
400

> <i_lp_mmshare_version>
43012

> <i_f3d_flags>
0

> <s_epik_input>
W0NIM11bQ0gyXVtDQEhdKFtDSDNdKUMoPU8pW05IXWMxW2NIXVtjSF1jKFtjSF1uMSlOMltDSDJdW0NIMl1PW0NIMl1bQ0gyXTI=

> <s_epik_cmdline>
J2VwaWtfcHl0aG9uJywgJy1waCcsICc3LjAnLCAnLXRuJywgJzgnLCAnLW1hJywgJzIwMCcsICctbWV0YWxfYmluZGluZycsICctaW1hZScsICc8aW5maWxlLm1hZT4nLCAnLW9tYWUnLCAnPG91dGZpbGUubWFlPic=

> <r_lp_tautomer_probability>
1

> <r_epik_Ionization_Penalty>
0.00393323

> <r_epik_Ionization_Penalty_Charging>
0

> <r_epik_Ionization_Penalty_Neutral>
0.00393323

> <r_epik_State_Penalty>
0.00357844

> <r_epik_Charging_Adjusted_Penalty>
0.00357844

> <i_epik_Tot_Q>
0

> <i_epik_Tot_abs_Q>
0

> <r_epik_Metal_State_Penalty>
-0

> <b_epik_Metal_Only>
0

> <s_lp_Force_Field>
OPLS_2005

> <r_lp_Energy>
25.3606

> <b_lp_Chiralities_Consistent>
1

> <s_lp_Variant>
AV-unprocessed.smi:400-2

> <Gold.Version>
5.8.1

> <Gold.Id.Protein>
6NUR|6NUR_protein|mol2

> <Gold.PLP.Fitness>
39.0891

> <Gold.PLP.PLP>
-36.4888

> <Gold.PLP.part.hbond>
-1.0000

> <Gold.PLP.part.metal>
0.0000

> <Gold.PLP.part.buried>
-4.8790

> <Gold.PLP.part.nonpolar>
-30.2586

> <Gold.PLP.part.repulsive>
0.1820

> <Gold.PLP.ligand.clash>
0.0000

> <Gold.PLP.ligand.torsion>
0.3951

> <Gold.PLP.Chemscore.Hbond>
1.0000

> <Gold.PLP.Chemscore.CHOScore>
0.0000

> <Gold.PLP.Chemscore.Metal>
0.0000

> <Gold.Chemscore.Hbonds>
donor molecule, donor type, donor heavy atom, donor atom, acceptor molecule, acceptor atom, score
      P1  H  6896  6907       L1     6  1.00

> <Gold.PLP.Chemscore.Internal.Correction>
0.3906

> <Gold.Rescore>
     Score         DG    S(hbond)    S(metal)    S(lipo)     H(rot)  DE(clash)    DE(int)     intcor
     15.81     -17.48       1.00        0.00     102.59       1.30       0.07       1.60       ----

> <Gold.Chemscore.Fitness>
15.8092

> <Gold.Chemscore.DG>
-17.4761

> <Gold.Chemscore.ZeroCoef>
-5.4800

> <Gold.Chemscore.Hbond>
0.9975

> <Gold.Chemscore.Metal>
0.0000

> <Gold.Chemscore.Lipo>
102.5883

> <Gold.Chemscore.Internal_Hbond>
0.0000

> <Gold.Chemscore.DEClash>
0.0650

> <Gold.Chemscore.DEInternal>
1.6019

> <Gold.Chemscore.Rot>
1.3041

> <Gold.Chemscore.Internal.Correction>
   9.000000E+99

> <Gold.Chemscore.Hbonds>
donor molecule, donor type, donor heavy atom, donor atom, acceptor molecule, acceptor atom, score
      P1  H  6896  6907       L1     6  0.96

> <Gold.Chemscore.Hbond.Weighted>
-3.3318

> <Gold.Chemscore.Metal.Weighted>
-0.0000

> <Gold.Chemscore.Lipo.Weighted>
-12.0028

> <Gold.Chemscore.Internal_Hbond.Weighted>
0.0000

> <Gold.Chemscore.DEClash.Weighted>
0.0650

> <Gold.Chemscore.DEInternal.Weighted>
1.6019

> <Gold.Chemscore.Rot.Weighted>
3.3385

> <Gold.Chemscore.Internal.Correction.Weighted>
   9.000000E+99

> <Gold.Protein.RotatedTorsions>
[ 6907 6896 6895 6894 ] final   27.74 input  -60.11 | X-H torsion
[ 7974 7965 7964 7962 ] final  -75.16 input  175.53 | X-H torsion
[ 8008 7997 7996 7995 ] final  -61.57 input   59.86 | X-H torsion
[ 10167 10162 10161 10158 ] final  -40.77 input  -65.29 | X-H torsion
[ 10718 10713 10712 10709 ] final  146.61 input   66.30 | X-H torsion
[ 10763 10752 10751 10750 ] final -145.01 input  -60.55 | X-H torsion
[ 11005 11000 10999 10996 ] final -144.88 input  -57.11 | X-H torsion

> <Gold.Protein.ActiveResidues>
 VAL166  LYS551  ARG553  GLY616  TRP617  ASP618  TYR619  PRO620  LYS621  CYS622 
 ASP623  PHE694  ASN695  SER759  ASP760  ASP761  ALA762  ILE779  LEU786  VAL792 
 PHE793  MET794  SER795  GLU796  ALA797  LYS798  CYS799  TRP800  GLU811  SER814 

> <Gold.Protein.RotatedAtoms>
  152.0067  134.9899  160.0566 H   0  0  0  0  0  0  0  0  0  0  0  0  # atno 6907 bound_to 6896
  152.1468  133.4492  159.4802 H   0  0  0  0  0  0  0  0  0  0  0  0  # atno 6908 bound_to 6896
  150.6871  134.2156  159.4419 H   0  0  0  0  0  0  0  0  0  0  0  0  # atno 6909 bound_to 6896
  145.6296  140.9341  143.1094 H   0  0  0  0  0  0  0  0  0  0  0  0  # atno 7974 bound_to 7965
  154.4455  140.1015  156.6452 H   0  0  0  0  0  0  0  0  0  0  0  0  # atno 8008 bound_to 7997
  155.5458  140.3484  155.4438 H   0  0  0  0  0  0  0  0  0  0  0  0  # atno 8009 bound_to 7997
  156.0565  140.1316  156.9980 H   0  0  0  0  0  0  0  0  0  0  0  0  # atno 8010 bound_to 7997
  140.7024  143.3134  151.2971 H   0  0  0  0  0  0  0  0  0  0  0  0  # atno 10167 bound_to 10162
  157.3311  131.0920  151.1162 H   0  0  0  0  0  0  0  0  0  0  0  0  # atno 10718 bound_to 10713
  154.8403  135.3425  154.6436 H   0  0  0  0  0  0  0  0  0  0  0  0  # atno 10763 bound_to 10752
  153.7048  135.6967  153.5058 H   0  0  0  0  0  0  0  0  0  0  0  0  # atno 10764 bound_to 10752
  153.2496  135.4358  155.0738 H   0  0  0  0  0  0  0  0  0  0  0  0  # atno 10765 bound_to 10752
  140.7979  134.2891  157.4989 H   0  0  0  0  0  0  0  0  0  0  0  0  # atno 11005 bound_to 11000
  144.7199  139.8067  143.7385 LP  0  0  0  0  0  0  0  0  0  0  0  0  # atno 17320 bound_to 7965
  146.1367  139.4414  143.0134 LP  0  0  0  0  0  0  0  0  0  0  0  0  # atno 17321 bound_to 7965
  139.6564  144.0268  152.2663 LP  0  0  0  0  0  0  0  0  0  0  0  0  # atno 17342 bound_to 10162
  139.9821  144.6421  150.7891 LP  0  0  0  0  0  0  0  0  0  0  0  0  # atno 17343 bound_to 10162
  157.2410  130.6569  149.5890 LP  0  0  0  0  0  0  0  0  0  0  0  0  # atno 17370 bound_to 10713
  155.9696  130.4568  150.5940 LP  0  0  0  0  0  0  0  0  0  0  0  0  # atno 17371 bound_to 10713
  139.8724  134.9413  156.3792 LP  0  0  0  0  0  0  0  0  0  0  0  0  # atno 17394 bound_to 11000
  140.9324  133.7570  156.0041 LP  0  0  0  0  0  0  0  0  0  0  0  0  # atno 17395 bound_to 11000

$$$$
