AV-unprocessed.smi:2463|AV-procd|sdf|9720|dock7
  -GOLD-   2272013363D 1   1.00000     0.00000
 Structure written by MMmdl.
 47 48  0  0  0  0  0  0  0  0  1 V2000
  147.4685  127.8657  152.5481 C   0  0  0  0  0  0  0  0  0  0  0  0
  146.6198  128.6630  151.5519 C   0  0  0  0  0  0  0  0  0  0  0  0
  145.8094  129.7766  152.2316 C   0  0  0  0  0  0  0  0  0  0  0  0
  146.6680  130.7323  152.9041 N   0  0  0  0  0  0  0  0  0  0  0  0
  146.8798  132.0592  152.5863 C   0  0  0  0  0  0  0  0  0  0  0  0
  147.7702  132.5230  153.5129 C   0  0  0  0  0  0  0  0  0  0  0  0
  148.3279  133.8186  153.6547 N   0  0  0  0  0  0  0  0  0  0  0  0
  148.8792  134.3522  154.7568 C   0  0  0  0  0  0  0  0  0  0  0  0
  148.9729  133.7866  155.8462 O   0  0  0  0  0  0  0  0  0  0  0  0
  149.3180  135.5971  154.5263 N   0  0  0  0  0  0  0  0  0  0  0  0
  149.9467  136.4647  155.5202 C   0  0  1  0  0  0  0  0  0  0  0  0
  150.6192  137.6595  154.8736 C   0  0  0  0  0  0  0  0  0  0  0  0
  150.6661  138.6886  156.0098 C   0  0  0  0  0  0  0  0  0  0  0  0
  151.9575  138.5722  156.8379 C   0  0  0  0  0  0  0  0  0  0  0  0
  150.4648  140.1252  155.5040 C   0  0  0  0  0  0  0  0  0  0  0  0
  149.5783  138.3541  156.8707 O   0  0  0  0  0  0  0  0  0  0  0  0
  148.9479  137.1314  156.4908 C   0  0  0  0  0  0  0  0  0  0  0  0
  147.5979  137.5158  155.8495 C   0  0  0  0  0  0  0  0  0  0  0  0
  148.7265  136.2990  157.7634 C   0  0  0  0  0  0  0  0  0  0  0  0
  148.0550  131.4220  154.3615 C   0  0  0  0  0  0  0  0  0  0  0  0
  147.3862  130.3423  153.9862 N   0  0  0  0  0  0  0  0  0  0  0  0
  148.0310  127.0822  152.0395 H   0  0  0  0  0  0  0  0  0  0  0  0
  146.8445  127.3897  153.3053 H   0  0  0  0  0  0  0  0  0  0  0  0
  148.1841  128.5106  153.0591 H   0  0  0  0  0  0  0  0  0  0  0  0
  147.2712  129.0938  150.7903 H   0  0  0  0  0  0  0  0  0  0  0  0
  145.9436  127.9836  151.0312 H   0  0  0  0  0  0  0  0  0  0  0  0
  145.2079  130.3113  151.4952 H   0  0  0  0  0  0  0  0  0  0  0  0
  145.1159  129.3547  152.9607 H   0  0  0  0  0  0  0  0  0  0  0  0
  146.3872  132.5344  151.7511 H   0  0  0  0  0  0  0  0  0  0  0  0
  148.3061  134.3993  152.8293 H   0  0  0  0  0  0  0  0  0  0  0  0
  149.1980  135.9807  153.6003 H   0  0  0  0  0  0  0  0  0  0  0  0
  150.7047  135.9142  156.0808 H   0  0  0  0  0  0  0  0  0  0  0  0
  151.6033  137.4232  154.4670 H   0  0  0  0  0  0  0  0  0  0  0  0
  150.0069  138.0314  154.0504 H   0  0  0  0  0  0  0  0  0  0  0  0
  152.8359  138.7993  156.2331 H   0  0  0  0  0  0  0  0  0  0  0  0
  152.0851  137.5678  157.2427 H   0  0  0  0  0  0  0  0  0  0  0  0
  151.9478  139.2646  157.6800 H   0  0  0  0  0  0  0  0  0  0  0  0
  151.2634  140.4188  154.8221 H   0  0  0  0  0  0  0  0  0  0  0  0
  150.4551  140.8358  156.3310 H   0  0  0  0  0  0  0  0  0  0  0  0
  149.5184  140.2290  154.9726 H   0  0  0  0  0  0  0  0  0  0  0  0
  147.0223  136.6345  155.5652 H   0  0  0  0  0  0  0  0  0  0  0  0
  147.7349  138.1269  154.9572 H   0  0  0  0  0  0  0  0  0  0  0  0
  146.9866  138.0907  156.5457 H   0  0  0  0  0  0  0  0  0  0  0  0
  148.2424  135.3492  157.5361 H   0  0  0  0  0  0  0  0  0  0  0  0
  148.0949  136.8303  158.4758 H   0  0  0  0  0  0  0  0  0  0  0  0
  149.6710  136.0805  158.2626 H   0  0  0  0  0  0  0  0  0  0  0  0
  148.7103  131.3703  155.2184 H   0  0  0  0  0  0  0  0  0  0  0  0
  1  2  1  0  0  0  0
  1 22  1  0  0  0  0
  1 23  1  0  0  0  0
  1 24  1  0  0  0  0
  2  3  1  0  0  0  0
  2 25  1  0  0  0  0
  2 26  1  0  0  0  0
  3  4  1  0  0  0  0
  3 27  1  0  0  0  0
  3 28  1  0  0  0  0
  4 21  1  0  0  0  0
  4  5  1  0  0  0  0
  5  6  2  0  0  0  0
  5 29  1  0  0  0  0
  6  7  1  0  0  0  0
  6 20  1  0  0  0  0
  7  8  1  0  0  0  0
  7 30  1  0  0  0  0
  8  9  2  0  0  0  0
  8 10  1  0  0  0  0
 10 11  1  0  0  0  0
 10 31  1  0  0  0  0
 11 17  1  0  0  0  0
 11 12  1  0  0  0  0
 11 32  1  0  0  0  0
 12 13  1  0  0  0  0
 12 33  1  0  0  0  0
 12 34  1  0  0  0  0
 13 14  1  0  0  0  0
 13 15  1  0  0  0  0
 13 16  1  0  0  0  0
 14 35  1  0  0  0  0
 14 36  1  0  0  0  0
 14 37  1  0  0  0  0
 15 38  1  0  0  0  0
 15 39  1  0  0  0  0
 15 40  1  0  0  0  0
 16 17  1  0  0  0  0
 17 18  1  0  0  0  0
 17 19  1  0  0  0  0
 18 41  1  0  0  0  0
 18 42  1  0  0  0  0
 18 43  1  0  0  0  0
 19 44  1  0  0  0  0
 19 45  1  0  0  0  0
 19 46  1  0  0  0  0
 20 21  2  0  0  0  0
 20 47  1  0  0  0  0
M  END
> <s_m_source_file>
AV-unprocessed.smi

> <i_m_source_file_index>
2463

> <i_lp_mmshare_version>
43012

> <i_f3d_flags>
0

> <s_epik_input>
W0NIM11bQ0gyXVtDSDJdbjFbY0hdYyhbY0hdbjEpW05IXUMoPU8pW05IXVtDQEBIXShDKE8yKShbQ0gzXSlbQ0gzXSlbQ0gyXUMyKFtDSDNdKVtDSDNd

> <s_epik_cmdline>
J2VwaWtfcHl0aG9uJywgJy1waCcsICc3LjAnLCAnLXRuJywgJzgnLCAnLW1hJywgJzIwMCcsICctbWV0YWxfYmluZGluZycsICctaW1hZScsICc8aW5maWxlLm1hZT4nLCAnLW9tYWUnLCAnPG91dGZpbGUubWFlPic=

> <r_lp_tautomer_probability>
1

> <r_epik_Ionization_Penalty>
3.69628e-05

> <r_epik_Ionization_Penalty_Charging>
0

> <r_epik_Ionization_Penalty_Neutral>
3.69628e-05

> <r_epik_State_Penalty>
-0

> <r_epik_Charging_Adjusted_Penalty>
0

> <i_epik_Tot_Q>
0

> <i_epik_Tot_abs_Q>
0

> <r_epik_Metal_State_Penalty>
-0

> <b_epik_Metal_Only>
0

> <s_lp_Force_Field>
OPLS_2005

> <r_lp_Energy>
21.7925

> <b_lp_Chiralities_Consistent>
1

> <s_lp_Variant>
AV-unprocessed.smi:2463-2

> <Gold.Version>
5.8.1

> <Gold.Id.Protein>
6NUR|6NUR_protein|mol2

> <Gold.PLP.Fitness>
37.1871

> <Gold.PLP.PLP>
-32.4081

> <Gold.PLP.part.hbond>
-2.5673

> <Gold.PLP.part.metal>
0.0000

> <Gold.PLP.part.buried>
-1.2921

> <Gold.PLP.part.nonpolar>
-28.4589

> <Gold.PLP.part.repulsive>
0.1551

> <Gold.PLP.ligand.clash>
0.0000

> <Gold.PLP.ligand.torsion>
0.3458

> <Gold.PLP.Chemscore.Hbond>
1.8160

> <Gold.PLP.Chemscore.CHOScore>
0.0000

> <Gold.PLP.Chemscore.Metal>
0.0000

> <Gold.Chemscore.Hbonds>
donor molecule, donor type, donor heavy atom, donor atom, acceptor molecule, acceptor atom, score
      L1  H     7    30       P1  7948  0.73
      L1  H    10    31       P1  7948  1.00

> <Gold.PLP.Chemscore.Internal.Correction>
0.0226

> <Gold.Rescore>
     Score         DG    S(hbond)    S(metal)    S(lipo)     H(rot)  DE(clash)    DE(int)     intcor
     14.51     -16.14       1.34        0.00      80.93       1.29       0.03       1.59       ----

> <Gold.Chemscore.Fitness>
14.5143

> <Gold.Chemscore.DG>
-16.1361

> <Gold.Chemscore.ZeroCoef>
-5.4800

> <Gold.Chemscore.Hbond>
1.3409

> <Gold.Chemscore.Metal>
0.0000

> <Gold.Chemscore.Lipo>
80.9346

> <Gold.Chemscore.Internal_Hbond>
0.0000

> <Gold.Chemscore.DEClash>
0.0310

> <Gold.Chemscore.DEInternal>
1.5908

> <Gold.Chemscore.Rot>
1.2859

> <Gold.Chemscore.Internal.Correction>
   9.000000E+99

> <Gold.Chemscore.Hbonds>
donor molecule, donor type, donor heavy atom, donor atom, acceptor molecule, acceptor atom, score
      L1  H     7    30       P1  7948  0.21
      L1  H    10    31       P1  7948  0.82

> <Gold.Chemscore.Hbond.Weighted>
-4.4787

> <Gold.Chemscore.Metal.Weighted>
-0.0000

> <Gold.Chemscore.Lipo.Weighted>
-9.4693

> <Gold.Chemscore.Internal_Hbond.Weighted>
0.0000

> <Gold.Chemscore.DEClash.Weighted>
0.0310

> <Gold.Chemscore.DEInternal.Weighted>
1.5908

> <Gold.Chemscore.Rot.Weighted>
3.2919

> <Gold.Chemscore.Internal.Correction.Weighted>
   9.000000E+99

> <Gold.Protein.RotatedTorsions>
[ 6907 6896 6895 6894 ] final  148.58 input  -60.11 | X-H torsion
[ 7974 7965 7964 7962 ] final   86.19 input  175.53 | X-H torsion
[ 8008 7997 7996 7995 ] final  119.85 input   59.86 | X-H torsion
[ 10167 10162 10161 10158 ] final  163.67 input  -65.29 | X-H torsion
[ 10718 10713 10712 10709 ] final  119.34 input   66.30 | X-H torsion
[ 10763 10752 10751 10750 ] final -110.75 input  -60.55 | X-H torsion
[ 11005 11000 10999 10996 ] final  -36.39 input  -57.11 | X-H torsion

> <Gold.Protein.ActiveResidues>
 VAL166  LYS551  ARG553  GLY616  TRP617  ASP618  TYR619  PRO620  LYS621  CYS622 
 ASP623  PHE694  ASN695  SER759  ASP760  ASP761  ALA762  ILE779  LEU786  VAL792 
 PHE793  MET794  SER795  GLU796  ALA797  LYS798  CYS799  TRP800  GLU811  SER814 

> <Gold.Protein.RotatedAtoms>
  152.1396  133.4456  159.4759 H   0  0  0  0  0  0  0  0  0  0  0  0  # atno 6907 bound_to 6896
  150.6885  134.2322  159.4448 H   0  0  0  0  0  0  0  0  0  0  0  0  # atno 6908 bound_to 6896
  152.0212  134.9821  160.0621 H   0  0  0  0  0  0  0  0  0  0  0  0  # atno 6909 bound_to 6896
  145.5755  139.2319  143.2382 H   0  0  0  0  0  0  0  0  0  0  0  0  # atno 7974 bound_to 7965
  156.2615  140.2844  156.1056 H   0  0  0  0  0  0  0  0  0  0  0  0  # atno 8008 bound_to 7997
  155.1312  140.0394  157.2793 H   0  0  0  0  0  0  0  0  0  0  0  0  # atno 8009 bound_to 7997
  154.6598  140.2564  155.7127 H   0  0  0  0  0  0  0  0  0  0  0  0  # atno 8010 bound_to 7997
  139.4877  144.4313  151.9067 H   0  0  0  0  0  0  0  0  0  0  0  0  # atno 10167 bound_to 10162
  157.5969  131.1057  150.7882 H   0  0  0  0  0  0  0  0  0  0  0  0  # atno 10718 bound_to 10713
  154.8264  135.4552  154.0933 H   0  0  0  0  0  0  0  0  0  0  0  0  # atno 10763 bound_to 10752
  153.2243  135.6898  153.7969 H   0  0  0  0  0  0  0  0  0  0  0  0  # atno 10764 bound_to 10752
  153.7375  135.3317  155.3274 H   0  0  0  0  0  0  0  0  0  0  0  0  # atno 10765 bound_to 10752
  140.9871  133.7025  156.1784 H   0  0  0  0  0  0  0  0  0  0  0  0  # atno 11005 bound_to 11000
  146.1754  140.6581  142.9214 LP  0  0  0  0  0  0  0  0  0  0  0  0  # atno 17320 bound_to 7965
  144.7418  140.4962  143.6864 LP  0  0  0  0  0  0  0  0  0  0  0  0  # atno 17321 bound_to 7965
  140.3761  144.2794  150.5914 LP  0  0  0  0  0  0  0  0  0  0  0  0  # atno 17342 bound_to 10162
  140.5275  143.2251  151.8291 LP  0  0  0  0  0  0  0  0  0  0  0  0  # atno 17343 bound_to 10162
  156.8290  130.5009  149.5334 LP  0  0  0  0  0  0  0  0  0  0  0  0  # atno 17370 bound_to 10713
  156.1033  130.5985  150.9929 LP  0  0  0  0  0  0  0  0  0  0  0  0  # atno 17371 bound_to 10713
  140.7097  134.4474  157.5582 LP  0  0  0  0  0  0  0  0  0  0  0  0  # atno 17394 bound_to 11000
  139.8975  134.8634  156.2040 LP  0  0  0  0  0  0  0  0  0  0  0  0  # atno 17395 bound_to 11000

$$$$
