AV-unprocessed.smi:910|AV-procd|sdf|4127|dock4
  -GOLD-   22720 2 33D 1   1.00000     0.00000
 Structure written by MMmdl.
 46 47  0  0  0  0  0  0  0  0  1 V2000
  146.0071  134.2337  162.5651 C   0  0  0  0  0  0  0  0  0  0  0  0
  147.0599  134.0979  161.4874 C   0  0  0  0  0  0  0  0  0  0  0  0
  147.6680  135.1861  160.9252 N   0  0  0  0  0  0  0  0  0  0  0  0
  148.5812  134.7339  159.9755 C   0  0  0  0  0  0  0  0  0  0  0  0
  149.4000  135.3450  159.1750 N   0  0  0  0  0  0  0  0  0  0  0  0
  149.4803  136.7301  159.1913 C   0  0  0  0  0  0  0  0  0  0  0  0
  148.7296  137.5359  159.7506 O   0  0  0  0  0  0  0  0  0  0  0  0
  150.5299  137.1380  158.4631 N   0  0  0  0  0  0  0  0  0  0  0  0
  150.9117  138.5263  158.2245 C   0  0  0  0  0  0  0  0  0  0  0  0
  152.4230  138.7372  158.3949 C   0  0  0  0  0  0  0  0  0  0  0  0
  152.7435  140.0701  158.0255 O   0  0  0  0  0  0  0  0  0  0  0  0
  152.1186  141.0695  158.8205 C   0  0  1  0  0  0  0  0  0  0  0  0
  153.1331  141.6207  159.8441 C   0  0  0  0  0  0  0  0  0  0  0  0
  152.5511  142.8015  160.6347 C   0  0  0  0  0  0  0  0  0  0  0  0
  152.0696  143.9115  159.6899 C   0  0  0  0  0  0  0  0  0  0  0  0
  151.0516  143.3695  158.6749 C   0  0  0  0  0  0  0  0  0  0  0  0
  151.6201  142.1823  157.8712 C   0  0  2  0  0  0  0  0  0  0  0  0
  150.5765  141.6516  156.8737 C   0  0  0  0  0  0  0  0  0  0  0  0
  148.4967  133.3643  159.9863 O   0  0  0  0  0  0  0  0  0  0  0  0
  147.5663  133.0085  160.9157 C   0  0  0  0  0  0  0  0  0  0  0  0
  147.2776  131.5401  161.1313 C   0  0  0  0  0  0  0  0  0  0  0  0
  145.0719  133.7789  162.2378 H   0  0  0  0  0  0  0  0  0  0  0  0
  145.8174  135.2822  162.7968 H   0  0  0  0  0  0  0  0  0  0  0  0
  146.3339  133.7333  163.4769 H   0  0  0  0  0  0  0  0  0  0  0  0
  147.4608  136.1391  161.1872 H   0  0  0  0  0  0  0  0  0  0  0  0
  151.1002  136.4299  158.0235 H   0  0  0  0  0  0  0  0  0  0  0  0
  150.5974  138.8321  157.2254 H   0  0  0  0  0  0  0  0  0  0  0  0
  150.3680  139.1581  158.9272 H   0  0  0  0  0  0  0  0  0  0  0  0
  152.7172  138.5457  159.4280 H   0  0  0  0  0  0  0  0  0  0  0  0
  152.9644  138.0293  157.7671 H   0  0  0  0  0  0  0  0  0  0  0  0
  151.2558  140.6551  159.3460 H   0  0  0  0  0  0  0  0  0  0  0  0
  153.4392  140.8390  160.5390 H   0  0  0  0  0  0  0  0  0  0  0  0
  154.0370  141.9425  159.3248 H   0  0  0  0  0  0  0  0  0  0  0  0
  151.7189  142.4564  161.2497 H   0  0  0  0  0  0  0  0  0  0  0  0
  153.3013  143.1960  161.3205 H   0  0  0  0  0  0  0  0  0  0  0  0
  151.6239  144.7229  160.2661 H   0  0  0  0  0  0  0  0  0  0  0  0
  152.9228  144.3390  159.1614 H   0  0  0  0  0  0  0  0  0  0  0  0
  150.1474  143.0592  159.2005 H   0  0  0  0  0  0  0  0  0  0  0  0
  150.7536  144.1700  157.9969 H   0  0  0  0  0  0  0  0  0  0  0  0
  152.4733  142.5459  157.2963 H   0  0  0  0  0  0  0  0  0  0  0  0
  149.7017  141.2535  157.3893 H   0  0  0  0  0  0  0  0  0  0  0  0
  150.9872  140.8535  156.2545 H   0  0  0  0  0  0  0  0  0  0  0  0
  150.2367  142.4418  156.2038 H   0  0  0  0  0  0  0  0  0  0  0  0
  147.1258  131.3325  162.1908 H   0  0  0  0  0  0  0  0  0  0  0  0
  148.1095  130.9317  160.7765 H   0  0  0  0  0  0  0  0  0  0  0  0
  146.3785  131.2494  160.5881 H   0  0  0  0  0  0  0  0  0  0  0  0
  1 22  1  0  0  0  0
  1 23  1  0  0  0  0
  1 24  1  0  0  0  0
  1  2  1  0  0  0  0
  2  3  1  0  0  0  0
  2 20  2  0  0  0  0
  3 25  1  0  0  0  0
  3  4  1  0  0  0  0
  4 19  1  0  0  0  0
  4  5  2  0  0  0  0
  5  6  1  0  0  0  0
  6  8  1  0  0  0  0
  6  7  2  0  0  0  0
  8  9  1  0  0  0  0
  8 26  1  0  0  0  0
  9 10  1  0  0  0  0
  9 27  1  0  0  0  0
  9 28  1  0  0  0  0
 10 11  1  0  0  0  0
 10 29  1  0  0  0  0
 10 30  1  0  0  0  0
 11 12  1  0  0  0  0
 12 17  1  0  0  0  0
 12 13  1  0  0  0  0
 12 31  1  0  0  0  0
 13 14  1  0  0  0  0
 13 32  1  0  0  0  0
 13 33  1  0  0  0  0
 14 15  1  0  0  0  0
 14 34  1  0  0  0  0
 14 35  1  0  0  0  0
 15 16  1  0  0  0  0
 15 36  1  0  0  0  0
 15 37  1  0  0  0  0
 16 17  1  0  0  0  0
 16 38  1  0  0  0  0
 16 39  1  0  0  0  0
 17 18  1  0  0  0  0
 17 40  1  0  0  0  0
 18 41  1  0  0  0  0
 18 42  1  0  0  0  0
 18 43  1  0  0  0  0
 19 20  1  0  0  0  0
 20 21  1  0  0  0  0
 21 44  1  0  0  0  0
 21 45  1  0  0  0  0
 21 46  1  0  0  0  0
M  END
> <s_m_source_file>
AV-unprocessed.smi

> <i_m_source_file_index>
910

> <i_lp_mmshare_version>
43012

> <i_f3d_flags>
0

> <s_epik_input>
W0NIM11jMW5jKG9jMVtDSDNdKVtOSF1DKD1PKVtOSF1bQ0gyXVtDSDJdT1tDQEBIXTJbQ0gyXVtDSDJdW0NIMl1bQ0gyXVtDQEhdMltDSDNd

> <s_epik_cmdline>
J2VwaWtfcHl0aG9uJywgJy1waCcsICc3LjAnLCAnLXRuJywgJzgnLCAnLW1hJywgJzIwMCcsICctbWV0YWxfYmluZGluZycsICctaW1hZScsICc8aW5maWxlLm1hZT4nLCAnLW9tYWUnLCAnPG91dGZpbGUubWFlPic=

> <r_lp_tautomer_probability>
0.107061

> <r_epik_Ionization_Penalty>
0.727192

> <r_epik_Ionization_Penalty_Charging>
0.726719

> <r_epik_Ionization_Penalty_Neutral>
0.000473387

> <r_epik_State_Penalty>
2.53712

> <r_epik_Charging_Adjusted_Penalty>
3.26383

> <i_epik_Tot_Q>
0

> <i_epik_Tot_abs_Q>
0

> <r_epik_Metal_State_Penalty>
3.71015

> <b_epik_Metal_Only>
0

> <s_lp_Force_Field>
OPLS_2005

> <r_lp_Energy>
31.2477

> <b_lp_Chiralities_Consistent>
1

> <s_lp_Variant>
AV-unprocessed.smi:910-12

> <Gold.Version>
5.8.1

> <Gold.Id.Protein>
6NUR|6NUR_protein|mol2

> <Gold.PLP.Fitness>
42.5390

> <Gold.PLP.PLP>
-36.8115

> <Gold.PLP.part.hbond>
-4.0000

> <Gold.PLP.part.metal>
0.0000

> <Gold.PLP.part.buried>
-3.1838

> <Gold.PLP.part.nonpolar>
-30.1888

> <Gold.PLP.part.repulsive>
0.2367

> <Gold.PLP.ligand.clash>
0.0000

> <Gold.PLP.ligand.torsion>
0.7285

> <Gold.PLP.Chemscore.Hbond>
2.3916

> <Gold.PLP.Chemscore.CHOScore>
0.0000

> <Gold.PLP.Chemscore.Metal>
0.0000

> <Gold.Chemscore.Hbonds>
donor molecule, donor type, donor heavy atom, donor atom, acceptor molecule, acceptor atom, score
      P1  H  6896  6907       L1     5  1.00
      P1  H  6931  6943       L1     7  0.14
      P1  H  6934  6947       L1     7  0.01
      P1  H  7997  8008       L1    11  0.86

> <Gold.PLP.Chemscore.Internal.Correction>
0.0098

> <Gold.Rescore>
     Score         DG    S(hbond)    S(metal)    S(lipo)     H(rot)  DE(clash)    DE(int)     intcor
     16.46     -19.30       1.78        0.00     103.61       1.66       0.70       2.14       ----

> <Gold.Chemscore.Fitness>
16.4639

> <Gold.Chemscore.DG>
-19.2968

> <Gold.Chemscore.ZeroCoef>
-5.4800

> <Gold.Chemscore.Hbond>
1.7777

> <Gold.Chemscore.Metal>
0.0000

> <Gold.Chemscore.Lipo>
103.6134

> <Gold.Chemscore.Internal_Hbond>
0.0000

> <Gold.Chemscore.DEClash>
0.6969

> <Gold.Chemscore.DEInternal>
2.1361

> <Gold.Chemscore.Rot>
1.6576

> <Gold.Chemscore.Internal.Correction>
   9.000000E+99

> <Gold.Chemscore.Hbonds>
donor molecule, donor type, donor heavy atom, donor atom, acceptor molecule, acceptor atom, score
      P1  H  6896  6907       L1     5  0.17
      P1  H  6931  6943       L1     7  0.14
      P1  H  6934  6947       L1     7  0.03
      P1  H  7997  8008       L1    11  0.57

> <Gold.Chemscore.Hbond.Weighted>
-5.9376

> <Gold.Chemscore.Metal.Weighted>
-0.0000

> <Gold.Chemscore.Lipo.Weighted>
-12.1228

> <Gold.Chemscore.Internal_Hbond.Weighted>
0.0000

> <Gold.Chemscore.DEClash.Weighted>
0.6969

> <Gold.Chemscore.DEInternal.Weighted>
2.1361

> <Gold.Chemscore.Rot.Weighted>
4.2436

> <Gold.Chemscore.Internal.Correction.Weighted>
   9.000000E+99

> <Gold.Protein.RotatedTorsions>
[ 6907 6896 6895 6894 ] final  -53.85 input  -60.11 | X-H torsion
[ 7974 7965 7964 7962 ] final   28.31 input  175.53 | X-H torsion
[ 8008 7997 7996 7995 ] final  -81.83 input   59.86 | X-H torsion
[ 10167 10162 10161 10158 ] final   80.38 input  -65.29 | X-H torsion
[ 10718 10713 10712 10709 ] final  -10.97 input   66.30 | X-H torsion
[ 10763 10752 10751 10750 ] final   -4.51 input  -60.55 | X-H torsion
[ 11005 11000 10999 10996 ] final  152.50 input  -57.11 | X-H torsion

> <Gold.Protein.ActiveResidues>
 VAL166  LYS551  ARG553  GLY616  TRP617  ASP618  TYR619  PRO620  LYS621  CYS622 
 ASP623  PHE694  ASN695  SER759  ASP760  ASP761  ALA762  ILE779  LEU786  VAL792 
 PHE793  MET794  SER795  GLU796  ALA797  LYS798  CYS799  TRP800  GLU811  SER814 

> <Gold.Protein.RotatedAtoms>
  150.8390  134.7675  159.6916 H   0  0  0  0  0  0  0  0  0  0  0  0  # atno 6907 bound_to 6896
  152.4481  134.5448  159.9859 H   0  0  0  0  0  0  0  0  0  0  0  0  # atno 6908 bound_to 6896
  151.5592  133.3368  159.3003 H   0  0  0  0  0  0  0  0  0  0  0  0  # atno 6909 bound_to 6896
  146.1736  139.7073  142.8950 H   0  0  0  0  0  0  0  0  0  0  0  0  # atno 7974 bound_to 7965
  154.6024  140.0642  156.9385 H   0  0  0  0  0  0  0  0  0  0  0  0  # atno 8008 bound_to 7997
  155.2111  140.3322  155.4310 H   0  0  0  0  0  0  0  0  0  0  0  0  # atno 8009 bound_to 7997
  156.2326  140.1848  156.7186 H   0  0  0  0  0  0  0  0  0  0  0  0  # atno 8010 bound_to 7997
  139.9503  144.6030  150.8167 H   0  0  0  0  0  0  0  0  0  0  0  0  # atno 10167 bound_to 10162
  156.6658  130.4995  149.6016 H   0  0  0  0  0  0  0  0  0  0  0  0  # atno 10718 bound_to 10713
  153.3858  135.7000  153.6531 H   0  0  0  0  0  0  0  0  0  0  0  0  # atno 10763 bound_to 10752
  153.5124  135.3629  155.2593 H   0  0  0  0  0  0  0  0  0  0  0  0  # atno 10764 bound_to 10752
  154.8697  135.4138  154.3165 H   0  0  0  0  0  0  0  0  0  0  0  0  # atno 10765 bound_to 10752
  140.1313  134.8800  157.2207 H   0  0  0  0  0  0  0  0  0  0  0  0  # atno 11005 bound_to 11000
  145.4273  141.0412  143.2930 LP  0  0  0  0  0  0  0  0  0  0  0  0  # atno 17320 bound_to 7965
  144.8201  139.5807  143.6991 LP  0  0  0  0  0  0  0  0  0  0  0  0  # atno 17321 bound_to 7965
  140.7585  143.3108  151.2850 LP  0  0  0  0  0  0  0  0  0  0  0  0  # atno 17342 bound_to 10162
  139.6633  144.0149  152.2707 LP  0  0  0  0  0  0  0  0  0  0  0  0  # atno 17343 bound_to 10162
  156.1976  130.6599  151.1131 LP  0  0  0  0  0  0  0  0  0  0  0  0  # atno 17370 bound_to 10713
  157.7094  131.0741  150.6554 LP  0  0  0  0  0  0  0  0  0  0  0  0  # atno 17371 bound_to 10713
  140.2839  134.3318  155.7335 LP  0  0  0  0  0  0  0  0  0  0  0  0  # atno 17394 bound_to 11000
  141.2170  133.7494  156.9404 LP  0  0  0  0  0  0  0  0  0  0  0  0  # atno 17395 bound_to 11000

$$$$
