AV-unprocessed.smi:2985|AV-procd|sdf|11379|dock6
  -GOLD-   2272016303D 1   1.00000     0.00000
 Structure written by MMmdl.
 33 34  0  0  0  0  0  0  0  0  1 V2000
  153.4922  138.0108  157.5385 C   0  0  0  0  0  0  0  0  0  0  0  0
  153.7467  139.3905  157.7358 O   0  0  0  0  0  0  0  0  0  0  0  0
  153.5238  139.7962  159.0750 C   0  0  0  0  0  0  0  0  0  0  0  0
  152.0615  140.2344  159.2253 C   0  0  0  0  0  0  0  0  0  0  0  0
  151.8548  141.5828  158.7225 N   0  0  0  0  0  0  0  0  0  0  0  0
  151.5832  141.9613  157.4502 C   0  0  0  0  0  0  0  0  0  0  0  0
  151.4254  140.7864  156.1464 S   0  0  0  0  0  0  0  0  0  0  0  0
  149.7231  141.1827  155.6556 C   0  0  0  0  0  0  0  0  0  0  0  0
  149.5567  141.2860  154.1416 C   0  0  0  0  0  0  0  0  0  0  0  0
  149.7883  140.1814  153.4270 N   0  0  0  0  0  0  0  0  0  0  0  0
  149.2340  142.3509  153.6202 O   0  0  0  0  0  0  0  0  0  0  0  0
  151.4523  143.2733  157.2529 N   0  0  0  0  0  0  0  0  0  0  0  0
  151.6611  143.7940  158.5152 C   0  0  0  0  0  0  0  0  0  0  0  0
  151.6583  145.1324  158.9689 C   0  0  0  0  0  0  0  0  0  0  0  0
  151.9074  145.4264  160.3256 C   0  0  0  0  0  0  0  0  0  0  0  0
  152.1632  144.3890  161.2457 C   0  0  0  0  0  0  0  0  0  0  0  0
  152.1699  143.0484  160.8146 C   0  0  0  0  0  0  0  0  0  0  0  0
  151.9187  142.7605  159.4597 C   0  0  0  0  0  0  0  0  0  0  0  0
  153.6732  137.7498  156.4960 H   0  0  0  0  0  0  0  0  0  0  0  0
  152.4559  137.7632  157.7723 H   0  0  0  0  0  0  0  0  0  0  0  0
  154.1471  137.3968  158.1580 H   0  0  0  0  0  0  0  0  0  0  0  0
  153.7402  138.9719  159.7568 H   0  0  0  0  0  0  0  0  0  0  0  0
  154.1936  140.6192  159.3299 H   0  0  0  0  0  0  0  0  0  0  0  0
  151.3977  139.5496  158.6971 H   0  0  0  0  0  0  0  0  0  0  0  0
  151.7656  140.2007  160.2742 H   0  0  0  0  0  0  0  0  0  0  0  0
  149.0494  140.4212  156.0506 H   0  0  0  0  0  0  0  0  0  0  0  0
  149.4330  142.1326  156.1068 H   0  0  0  0  0  0  0  0  0  0  0  0
  149.7030  140.2046  152.4211 H   0  0  0  0  0  0  0  0  0  0  0  0
  150.0602  139.3295  153.8958 H   0  0  0  0  0  0  0  0  0  0  0  0
  151.4651  145.9343  158.2716 H   0  0  0  0  0  0  0  0  0  0  0  0
  151.9036  146.4530  160.6614 H   0  0  0  0  0  0  0  0  0  0  0  0
  152.3546  144.6229  162.2828 H   0  0  0  0  0  0  0  0  0  0  0  0
  152.3672  142.2527  161.5173 H   0  0  0  0  0  0  0  0  0  0  0  0
  1  2  1  0  0  0  0
  1 19  1  0  0  0  0
  1 20  1  0  0  0  0
  1 21  1  0  0  0  0
  2  3  1  0  0  0  0
  3  4  1  0  0  0  0
  3 22  1  0  0  0  0
  3 23  1  0  0  0  0
  4  5  1  0  0  0  0
  4 24  1  0  0  0  0
  4 25  1  0  0  0  0
  5 18  1  0  0  0  0
  5  6  1  0  0  0  0
  6  7  1  0  0  0  0
  6 12  2  0  0  0  0
  7  8  1  0  0  0  0
  8  9  1  0  0  0  0
  8 26  1  0  0  0  0
  8 27  1  0  0  0  0
  9 10  1  0  0  0  0
  9 11  2  0  0  0  0
 10 28  1  0  0  0  0
 10 29  1  0  0  0  0
 12 13  1  0  0  0  0
 13 18  2  0  0  0  0
 13 14  1  0  0  0  0
 14 15  2  0  0  0  0
 14 30  1  0  0  0  0
 15 16  1  0  0  0  0
 15 31  1  0  0  0  0
 16 17  2  0  0  0  0
 16 32  1  0  0  0  0
 17 18  1  0  0  0  0
 17 33  1  0  0  0  0
M  END
> <s_m_source_file>
AV-unprocessed.smi

> <i_m_source_file_index>
2985

> <i_lp_mmshare_version>
43012

> <i_f3d_flags>
0

> <s_epik_input>
W2NIXTFbY0hdW2NIXVtjSF1jKGMxMiluKFtDSDJdW0NIMl1PW0NIM10pYyhuMilTW0NIMl1DKD1PKVtOSDJd

> <s_epik_cmdline>
J2VwaWtfcHl0aG9uJywgJy1waCcsICc3LjAnLCAnLXRuJywgJzgnLCAnLW1hJywgJzIwMCcsICctbWV0YWxfYmluZGluZycsICctaW1hZScsICc8aW5maWxlLm1hZT4nLCAnLW9tYWUnLCAnPG91dGZpbGUubWFlPic=

> <r_epik_Ionization_Penalty>
0.0273334

> <r_epik_Ionization_Penalty_Charging>
0

> <r_epik_Ionization_Penalty_Neutral>
0.0273334

> <r_epik_State_Penalty>
0.0223655

> <r_epik_Charging_Adjusted_Penalty>
0.0223655

> <i_epik_Tot_Q>
0

> <i_epik_Tot_abs_Q>
0

> <r_epik_Metal_State_Penalty>
0.0213644

> <b_epik_Metal_Only>
0

> <s_lp_Force_Field>
OPLS_2005

> <r_lp_Energy>
5.41897

> <b_lp_Chiralities_Consistent>
1

> <s_lp_Variant>
AV-unprocessed.smi:2985-1

> <Gold.Version>
5.8.1

> <Gold.Id.Protein>
6NUR|6NUR_protein|mol2

> <Gold.PLP.Fitness>
46.5007

> <Gold.PLP.PLP>
-40.4029

> <Gold.PLP.part.hbond>
-3.6618

> <Gold.PLP.part.metal>
0.0000

> <Gold.PLP.part.buried>
-4.2738

> <Gold.PLP.part.nonpolar>
-31.8435

> <Gold.PLP.part.repulsive>
0.4794

> <Gold.PLP.ligand.clash>
0.0000

> <Gold.PLP.ligand.torsion>
0.9736

> <Gold.PLP.Chemscore.Hbond>
2.6720

> <Gold.PLP.Chemscore.CHOScore>
0.0000

> <Gold.PLP.Chemscore.Metal>
0.0000

> <Gold.Chemscore.Hbonds>
donor molecule, donor type, donor heavy atom, donor atom, acceptor molecule, acceptor atom, score
      L1  H    10    28       P1  7957  0.36
      P1  H  7997  8008       L1     2  0.57
      P1  H  8011  8017       L1    11  0.16

> <Gold.PLP.Chemscore.Internal.Correction>
0.0290

> <Gold.Rescore>
     Score         DG    S(hbond)    S(metal)    S(lipo)     H(rot)  DE(clash)    DE(int)     intcor
     17.34     -18.53       2.60        0.00      95.89       2.68       0.06       1.13       ----

> <Gold.Chemscore.Fitness>
17.3392

> <Gold.Chemscore.DG>
-18.5285

> <Gold.Chemscore.ZeroCoef>
-5.4800

> <Gold.Chemscore.Hbond>
2.6030

> <Gold.Chemscore.Metal>
0.0000

> <Gold.Chemscore.Lipo>
95.8861

> <Gold.Chemscore.Internal_Hbond>
0.0000

> <Gold.Chemscore.DEClash>
0.0557

> <Gold.Chemscore.DEInternal>
1.1336

> <Gold.Chemscore.Rot>
2.6814

> <Gold.Chemscore.Internal.Correction>
   9.000000E+99

> <Gold.Chemscore.Hbonds>
donor molecule, donor type, donor heavy atom, donor atom, acceptor molecule, acceptor atom, score
      L1  H    10    28       P1  7957  0.35
      P1  H  7997  8008       L1     2  0.39
      P1  H  8011  8017       L1    11  0.12
      P1  H  8022  8030       L1    11  0.02

> <Gold.Chemscore.Hbond.Weighted>
-8.6942

> <Gold.Chemscore.Metal.Weighted>
-0.0000

> <Gold.Chemscore.Lipo.Weighted>
-11.2187

> <Gold.Chemscore.Internal_Hbond.Weighted>
0.0000

> <Gold.Chemscore.DEClash.Weighted>
0.0557

> <Gold.Chemscore.DEInternal.Weighted>
1.1336

> <Gold.Chemscore.Rot.Weighted>
6.8644

> <Gold.Chemscore.Internal.Correction.Weighted>
   9.000000E+99

> <Gold.Protein.RotatedTorsions>
[ 6907 6896 6895 6894 ] final -133.84 input  -60.11 | X-H torsion
[ 7974 7965 7964 7962 ] final  167.93 input  175.53 | X-H torsion
[ 8008 7997 7996 7995 ] final -111.19 input   59.86 | X-H torsion
[ 10167 10162 10161 10158 ] final  139.68 input  -65.29 | X-H torsion
[ 10718 10713 10712 10709 ] final  179.61 input   66.30 | X-H torsion
[ 10763 10752 10751 10750 ] final  166.62 input  -60.55 | X-H torsion
[ 11005 11000 10999 10996 ] final   94.54 input  -57.11 | X-H torsion

> <Gold.Protein.ActiveResidues>
 VAL166  LYS551  ARG553  GLY616  TRP617  ASP618  TYR619  PRO620  LYS621  CYS622 
 ASP623  PHE694  ASN695  SER759  ASP760  ASP761  ALA762  ILE779  LEU786  VAL792 
 PHE793  MET794  SER795  GLU796  ALA797  LYS798  CYS799  TRP800  GLU811  SER814 

> <Gold.Protein.RotatedAtoms>
  150.9788  133.6267  159.2725 H   0  0  0  0  0  0  0  0  0  0  0  0  # atno 6907 bound_to 6896
  151.3529  135.0887  159.9419 H   0  0  0  0  0  0  0  0  0  0  0  0  # atno 6908 bound_to 6896
  152.5208  133.9377  159.7666 H   0  0  0  0  0  0  0  0  0  0  0  0  # atno 6909 bound_to 6896
  144.7407  139.8832  143.6398 H   0  0  0  0  0  0  0  0  0  0  0  0  # atno 7974 bound_to 7965
  154.9860  140.0395  157.2298 H   0  0  0  0  0  0  0  0  0  0  0  0  # atno 8008 bound_to 7997
  154.7671  140.2795  155.6144 H   0  0  0  0  0  0  0  0  0  0  0  0  # atno 8009 bound_to 7997
  156.2914  140.2617  156.2465 H   0  0  0  0  0  0  0  0  0  0  0  0  # atno 8010 bound_to 7997
  139.5071  144.6280  151.5889 H   0  0  0  0  0  0  0  0  0  0  0  0  # atno 10167 bound_to 10162
  156.8732  130.9791  151.3071 H   0  0  0  0  0  0  0  0  0  0  0  0  # atno 10718 bound_to 10713
  154.3417  135.2754  155.2419 H   0  0  0  0  0  0  0  0  0  0  0  0  # atno 10763 bound_to 10752
  154.4686  135.5888  153.6309 H   0  0  0  0  0  0  0  0  0  0  0  0  # atno 10764 bound_to 10752
  152.9857  135.6082  154.3619 H   0  0  0  0  0  0  0  0  0  0  0  0  # atno 10765 bound_to 10752
  139.8797  134.8851  156.3880 H   0  0  0  0  0  0  0  0  0  0  0  0  # atno 11005 bound_to 11000
  146.1196  139.4212  143.0237 LP  0  0  0  0  0  0  0  0  0  0  0  0  # atno 17320 bound_to 7965
  145.7324  141.0037  143.1344 LP  0  0  0  0  0  0  0  0  0  0  0  0  # atno 17321 bound_to 7965
  140.6003  143.9622  150.6382 LP  0  0  0  0  0  0  0  0  0  0  0  0  # atno 17342 bound_to 10162
  140.2831  143.3375  152.1132 LP  0  0  0  0  0  0  0  0  0  0  0  0  # atno 17343 bound_to 10162
  157.6183  130.8635  149.9066 LP  0  0  0  0  0  0  0  0  0  0  0  0  # atno 17370 bound_to 10713
  156.0715  130.3684  150.0765 LP  0  0  0  0  0  0  0  0  0  0  0  0  # atno 17371 bound_to 10713
  140.9353  133.7551  156.0076 LP  0  0  0  0  0  0  0  0  0  0  0  0  # atno 17394 bound_to 11000
  140.8283  134.3208  157.5358 LP  0  0  0  0  0  0  0  0  0  0  0  0  # atno 17395 bound_to 11000

$$$$
