AV-unprocessed.smi:765|AV-procd|sdf|3643|dock2
  -GOLD-   22720 1 43D 1   1.00000     0.00000
 Structure written by MMmdl.
 39 40  0  0  0  0  0  0  0  0  1 V2000
  152.3795  144.9602  158.7315 C   0  0  0  0  0  0  0  0  0  0  0  0
  152.3201  143.6332  159.5012 C   0  0  2  0  0  0  0  0  0  0  0  0
  152.2647  143.8685  161.0215 C   0  0  0  0  0  0  0  0  0  0  0  0
  152.2255  142.5441  161.7970 C   0  0  0  0  0  0  0  0  0  0  0  0
  153.4207  141.6514  161.4239 C   0  0  0  0  0  0  0  0  0  0  0  0
  153.5029  141.3742  159.9022 C   0  0  1  0  0  0  0  0  0  0  0  0
  154.7560  140.6590  159.5934 C   0  0  0  0  0  0  0  0  0  0  0  0
  155.7386  140.0984  159.3498 N   0  0  0  0  0  0  0  0  0  0  0  0
  152.3462  140.5971  159.4452 N   0  0  0  0  0  0  0  0  0  0  0  0
  152.1561  140.0597  158.2284 C   0  0  0  0  0  0  0  0  0  0  0  0
  152.9719  140.1556  157.3112 O   0  0  0  0  0  0  0  0  0  0  0  0
  150.8355  139.3004  158.0305 C   0  0  2  0  0  0  0  0  0  0  0  0
  150.7107  138.0626  158.9387 C   0  0  0  0  0  0  0  0  0  0  0  0
  150.6667  138.9429  156.6280 N   0  0  0  0  0  0  0  0  0  0  0  0
  150.6072  137.6869  156.0553 C   0  0  0  0  0  0  0  0  0  0  0  0
  150.4554  137.8581  154.7093 C   0  0  0  0  0  0  0  0  0  0  0  0
  150.4353  139.2717  154.5489 C   0  0  0  0  0  0  0  0  0  0  0  0
  150.5639  139.9172  155.6967 N   0  0  0  0  0  0  0  0  0  0  0  0
  153.5120  142.7199  159.1409 C   0  0  0  0  0  0  0  0  0  0  0  0
  153.2793  145.5239  158.9801 H   0  0  0  0  0  0  0  0  0  0  0  0
  151.5188  145.5878  158.9642 H   0  0  0  0  0  0  0  0  0  0  0  0
  152.3801  144.7897  157.6546 H   0  0  0  0  0  0  0  0  0  0  0  0
  151.3987  143.1304  159.2051 H   0  0  0  0  0  0  0  0  0  0  0  0
  153.1341  144.4467  161.3377 H   0  0  0  0  0  0  0  0  0  0  0  0
  151.3885  144.4660  161.2753 H   0  0  0  0  0  0  0  0  0  0  0  0
  152.2336  142.7435  162.8690 H   0  0  0  0  0  0  0  0  0  0  0  0
  151.2909  142.0220  161.5893 H   0  0  0  0  0  0  0  0  0  0  0  0
  154.3392  142.1435  161.7468 H   0  0  0  0  0  0  0  0  0  0  0  0
  153.3744  140.7196  161.9879 H   0  0  0  0  0  0  0  0  0  0  0  0
  151.6098  140.4635  160.1232 H   0  0  0  0  0  0  0  0  0  0  0  0
  150.0304  139.9849  158.3051 H   0  0  0  0  0  0  0  0  0  0  0  0
  150.8156  138.3322  159.9903 H   0  0  0  0  0  0  0  0  0  0  0  0
  151.4689  137.3124  158.7108 H   0  0  0  0  0  0  0  0  0  0  0  0
  149.7349  137.5913  158.8187 H   0  0  0  0  0  0  0  0  0  0  0  0
  150.6793  136.7863  156.6478 H   0  0  0  0  0  0  0  0  0  0  0  0
  150.3734  137.0906  153.9540 H   0  0  0  0  0  0  0  0  0  0  0  0
  150.3334  139.8438  153.6385 H   0  0  0  0  0  0  0  0  0  0  0  0
  153.5231  142.5341  158.0656 H   0  0  0  0  0  0  0  0  0  0  0  0
  154.4416  143.2473  159.3616 H   0  0  0  0  0  0  0  0  0  0  0  0
  1  2  1  0  0  0  0
  1 20  1  0  0  0  0
  1 21  1  0  0  0  0
  1 22  1  0  0  0  0
  2 19  1  0  0  0  0
  2  3  1  0  0  0  0
  2 23  1  0  0  0  0
  3  4  1  0  0  0  0
  3 24  1  0  0  0  0
  3 25  1  0  0  0  0
  4  5  1  0  0  0  0
  4 26  1  0  0  0  0
  4 27  1  0  0  0  0
  5  6  1  0  0  0  0
  5 28  1  0  0  0  0
  5 29  1  0  0  0  0
  6  7  1  0  0  0  0
  6  9  1  0  0  0  0
  6 19  1  0  0  0  0
  7  8  3  0  0  0  0
  9 10  1  0  0  0  0
  9 30  1  0  0  0  0
 10 11  2  0  0  0  0
 10 12  1  0  0  0  0
 12 13  1  0  0  0  0
 12 14  1  0  0  0  0
 12 31  1  0  0  0  0
 13 32  1  0  0  0  0
 13 33  1  0  0  0  0
 13 34  1  0  0  0  0
 14 18  1  0  0  0  0
 14 15  1  0  0  0  0
 15 16  2  0  0  0  0
 15 35  1  0  0  0  0
 16 17  1  0  0  0  0
 16 36  1  0  0  0  0
 17 18  2  0  0  0  0
 17 37  1  0  0  0  0
 19 38  1  0  0  0  0
 19 39  1  0  0  0  0
M  END
> <s_m_source_file>
AV-unprocessed.smi

> <i_m_source_file_index>
765

> <i_lp_mmshare_version>
43012

> <i_f3d_flags>
0

> <s_epik_input>
W0NIM11bQ0BASF0oW0NIMl0xKVtDSDJdW0NIMl1bQ0gyXVtDQEBdMShDI04pW05IXUMoPU8pW0NASF0oW0NIM10pbjJbY0hdW2NIXVtjSF1uMg==

> <s_epik_cmdline>
J2VwaWtfcHl0aG9uJywgJy1waCcsICc3LjAnLCAnLXRuJywgJzgnLCAnLW1hJywgJzIwMCcsICctbWV0YWxfYmluZGluZycsICctaW1hZScsICc8aW5maWxlLm1hZT4nLCAnLW9tYWUnLCAnPG91dGZpbGUubWFlPic=

> <r_lp_tautomer_probability>
1

> <r_epik_Ionization_Penalty>
2.71142e-05

> <r_epik_Ionization_Penalty_Charging>
0

> <r_epik_Ionization_Penalty_Neutral>
2.71142e-05

> <r_epik_State_Penalty>
-0

> <r_epik_Charging_Adjusted_Penalty>
0

> <i_epik_Tot_Q>
0

> <i_epik_Tot_abs_Q>
0

> <r_epik_Metal_State_Penalty>
-0

> <b_epik_Metal_Only>
0

> <s_lp_Force_Field>
OPLS_2005

> <r_lp_Energy>
11.1831

> <b_lp_Chiralities_Consistent>
1

> <s_lp_Variant>
AV-unprocessed.smi:765-1

> <Gold.Version>
5.8.1

> <Gold.Id.Protein>
6NUR|6NUR_protein|mol2

> <Gold.PLP.Fitness>
42.9633

> <Gold.PLP.PLP>
-36.1572

> <Gold.PLP.part.hbond>
-1.9029

> <Gold.PLP.part.metal>
0.0000

> <Gold.PLP.part.buried>
0.6717

> <Gold.PLP.part.nonpolar>
-33.1468

> <Gold.PLP.part.repulsive>
0.1592

> <Gold.PLP.ligand.clash>
0.0000

> <Gold.PLP.ligand.torsion>
0.2725

> <Gold.PLP.Chemscore.Hbond>
1.4720

> <Gold.PLP.Chemscore.CHOScore>
0.9560

> <Gold.PLP.Chemscore.Metal>
0.0000

> <Gold.Chemscore.Hbonds>
donor molecule, donor type, donor heavy atom, donor atom, acceptor molecule, acceptor atom, score
      P1  H  7997  8009       L1     8  0.84
      P1  H  7997  8010       L1    11  0.58
      L1  C    17    37       P1  7957  0.87

> <Gold.PLP.Chemscore.Internal.Correction>
0.0673

> <Gold.Rescore>
     Score         DG    S(hbond)    S(metal)    S(lipo)     H(rot)  DE(clash)    DE(int)     intcor
     14.29     -18.35       1.09        0.00     109.90       1.42       1.37       2.69       ----

> <Gold.Chemscore.Fitness>
14.2862

> <Gold.Chemscore.DG>
-18.3475

> <Gold.Chemscore.ZeroCoef>
-5.4800

> <Gold.Chemscore.Hbond>
1.0897

> <Gold.Chemscore.Metal>
0.0000

> <Gold.Chemscore.Lipo>
109.9040

> <Gold.Chemscore.Internal_Hbond>
0.0000

> <Gold.Chemscore.DEClash>
1.3723

> <Gold.Chemscore.DEInternal>
2.6889

> <Gold.Chemscore.Rot>
1.4183

> <Gold.Chemscore.Internal.Correction>
   9.000000E+99

> <Gold.Chemscore.Hbonds>
donor molecule, donor type, donor heavy atom, donor atom, acceptor molecule, acceptor atom, score
      P1  H  7997  8009       L1     8  0.27
      P1  H  7997  8010       L1    11  0.58

> <Gold.Chemscore.Hbond.Weighted>
-3.6396

> <Gold.Chemscore.Metal.Weighted>
-0.0000

> <Gold.Chemscore.Lipo.Weighted>
-12.8588

> <Gold.Chemscore.Internal_Hbond.Weighted>
0.0000

> <Gold.Chemscore.DEClash.Weighted>
1.3723

> <Gold.Chemscore.DEInternal.Weighted>
2.6889

> <Gold.Chemscore.Rot.Weighted>
3.6309

> <Gold.Chemscore.Internal.Correction.Weighted>
   9.000000E+99

> <Gold.Protein.RotatedTorsions>
[ 6907 6896 6895 6894 ] final   27.45 input  -60.11 | X-H torsion
[ 7974 7965 7964 7962 ] final -174.41 input  175.53 | X-H torsion
[ 8008 7997 7996 7995 ] final   83.74 input   59.86 | X-H torsion
[ 10167 10162 10161 10158 ] final   70.15 input  -65.29 | X-H torsion
[ 10718 10713 10712 10709 ] final -176.75 input   66.30 | X-H torsion
[ 10763 10752 10751 10750 ] final -105.39 input  -60.55 | X-H torsion
[ 11005 11000 10999 10996 ] final  -24.95 input  -57.11 | X-H torsion

> <Gold.Protein.ActiveResidues>
 VAL166  LYS551  ARG553  GLY616  TRP617  ASP618  TYR619  PRO620  LYS621  CYS622 
 ASP623  PHE694  ASN695  SER759  ASP760  ASP761  ALA762  ILE779  LEU786  VAL792 
 PHE793  MET794  SER795  GLU796  ALA797  LYS798  CYS799  TRP800  GLU811  SER814 

> <Gold.Protein.RotatedAtoms>
  152.0024  134.9921  160.0565 H   0  0  0  0  0  0  0  0  0  0  0  0  # atno 6907 bound_to 6896
  152.1506  133.4515  159.4820 H   0  0  0  0  0  0  0  0  0  0  0  0  # atno 6908 bound_to 6896
  150.6875  134.2111  159.4403 H   0  0  0  0  0  0  0  0  0  0  0  0  # atno 6909 bound_to 6896
  144.7132  140.1476  143.6387 H   0  0  0  0  0  0  0  0  0  0  0  0  # atno 7974 bound_to 7965
  155.9279  140.3417  155.6225 H   0  0  0  0  0  0  0  0  0  0  0  0  # atno 8008 bound_to 7997
  155.7194  140.0781  157.2356 H   0  0  0  0  0  0  0  0  0  0  0  0  # atno 8009 bound_to 7997
  154.4080  140.1608  156.2372 H   0  0  0  0  0  0  0  0  0  0  0  0  # atno 8010 bound_to 7997
  140.0600  144.5240  150.7301 H   0  0  0  0  0  0  0  0  0  0  0  0  # atno 10167 bound_to 10162
  156.8192  130.9614  151.3112 H   0  0  0  0  0  0  0  0  0  0  0  0  # atno 10718 bound_to 10713
  154.7943  135.4751  154.0125 H   0  0  0  0  0  0  0  0  0  0  0  0  # atno 10763 bound_to 10752
  153.1679  135.6820  153.8656 H   0  0  0  0  0  0  0  0  0  0  0  0  # atno 10764 bound_to 10752
  153.8248  135.3199  155.3391 H   0  0  0  0  0  0  0  0  0  0  0  0  # atno 10765 bound_to 10752
  140.8892  133.7600  156.0400 H   0  0  0  0  0  0  0  0  0  0  0  0  # atno 11005 bound_to 11000
  145.9146  139.2508  143.1417 LP  0  0  0  0  0  0  0  0  0  0  0  0  # atno 17320 bound_to 7965
  145.9682  140.8781  143.0176 LP  0  0  0  0  0  0  0  0  0  0  0  0  # atno 17321 bound_to 7965
  140.7176  143.2559  151.4383 LP  0  0  0  0  0  0  0  0  0  0  0  0  # atno 17342 bound_to 10162
  139.5899  144.1521  152.2076 LP  0  0  0  0  0  0  0  0  0  0  0  0  # atno 17343 bound_to 10162
  157.6465  130.8849  149.9549 LP  0  0  0  0  0  0  0  0  0  0  0  0  # atno 17370 bound_to 10713
  156.0998  130.3656  150.0238 LP  0  0  0  0  0  0  0  0  0  0  0  0  # atno 17371 bound_to 10713
  140.8367  134.3114  157.5329 LP  0  0  0  0  0  0  0  0  0  0  0  0  # atno 17394 bound_to 11000
  139.8728  134.9393  156.3739 LP  0  0  0  0  0  0  0  0  0  0  0  0  # atno 17395 bound_to 11000

$$$$
