#       Name:                AV-unprocessed.smi:1199
#       Creating user name   scv26
#       Creation time:       Fri Mar 27 04:03:06 2020


#       File generated by GOLD software.
#

@<TRIPOS>MOLECULE
AV-unprocessed.smi:1199
    50    51     1
SMALL
NO_CHARGES


@<TRIPOS>ATOM
      1 ****        -1.7271  -0.9608   2.9941 C.3            1 S1                 0.0000
      2 ****        -1.2850  -0.1255   1.7813 C.3            1 S1                 0.0000
      3 ****        -1.7848  -0.7473   0.4588 C.3            1 S1                 0.0000
      4 ****        -2.0541   0.1990  -0.6261 N.3            1 S1                 0.0000
      5 ****        -0.8456   0.8610  -1.1139 C.3            1 S1                 0.0000
      6 ****        -1.1372   1.8153  -2.2844 C.3            1 S1                 0.0000
      7 ****        -1.7923   1.1078  -3.3317 O.3            1 S1                 0.0000
      8 ****        -3.0050   0.4976  -2.9037 C.3            1 S1                 0.0000
      9 ****        -2.7101  -0.4698  -1.7449 C.3            1 S1                 0.0000
     10 ****         0.1715  -0.0421   1.7578 N.am           1 S1                 0.0000
     11 ****         0.9290   0.8336   2.4387 C.2            1 S1                 0.0000
     12 ****         0.4607   1.6500   3.2319 O.2            1 S1                 0.0000
     13 ****         2.4456   0.8134   2.1798 C.3            1 S1                 0.0000
     14 ****         2.8394   0.1199   0.9419 N.am           1 S1                 0.0000
     15 ****         3.2439  -1.2687   1.1425 N.pl3          1 S1                -1.0000
     16 ****         3.5630  -2.0284   0.0612 C.2            1 S1                 0.0000
     17 ****         3.8896  -3.2096   0.1498 O.2            1 S1                 0.0000
     18 ****         3.5140  -1.4055  -1.2511 C.2            1 S1                 0.0000
     19 ****         3.1563  -0.1155  -1.4048 C.2            1 S1                 0.0000
     20 ****         2.7900   0.7311  -0.2763 C.2            1 S1                 0.0000
     21 ****         2.4448   1.9047  -0.4120 O.2            1 S1                 0.0000
     22 ****        -2.8138  -1.0292   3.0484 H              1 S1                 0.0000
     23 ****        -1.3830  -0.5162   3.9284 H              1 S1                 0.0000
     24 ****        -1.3312  -1.9756   2.9425 H              1 S1                 0.0000
     25 ****        -1.7114   0.8741   1.8852 H              1 S1                 0.0000
     26 ****        -1.0947  -1.5230   0.1221 H              1 S1                 0.0000
     27 ****        -2.7178  -1.2686   0.6769 H              1 S1                 0.0000
     28 ****        -0.3830   1.4369  -0.3136 H              1 S1                 0.0000
     29 ****        -0.1152   0.1142  -1.4290 H              1 S1                 0.0000
     30 ****        -1.7590   2.6492  -1.9556 H              1 S1                 0.0000
     31 ****        -0.2080   2.2395  -2.6656 H              1 S1                 0.0000
     32 ****        -3.7189   1.2630  -2.5966 H              1 S1                 0.0000
     33 ****        -3.4497  -0.0384  -3.7421 H              1 S1                 0.0000
     34 ****        -2.0818  -1.2843  -2.1091 H              1 S1                 0.0000
     35 ****        -3.6437  -0.9230  -1.4097 H              1 S1                 0.0000
     36 ****         0.6532  -0.6812   1.1407 H              1 S1                 0.0000
     37 ****         2.8162   1.8398   2.1670 H              1 S1                 0.0000
     38 ****         2.9257   0.3440   3.0401 H              1 S1                 0.0000
     39 ****         3.7728  -1.9893  -2.1220 H              1 S1                 0.0000
     40 ****         3.1348   0.3062  -2.3986 H              1 S1                 0.0000
     41 ****        -2.6560   0.8981  -0.2401 LP             1 S1                 0.0000
     42 ****        -1.1775   0.3957  -3.6707 LP             1 S1                 0.0000
     43 ****        -1.9995   1.7489  -4.0706 LP             1 S1                 0.0000
     44 ****        -0.5257   1.6815   3.3931 LP             1 S1                 0.0000
     45 ****         1.0667   2.2819   3.7152 LP             1 S1                 0.0000
     46 ****         3.2857  -1.6559   2.0636 LP             1 S1                 0.0000
     47 ****         3.9292  -3.6515   1.0460 LP             1 S1                 0.0000
     48 ****         4.1159  -3.7289  -0.6742 LP             1 S1                 0.0000
     49 ****         2.1876   2.4460   0.3886 LP             1 S1                 0.0000
     50 ****         2.4217   2.3170  -1.3227 LP             1 S1                 0.0000
@<TRIPOS>BOND
    1    1    2 1     
    2    1   22 1     
    3    1   23 1     
    4    1   24 1     
    5    2    3 1     
    6    2   10 1     
    7    2   25 1     
    8    3    4 1     
    9    3   26 1     
   10    3   27 1     
   11    4    9 1     
   12    4    5 1     
   13    5    6 1     
   14    5   28 1     
   15    5   29 1     
   16    6    7 1     
   17    6   30 1     
   18    6   31 1     
   19    7    8 1     
   20    8    9 1     
   21    8   32 1     
   22    8   33 1     
   23    9   34 1     
   24    9   35 1     
   25   10   11 am    
   26   10   36 1     
   27   11   12 2     
   28   11   13 1     
   29   13   37 1     
   30   13   38 1     
   31   13   14 1     
   32   14   15 1     
   33   14   20 am    
   34   15   16 1     
   35   16   17 2     
   36   16   18 1     
   37   18   39 1     
   38   18   19 2     
   39   19   40 1     
   40   19   20 1     
   41   20   21 2     
   42    4   41 1     
   43    7   42 1     
   44    7   43 1     
   45   12   44 1     
   46   12   45 1     
   47   15   46 1     
   48   17   47 1     
   49   17   48 1     
   50   21   49 1     
   51   21   50 1     
@<TRIPOS>SUBSTRUCTURE
      1 S1             1
@<TRIPOS>SET
LONE_PAIRS      STATIC     ATOMS    <user>   **** ""
10 41 42 43 44 45 46 47 48 49 50
DONOR_HYDROGENS      STATIC     ATOMS    <user>   **** ""
1 36
ATOM$BLUE        STATIC     ATOMS    COLORGROUP SYSTEM
10 41 42 43 44 45 46 47 48 49 50
ATOM$RED        STATIC     ATOMS    COLORGROUP SYSTEM
1 36
