AV-unprocessed.smi:158|AV-procd|sdf|1328|dock7
  -GOLD-   2262019 23D 1   1.00000     0.00000
 Structure written by MMmdl.
 31 33  0  0  0  0  0  0  0  0  1 V2000
  145.3860  135.3527  150.1693 N   0  0  0  0  0  0  0  0  0  0  0  0
  145.5328  135.9173  151.3760 C   0  0  0  0  0  0  0  0  0  0  0  0
  145.1171  135.2286  152.4647 N   0  0  0  0  0  0  0  0  0  0  0  0
  145.2470  135.7553  153.6890 C   0  0  0  0  0  0  0  0  0  0  0  0
  144.6843  134.7891  155.0017 Cl  0  0  0  0  0  0  0  0  0  0  0  0
  145.7635  136.9471  154.0092 N   0  0  0  0  0  0  0  0  0  0  0  0
  146.1817  137.6427  152.9128 C   0  0  0  0  0  0  0  0  0  0  0  0
  146.1029  137.1996  151.5664 C   0  0  0  0  0  0  0  0  0  0  0  0
  146.6258  138.1674  150.7196 N   0  0  0  0  0  0  0  0  0  0  0  0
  146.9933  139.1270  151.5272 C   0  0  0  0  0  0  0  0  0  0  0  0
  146.7526  138.8951  152.8663 N   0  0  0  0  0  0  0  0  0  0  0  0
  147.0450  139.7608  154.0517 C   0  0  1  0  0  0  0  0  0  0  0  0
  148.1444  139.2283  154.7292 O   0  0  0  0  0  0  0  0  0  0  0  0
  149.3227  139.9400  154.3612 C   0  0  2  0  0  0  0  0  0  0  0  0
  150.4535  139.7144  155.3793 C   0  0  0  0  0  0  0  0  0  0  0  0
  151.6603  140.2553  154.8856 O   0  0  0  0  0  0  0  0  0  0  0  0
  148.8040  141.3790  154.2503 C   0  0  2  0  0  0  0  0  0  0  0  0
  148.6753  141.9669  155.5338 O   0  0  0  0  0  0  0  0  0  0  0  0
  147.4507  141.1683  153.5855 C   0  0  2  0  0  0  0  0  0  0  0  0
  146.5405  142.0777  153.9390 F   0  0  0  0  0  0  0  0  0  0  0  0
  146.1421  139.7220  154.6622 H   0  0  0  0  0  0  0  0  0  0  0  0
  149.6430  139.6154  153.3691 H   0  0  0  0  0  0  0  0  0  0  0  0
  149.4603  142.0051  153.6452 H   0  0  0  0  0  0  0  0  0  0  0  0
  147.5468  141.1954  152.4987 H   0  0  0  0  0  0  0  0  0  0  0  0
  145.6897  135.8480  149.3432 H   0  0  0  0  0  0  0  0  0  0  0  0
  144.9750  134.4339  150.0881 H   0  0  0  0  0  0  0  0  0  0  0  0
  147.4518  140.0337  151.1592 H   0  0  0  0  0  0  0  0  0  0  0  0
  150.2251  140.2263  156.3147 H   0  0  0  0  0  0  0  0  0  0  0  0
  150.5801  138.6557  155.6078 H   0  0  0  0  0  0  0  0  0  0  0  0
  152.3249  140.1658  155.5515 H   0  0  0  0  0  0  0  0  0  0  0  0
  148.4075  142.8670  155.4284 H   0  0  0  0  0  0  0  0  0  0  0  0
  1  2  1  0  0  0  0
  1 25  1  0  0  0  0
  1 26  1  0  0  0  0
  2  8  1  0  0  0  0
  2  3  2  0  0  0  0
  3  4  1  0  0  0  0
  4  5  1  0  0  0  0
  4  6  2  0  0  0  0
  6  7  1  0  0  0  0
  7 11  1  0  0  0  0
  7  8  2  0  0  0  0
  8  9  1  0  0  0  0
  9 10  2  0  0  0  0
 10 11  1  0  0  0  0
 10 27  1  0  0  0  0
 11 12  1  0  0  0  0
 12 21  1  0  0  0  0
 12 19  1  0  0  0  0
 12 13  1  0  0  0  0
 13 14  1  0  0  0  0
 14 22  1  0  0  0  0
 14 15  1  0  0  0  0
 14 17  1  0  0  0  0
 15 16  1  0  0  0  0
 15 28  1  0  0  0  0
 15 29  1  0  0  0  0
 16 30  1  0  0  0  0
 17 23  1  0  0  0  0
 17 18  1  0  0  0  0
 17 19  1  0  0  0  0
 18 31  1  0  0  0  0
 19 24  1  0  0  0  0
 19 20  1  0  0  0  0
M  END
> <s_m_source_file>
AV-unprocessed.smi

> <i_m_source_file_index>
158

> <i_lp_mmshare_version>
43012

> <i_f3d_flags>
0

> <s_epik_input>
Q2xjKG4xKW5jKFtOSDJdKWMoYzEyKW5bY0hdbjJbQ0BASF0zT1tDQEhdKFtDSDJdW09IXSlbQ0BASF0oW09IXSlbQ0BASF0zRg==

> <s_epik_cmdline>
J2VwaWtfcHl0aG9uJywgJy1waCcsICc3LjAnLCAnLXRuJywgJzgnLCAnLW1hJywgJzIwMCcsICctbWV0YWxfYmluZGluZycsICctaW1hZScsICc8aW5maWxlLm1hZT4nLCAnLW9tYWUnLCAnPG91dGZpbGUubWFlPic=

> <r_lp_tautomer_probability>
1

> <r_epik_Ionization_Penalty>
6.51543e-05

> <r_epik_Ionization_Penalty_Charging>
0

> <r_epik_Ionization_Penalty_Neutral>
6.51543e-05

> <r_epik_State_Penalty>
-0

> <r_epik_Charging_Adjusted_Penalty>
0

> <i_epik_Tot_Q>
0

> <i_epik_Tot_abs_Q>
0

> <r_epik_Metal_State_Penalty>
-0

> <b_epik_Metal_Only>
0

> <s_epik_Chemistry_Notes>
This compound contains an acetal/aminal-like group ( X-CH(R)-Y where X, Y are N, S, or O) that may be acid/base labile, releasing an aldehyde.

> <s_lp_Force_Field>
OPLS_2005

> <r_lp_Energy>
37.0626

> <b_lp_Chiralities_Consistent>
1

> <s_lp_Variant>
AV-unprocessed.smi:158-6

> <Gold.Version>
5.8.1

> <Gold.Id.Protein>
6NUR|6NUR_protein|mol2

> <Gold.PLP.Fitness>
42.7011

> <Gold.PLP.PLP>
-30.8860

> <Gold.PLP.part.hbond>
-4.0000

> <Gold.PLP.part.metal>
0.0000

> <Gold.PLP.part.buried>
-0.3577

> <Gold.PLP.part.nonpolar>
-29.0939

> <Gold.PLP.part.repulsive>
2.1145

> <Gold.PLP.ligand.clash>
0.0000

> <Gold.PLP.ligand.torsion>
0.3337

> <Gold.PLP.Chemscore.Hbond>
3.3976

> <Gold.PLP.Chemscore.CHOScore>
0.7569

> <Gold.PLP.Chemscore.Metal>
0.0000

> <Gold.Chemscore.Hbonds>
donor molecule, donor type, donor heavy atom, donor atom, acceptor molecule, acceptor atom, score
      L1  H     1    25       P1  7921  0.43
      L1  H    18    31       P1  8028  0.94
      P1  H  7954  7966       L1     9  1.00
      P1  H  7989  7998       L1    16  0.90
      L1  C    10    27       P1  7957  0.72

> <Gold.PLP.Chemscore.Internal.Correction>
0.0190

> <Gold.Rescore>
     Score         DG    S(hbond)    S(metal)    S(lipo)     H(rot)  DE(clash)    DE(int)     intcor
      8.01     -10.49       2.62        0.00      36.43       3.12       2.12       0.36       ----

> <Gold.Chemscore.Fitness>
8.0089

> <Gold.Chemscore.DG>
-10.4881

> <Gold.Chemscore.ZeroCoef>
-5.4800

> <Gold.Chemscore.Hbond>
2.6168

> <Gold.Chemscore.Metal>
0.0000

> <Gold.Chemscore.Lipo>
36.4348

> <Gold.Chemscore.Internal_Hbond>
0.0000

> <Gold.Chemscore.DEClash>
2.1171

> <Gold.Chemscore.DEInternal>
0.3621

> <Gold.Chemscore.Rot>
3.1230

> <Gold.Chemscore.Internal.Correction>
   9.000000E+99

> <Gold.Chemscore.Hbonds>
donor molecule, donor type, donor heavy atom, donor atom, acceptor molecule, acceptor atom, score
      L1  H     1    25       P1  7921  0.39
      L1  H    18    31       P1  8028  0.91
      P1  H  7954  7966       L1     9  0.24
      P1  H  7989  7998       L1    16  0.80

> <Gold.Chemscore.Hbond.Weighted>
-8.7402

> <Gold.Chemscore.Metal.Weighted>
-0.0000

> <Gold.Chemscore.Lipo.Weighted>
-4.2629

> <Gold.Chemscore.Internal_Hbond.Weighted>
0.0000

> <Gold.Chemscore.DEClash.Weighted>
2.1171

> <Gold.Chemscore.DEInternal.Weighted>
0.3621

> <Gold.Chemscore.Rot.Weighted>
7.9950

> <Gold.Chemscore.Internal.Correction.Weighted>
   9.000000E+99

> <Gold.Protein.RotatedTorsions>
[ 6907 6896 6895 6894 ] final  162.40 input  -60.11 | X-H torsion
[ 7974 7965 7964 7962 ] final -165.83 input  175.53 | X-H torsion
[ 8008 7997 7996 7995 ] final  110.78 input   59.86 | X-H torsion
[ 10167 10162 10161 10158 ] final  157.15 input  -65.29 | X-H torsion
[ 10718 10713 10712 10709 ] final  -51.73 input   66.30 | X-H torsion
[ 10763 10752 10751 10750 ] final  -96.18 input  -60.55 | X-H torsion
[ 11005 11000 10999 10996 ] final  132.61 input  -57.11 | X-H torsion

> <Gold.Protein.ActiveResidues>
 VAL166  LYS551  ARG553  GLY616  TRP617  ASP618  TYR619  PRO620  LYS621  CYS622 
 ASP623  PHE694  ASN695  SER759  ASP760  ASP761  ALA762  ILE779  LEU786  VAL792 
 PHE793  MET794  SER795  GLU796  ALA797  LYS798  CYS799  TRP800  GLU811  SER814 

> <Gold.Protein.RotatedAtoms>
  151.9411  133.3638  159.3965 H   0  0  0  0  0  0  0  0  0  0  0  0  # atno 6907 bound_to 6896
  150.6998  134.4438  159.5314 H   0  0  0  0  0  0  0  0  0  0  0  0  # atno 6908 bound_to 6896
  152.2095  134.8514  160.0549 H   0  0  0  0  0  0  0  0  0  0  0  0  # atno 6909 bound_to 6896
  144.7260  140.2756  143.6244 H   0  0  0  0  0  0  0  0  0  0  0  0  # atno 7974 bound_to 7965
  156.2077  140.3032  155.9664 H   0  0  0  0  0  0  0  0  0  0  0  0  # atno 8008 bound_to 7997
  155.2800  140.0437  157.3031 H   0  0  0  0  0  0  0  0  0  0  0  0  # atno 8009 bound_to 7997
  154.5656  140.2333  155.8276 H   0  0  0  0  0  0  0  0  0  0  0  0  # atno 8010 bound_to 7997
  139.4822  144.4944  151.8261 H   0  0  0  0  0  0  0  0  0  0  0  0  # atno 10167 bound_to 10162
  156.1684  130.4149  149.9685 H   0  0  0  0  0  0  0  0  0  0  0  0  # atno 10718 bound_to 10713
  154.7216  135.5093  153.8821 H   0  0  0  0  0  0  0  0  0  0  0  0  # atno 10763 bound_to 10752
  153.0867  135.6647  153.9943 H   0  0  0  0  0  0  0  0  0  0  0  0  # atno 10764 bound_to 10752
  153.9765  135.3033  155.3403 H   0  0  0  0  0  0  0  0  0  0  0  0  # atno 10765 bound_to 10752
  139.9801  134.9551  156.9607 H   0  0  0  0  0  0  0  0  0  0  0  0  # atno 11005 bound_to 11000
  145.8000  139.1960  143.2054 LP  0  0  0  0  0  0  0  0  0  0  0  0  # atno 17320 bound_to 7965
  146.0685  140.7895  142.9700 LP  0  0  0  0  0  0  0  0  0  0  0  0  # atno 17321 bound_to 7965
  140.4431  144.1959  150.5892 LP  0  0  0  0  0  0  0  0  0  0  0  0  # atno 17342 bound_to 10162
  140.4662  143.2430  151.9151 LP  0  0  0  0  0  0  0  0  0  0  0  0  # atno 17343 bound_to 10162
  156.7493  130.9109  151.3636 LP  0  0  0  0  0  0  0  0  0  0  0  0  # atno 17370 bound_to 10713
  157.6785  130.9117  150.0208 LP  0  0  0  0  0  0  0  0  0  0  0  0  # atno 17371 bound_to 10713
  140.5114  134.0998  155.7271 LP  0  0  0  0  0  0  0  0  0  0  0  0  # atno 17394 bound_to 11000
  141.1474  133.9031  157.2182 LP  0  0  0  0  0  0  0  0  0  0  0  0  # atno 17395 bound_to 11000

$$$$
