AV-unprocessed.smi:36|AV-procd|sdf|285|dock5
  -GOLD-   2262016 63D 1   1.00000     0.00000
 Structure written by MMmdl.
 64 67  0  0  0  0  0  0  0  0  1 V2000
  145.5234  134.5885  162.7558 C   0  0  0  0  0  0  0  0  0  0  0  0
  146.7207  134.4470  161.8015 C   0  0  0  0  0  0  0  0  0  0  0  0
  147.3847  135.8177  161.5884 C   0  0  0  0  0  0  0  0  0  0  0  0
  147.7440  133.4616  162.3904 C   0  0  0  0  0  0  0  0  0  0  0  0
  146.1154  133.7798  160.1164 Si  0  0  0  0  0  0  0  0  0  0  0  0
  145.2799  132.0838  160.3130 C   0  0  0  0  0  0  0  0  0  0  0  0
  144.9038  134.9932  159.2962 C   0  0  0  0  0  0  0  0  0  0  0  0
  147.4668  133.6142  159.1092 O   0  0  0  0  0  0  0  0  0  0  0  0
  147.4000  133.3259  157.7266 C   0  0  0  0  0  0  0  0  0  0  0  0
  148.8075  132.9975  157.1917 C   0  0  2  0  0  0  0  0  0  0  0  0
  149.6902  134.0267  157.6513 O   0  0  0  0  0  0  0  0  0  0  0  0
  150.3469  134.6028  156.5679 C   0  0  2  0  0  0  0  0  0  0  0  0
  150.5941  136.0463  156.8576 N   0  0  0  0  0  0  0  0  0  0  0  0
  150.4350  136.7030  158.0577 C   0  0  0  0  0  0  0  0  0  0  0  0
  150.7095  137.9798  158.0388 N   0  0  0  0  0  0  0  0  0  0  0  0
  151.0791  138.2249  156.7225 C   0  0  0  0  0  0  0  0  0  0  0  0
  151.4878  139.3869  156.0168 C   0  0  0  0  0  0  0  0  0  0  0  0
  151.5730  140.5771  156.6571 N   0  0  0  0  0  0  0  0  0  0  0  0
  151.9715  140.8321  158.0305 C   0  0  0  0  0  0  0  0  0  0  0  0
  152.3451  139.9324  158.7834 O   0  0  0  0  0  0  0  0  0  0  0  0
  151.9809  142.2715  158.4571 C   0  0  0  0  0  0  0  0  0  0  0  0
  151.5444  143.2763  157.5645 C   0  0  0  0  0  0  0  0  0  0  0  0
  151.5621  144.6305  157.9511 C   0  0  0  0  0  0  0  0  0  0  0  0
  152.0246  144.9928  159.2300 C   0  0  0  0  0  0  0  0  0  0  0  0
  152.4730  143.9998  160.1211 C   0  0  0  0  0  0  0  0  0  0  0  0
  152.4551  142.6448  159.7361 C   0  0  0  0  0  0  0  0  0  0  0  0
  151.7785  139.2462  154.6965 N   0  0  0  0  0  0  0  0  0  0  0  0
  151.6733  138.0509  154.1080 C   0  0  0  0  0  0  0  0  0  0  0  0
  151.3039  136.8867  154.6453 N   0  0  0  0  0  0  0  0  0  0  0  0
  151.0115  137.0182  155.9711 C   0  0  0  0  0  0  0  0  0  0  0  0
  149.4315  134.4131  155.3690 C   0  0  0  0  0  0  0  0  0  0  0  0
  148.9416  133.0098  155.6532 C   0  0  2  0  0  0  0  0  0  0  0  0
  147.7536  132.7178  154.9443 O   0  0  0  0  0  0  0  0  0  0  0  0
  145.8351  134.9740  163.7271 H   0  0  0  0  0  0  0  0  0  0  0  0
  145.0355  133.6283  162.9255 H   0  0  0  0  0  0  0  0  0  0  0  0
  144.7742  135.2726  162.3562 H   0  0  0  0  0  0  0  0  0  0  0  0
  146.6809  136.5417  161.1770 H   0  0  0  0  0  0  0  0  0  0  0  0
  148.2255  135.7471  160.8974 H   0  0  0  0  0  0  0  0  0  0  0  0
  147.7631  136.2257  162.5263 H   0  0  0  0  0  0  0  0  0  0  0  0
  148.1289  133.8148  163.3478 H   0  0  0  0  0  0  0  0  0  0  0  0
  148.5953  133.3271  161.7218 H   0  0  0  0  0  0  0  0  0  0  0  0
  147.3006  132.4800  162.5581 H   0  0  0  0  0  0  0  0  0  0  0  0
  144.4035  132.1419  160.9581 H   0  0  0  0  0  0  0  0  0  0  0  0
  145.9573  131.3510  160.7505 H   0  0  0  0  0  0  0  0  0  0  0  0
  144.9486  131.6883  159.3532 H   0  0  0  0  0  0  0  0  0  0  0  0
  144.0150  135.1466  159.9076 H   0  0  0  0  0  0  0  0  0  0  0  0
  144.5686  134.6298  158.3251 H   0  0  0  0  0  0  0  0  0  0  0  0
  145.3610  135.9692  159.1354 H   0  0  0  0  0  0  0  0  0  0  0  0
  146.7242  132.4835  157.5768 H   0  0  0  0  0  0  0  0  0  0  0  0
  146.9677  134.1764  157.2002 H   0  0  0  0  0  0  0  0  0  0  0  0
  149.1363  132.0331  157.5781 H   0  0  0  0  0  0  0  0  0  0  0  0
  151.3318  134.1527  156.4349 H   0  0  0  0  0  0  0  0  0  0  0  0
  150.1057  136.2009  158.9558 H   0  0  0  0  0  0  0  0  0  0  0  0
  151.3218  141.3897  156.1131 H   0  0  0  0  0  0  0  0  0  0  0  0
  151.1872  143.0149  156.5787 H   0  0  0  0  0  0  0  0  0  0  0  0
  151.2216  145.3917  157.2646 H   0  0  0  0  0  0  0  0  0  0  0  0
  152.0388  146.0314  159.5257 H   0  0  0  0  0  0  0  0  0  0  0  0
  152.8340  144.2774  161.1004 H   0  0  0  0  0  0  0  0  0  0  0  0
  152.8121  141.8997  160.4320 H   0  0  0  0  0  0  0  0  0  0  0  0
  151.9189  138.0239  153.0566 H   0  0  0  0  0  0  0  0  0  0  0  0
  148.6135  135.1342  155.4020 H   0  0  0  0  0  0  0  0  0  0  0  0
  149.9747  134.5157  154.4292 H   0  0  0  0  0  0  0  0  0  0  0  0
  149.7110  132.2966  155.3531 H   0  0  0  0  0  0  0  0  0  0  0  0
  147.8017  131.8279  154.6298 H   0  0  0  0  0  0  0  0  0  0  0  0
  1  2  1  0  0  0  0
  1 34  1  0  0  0  0
  1 35  1  0  0  0  0
  1 36  1  0  0  0  0
  2  3  1  0  0  0  0
  2  4  1  0  0  0  0
  2  5  1  0  0  0  0
  3 37  1  0  0  0  0
  3 38  1  0  0  0  0
  3 39  1  0  0  0  0
  4 40  1  0  0  0  0
  4 41  1  0  0  0  0
  4 42  1  0  0  0  0
  5  6  1  0  0  0  0
  5  7  1  0  0  0  0
  5  8  1  0  0  0  0
  6 43  1  0  0  0  0
  6 44  1  0  0  0  0
  6 45  1  0  0  0  0
  7 46  1  0  0  0  0
  7 47  1  0  0  0  0
  7 48  1  0  0  0  0
  8  9  1  0  0  0  0
  9 10  1  0  0  0  0
  9 49  1  0  0  0  0
  9 50  1  0  0  0  0
 10 32  1  0  0  0  0
 10 11  1  0  0  0  0
 10 51  1  0  0  0  0
 11 12  1  0  0  0  0
 12 13  1  0  0  0  0
 12 31  1  0  0  0  0
 12 52  1  0  0  0  0
 13 30  1  0  0  0  0
 13 14  1  0  0  0  0
 14 15  2  0  0  0  0
 14 53  1  0  0  0  0
 15 16  1  0  0  0  0
 16 30  2  0  0  0  0
 16 17  1  0  0  0  0
 17 18  1  0  0  0  0
 17 27  2  0  0  0  0
 18 19  1  0  0  0  0
 18 54  1  0  0  0  0
 19 20  2  0  0  0  0
 19 21  1  0  0  0  0
 21 26  1  0  0  0  0
 21 22  2  0  0  0  0
 22 23  1  0  0  0  0
 22 55  1  0  0  0  0
 23 24  2  0  0  0  0
 23 56  1  0  0  0  0
 24 25  1  0  0  0  0
 24 57  1  0  0  0  0
 25 26  2  0  0  0  0
 25 58  1  0  0  0  0
 26 59  1  0  0  0  0
 27 28  1  0  0  0  0
 28 29  2  0  0  0  0
 28 60  1  0  0  0  0
 29 30  1  0  0  0  0
 31 32  1  0  0  0  0
 31 61  1  0  0  0  0
 31 62  1  0  0  0  0
 32 33  1  0  0  0  0
 32 63  1  0  0  0  0
 33 64  1  0  0  0  0
M  END
> <s_m_source_file>
AV-unprocessed.smi

> <i_m_source_file_index>
36

> <i_lp_mmshare_version>
43012

> <i_f3d_flags>
0

> <s_epik_input>
W0NIM11DKFtDSDNdKShbQ0gzXSlbU2ldKFtDSDNdKShbQ0gzXSlPW0NIMl1bQ0BASF0xT1tDQEhdKFtDSDJdW0NASF0xW09IXSluKFtjSF1uMiljKGMyMyluW2NIXW5jM1tOSF1DKD1PKWM0W2NIXVtjSF1bY0hdW2NIXVtjSF00

> <s_epik_cmdline>
J2VwaWtfcHl0aG9uJywgJy1waCcsICc3LjAnLCAnLXRuJywgJzgnLCAnLW1hJywgJzIwMCcsICctbWV0YWxfYmluZGluZycsICctaW1hZScsICc8aW5maWxlLm1hZT4nLCAnLW9tYWUnLCAnPG91dGZpbGUubWFlPic=

> <r_lp_tautomer_probability>
1

> <r_epik_Ionization_Penalty>
0.00150433

> <r_epik_Ionization_Penalty_Charging>
0

> <r_epik_Ionization_Penalty_Neutral>
0.00150433

> <r_epik_State_Penalty>
0.00724046

> <r_epik_Charging_Adjusted_Penalty>
0.00724046

> <i_epik_Tot_Q>
0

> <i_epik_Tot_abs_Q>
0

> <r_epik_Metal_State_Penalty>
0.323355

> <b_epik_Metal_Only>
0

> <s_epik_Chemistry_Notes>
This compound contains an acetal/aminal-like group ( X-CH(R)-Y where X, Y are N, S, or O) that may be acid/base labile, releasing an aldehyde.

> <s_lp_Force_Field>
OPLS_2005

> <r_lp_Energy>
39.4689

> <b_lp_Chiralities_Consistent>
1

> <s_lp_Variant>
AV-unprocessed.smi:36-7

> <Gold.Version>
5.8.1

> <Gold.Id.Protein>
6NUR|6NUR_protein|mol2

> <Gold.PLP.Fitness>
60.4731

> <Gold.PLP.PLP>
-51.1243

> <Gold.PLP.part.hbond>
-3.0000

> <Gold.PLP.part.metal>
0.0000

> <Gold.PLP.part.buried>
-8.7257

> <Gold.PLP.part.nonpolar>
-39.9253

> <Gold.PLP.part.repulsive>
0.3477

> <Gold.PLP.ligand.clash>
0.0000

> <Gold.PLP.ligand.torsion>
0.6062

> <Gold.PLP.Chemscore.Hbond>
3.0000

> <Gold.PLP.Chemscore.CHOScore>
0.4622

> <Gold.PLP.Chemscore.Metal>
0.0000

> <Gold.Chemscore.Hbonds>
donor molecule, donor type, donor heavy atom, donor atom, acceptor molecule, acceptor atom, score
      P1  H  6896  6908       L1    11  1.00
      P1  H  7989  7998       L1    27  1.00
      P1  H 10752 10765       L1    29  0.93
      L1  C    28    60       P1  7949  0.56

> <Gold.PLP.Chemscore.Internal.Correction>
0.1747

> <Gold.Rescore>
     Score         DG    S(hbond)    S(metal)    S(lipo)     H(rot)  DE(clash)    DE(int)     intcor
     17.31     -20.63       2.34        0.00     122.01       2.70       0.32       3.01       ----

> <Gold.Chemscore.Fitness>
17.3075

> <Gold.Chemscore.DG>
-20.6338

> <Gold.Chemscore.ZeroCoef>
-5.4800

> <Gold.Chemscore.Hbond>
2.3357

> <Gold.Chemscore.Metal>
0.0000

> <Gold.Chemscore.Lipo>
122.0096

> <Gold.Chemscore.Internal_Hbond>
0.0000

> <Gold.Chemscore.DEClash>
0.3156

> <Gold.Chemscore.DEInternal>
3.0107

> <Gold.Chemscore.Rot>
2.7041

> <Gold.Chemscore.Internal.Correction>
   9.000000E+99

> <Gold.Chemscore.Hbonds>
donor molecule, donor type, donor heavy atom, donor atom, acceptor molecule, acceptor atom, score
      P1  H  6896  6908       L1    11  0.83
      P1  H  7989  7998       L1    27  0.82
      P1  H 10752 10765       L1    29  0.33

> <Gold.Chemscore.Hbond.Weighted>
-7.8011

> <Gold.Chemscore.Metal.Weighted>
-0.0000

> <Gold.Chemscore.Lipo.Weighted>
-14.2751

> <Gold.Chemscore.Internal_Hbond.Weighted>
0.0000

> <Gold.Chemscore.DEClash.Weighted>
0.3156

> <Gold.Chemscore.DEInternal.Weighted>
3.0107

> <Gold.Chemscore.Rot.Weighted>
6.9225

> <Gold.Chemscore.Internal.Correction.Weighted>
   9.000000E+99

> <Gold.Protein.RotatedTorsions>
[ 6907 6896 6895 6894 ] final  118.71 input  -60.11 | X-H torsion
[ 7974 7965 7964 7962 ] final  152.14 input  175.53 | X-H torsion
[ 8008 7997 7996 7995 ] final -175.70 input   59.86 | X-H torsion
[ 10167 10162 10161 10158 ] final  -21.66 input  -65.29 | X-H torsion
[ 10718 10713 10712 10709 ] final   87.03 input   66.30 | X-H torsion
[ 10763 10752 10751 10750 ] final  168.03 input  -60.55 | X-H torsion
[ 11005 11000 10999 10996 ] final   -7.51 input  -57.11 | X-H torsion

> <Gold.Protein.ActiveResidues>
 VAL166  LYS551  ARG553  GLY616  TRP617  ASP618  TYR619  PRO620  LYS621  CYS622 
 ASP623  PHE694  ASN695  SER759  ASP760  ASP761  ALA762  ILE779  LEU786  VAL792 
 PHE793  MET794  SER795  GLU796  ALA797  LYS798  CYS799  TRP800  GLU811  SER814 

> <Gold.Protein.RotatedAtoms>
  152.4524  133.7655  159.6769 H   0  0  0  0  0  0  0  0  0  0  0  0  # atno 6907 bound_to 6896
  150.8439  133.7882  159.3056 H   0  0  0  0  0  0  0  0  0  0  0  0  # atno 6908 bound_to 6896
  151.5498  135.1070  159.9999 H   0  0  0  0  0  0  0  0  0  0  0  0  # atno 6909 bound_to 6896
  144.8243  139.6629  143.6087 H   0  0  0  0  0  0  0  0  0  0  0  0  # atno 7974 bound_to 7965
  155.9858  140.1191  157.0684 H   0  0  0  0  0  0  0  0  0  0  0  0  # atno 8008 bound_to 7997
  154.4196  140.1135  156.5566 H   0  0  0  0  0  0  0  0  0  0  0  0  # atno 8009 bound_to 7997
  155.6409  140.3473  155.4717 H   0  0  0  0  0  0  0  0  0  0  0  0  # atno 8010 bound_to 7997
  140.7283  143.4607  151.0384 H   0  0  0  0  0  0  0  0  0  0  0  0  # atno 10167 bound_to 10162
  157.6936  131.0239  150.3062 H   0  0  0  0  0  0  0  0  0  0  0  0  # atno 10718 bound_to 10713
  154.3625  135.2753  155.2312 H   0  0  0  0  0  0  0  0  0  0  0  0  # atno 10763 bound_to 10752
  154.4494  135.5934  153.6185 H   0  0  0  0  0  0  0  0  0  0  0  0  # atno 10764 bound_to 10752
  152.9842  135.6038  154.3847 H   0  0  0  0  0  0  0  0  0  0  0  0  # atno 10765 bound_to 10752
  140.7135  133.8888  155.8768 H   0  0  0  0  0  0  0  0  0  0  0  0  # atno 11005 bound_to 11000
  146.2549  139.6279  142.9402 LP  0  0  0  0  0  0  0  0  0  0  0  0  # atno 17320 bound_to 7965
  145.5035  141.0437  143.2527 LP  0  0  0  0  0  0  0  0  0  0  0  0  # atno 17321 bound_to 7965
  139.8291  143.7715  152.3179 LP  0  0  0  0  0  0  0  0  0  0  0  0  # atno 17342 bound_to 10162
  139.7825  144.7439  151.0069 LP  0  0  0  0  0  0  0  0  0  0  0  0  # atno 17343 bound_to 10162
  156.3570  130.3840  149.7282 LP  0  0  0  0  0  0  0  0  0  0  0  0  # atno 17370 bound_to 10713
  156.4741  130.8010  151.3027 LP  0  0  0  0  0  0  0  0  0  0  0  0  # atno 17371 bound_to 10713
  141.0064  134.1080  157.4266 LP  0  0  0  0  0  0  0  0  0  0  0  0  # atno 17394 bound_to 11000
  139.8865  135.0082  156.6505 LP  0  0  0  0  0  0  0  0  0  0  0  0  # atno 17395 bound_to 11000

$$$$
