AV-unprocessed.smi:284|AV-procd|sdf|2164|dock8
  -GOLD-   2262021523D 1   1.00000     0.00000
 Structure written by MMmdl.
 60 62  0  0  0  0  0  0  0  0  1 V2000
  159.4349  141.6921  165.9968 C   0  0  0  0  0  0  0  0  0  0  0  0
  158.9868  141.1565  164.6460 C   0  0  0  0  0  0  0  0  0  0  0  0
  159.7054  141.3591  163.5175 C   0  0  0  0  0  0  0  0  0  0  0  0
  159.3259  140.8840  162.2747 N   0  0  0  0  0  0  0  0  0  0  0  0
  160.1487  141.1345  161.0285 C   0  0  1  0  0  0  0  0  0  0  0  0
  159.3414  141.9454  160.0029 C   0  0  0  0  0  0  0  0  0  0  0  0
  160.3347  142.9975  159.5476 C   0  0  2  0  0  0  0  0  0  0  0  0
  161.0831  142.5317  158.4400 O   0  0  0  0  0  0  0  0  0  0  0  0
  161.2011  143.1830  160.7987 C   0  0  2  0  0  0  0  0  0  0  0  0
  162.5941  143.8048  160.5986 C   0  0  0  0  0  0  0  0  0  0  0  0
  162.4754  145.1016  160.0537 O   0  0  0  0  0  0  0  0  0  0  0  0
  161.2928  141.8728  161.3496 O   0  0  0  0  0  0  0  0  0  0  0  0
  158.1241  140.1600  162.1434 C   0  0  0  0  0  0  0  0  0  0  0  0
  157.7609  139.7368  161.0434 O   0  0  0  0  0  0  0  0  0  0  0  0
  157.3485  139.9336  163.3024 N   0  0  0  0  0  0  0  0  0  0  0  0
  156.0998  139.1503  163.1705 C   0  0  0  0  0  0  0  0  0  0  0  0
  155.1330  139.7200  162.1206 C   0  0  0  0  0  0  0  0  0  0  0  0
  154.8670  139.0731  161.1072 O   0  0  0  0  0  0  0  0  0  0  0  0
  154.6034  140.9191  162.4252 N   0  0  0  0  0  0  0  0  0  0  0  0
  153.7041  141.7254  161.6739 C   0  0  0  0  0  0  0  0  0  0  0  0
  153.6636  141.5123  160.2823 C   0  0  0  0  0  0  0  0  0  0  0  0
  152.7879  142.2518  159.4645 C   0  0  0  0  0  0  0  0  0  0  0  0
  151.9207  143.2231  160.0220 C   0  0  0  0  0  0  0  0  0  0  0  0
  150.9458  144.0510  159.1627 C   0  0  0  0  0  0  0  0  0  0  0  0
  149.8527  143.1293  158.5817 C   0  0  0  0  0  0  0  0  0  0  0  0
  151.6388  144.7586  157.9761 C   0  0  0  0  0  0  0  0  0  0  0  0
  150.2842  145.1383  160.0348 C   0  0  0  0  0  0  0  0  0  0  0  0
  151.9609  143.4249  161.4217 C   0  0  0  0  0  0  0  0  0  0  0  0
  152.8342  142.6852  162.2417 C   0  0  0  0  0  0  0  0  0  0  0  0
  157.7343  140.3994  164.5832 C   0  0  0  0  0  0  0  0  0  0  0  0
  157.0396  140.1626  165.5732 O   0  0  0  0  0  0  0  0  0  0  0  0
  160.3721  142.2448  165.9248 H   0  0  0  0  0  0  0  0  0  0  0  0
  159.5849  140.8727  166.7004 H   0  0  0  0  0  0  0  0  0  0  0  0
  158.6821  142.3654  166.4085 H   0  0  0  0  0  0  0  0  0  0  0  0
  160.6208  141.9232  163.6080 H   0  0  0  0  0  0  0  0  0  0  0  0
  160.4664  140.1553  160.6667 H   0  0  0  0  0  0  0  0  0  0  0  0
  158.9601  141.3090  159.2033 H   0  0  0  0  0  0  0  0  0  0  0  0
  158.4968  142.4258  160.4998 H   0  0  0  0  0  0  0  0  0  0  0  0
  159.8385  143.9250  159.2604 H   0  0  0  0  0  0  0  0  0  0  0  0
  161.8288  142.0488  158.7621 H   0  0  0  0  0  0  0  0  0  0  0  0
  160.6442  143.7917  161.5129 H   0  0  0  0  0  0  0  0  0  0  0  0
  163.1040  143.8861  161.5589 H   0  0  0  0  0  0  0  0  0  0  0  0
  163.2244  143.1891  159.9571 H   0  0  0  0  0  0  0  0  0  0  0  0
  161.6060  145.1993  159.6961 H   0  0  0  0  0  0  0  0  0  0  0  0
  156.3056  138.1102  162.9140 H   0  0  0  0  0  0  0  0  0  0  0  0
  155.5870  139.0852  164.1320 H   0  0  0  0  0  0  0  0  0  0  0  0
  154.8522  141.2867  163.3320 H   0  0  0  0  0  0  0  0  0  0  0  0
  154.3113  140.7753  159.8299 H   0  0  0  0  0  0  0  0  0  0  0  0
  152.8038  142.0479  158.4056 H   0  0  0  0  0  0  0  0  0  0  0  0
  149.1598  143.6854  157.9492 H   0  0  0  0  0  0  0  0  0  0  0  0
  149.2581  142.6527  159.3611 H   0  0  0  0  0  0  0  0  0  0  0  0
  150.2884  142.3374  157.9714 H   0  0  0  0  0  0  0  0  0  0  0  0
  152.1078  144.0439  157.2986 H   0  0  0  0  0  0  0  0  0  0  0  0
  152.4039  145.4587  158.3141 H   0  0  0  0  0  0  0  0  0  0  0  0
  150.9230  145.3324  157.3862 H   0  0  0  0  0  0  0  0  0  0  0  0
  149.6013  145.7553  159.4497 H   0  0  0  0  0  0  0  0  0  0  0  0
  151.0316  145.8020  160.4713 H   0  0  0  0  0  0  0  0  0  0  0  0
  149.7061  144.7116  160.8545 H   0  0  0  0  0  0  0  0  0  0  0  0
  151.3119  144.1520  161.8859 H   0  0  0  0  0  0  0  0  0  0  0  0
  152.8040  142.8672  163.3041 H   0  0  0  0  0  0  0  0  0  0  0  0
  1  2  1  0  0  0  0
  1 32  1  0  0  0  0
  1 33  1  0  0  0  0
  1 34  1  0  0  0  0
  2 30  1  0  0  0  0
  2  3  2  0  0  0  0
  3  4  1  0  0  0  0
  3 35  1  0  0  0  0
  4  5  1  0  0  0  0
  4 13  1  0  0  0  0
  5 12  1  0  0  0  0
  5  6  1  0  0  0  0
  5 36  1  0  0  0  0
  6  7  1  0  0  0  0
  6 37  1  0  0  0  0
  6 38  1  0  0  0  0
  7  8  1  0  0  0  0
  7  9  1  0  0  0  0
  7 39  1  0  0  0  0
  8 40  1  0  0  0  0
  9 10  1  0  0  0  0
  9 12  1  0  0  0  0
  9 41  1  0  0  0  0
 10 11  1  0  0  0  0
 10 42  1  0  0  0  0
 10 43  1  0  0  0  0
 11 44  1  0  0  0  0
 13 14  2  0  0  0  0
 13 15  1  0  0  0  0
 15 16  1  0  0  0  0
 15 30  1  0  0  0  0
 16 17  1  0  0  0  0
 16 45  1  0  0  0  0
 16 46  1  0  0  0  0
 17 18  2  0  0  0  0
 17 19  1  0  0  0  0
 19 20  1  0  0  0  0
 19 47  1  0  0  0  0
 20 29  1  0  0  0  0
 20 21  2  0  0  0  0
 21 22  1  0  0  0  0
 21 48  1  0  0  0  0
 22 23  2  0  0  0  0
 22 49  1  0  0  0  0
 23 24  1  0  0  0  0
 23 28  1  0  0  0  0
 24 25  1  0  0  0  0
 24 26  1  0  0  0  0
 24 27  1  0  0  0  0
 25 50  1  0  0  0  0
 25 51  1  0  0  0  0
 25 52  1  0  0  0  0
 26 53  1  0  0  0  0
 26 54  1  0  0  0  0
 26 55  1  0  0  0  0
 27 56  1  0  0  0  0
 27 57  1  0  0  0  0
 27 58  1  0  0  0  0
 28 29  2  0  0  0  0
 28 59  1  0  0  0  0
 29 60  1  0  0  0  0
 30 31  2  0  0  0  0
M  END
> <s_m_source_file>
AV-unprocessed.smi

> <i_m_source_file_index>
284

> <i_lp_mmshare_version>
43012

> <i_f3d_flags>
0

> <s_epik_input>
W09IXVtDSDJdW0NAQEhdKE8xKVtDQEhdKFtPSF0pW0NIMl1bQ0BIXTFuKFtjSF1jMltDSDNdKWMoPU8pbihjMj1PKVtDSDJdQyg9TylbTkhdYzNbY0hdW2NIXWMoQyhbQ0gzXSkoW0NIM10pW0NIM10pW2NIXVtjSF0z

> <s_epik_cmdline>
J2VwaWtfcHl0aG9uJywgJy1waCcsICc3LjAnLCAnLXRuJywgJzgnLCAnLW1hJywgJzIwMCcsICctbWV0YWxfYmluZGluZycsICctaW1hZScsICc8aW5maWxlLm1hZT4nLCAnLW9tYWUnLCAnPG91dGZpbGUubWFlPic=

> <r_lp_tautomer_probability>
1

> <r_epik_Ionization_Penalty>
4.92358e-06

> <r_epik_Ionization_Penalty_Charging>
1.29777e-07

> <r_epik_Ionization_Penalty_Neutral>
4.79381e-06

> <r_epik_State_Penalty>
-0

> <r_epik_Charging_Adjusted_Penalty>
1.29777e-07

> <i_epik_Tot_Q>
0

> <i_epik_Tot_abs_Q>
0

> <r_epik_Metal_State_Penalty>
-0

> <b_epik_Metal_Only>
0

> <s_epik_Chemistry_Notes>
This compound contains an acetal/aminal-like group ( X-CH(R)-Y where X, Y are N, S, or O) that may be acid/base labile, releasing an aldehyde.

> <s_lp_Force_Field>
OPLS_2005

> <r_lp_Energy>
40.7373

> <b_lp_Chiralities_Consistent>
1

> <s_lp_Variant>
AV-unprocessed.smi:284-8

> <Gold.Version>
5.8.1

> <Gold.Id.Protein>
6NUR|6NUR_protein|mol2

> <Gold.PLP.Fitness>
53.1854

> <Gold.PLP.PLP>
-53.8514

> <Gold.PLP.part.hbond>
-6.1215

> <Gold.PLP.part.metal>
0.0000

> <Gold.PLP.part.buried>
-6.3713

> <Gold.PLP.part.nonpolar>
-41.6004

> <Gold.PLP.part.repulsive>
0.1186

> <Gold.PLP.ligand.clash>
0.0000

> <Gold.PLP.ligand.torsion>
0.3536

> <Gold.PLP.Chemscore.Hbond>
0.0000

> <Gold.PLP.Chemscore.CHOScore>
0.0000

> <Gold.PLP.Chemscore.Metal>
0.0000

> <Gold.PLP.Chemscore.Internal.Correction>
0.0412

> <Gold.Rescore>
     Score         DG    S(hbond)    S(metal)    S(lipo)     H(rot)  DE(clash)    DE(int)     intcor
      7.33     -12.84       0.00        0.00     134.55       3.27       0.47       5.04       ----

> <Gold.Chemscore.Fitness>
7.3346

> <Gold.Chemscore.DG>
-12.8427

> <Gold.Chemscore.ZeroCoef>
-5.4800

> <Gold.Chemscore.Hbond>
0.0000

> <Gold.Chemscore.Metal>
0.0000

> <Gold.Chemscore.Lipo>
134.5534

> <Gold.Chemscore.Internal_Hbond>
0.0000

> <Gold.Chemscore.DEClash>
0.4720

> <Gold.Chemscore.DEInternal>
5.0361

> <Gold.Chemscore.Rot>
3.2735

> <Gold.Chemscore.Internal.Correction>
   9.000000E+99

> <Gold.Chemscore.Hbond.Weighted>
-0.0000

> <Gold.Chemscore.Metal.Weighted>
-0.0000

> <Gold.Chemscore.Lipo.Weighted>
-15.7427

> <Gold.Chemscore.Internal_Hbond.Weighted>
0.0000

> <Gold.Chemscore.DEClash.Weighted>
0.4720

> <Gold.Chemscore.DEInternal.Weighted>
5.0361

> <Gold.Chemscore.Rot.Weighted>
8.3801

> <Gold.Chemscore.Internal.Correction.Weighted>
   9.000000E+99

> <Gold.Protein.RotatedTorsions>
[ 6907 6896 6895 6894 ] final   70.65 input  -60.11 | X-H torsion
[ 7974 7965 7964 7962 ] final   78.94 input  175.53 | X-H torsion
[ 8008 7997 7996 7995 ] final -106.62 input   59.86 | X-H torsion
[ 10167 10162 10161 10158 ] final   92.19 input  -65.29 | X-H torsion
[ 10718 10713 10712 10709 ] final  177.32 input   66.30 | X-H torsion
[ 10763 10752 10751 10750 ] final  132.67 input  -60.55 | X-H torsion
[ 11005 11000 10999 10996 ] final  -58.28 input  -57.11 | X-H torsion

> <Gold.Protein.ActiveResidues>
 VAL166  LYS551  ARG553  GLY616  TRP617  ASP618  TYR619  PRO620  LYS621  CYS622 
 ASP623  PHE694  ASN695  SER759  ASP760  ASP761  ALA762  ILE779  LEU786  VAL792 
 PHE793  MET794  SER795  GLU796  ALA797  LYS798  CYS799  TRP800  GLU811  SER814 

> <Gold.Protein.RotatedAtoms>
  152.4762  134.4836  159.9673 H   0  0  0  0  0  0  0  0  0  0  0  0  # atno 6907 bound_to 6896
  151.4852  133.3531  159.2852 H   0  0  0  0  0  0  0  0  0  0  0  0  # atno 6908 bound_to 6896
  150.8803  134.8219  159.7281 H   0  0  0  0  0  0  0  0  0  0  0  0  # atno 6909 bound_to 6896
  145.6707  139.2496  143.1870 H   0  0  0  0  0  0  0  0  0  0  0  0  # atno 7974 bound_to 7965
  154.9173  140.0408  157.1979 H   0  0  0  0  0  0  0  0  0  0  0  0  # atno 8008 bound_to 7997
  154.8289  140.2896  155.5714 H   0  0  0  0  0  0  0  0  0  0  0  0  # atno 8009 bound_to 7997
  156.2985  140.2504  156.3210 H   0  0  0  0  0  0  0  0  0  0  0  0  # atno 8010 bound_to 7997
  139.8301  144.6691  150.9411 H   0  0  0  0  0  0  0  0  0  0  0  0  # atno 10167 bound_to 10162
  156.9071  130.9898  151.3026 H   0  0  0  0  0  0  0  0  0  0  0  0  # atno 10718 bound_to 10713
  153.7945  135.3150  155.3382 H   0  0  0  0  0  0  0  0  0  0  0  0  # atno 10763 bound_to 10752
  154.8113  135.4665  154.0527 H   0  0  0  0  0  0  0  0  0  0  0  0  # atno 10764 bound_to 10752
  153.1855  135.6900  153.8508 H   0  0  0  0  0  0  0  0  0  0  0  0  # atno 10765 bound_to 10752
  141.1201  133.6612  156.4897 H   0  0  0  0  0  0  0  0  0  0  0  0  # atno 11005 bound_to 11000
  146.1048  140.7501  142.9532 LP  0  0  0  0  0  0  0  0  0  0  0  0  # atno 17320 bound_to 7965
  144.7058  140.3844  143.7119 LP  0  0  0  0  0  0  0  0  0  0  0  0  # atno 17321 bound_to 7965
  140.7807  143.4009  151.1150 LP  0  0  0  0  0  0  0  0  0  0  0  0  # atno 17342 bound_to 10162
  139.7664  143.8559  152.3111 LP  0  0  0  0  0  0  0  0  0  0  0  0  # atno 17343 bound_to 10162
  157.5990  130.8499  149.8773 LP  0  0  0  0  0  0  0  0  0  0  0  0  # atno 17370 bound_to 10713
  156.0554  130.3709  150.1104 LP  0  0  0  0  0  0  0  0  0  0  0  0  # atno 17371 bound_to 10713
  140.4533  134.6908  157.5050 LP  0  0  0  0  0  0  0  0  0  0  0  0  # atno 17394 bound_to 11000
  140.0151  134.6631  155.9322 LP  0  0  0  0  0  0  0  0  0  0  0  0  # atno 17395 bound_to 11000

$$$$
