AV-unprocessed.smi:102|AV-procd|sdf|955|dock3
  -GOLD-   2262017493D 1   1.00000     0.00000
 Structure written by MMmdl.
 44 45  0  0  0  0  0  0  0  0  1 V2000
  143.3479  138.7626  155.4909 C   0  0  0  0  0  0  0  0  0  0  0  0
  144.0145  137.4106  155.7072 C   0  0  0  0  0  0  0  0  0  0  0  0
  143.7142  136.4284  155.0289 O   0  0  0  0  0  0  0  0  0  0  0  0
  144.9268  137.4438  156.6875 O   0  0  0  0  0  0  0  0  0  0  0  0
  145.6344  136.2643  157.0388 C   0  0  0  0  0  0  0  0  0  0  0  0
  146.5820  136.5394  158.2177 C   0  0  2  0  0  0  0  0  0  0  0  0
  147.4883  137.5856  157.9156 O   0  0  0  0  0  0  0  0  0  0  0  0
  148.5525  137.5172  158.8094 C   0  0  2  0  0  0  0  0  0  0  0  0
  149.7874  138.0334  158.1085 N   0  0  0  0  0  0  0  0  0  0  0  0
  149.6840  138.6392  156.8641 C   0  0  0  0  0  0  0  0  0  0  0  0
  150.7573  139.0845  156.1690 C   0  0  0  0  0  0  0  0  0  0  0  0
  150.5772  139.6663  154.9711 F   0  0  0  0  0  0  0  0  0  0  0  0
  152.1069  138.9326  156.7050 C   0  0  0  0  0  0  0  0  0  0  0  0
  153.1396  139.3078  156.1536 O   0  0  0  0  0  0  0  0  0  0  0  0
  152.1656  138.2947  157.9473 N   0  0  0  0  0  0  0  0  0  0  0  0
  151.0685  137.8250  158.6710 C   0  0  0  0  0  0  0  0  0  0  0  0
  151.2448  137.2530  159.7456 O   0  0  0  0  0  0  0  0  0  0  0  0
  148.6995  136.0543  159.2738 C   0  0  1  0  0  0  0  0  0  0  0  0
  148.7473  135.9919  160.6934 O   0  0  0  0  0  0  0  0  0  0  0  0
  147.7857  136.5813  161.4258 C   0  0  0  0  0  0  0  0  0  0  0  0
  147.9317  136.2954  162.9143 C   0  0  0  0  0  0  0  0  0  0  0  0
  146.8753  137.2875  160.9924 O   0  0  0  0  0  0  0  0  0  0  0  0
  147.4431  135.3738  158.7342 C   0  0  2  0  0  0  0  0  0  0  0  0
  147.8397  134.4415  157.7338 O   0  0  0  0  0  0  0  0  0  0  0  0
  148.7755  133.5099  157.9877 C   0  0  0  0  0  0  0  0  0  0  0  0
  148.9945  132.5749  156.8060 C   0  0  0  0  0  0  0  0  0  0  0  0
  149.4044  133.3769  159.0373 O   0  0  0  0  0  0  0  0  0  0  0  0
  153.0803  138.1536  158.3508 H   0  0  0  0  0  0  0  0  0  0  0  0
  144.0629  139.5710  155.6467 H   0  0  0  0  0  0  0  0  0  0  0  0
  142.5212  138.8912  156.1894 H   0  0  0  0  0  0  0  0  0  0  0  0
  142.9591  138.8377  154.4751 H   0  0  0  0  0  0  0  0  0  0  0  0
  144.9159  135.4904  157.3111 H   0  0  0  0  0  0  0  0  0  0  0  0
  146.2064  135.8924  156.1874 H   0  0  0  0  0  0  0  0  0  0  0  0
  145.9796  136.8896  159.0572 H   0  0  0  0  0  0  0  0  0  0  0  0
  148.3530  138.2002  159.6368 H   0  0  0  0  0  0  0  0  0  0  0  0
  148.7081  138.7716  156.4193 H   0  0  0  0  0  0  0  0  0  0  0  0
  149.6042  135.6194  158.8466 H   0  0  0  0  0  0  0  0  0  0  0  0
  148.0468  135.2253  163.0869 H   0  0  0  0  0  0  0  0  0  0  0  0
  147.0521  136.6400  163.4584 H   0  0  0  0  0  0  0  0  0  0  0  0
  148.8072  136.8081  163.3130 H   0  0  0  0  0  0  0  0  0  0  0  0
  146.9173  134.8604  159.5407 H   0  0  0  0  0  0  0  0  0  0  0  0
  148.0518  132.3755  156.2960 H   0  0  0  0  0  0  0  0  0  0  0  0
  149.4108  131.6253  157.1427 H   0  0  0  0  0  0  0  0  0  0  0  0
  149.6863  133.0244  156.0937 H   0  0  0  0  0  0  0  0  0  0  0  0
  1  2  1  0  0  0  0
  1 29  1  0  0  0  0
  1 30  1  0  0  0  0
  1 31  1  0  0  0  0
  2  3  2  0  0  0  0
  2  4  1  0  0  0  0
  4  5  1  0  0  0  0
  5  6  1  0  0  0  0
  5 32  1  0  0  0  0
  5 33  1  0  0  0  0
  6 23  1  0  0  0  0
  6  7  1  0  0  0  0
  6 34  1  0  0  0  0
  7  8  1  0  0  0  0
  8  9  1  0  0  0  0
  8 18  1  0  0  0  0
  8 35  1  0  0  0  0
  9 16  1  0  0  0  0
  9 10  1  0  0  0  0
 10 11  2  0  0  0  0
 10 36  1  0  0  0  0
 11 12  1  0  0  0  0
 11 13  1  0  0  0  0
 13 14  2  0  0  0  0
 13 15  1  0  0  0  0
 15 28  1  0  0  0  0
 15 16  1  0  0  0  0
 16 17  2  0  0  0  0
 18 19  1  0  0  0  0
 18 23  1  0  0  0  0
 18 37  1  0  0  0  0
 19 20  1  0  0  0  0
 20 21  1  0  0  0  0
 20 22  2  0  0  0  0
 21 38  1  0  0  0  0
 21 39  1  0  0  0  0
 21 40  1  0  0  0  0
 23 24  1  0  0  0  0
 23 41  1  0  0  0  0
 24 25  1  0  0  0  0
 25 26  1  0  0  0  0
 25 27  2  0  0  0  0
 26 42  1  0  0  0  0
 26 43  1  0  0  0  0
 26 44  1  0  0  0  0
M  END
> <s_m_source_file>
AV-unprocessed.smi

> <i_m_source_file_index>
102

> <i_lp_mmshare_version>
43012

> <i_f3d_flags>
0

> <s_epik_input>
W0NIM11DKD1PKU9bQ0gyXVtDQEBIXTFPW0NASF0oW0NAQEhdKE9DKD1PKVtDSDNdKVtDQEhdMU9DKD1PKVtDSDNdKW4yW2NIXWMoRiljKD1PKVtuSF1jMj1P

> <s_epik_cmdline>
J2VwaWtfcHl0aG9uJywgJy1waCcsICc3LjAnLCAnLXRuJywgJzgnLCAnLW1hJywgJzIwMCcsICctbWV0YWxfYmluZGluZycsICctaW1hZScsICc8aW5maWxlLm1hZT4nLCAnLW9tYWUnLCAnPG91dGZpbGUubWFlPic=

> <r_lp_tautomer_probability>
0.999537

> <r_epik_Ionization_Penalty>
0.058267

> <r_epik_Ionization_Penalty_Charging>
0.058267

> <r_epik_Ionization_Penalty_Neutral>
6.57791e-16

> <r_epik_State_Penalty>
0.0503774

> <r_epik_Charging_Adjusted_Penalty>
0.108644

> <i_epik_Tot_Q>
0

> <i_epik_Tot_abs_Q>
0

> <r_epik_Metal_State_Penalty>
2.6644

> <b_epik_Metal_Only>
0

> <s_epik_Chemistry_Notes>
This compound has an ester and may undergo hydrolysis at high or low pH. This compound contains an acetal/aminal-like group ( X-CH(R)-Y where X, Y are N, S, or O) that may be acid/base labile, releasing an aldehyde.

> <s_lp_Force_Field>
OPLS_2005

> <r_lp_Energy>
7.073

> <b_lp_Chiralities_Consistent>
1

> <s_lp_Variant>
AV-unprocessed.smi:102-11

> <Gold.Version>
5.8.1

> <Gold.Id.Protein>
6NUR|6NUR_protein|mol2

> <Gold.PLP.Fitness>
35.2394

> <Gold.PLP.PLP>
-23.8175

> <Gold.PLP.part.hbond>
-4.0000

> <Gold.PLP.part.metal>
0.0000

> <Gold.PLP.part.buried>
-4.1969

> <Gold.PLP.part.nonpolar>
-16.0469

> <Gold.PLP.part.repulsive>
0.0994

> <Gold.PLP.ligand.clash>
0.0000

> <Gold.PLP.ligand.torsion>
0.3267

> <Gold.PLP.Chemscore.Hbond>
4.0000

> <Gold.PLP.Chemscore.CHOScore>
0.0000

> <Gold.PLP.Chemscore.Metal>
0.0000

> <Gold.Chemscore.Hbonds>
donor molecule, donor type, donor heavy atom, donor atom, acceptor molecule, acceptor atom, score
      P1  H  6896  6907       L1    17  0.80
      P1  H  6896  6909       L1    27  0.78
      P1  H  6934  6947       L1    22  1.00
      P1  H  7997  8009       L1    14  0.83

> <Gold.PLP.Chemscore.Internal.Correction>
0.0755

> <Gold.Rescore>
     Score         DG    S(hbond)    S(metal)    S(lipo)     H(rot)  DE(clash)    DE(int)     intcor
      4.64     -11.36       3.93        0.00      26.79       4.05       0.00       6.71       ----

> <Gold.Chemscore.Fitness>
4.6429

> <Gold.Chemscore.DG>
-11.3557

> <Gold.Chemscore.ZeroCoef>
-5.4800

> <Gold.Chemscore.Hbond>
3.9267

> <Gold.Chemscore.Metal>
0.0000

> <Gold.Chemscore.Lipo>
26.7850

> <Gold.Chemscore.Internal_Hbond>
0.0000

> <Gold.Chemscore.DEClash>
0.0004

> <Gold.Chemscore.DEInternal>
6.7124

> <Gold.Chemscore.Rot>
4.0520

> <Gold.Chemscore.Internal.Correction>
   9.000000E+99

> <Gold.Chemscore.Hbonds>
donor molecule, donor type, donor heavy atom, donor atom, acceptor molecule, acceptor atom, score
      P1  H  6896  6907       L1    17  0.78
      P1  H  6896  6909       L1    27  0.74
      P1  H  6934  6947       L1    22  0.94
      P1  H  7997  8009       L1    14  0.82

> <Gold.Chemscore.Hbond.Weighted>
-13.1151

> <Gold.Chemscore.Metal.Weighted>
-0.0000

> <Gold.Chemscore.Lipo.Weighted>
-3.1338

> <Gold.Chemscore.Internal_Hbond.Weighted>
0.0000

> <Gold.Chemscore.DEClash.Weighted>
0.0004

> <Gold.Chemscore.DEInternal.Weighted>
6.7124

> <Gold.Chemscore.Rot.Weighted>
10.3732

> <Gold.Chemscore.Internal.Correction.Weighted>
   9.000000E+99

> <Gold.Protein.RotatedTorsions>
[ 6907 6896 6895 6894 ] final   -2.53 input  -60.11 | X-H torsion
[ 7974 7965 7964 7962 ] final -131.97 input  175.53 | X-H torsion
[ 8008 7997 7996 7995 ] final -154.59 input   59.86 | X-H torsion
[ 10167 10162 10161 10158 ] final  154.15 input  -65.29 | X-H torsion
[ 10718 10713 10712 10709 ] final  144.16 input   66.30 | X-H torsion
[ 10763 10752 10751 10750 ] final    6.21 input  -60.55 | X-H torsion
[ 11005 11000 10999 10996 ] final -175.49 input  -57.11 | X-H torsion

> <Gold.Protein.ActiveResidues>
 VAL166  LYS551  ARG553  GLY616  TRP617  ASP618  TYR619  PRO620  LYS621  CYS622 
 ASP623  PHE694  ASN695  SER759  ASP760  ASP761  ALA762  ILE779  LEU786  VAL792 
 PHE793  MET794  SER795  GLU796  ALA797  LYS798  CYS799  TRP800  GLU811  SER814 

> <Gold.Protein.RotatedAtoms>
  151.5285  135.1068  159.9896 H   0  0  0  0  0  0  0  0  0  0  0  0  # atno 6907 bound_to 6896
  152.4589  133.7777  159.6844 H   0  0  0  0  0  0  0  0  0  0  0  0  # atno 6908 bound_to 6896
  150.8543  133.7674  159.3039 H   0  0  0  0  0  0  0  0  0  0  0  0  # atno 6909 bound_to 6896
  144.9329  140.7149  143.4895 H   0  0  0  0  0  0  0  0  0  0  0  0  # atno 7974 bound_to 7965
  155.6887  140.0753  157.2456 H   0  0  0  0  0  0  0  0  0  0  0  0  # atno 8008 bound_to 7997
  154.4092  140.1668  156.2115 H   0  0  0  0  0  0  0  0  0  0  0  0  # atno 8009 bound_to 7997
  155.9471  140.3380  155.6379 H   0  0  0  0  0  0  0  0  0  0  0  0  # atno 8010 bound_to 7997
  139.4824  144.5212  151.7873 H   0  0  0  0  0  0  0  0  0  0  0  0  # atno 10167 bound_to 10162
  157.3605  131.0964  151.0919 H   0  0  0  0  0  0  0  0  0  0  0  0  # atno 10718 bound_to 10713
  153.2504  135.6913  153.7685 H   0  0  0  0  0  0  0  0  0  0  0  0  # atno 10763 bound_to 10752
  153.6782  135.3333  155.3172 H   0  0  0  0  0  0  0  0  0  0  0  0  # atno 10764 bound_to 10752
  154.8392  135.4516  154.1459 H   0  0  0  0  0  0  0  0  0  0  0  0  # atno 10765 bound_to 10752
  140.4627  134.6239  157.4849 H   0  0  0  0  0  0  0  0  0  0  0  0  # atno 11005 bound_to 11000
  145.3113  139.1818  143.4637 LP  0  0  0  0  0  0  0  0  0  0  0  0  # atno 17320 bound_to 7965
  146.3254  140.3118  142.8627 LP  0  0  0  0  0  0  0  0  0  0  0  0  # atno 17321 bound_to 7965
  140.4726  144.1565  150.5920 LP  0  0  0  0  0  0  0  0  0  0  0  0  # atno 17342 bound_to 10162
  140.4365  143.2545  151.9528 LP  0  0  0  0  0  0  0  0  0  0  0  0  # atno 17343 bound_to 10162
  157.2061  130.6416  149.5756 LP  0  0  0  0  0  0  0  0  0  0  0  0  # atno 17370 bound_to 10713
  155.9736  130.4675  150.6327 LP  0  0  0  0  0  0  0  0  0  0  0  0  # atno 17371 bound_to 10713
  139.9935  134.6948  155.9649 LP  0  0  0  0  0  0  0  0  0  0  0  0  # atno 17394 bound_to 11000
  141.1614  133.6539  156.4330 LP  0  0  0  0  0  0  0  0  0  0  0  0  # atno 17395 bound_to 11000

$$$$
