AV-unprocessed.smi:1285|AV-procd|sdf|5369|dock5
  -GOLD-   22720 4513D 1   1.00000     0.00000
 Structure written by MMmdl.
 46 47  0  0  0  0  0  0  0  0  1 V2000
  152.0585  140.0264  155.5462 C   0  0  0  0  0  0  0  0  0  0  0  0
  150.7470  140.7013  155.9876 C   0  0  0  0  0  0  0  0  0  0  0  0
  150.4286  140.6301  157.5152 C   0  0  1  0  0  0  0  0  0  0  0  0
  148.8945  140.8292  157.6508 C   0  0  0  0  0  0  0  0  0  0  0  0
  150.7814  139.1988  158.0361 C   0  0  0  0  0  0  0  0  0  0  0  0
  149.9315  138.1429  157.4852 N   0  0  0  0  0  0  0  0  0  0  0  0
  149.9270  136.8562  157.8699 C   0  0  0  0  0  0  0  0  0  0  0  0
  150.6551  136.4157  158.7600 O   0  0  0  0  0  0  0  0  0  0  0  0
  148.9568  135.9278  157.1239 C   0  0  1  0  0  0  0  0  0  0  0  0
  147.8803  136.7091  156.3433 C   0  0  0  0  0  0  0  0  0  0  0  0
  149.6982  135.0028  156.2755 N   0  0  0  0  0  0  0  0  0  0  0  0
  149.6124  134.7909  154.9602 C   0  0  0  0  0  0  0  0  0  0  0  0
  150.4108  133.8310  154.5151 N   0  0  0  0  0  0  0  0  0  0  0  0
  150.9932  133.4553  155.6923 C   0  0  0  0  0  0  0  0  0  0  0  0
  150.5943  134.1170  156.7783 N   0  0  0  0  0  0  0  0  0  0  0  0
  151.1618  141.6925  158.2605 N   0  0  0  0  0  0  0  0  0  0  0  0
  152.5708  141.4003  158.5490 C   0  0  0  0  0  0  0  0  0  0  0  0
  153.2089  142.4745  159.4466 C   0  0  0  0  0  0  0  0  0  0  0  0
  153.0772  143.7521  158.8348 O   0  0  0  0  0  0  0  0  0  0  0  0
  151.7198  144.0982  158.5869 C   0  0  0  0  0  0  0  0  0  0  0  0
  151.0739  143.0379  157.6793 C   0  0  0  0  0  0  0  0  0  0  0  0
  152.1870  140.1165  154.4674 H   0  0  0  0  0  0  0  0  0  0  0  0
  152.0704  138.9632  155.7854 H   0  0  0  0  0  0  0  0  0  0  0  0
  152.9280  140.4863  156.0147 H   0  0  0  0  0  0  0  0  0  0  0  0
  150.7995  141.7416  155.6661 H   0  0  0  0  0  0  0  0  0  0  0  0
  149.9234  140.2810  155.4106 H   0  0  0  0  0  0  0  0  0  0  0  0
  148.3373  140.2186  156.9394 H   0  0  0  0  0  0  0  0  0  0  0  0
  148.6061  141.8662  157.4770 H   0  0  0  0  0  0  0  0  0  0  0  0
  148.5323  140.5529  158.6411 H   0  0  0  0  0  0  0  0  0  0  0  0
  151.8290  138.9625  157.8486 H   0  0  0  0  0  0  0  0  0  0  0  0
  150.6585  139.1461  159.1172 H   0  0  0  0  0  0  0  0  0  0  0  0
  149.3038  138.4137  156.7424 H   0  0  0  0  0  0  0  0  0  0  0  0
  148.4357  135.3262  157.8709 H   0  0  0  0  0  0  0  0  0  0  0  0
  147.3057  137.3544  157.0086 H   0  0  0  0  0  0  0  0  0  0  0  0
  147.1775  136.0281  155.8625 H   0  0  0  0  0  0  0  0  0  0  0  0
  148.3121  137.3407  155.5658 H   0  0  0  0  0  0  0  0  0  0  0  0
  148.9496  135.3486  154.3147 H   0  0  0  0  0  0  0  0  0  0  0  0
  151.7291  132.6670  155.7514 H   0  0  0  0  0  0  0  0  0  0  0  0
  152.6756  140.4419  159.0543 H   0  0  0  0  0  0  0  0  0  0  0  0
  153.1418  141.3359  157.6229 H   0  0  0  0  0  0  0  0  0  0  0  0
  152.7382  142.4841  160.4311 H   0  0  0  0  0  0  0  0  0  0  0  0
  154.2668  142.2609  159.5998 H   0  0  0  0  0  0  0  0  0  0  0  0
  151.1779  144.1804  159.5305 H   0  0  0  0  0  0  0  0  0  0  0  0
  151.6834  145.0779  158.1102 H   0  0  0  0  0  0  0  0  0  0  0  0
  151.5688  143.0638  156.7087 H   0  0  0  0  0  0  0  0  0  0  0  0
  150.0380  143.3273  157.5139 H   0  0  0  0  0  0  0  0  0  0  0  0
  1  2  1  0  0  0  0
  1 22  1  0  0  0  0
  1 23  1  0  0  0  0
  1 24  1  0  0  0  0
  2  3  1  0  0  0  0
  2 25  1  0  0  0  0
  2 26  1  0  0  0  0
  3  4  1  0  0  0  0
  3  5  1  0  0  0  0
  3 16  1  0  0  0  0
  4 27  1  0  0  0  0
  4 28  1  0  0  0  0
  4 29  1  0  0  0  0
  5  6  1  0  0  0  0
  5 30  1  0  0  0  0
  5 31  1  0  0  0  0
  6  7  1  0  0  0  0
  6 32  1  0  0  0  0
  7  8  2  0  0  0  0
  7  9  1  0  0  0  0
  9 10  1  0  0  0  0
  9 11  1  0  0  0  0
  9 33  1  0  0  0  0
 10 34  1  0  0  0  0
 10 35  1  0  0  0  0
 10 36  1  0  0  0  0
 11 15  1  0  0  0  0
 11 12  1  0  0  0  0
 12 13  2  0  0  0  0
 12 37  1  0  0  0  0
 13 14  1  0  0  0  0
 14 15  2  0  0  0  0
 14 38  1  0  0  0  0
 16 21  1  0  0  0  0
 16 17  1  0  0  0  0
 17 18  1  0  0  0  0
 17 39  1  0  0  0  0
 17 40  1  0  0  0  0
 18 19  1  0  0  0  0
 18 41  1  0  0  0  0
 18 42  1  0  0  0  0
 19 20  1  0  0  0  0
 20 21  1  0  0  0  0
 20 43  1  0  0  0  0
 20 44  1  0  0  0  0
 21 45  1  0  0  0  0
 21 46  1  0  0  0  0
M  END
> <s_m_source_file>
AV-unprocessed.smi

> <i_m_source_file_index>
1285

> <i_lp_mmshare_version>
43012

> <i_f3d_flags>
0

> <s_epik_input>
W0NIMl0xW0NIMl1PW0NIMl1bQ0gyXU4xW0NAQF0oW0NIM10pKFtDSDJdW0NIM10pW0NIMl1bTkhdQyg9TylbQ0BIXShbQ0gzXSluMltjSF1uW2NIXW4y

> <s_epik_cmdline>
J2VwaWtfcHl0aG9uJywgJy1waCcsICc3LjAnLCAnLXRuJywgJzgnLCAnLW1hJywgJzIwMCcsICctbWV0YWxfYmluZGluZycsICctaW1hZScsICc8aW5maWxlLm1hZT4nLCAnLW9tYWUnLCAnPG91dGZpbGUubWFlPic=

> <r_lp_tautomer_probability>
1

> <r_epik_Ionization_Penalty>
0.285697

> <r_epik_Ionization_Penalty_Charging>
0

> <r_epik_Ionization_Penalty_Neutral>
0.285697

> <r_epik_State_Penalty>
0.278478

> <r_epik_Charging_Adjusted_Penalty>
0.278478

> <i_epik_Tot_Q>
0

> <i_epik_Tot_abs_Q>
0

> <r_epik_Metal_State_Penalty>
0.278477

> <b_epik_Metal_Only>
0

> <s_lp_Force_Field>
OPLS_2005

> <r_lp_Energy>
48.702

> <b_lp_Chiralities_Consistent>
1

> <s_lp_Variant>
AV-unprocessed.smi:1285-3

> <Gold.Version>
5.8.1

> <Gold.Id.Protein>
6NUR|6NUR_protein|mol2

> <Gold.PLP.Fitness>
34.5092

> <Gold.PLP.PLP>
-30.3938

> <Gold.PLP.part.hbond>
-1.1891

> <Gold.PLP.part.metal>
0.0000

> <Gold.PLP.part.buried>
-4.2083

> <Gold.PLP.part.nonpolar>
-23.9699

> <Gold.PLP.part.repulsive>
0.1764

> <Gold.PLP.ligand.clash>
0.0000

> <Gold.PLP.ligand.torsion>
1.0666

> <Gold.PLP.Chemscore.Hbond>
1.0000

> <Gold.PLP.Chemscore.CHOScore>
1.0000

> <Gold.PLP.Chemscore.Metal>
0.0000

> <Gold.Chemscore.Hbonds>
donor molecule, donor type, donor heavy atom, donor atom, acceptor molecule, acceptor atom, score
      P1  H  6896  6908       L1     8  0.98
      L1  C    12    37       P1  7948  0.87

> <Gold.PLP.Chemscore.Internal.Correction>
0.2486

> <Gold.Rescore>
     Score         DG    S(hbond)    S(metal)    S(lipo)     H(rot)  DE(clash)    DE(int)     intcor
      9.49     -10.43       1.12        0.00      69.18       2.68       0.05       0.90       ----

> <Gold.Chemscore.Fitness>
9.4889

> <Gold.Chemscore.DG>
-10.4334

> <Gold.Chemscore.ZeroCoef>
-5.4800

> <Gold.Chemscore.Hbond>
1.1156

> <Gold.Chemscore.Metal>
0.0000

> <Gold.Chemscore.Lipo>
69.1759

> <Gold.Chemscore.Internal_Hbond>
0.0000

> <Gold.Chemscore.DEClash>
0.0455

> <Gold.Chemscore.DEInternal>
0.8991

> <Gold.Chemscore.Rot>
2.6821

> <Gold.Chemscore.Internal.Correction>
   9.000000E+99

> <Gold.Chemscore.Hbonds>
donor molecule, donor type, donor heavy atom, donor atom, acceptor molecule, acceptor atom, score
      P1  H  6896  6908       L1     8  0.93

> <Gold.Chemscore.Hbond.Weighted>
-3.7260

> <Gold.Chemscore.Metal.Weighted>
-0.0000

> <Gold.Chemscore.Lipo.Weighted>
-8.0936

> <Gold.Chemscore.Internal_Hbond.Weighted>
0.0000

> <Gold.Chemscore.DEClash.Weighted>
0.0455

> <Gold.Chemscore.DEInternal.Weighted>
0.8991

> <Gold.Chemscore.Rot.Weighted>
6.8661

> <Gold.Chemscore.Internal.Correction.Weighted>
   9.000000E+99

> <Gold.Protein.RotatedTorsions>
[ 6907 6896 6895 6894 ] final -160.53 input  -60.11 | X-H torsion
[ 7974 7965 7964 7962 ] final  -81.58 input  175.53 | X-H torsion
[ 8008 7997 7996 7995 ] final   63.59 input   59.86 | X-H torsion
[ 10167 10162 10161 10158 ] final  -79.54 input  -65.29 | X-H torsion
[ 10718 10713 10712 10709 ] final  -93.01 input   66.30 | X-H torsion
[ 10763 10752 10751 10750 ] final  163.06 input  -60.55 | X-H torsion
[ 11005 11000 10999 10996 ] final  154.49 input  -57.11 | X-H torsion

> <Gold.Protein.ActiveResidues>
 VAL166  LYS551  ARG553  GLY616  TRP617  ASP618  TYR619  PRO620  LYS621  CYS622 
 ASP623  PHE694  ASN695  SER759  ASP760  ASP761  ALA762  ILE779  LEU786  VAL792 
 PHE793  MET794  SER795  GLU796  ALA797  LYS798  CYS799  TRP800  GLU811  SER814 

> <Gold.Protein.RotatedAtoms>
  151.3505  133.3927  159.2679 H   0  0  0  0  0  0  0  0  0  0  0  0  # atno 6907 bound_to 6896
  150.9805  134.9162  159.7852 H   0  0  0  0  0  0  0  0  0  0  0  0  # atno 6908 bound_to 6896
  152.5215  134.3468  159.9289 H   0  0  0  0  0  0  0  0  0  0  0  0  # atno 6909 bound_to 6896
  145.5447  140.9505  143.1532 H   0  0  0  0  0  0  0  0  0  0  0  0  # atno 7974 bound_to 7965
  155.6327  140.3496  155.4688 H   0  0  0  0  0  0  0  0  0  0  0  0  # atno 8008 bound_to 7997
  155.9990  140.1209  157.0589 H   0  0  0  0  0  0  0  0  0  0  0  0  # atno 8009 bound_to 7997
  154.4242  140.1104  156.5656 H   0  0  0  0  0  0  0  0  0  0  0  0  # atno 8010 bound_to 7997
  140.4584  143.2461  151.8386 H   0  0  0  0  0  0  0  0  0  0  0  0  # atno 10167 bound_to 10162
  156.0008  130.5010  150.5712 H   0  0  0  0  0  0  0  0  0  0  0  0  # atno 10718 bound_to 10713
  154.2879  135.2761  155.2668 H   0  0  0  0  0  0  0  0  0  0  0  0  # atno 10763 bound_to 10752
  154.5159  135.5769  153.6645 H   0  0  0  0  0  0  0  0  0  0  0  0  # atno 10764 bound_to 10752
  152.9919  135.6192  154.3042 H   0  0  0  0  0  0  0  0  0  0  0  0  # atno 10765 bound_to 10752
  140.1494  134.8685  157.2435 H   0  0  0  0  0  0  0  0  0  0  0  0  # atno 11005 bound_to 11000
  144.7559  139.7076  143.7254 LP  0  0  0  0  0  0  0  0  0  0  0  0  # atno 17320 bound_to 7965
  146.1957  139.5222  142.9776 LP  0  0  0  0  0  0  0  0  0  0  0  0  # atno 17321 bound_to 7965
  139.4803  144.5037  151.9025 LP  0  0  0  0  0  0  0  0  0  0  0  0  # atno 17342 bound_to 10162
  140.4124  144.2352  150.5888 LP  0  0  0  0  0  0  0  0  0  0  0  0  # atno 17343 bound_to 10162
  157.3606  131.0749  151.1639 LP  0  0  0  0  0  0  0  0  0  0  0  0  # atno 17370 bound_to 10713
  157.2425  130.6576  149.5896 LP  0  0  0  0  0  0  0  0  0  0  0  0  # atno 17371 bound_to 10713
  140.2623  134.3556  155.7402 LP  0  0  0  0  0  0  0  0  0  0  0  0  # atno 17394 bound_to 11000
  141.2197  133.7376  156.9099 LP  0  0  0  0  0  0  0  0  0  0  0  0  # atno 17395 bound_to 11000

$$$$
