AV-unprocessed.smi:2567|AV-procd|sdf|10084|dock4
  -GOLD-   2272014113D 1   1.00000     0.00000
 Structure written by MMmdl.
 33 34  0  0  0  0  0  0  0  0  3 V2000
  144.2006  144.7622  160.3829 C   0  0  0  0  0  0  0  0  0  0  0  0
  145.4734  143.9123  160.5493 C   0  0  0  0  0  0  0  0  0  0  0  0
  146.6916  144.8601  160.5402 C   0  0  0  0  0  0  0  0  0  0  0  0
  145.4564  143.1606  161.8930 C   0  0  0  0  0  0  0  0  0  0  0  0
  145.5683  142.9092  159.4034 C   0  0  0  0  0  0  0  0  0  0  0  0
  145.7033  141.5761  159.5412 N   0  5  0  0  0  0  0  0  0  0  0  0
  145.7547  140.9999  158.3585 N   0  0  0  0  0  0  0  0  0  0  0  0
  145.6393  141.9995  157.4728 C   0  0  0  0  0  0  0  0  0  0  0  0
  145.6856  141.8220  155.9697 C   0  0  2  0  0  0  0  0  0  0  0  0
  145.8946  140.3422  155.5933 C   0  0  0  0  0  0  0  0  0  0  0  0
  145.9517  140.1913  154.1266 N   0  3  0  0  0  0  0  0  0  0  0  0
  146.9778  141.0682  153.5302 C   0  0  0  0  0  0  0  0  0  0  0  0
  146.7433  142.5241  153.9658 C   0  0  0  0  0  0  0  0  0  0  0  0
  146.7294  142.6003  155.3866 O   0  0  0  0  0  0  0  0  0  0  0  0
  145.5379  143.1795  158.0998 N   0  0  0  0  0  0  0  0  0  0  0  0
  144.1062  145.4986  161.1816 H   0  0  0  0  0  0  0  0  0  0  0  0
  143.3038  144.1418  160.4028 H   0  0  0  0  0  0  0  0  0  0  0  0
  144.2063  145.3007  159.4348 H   0  0  0  0  0  0  0  0  0  0  0  0
  146.7535  145.4209  159.6068 H   0  0  0  0  0  0  0  0  0  0  0  0
  147.6260  144.3098  160.6562 H   0  0  0  0  0  0  0  0  0  0  0  0
  146.6373  145.5853  161.3529 H   0  0  0  0  0  0  0  0  0  0  0  0
  145.3970  143.8515  162.7343 H   0  0  0  0  0  0  0  0  0  0  0  0
  146.3570  142.5589  162.0217 H   0  0  0  0  0  0  0  0  0  0  0  0
  144.6003  142.4885  161.9614 H   0  0  0  0  0  0  0  0  0  0  0  0
  144.7293  142.1689  155.5736 H   0  0  0  0  0  0  0  0  0  0  0  0
  146.8222  139.9671  156.0288 H   0  0  0  0  0  0  0  0  0  0  0  0
  145.0835  139.7270  155.9844 H   0  0  0  0  0  0  0  0  0  0  0  0
  146.1535  139.2291  153.8955 H   0  0  0  0  0  0  0  0  0  0  0  0
  147.9655  140.7337  153.8501 H   0  0  0  0  0  0  0  0  0  0  0  0
  146.9433  140.9806  152.4441 H   0  0  0  0  0  0  0  0  0  0  0  0
  147.5401  143.1635  153.5853 H   0  0  0  0  0  0  0  0  0  0  0  0
  145.8056  142.9074  153.5603 H   0  0  0  0  0  0  0  0  0  0  0  0
  145.0509  140.4411  153.7441 H   0  0  0  0  0  0  0  0  0  0  0  0
  1  2  1  0  0  0  0
  1 16  1  0  0  0  0
  1 17  1  0  0  0  0
  1 18  1  0  0  0  0
  2  3  1  0  0  0  0
  2  4  1  0  0  0  0
  2  5  1  0  0  0  0
  3 19  1  0  0  0  0
  3 20  1  0  0  0  0
  3 21  1  0  0  0  0
  4 22  1  0  0  0  0
  4 23  1  0  0  0  0
  4 24  1  0  0  0  0
  5 15  2  0  0  0  0
  5  6  1  0  0  0  0
  6  7  1  0  0  0  0
  7  8  2  0  0  0  0
  8  9  1  0  0  0  0
  8 15  1  0  0  0  0
  9 14  1  0  0  0  0
  9 10  1  0  0  0  0
  9 25  1  0  0  0  0
 10 11  1  0  0  0  0
 10 26  1  0  0  0  0
 10 27  1  0  0  0  0
 11 12  1  0  0  0  0
 11 28  1  0  0  0  0
 11 33  1  0  0  0  0
 12 13  1  0  0  0  0
 12 29  1  0  0  0  0
 12 30  1  0  0  0  0
 13 14  1  0  0  0  0
 13 31  1  0  0  0  0
 13 32  1  0  0  0  0
M  CHG  1   6  -1
M  CHG  1  11   1
M  END
> <s_m_source_file>
AV-unprocessed.smi

> <i_m_source_file_index>
2567

> <i_lp_mmshare_version>
43012

> <i_f3d_flags>
0

> <s_epik_input>
W0NIM11DKFtDSDNdKShbQ0gzXSljMW5bbkhdYyhuMSlbQ0BASF0yW0NIMl1bTkhdW0NIMl1bQ0gyXU8y

> <s_epik_cmdline>
J2VwaWtfcHl0aG9uJywgJy1waCcsICc3LjAnLCAnLXRuJywgJzgnLCAnLW1hJywgJzIwMCcsICctbWV0YWxfYmluZGluZycsICctaW1hZScsICc8aW5maWxlLm1hZT4nLCAnLW9tYWUnLCAnPG91dGZpbGUubWFlPic=

> <r_lp_tautomer_probability>
0.948284

> <r_epik_Ionization_Penalty>
5.01189

> <r_epik_Ionization_Penalty_Charging>
5.01189

> <r_epik_Ionization_Penalty_Neutral>
8.99859e-14

> <r_epik_State_Penalty>
2.75157

> <r_epik_Charging_Adjusted_Penalty>
7.76346

> <i_epik_Tot_Q>
0

> <i_epik_Tot_abs_Q>
2

> <r_epik_Metal_State_Penalty>
0.54282

> <b_epik_Metal_Only>
1

> <s_lp_Force_Field>
OPLS_2005

> <r_lp_Energy>
6.85935

> <b_lp_Chiralities_Consistent>
1

> <s_lp_Variant>
AV-unprocessed.smi:2567-9

> <Gold.Version>
5.8.1

> <Gold.Id.Protein>
6NUR|6NUR_protein|mol2

> <Gold.PLP.Fitness>
32.1005

> <Gold.PLP.PLP>
-20.2610

> <Gold.PLP.part.hbond>
-2.5560

> <Gold.PLP.part.metal>
0.0000

> <Gold.PLP.part.buried>
-5.2502

> <Gold.PLP.part.nonpolar>
-13.2614

> <Gold.PLP.part.repulsive>
1.3754

> <Gold.PLP.ligand.clash>
0.0000

> <Gold.PLP.ligand.torsion>
0.0881

> <Gold.PLP.Chemscore.Hbond>
4.0000

> <Gold.PLP.Chemscore.CHOScore>
0.0000

> <Gold.PLP.Chemscore.Metal>
0.0000

> <Gold.Chemscore.Hbonds>
donor molecule, donor type, donor heavy atom, donor atom, acceptor molecule, acceptor atom, score
      L1  H    11    33       P1 10175  2.00
      P1  H  6934  6946       L1     6  2.00

> <Gold.PLP.Chemscore.Internal.Correction>
0.0159

> <Gold.Rescore>
     Score         DG    S(hbond)    S(metal)    S(lipo)     H(rot)  DE(clash)    DE(int)     intcor
     12.79     -12.89       1.87        0.00      37.19       1.25       0.04       0.06       ----

> <Gold.Chemscore.Fitness>
12.7904

> <Gold.Chemscore.DG>
-12.8863

> <Gold.Chemscore.ZeroCoef>
-5.4800

> <Gold.Chemscore.Hbond>
1.8716

> <Gold.Chemscore.Metal>
0.0000

> <Gold.Chemscore.Lipo>
37.1930

> <Gold.Chemscore.Internal_Hbond>
0.0000

> <Gold.Chemscore.DEClash>
0.0354

> <Gold.Chemscore.DEInternal>
0.0605

> <Gold.Chemscore.Rot>
1.2486

> <Gold.Chemscore.Internal.Correction>
   9.000000E+99

> <Gold.Chemscore.Hbonds>
donor molecule, donor type, donor heavy atom, donor atom, acceptor molecule, acceptor atom, score
      L1  H    11    33       P1 10175  0.99
      P1  H  6934  6946       L1     6  0.78

> <Gold.Chemscore.Hbond.Weighted>
-6.2511

> <Gold.Chemscore.Metal.Weighted>
-0.0000

> <Gold.Chemscore.Lipo.Weighted>
-4.3516

> <Gold.Chemscore.Internal_Hbond.Weighted>
0.0000

> <Gold.Chemscore.DEClash.Weighted>
0.0354

> <Gold.Chemscore.DEInternal.Weighted>
0.0605

> <Gold.Chemscore.Rot.Weighted>
3.1964

> <Gold.Chemscore.Internal.Correction.Weighted>
   9.000000E+99

> <Gold.Protein.RotatedTorsions>
[ 6907 6896 6895 6894 ] final  120.56 input  -60.11 | X-H torsion
[ 7974 7965 7964 7962 ] final  -59.87 input  175.53 | X-H torsion
[ 8008 7997 7996 7995 ] final   69.30 input   59.86 | X-H torsion
[ 10167 10162 10161 10158 ] final   21.63 input  -65.29 | X-H torsion
[ 10718 10713 10712 10709 ] final -176.39 input   66.30 | X-H torsion
[ 10763 10752 10751 10750 ] final  126.59 input  -60.55 | X-H torsion
[ 11005 11000 10999 10996 ] final  -40.64 input  -57.11 | X-H torsion

> <Gold.Protein.ActiveResidues>
 VAL166  LYS551  ARG553  GLY616  TRP617  ASP618  TYR619  PRO620  LYS621  CYS622 
 ASP623  PHE694  ASN695  SER759  ASP760  ASP761  ALA762  ILE779  LEU786  VAL792 
 PHE793  MET794  SER795  GLU796  ALA797  LYS798  CYS799  TRP800  GLU811  SER814 

> <Gold.Protein.RotatedAtoms>
  152.4389  133.7411  159.6640 H   0  0  0  0  0  0  0  0  0  0  0  0  # atno 6907 bound_to 6896
  150.8276  133.8135  159.3118 H   0  0  0  0  0  0  0  0  0  0  0  0  # atno 6908 bound_to 6896
  151.5798  135.1061  160.0066 H   0  0  0  0  0  0  0  0  0  0  0  0  # atno 6909 bound_to 6896
  145.8222  140.8533  143.0126 H   0  0  0  0  0  0  0  0  0  0  0  0  # atno 7974 bound_to 7965
  155.7215  140.3493  155.5018 H   0  0  0  0  0  0  0  0  0  0  0  0  # atno 8008 bound_to 7997
  155.9265  140.1076  157.1188 H   0  0  0  0  0  0  0  0  0  0  0  0  # atno 8009 bound_to 7997
  154.4078  140.1239  156.4733 H   0  0  0  0  0  0  0  0  0  0  0  0  # atno 8010 bound_to 7997
  140.5411  143.9675  150.6520 H   0  0  0  0  0  0  0  0  0  0  0  0  # atno 10167 bound_to 10162
  156.8140  130.9596  151.3114 H   0  0  0  0  0  0  0  0  0  0  0  0  # atno 10718 bound_to 10713
  153.6958  135.3291  155.3213 H   0  0  0  0  0  0  0  0  0  0  0  0  # atno 10763 bound_to 10752
  154.8427  135.4442  154.1461 H   0  0  0  0  0  0  0  0  0  0  0  0  # atno 10764 bound_to 10752
  153.2515  135.6982  153.7752 H   0  0  0  0  0  0  0  0  0  0  0  0  # atno 10765 bound_to 10752
  141.0189  133.6872  156.2349 H   0  0  0  0  0  0  0  0  0  0  0  0  # atno 11005 bound_to 11000
  144.6746  140.0551  143.7477 LP  0  0  0  0  0  0  0  0  0  0  0  0  # atno 17320 bound_to 7965
  145.9662  139.2836  143.1126 LP  0  0  0  0  0  0  0  0  0  0  0  0  # atno 17321 bound_to 7965
  140.3076  143.3219  152.0911 LP  0  0  0  0  0  0  0  0  0  0  0  0  # atno 17342 bound_to 10162
  139.4989  144.6657  151.6362 LP  0  0  0  0  0  0  0  0  0  0  0  0  # atno 17343 bound_to 10162
  157.6491  130.8869  149.9597 LP  0  0  0  0  0  0  0  0  0  0  0  0  # atno 17370 bound_to 10713
  156.1028  130.3654  150.0188 LP  0  0  0  0  0  0  0  0  0  0  0  0  # atno 17371 bound_to 10713
  140.6607  134.4971  157.5583 LP  0  0  0  0  0  0  0  0  0  0  0  0  # atno 17394 bound_to 11000
  139.9134  134.8297  156.1449 LP  0  0  0  0  0  0  0  0  0  0  0  0  # atno 17395 bound_to 11000

$$$$
