AV-unprocessed.smi:2997|AV-procd|sdf|11413|dock4
  -GOLD-   2272016333D 1   1.00000     0.00000
 Structure written by MMmdl.
 38 40  0  0  0  0  0  0  0  0  1 V2000
  153.7337  142.9887  163.3249 C   0  0  0  0  0  0  0  0  0  0  0  0
  153.2190  142.5976  161.9508 C   0  0  0  0  0  0  0  0  0  0  0  0
  152.3499  143.4774  161.2669 C   0  0  0  0  0  0  0  0  0  0  0  0
  151.8497  143.1516  159.9873 C   0  0  0  0  0  0  0  0  0  0  0  0
  151.0015  143.8541  159.1484 N   0  0  0  0  0  0  0  0  0  0  0  0
  150.9124  143.0306  158.1077 C   0  0  0  0  0  0  0  0  0  0  0  0
  151.6036  141.8763  158.1735 N   0  0  0  0  0  0  0  0  0  0  0  0
  151.6614  140.8282  157.1704 C   0  0  0  0  0  0  0  0  0  0  0  0
  150.6419  141.0419  156.0357 C   0  0  1  0  0  0  0  0  0  0  0  0
  150.9296  140.1624  154.9638 O   0  0  0  0  0  0  0  0  0  0  0  0
  149.1939  140.8247  156.5161 C   0  0  0  0  0  0  0  0  0  0  0  0
  148.2075  141.2723  155.5487 N   0  0  0  0  0  0  0  0  0  0  0  0
  148.1594  141.0208  154.1935 C   0  0  0  0  0  0  0  0  0  0  0  0
  147.0480  141.6446  153.7037 C   0  0  0  0  0  0  0  0  0  0  0  0
  146.4717  142.2582  154.8510 C   0  0  0  0  0  0  0  0  0  0  0  0
  147.1657  142.0302  155.9545 N   0  0  0  0  0  0  0  0  0  0  0  0
  152.2449  141.9112  159.4065 C   0  0  0  0  0  0  0  0  0  0  0  0
  153.1081  141.0270  160.0772 C   0  0  0  0  0  0  0  0  0  0  0  0
  153.5991  141.3682  161.3550 C   0  0  0  0  0  0  0  0  0  0  0  0
  154.5305  140.4069  162.0721 C   0  0  0  0  0  0  0  0  0  0  0  0
  153.3722  143.9742  163.6200 H   0  0  0  0  0  0  0  0  0  0  0  0
  154.8234  143.0173  163.3317 H   0  0  0  0  0  0  0  0  0  0  0  0
  153.4007  142.2714  164.0753 H   0  0  0  0  0  0  0  0  0  0  0  0
  152.0590  144.4134  161.7209 H   0  0  0  0  0  0  0  0  0  0  0  0
  150.3077  143.2792  157.2478 H   0  0  0  0  0  0  0  0  0  0  0  0
  152.6757  140.7804  156.7710 H   0  0  0  0  0  0  0  0  0  0  0  0
  151.4774  139.8745  157.6666 H   0  0  0  0  0  0  0  0  0  0  0  0
  150.7408  142.0616  155.6608 H   0  0  0  0  0  0  0  0  0  0  0  0
  150.1291  139.7344  154.7018 H   0  0  0  0  0  0  0  0  0  0  0  0
  149.0177  139.7691  156.7275 H   0  0  0  0  0  0  0  0  0  0  0  0
  149.0228  141.3617  157.4502 H   0  0  0  0  0  0  0  0  0  0  0  0
  148.9121  140.4270  153.6963 H   0  0  0  0  0  0  0  0  0  0  0  0
  146.6998  141.6604  152.6817 H   0  0  0  0  0  0  0  0  0  0  0  0
  145.5751  142.8569  154.9143 H   0  0  0  0  0  0  0  0  0  0  0  0
  153.3883  140.0937  159.6112 H   0  0  0  0  0  0  0  0  0  0  0  0
  154.7062  139.5078  161.4809 H   0  0  0  0  0  0  0  0  0  0  0  0
  154.1028  140.1006  163.0269 H   0  0  0  0  0  0  0  0  0  0  0  0
  155.4953  140.8783  162.2594 H   0  0  0  0  0  0  0  0  0  0  0  0
  1  2  1  0  0  0  0
  1 21  1  0  0  0  0
  1 22  1  0  0  0  0
  1 23  1  0  0  0  0
  2 19  1  0  0  0  0
  2  3  2  0  0  0  0
  3  4  1  0  0  0  0
  3 24  1  0  0  0  0
  4 17  2  0  0  0  0
  4  5  1  0  0  0  0
  5  6  2  0  0  0  0
  6  7  1  0  0  0  0
  6 25  1  0  0  0  0
  7  8  1  0  0  0  0
  7 17  1  0  0  0  0
  8  9  1  0  0  0  0
  8 26  1  0  0  0  0
  8 27  1  0  0  0  0
  9 10  1  0  0  0  0
  9 11  1  0  0  0  0
  9 28  1  0  0  0  0
 10 29  1  0  0  0  0
 11 12  1  0  0  0  0
 11 30  1  0  0  0  0
 11 31  1  0  0  0  0
 12 16  1  0  0  0  0
 12 13  1  0  0  0  0
 13 14  2  0  0  0  0
 13 32  1  0  0  0  0
 14 15  1  0  0  0  0
 14 33  1  0  0  0  0
 15 16  2  0  0  0  0
 15 34  1  0  0  0  0
 17 18  1  0  0  0  0
 18 19  2  0  0  0  0
 18 35  1  0  0  0  0
 19 20  1  0  0  0  0
 20 36  1  0  0  0  0
 20 37  1  0  0  0  0
 20 38  1  0  0  0  0
M  END
> <s_m_source_file>
AV-unprocessed.smi

> <i_m_source_file_index>
2997

> <i_lp_mmshare_version>
43012

> <i_f3d_flags>
0

> <s_epik_input>
W0NIM11jKFtjSF0xKWMoW0NIM10pW2NIXWMoYzEyKW4oW2NIXW4yKVtDSDJdW0NASF0oW09IXSlbQ0gyXW4zW2NIXVtjSF1bY0hdbjM=

> <s_epik_cmdline>
J2VwaWtfcHl0aG9uJywgJy1waCcsICc3LjAnLCAnLXRuJywgJzgnLCAnLW1hJywgJzIwMCcsICctbWV0YWxfYmluZGluZycsICctaW1hZScsICc8aW5maWxlLm1hZT4nLCAnLW9tYWUnLCAnPG91dGZpbGUubWFlPic=

> <r_lp_tautomer_probability>
1

> <r_epik_Ionization_Penalty>
0.102113

> <r_epik_Ionization_Penalty_Charging>
0

> <r_epik_Ionization_Penalty_Neutral>
0.102113

> <r_epik_State_Penalty>
0.0920694

> <r_epik_Charging_Adjusted_Penalty>
0.0920694

> <i_epik_Tot_Q>
0

> <i_epik_Tot_abs_Q>
0

> <r_epik_Metal_State_Penalty>
0.0784306

> <b_epik_Metal_Only>
0

> <s_lp_Force_Field>
OPLS_2005

> <r_lp_Energy>
7.68531

> <b_lp_Chiralities_Consistent>
1

> <s_lp_Variant>
AV-unprocessed.smi:2997-2

> <Gold.Version>
5.8.1

> <Gold.Id.Protein>
6NUR|6NUR_protein|mol2

> <Gold.PLP.Fitness>
56.3890

> <Gold.PLP.PLP>
-48.0400

> <Gold.PLP.part.hbond>
-1.0000

> <Gold.PLP.part.metal>
0.0000

> <Gold.PLP.part.buried>
-7.1603

> <Gold.PLP.part.nonpolar>
-39.9196

> <Gold.PLP.part.repulsive>
0.7766

> <Gold.PLP.ligand.clash>
0.0000

> <Gold.PLP.ligand.torsion>
0.3457

> <Gold.PLP.Chemscore.Hbond>
1.0000

> <Gold.PLP.Chemscore.CHOScore>
2.0000

> <Gold.PLP.Chemscore.Metal>
0.0000

> <Gold.Chemscore.Hbonds>
donor molecule, donor type, donor heavy atom, donor atom, acceptor molecule, acceptor atom, score
      P1  H  7989  7998       L1    10  1.00
      L1  C     6    25       P1  8028  0.92
      L1  C    13    32       P1  7957  0.68

> <Gold.PLP.Chemscore.Internal.Correction>
0.0404

> <Gold.Rescore>
     Score         DG    S(hbond)    S(metal)    S(lipo)     H(rot)  DE(clash)    DE(int)     intcor
     13.86     -14.39       0.04        0.00     122.17       2.15       0.16       0.37       ----

> <Gold.Chemscore.Fitness>
13.8619

> <Gold.Chemscore.DG>
-14.3938

> <Gold.Chemscore.ZeroCoef>
-5.4800

> <Gold.Chemscore.Hbond>
0.0397

> <Gold.Chemscore.Metal>
0.0000

> <Gold.Chemscore.Lipo>
122.1699

> <Gold.Chemscore.Internal_Hbond>
0.0000

> <Gold.Chemscore.DEClash>
0.1569

> <Gold.Chemscore.DEInternal>
0.3750

> <Gold.Chemscore.Rot>
2.1534

> <Gold.Chemscore.Internal.Correction>
   9.000000E+99

> <Gold.Chemscore.Hbonds>
donor molecule, donor type, donor heavy atom, donor atom, acceptor molecule, acceptor atom, score
      P1  H  7989  7998       L1    10  0.57

> <Gold.Chemscore.Hbond.Weighted>
-0.1327

> <Gold.Chemscore.Metal.Weighted>
-0.0000

> <Gold.Chemscore.Lipo.Weighted>
-14.2939

> <Gold.Chemscore.Internal_Hbond.Weighted>
0.0000

> <Gold.Chemscore.DEClash.Weighted>
0.1569

> <Gold.Chemscore.DEInternal.Weighted>
0.3750

> <Gold.Chemscore.Rot.Weighted>
5.5127

> <Gold.Chemscore.Internal.Correction.Weighted>
   9.000000E+99

> <Gold.Protein.RotatedTorsions>
[ 6907 6896 6895 6894 ] final    2.15 input  -60.11 | X-H torsion
[ 7974 7965 7964 7962 ] final -146.39 input  175.53 | X-H torsion
[ 8008 7997 7996 7995 ] final   59.71 input   59.86 | X-H torsion
[ 10167 10162 10161 10158 ] final   25.56 input  -65.29 | X-H torsion
[ 10718 10713 10712 10709 ] final  -33.65 input   66.30 | X-H torsion
[ 10763 10752 10751 10750 ] final -139.79 input  -60.55 | X-H torsion
[ 11005 11000 10999 10996 ] final  -79.74 input  -57.11 | X-H torsion

> <Gold.Protein.ActiveResidues>
 VAL166  LYS551  ARG553  GLY616  TRP617  ASP618  TYR619  PRO620  LYS621  CYS622 
 ASP623  PHE694  ASN695  SER759  ASP760  ASP761  ALA762  ILE779  LEU786  VAL792 
 PHE793  MET794  SER795  GLU796  ALA797  LYS798  CYS799  TRP800  GLU811  SER814 

> <Gold.Protein.RotatedAtoms>
  151.6042  135.1045  160.0066 H   0  0  0  0  0  0  0  0  0  0  0  0  # atno 6907 bound_to 6896
  152.4242  133.7163  159.6518 H   0  0  0  0  0  0  0  0  0  0  0  0  # atno 6908 bound_to 6896
  150.8130  133.8314  159.3195 H   0  0  0  0  0  0  0  0  0  0  0  0  # atno 6909 bound_to 6896
  144.8163  140.5462  143.5608 H   0  0  0  0  0  0  0  0  0  0  0  0  # atno 7974 bound_to 7965
  155.5706  140.3490  155.4514 H   0  0  0  0  0  0  0  0  0  0  0  0  # atno 8008 bound_to 7997
  156.0447  140.1304  157.0142 H   0  0  0  0  0  0  0  0  0  0  0  0  # atno 8009 bound_to 7997
  154.4407  140.1017  156.6273 H   0  0  0  0  0  0  0  0  0  0  0  0  # atno 8010 bound_to 7997
  140.5096  144.0182  150.6367 H   0  0  0  0  0  0  0  0  0  0  0  0  # atno 10167 bound_to 10162
  156.3601  130.4322  149.7631 H   0  0  0  0  0  0  0  0  0  0  0  0  # atno 10718 bound_to 10713
  154.8598  135.3572  154.5603 H   0  0  0  0  0  0  0  0  0  0  0  0  # atno 10763 bound_to 10752
  153.6218  135.7005  153.5312 H   0  0  0  0  0  0  0  0  0  0  0  0  # atno 10764 bound_to 10752
  153.3122  135.4175  155.1305 H   0  0  0  0  0  0  0  0  0  0  0  0  # atno 10765 bound_to 10752
  141.1667  133.7119  156.8168 H   0  0  0  0  0  0  0  0  0  0  0  0  # atno 11005 bound_to 11000
  145.5207  139.1477  143.3553 LP  0  0  0  0  0  0  0  0  0  0  0  0  # atno 17320 bound_to 7965
  146.2466  140.5348  142.8911 LP  0  0  0  0  0  0  0  0  0  0  0  0  # atno 17321 bound_to 7965
  140.3501  143.2968  152.0496 LP  0  0  0  0  0  0  0  0  0  0  0  0  # atno 17342 bound_to 10162
  139.4892  144.6380  151.6936 LP  0  0  0  0  0  0  0  0  0  0  0  0  # atno 17343 bound_to 10162
  156.4798  130.8036  151.3050 LP  0  0  0  0  0  0  0  0  0  0  0  0  # atno 17370 bound_to 10713
  157.7472  131.0009  150.2944 LP  0  0  0  0  0  0  0  0  0  0  0  0  # atno 17371 bound_to 10713
  140.2148  134.8801  157.3313 LP  0  0  0  0  0  0  0  0  0  0  0  0  # atno 17394 bound_to 11000
  140.2049  134.4209  155.7643 LP  0  0  0  0  0  0  0  0  0  0  0  0  # atno 17395 bound_to 11000

$$$$
