#       Name:                AV-unprocessed.smi:1524
#       Creating user name   scv26
#       Creation time:       Fri Mar 27 06:28:28 2020


#       File generated by GOLD software.
#

@<TRIPOS>MOLECULE
AV-unprocessed.smi:1524
    41    42     1
SMALL
NO_CHARGES


@<TRIPOS>ATOM
      1 ****        -0.1405   2.6038   0.1608 O.2            1 S1                 0.0000
      2 ****        -0.4565   1.4164   0.1299 C.2            1 S1                 0.0000
      3 ****         0.4090   0.3822   0.0969 N.am           1 S1                 0.0000
      4 ****         1.8128   0.3932   0.1176 C.2            1 S1                 0.0000
      5 ****         2.5750   1.4370   0.5362 C.2            1 S1                 0.0000
      6 ****         4.0272   1.3780   0.5402 C.2            1 S1                 0.0000
      7 ****         4.8718   2.5801   0.9333 C.3            1 S1                 0.0000
      8 ****         6.0367   2.5860   0.2840 F              1 S1                 0.0000
      9 ****         4.2364   3.7207   0.6637 F              1 S1                 0.0000
     10 ****         5.1256   2.5462   2.2408 F              1 S1                 0.0000
     11 ****         4.5826   0.2345   0.0977 C.2            1 S1                 0.0000
     12 ****         3.8053  -0.8514  -0.3115 N.am           1 S1                 0.0000
     13 ****         2.4535  -0.8545  -0.3289 C.2            1 S1                 0.0000
     14 ****         1.8386  -1.8536  -0.7010 O.2            1 S1                 0.0000
     15 ****        -1.7499   1.0471   0.0921 N.am           1 S1                 0.0000
     16 ****        -2.9412   1.8995   0.1115 C.3            1 S1                 0.0000
     17 ****        -3.2951   2.3258   1.5482 C.3            1 S1                 0.0000
     18 ****        -4.6405   3.0693   1.5797 C.3            1 S1                 0.0000
     19 ****        -5.6616   2.2552   1.0133 O.3            1 S1                 0.0000
     20 ****        -5.4271   1.9461  -0.3562 C.3            1 S1                 0.0000
     21 ****        -4.1277   1.1367  -0.4967 C.3            1 S1                 0.0000
     22 ****         4.2971  -1.6807  -0.6120 H              1 S1                 0.0000
     23 ****        -0.0002  -0.5354  -0.0033 H              1 S1                 0.0000
     24 ****         2.1203   2.3431   0.9021 H              1 S1                 0.0000
     25 ****         5.6465   0.0656   0.0191 H              1 S1                 0.0000
     26 ****        -1.9273   0.0557   0.0163 H              1 S1                 0.0000
     27 ****        -2.7698   2.7897  -0.4968 H              1 S1                 0.0000
     28 ****        -3.3578   1.4467   2.1912 H              1 S1                 0.0000
     29 ****        -2.5138   2.9618   1.9656 H              1 S1                 0.0000
     30 ****        -4.9117   3.3090   2.6079 H              1 S1                 0.0000
     31 ****        -4.5742   4.0150   1.0395 H              1 S1                 0.0000
     32 ****        -6.2701   1.3686  -0.7357 H              1 S1                 0.0000
     33 ****        -5.3795   2.8638  -0.9444 H              1 S1                 0.0000
     34 ****        -3.9372   0.9174  -1.5480 H              1 S1                 0.0000
     35 ****        -4.2498   0.1761   0.0059 H              1 S1                 0.0000
     36 ****         0.8249   2.8644   0.1628 LP             1 S1                 0.0000
     37 ****        -0.8489   3.3092   0.1839 LP             1 S1                 0.0000
     38 ****         0.8387  -1.8499  -0.7126 LP             1 S1                 0.0000
     39 ****         2.3389  -2.6692  -0.9918 LP             1 S1                 0.0000
     40 ****        -6.5333   2.7398   1.0864 LP             1 S1                 0.0000
     41 ****        -5.7112   1.4002   1.5295 LP             1 S1                 0.0000
@<TRIPOS>BOND
    1    1    2 2     
    2    2    3 am    
    3    2   15 am    
    4    3    4 1     
    5    3   23 1     
    6    4   13 1     
    7    4    5 2     
    8    5    6 1     
    9    5   24 1     
   10    6    7 1     
   11    6   11 2     
   12    7    8 1     
   13    7    9 1     
   14    7   10 1     
   15   11   12 1     
   16   11   25 1     
   17   12   22 1     
   18   12   13 am    
   19   13   14 2     
   20   15   16 1     
   21   15   26 1     
   22   16   21 1     
   23   16   17 1     
   24   16   27 1     
   25   17   18 1     
   26   17   28 1     
   27   17   29 1     
   28   18   19 1     
   29   18   30 1     
   30   18   31 1     
   31   19   20 1     
   32   20   21 1     
   33   20   32 1     
   34   20   33 1     
   35   21   34 1     
   36   21   35 1     
   37    1   36 1     
   38    1   37 1     
   39   14   38 1     
   40   14   39 1     
   41   19   40 1     
   42   19   41 1     
@<TRIPOS>SUBSTRUCTURE
      1 S1             1
@<TRIPOS>SET
LONE_PAIRS      STATIC     ATOMS    <user>   **** ""
6 36 37 38 39 40 41
DONOR_HYDROGENS      STATIC     ATOMS    <user>   **** ""
3 23 22 26
ATOM$BLUE        STATIC     ATOMS    COLORGROUP SYSTEM
6 36 37 38 39 40 41
ATOM$RED        STATIC     ATOMS    COLORGROUP SYSTEM
3 23 22 26
