#       Name:                AV-unprocessed.smi:1405
#       Creating user name   scv26
#       Creation time:       Fri Mar 27 05:34:13 2020


#       File generated by GOLD software.
#

@<TRIPOS>MOLECULE
AV-unprocessed.smi:1405
    55    58     1
SMALL
NO_CHARGES


@<TRIPOS>ATOM
      1 ****        -2.8646   1.4130   2.8389 O.2            1 S1                 0.0000
      2 ****        -3.1503   0.9023   1.7563 C.2            1 S1                 0.0000
      3 ****        -4.6310   0.7742   1.3564 C.3            1 S1                 0.0000
      4 ****        -4.8716   0.0420   0.0991 N.am           1 S1                 0.0000
      5 ****        -5.1231  -1.3383   0.1923 C.2            1 S1                 0.0000
      6 ****        -5.3393  -2.0970  -0.8990 C.2            1 S1                 0.0000
      7 ****        -5.3083  -1.4515  -2.2053 C.2            1 S1                 0.0000
      8 ****        -5.5027  -2.1287  -3.2128 O.2            1 S1                 0.0000
      9 ****        -5.0595  -0.1097  -2.2441 N.pl3          1 S1                -1.0000
     10 ****        -4.8392   0.6490  -1.1259 C.2            1 S1                 0.0000
     11 ****        -4.6048   1.8562  -1.1844 O.2            1 S1                 0.0000
     12 ****        -2.2222   0.4346   0.9063 N.am           1 S1                 0.0000
     13 ****        -0.7845   0.4535   1.1315 C.3            1 S1                 0.0000
     14 ****        -0.0414   0.2969  -0.2083 C.3            1 S1                 0.0000
     15 ****         1.5029   0.1893  -0.1307 C.3            1 S1                 0.0000
     16 ****         1.9446  -1.0996   0.6146 C.3            1 S1                 0.0000
     17 ****         3.4843  -1.2144   0.6271 C.3            1 S1                 0.0000
     18 ****         4.0865   0.0123   1.3441 C.3            1 S1                 0.0000
     19 ****         3.6765   1.2956   0.5902 C.3            1 S1                 0.0000
     20 ****         4.2051   1.2364  -0.8576 C.3            1 S1                 0.0000
     21 ****         3.6011   0.0071  -1.5662 C.3            1 S1                 0.0000
     22 ****         4.0126  -1.2785  -0.8205 C.3            1 S1                 0.0000
     23 ****         2.0626   0.1249  -1.5778 C.3            1 S1                 0.0000
     24 ****         2.1368   1.4174   0.5775 C.3            1 S1                 0.0000
     25 ****        -5.1606   0.2852   2.1751 H              1 S1                 0.0000
     26 ****        -5.0623   1.7752   1.3030 H              1 S1                 0.0000
     27 ****        -5.1220  -1.7384   1.1957 H              1 S1                 0.0000
     28 ****        -5.5277  -3.1568  -0.8097 H              1 S1                 0.0000
     29 ****        -2.5436   0.0366   0.0352 H              1 S1                 0.0000
     30 ****        -0.5011   1.3889   1.6154 H              1 S1                 0.0000
     31 ****        -0.5397  -0.3575   1.8166 H              1 S1                 0.0000
     32 ****        -0.4274  -0.5862  -0.7201 H              1 S1                 0.0000
     33 ****        -0.3066   1.1432  -0.8441 H              1 S1                 0.0000
     34 ****         1.5816  -1.0968   1.6423 H              1 S1                 0.0000
     35 ****         1.5101  -1.9800   0.1392 H              1 S1                 0.0000
     36 ****         3.7741  -2.1220   1.1574 H              1 S1                 0.0000
     37 ****         3.7399   0.0535   2.3776 H              1 S1                 0.0000
     38 ****         5.1732  -0.0711   1.3866 H              1 S1                 0.0000
     39 ****         4.1035   2.1627   1.0948 H              1 S1                 0.0000
     40 ****         3.9429   2.1493  -1.3938 H              1 S1                 0.0000
     41 ****         5.2942   1.1784  -0.8617 H              1 S1                 0.0000
     42 ****         3.9688  -0.0362  -2.5918 H              1 S1                 0.0000
     43 ****         5.0980  -1.3865  -0.8229 H              1 S1                 0.0000
     44 ****         3.6139  -2.1564  -1.3304 H              1 S1                 0.0000
     45 ****         1.6333  -0.7238  -2.1121 H              1 S1                 0.0000
     46 ****         1.7684   1.0145  -2.1368 H              1 S1                 0.0000
     47 ****         1.8393   2.3398   0.0767 H              1 S1                 0.0000
     48 ****         1.7808   1.4980   1.6047 H              1 S1                 0.0000
     49 ****        -3.5902   1.7381   3.4454 LP             1 S1                 0.0000
     50 ****        -1.9069   1.5029   3.1121 LP             1 S1                 0.0000
     51 ****        -5.6793  -3.1095  -3.1296 LP             1 S1                 0.0000
     52 ****        -5.4843  -1.6988  -4.1154 LP             1 S1                 0.0000
     53 ****        -5.0370   0.3426  -3.1357 LP             1 S1                 0.0000
     54 ****        -4.4423   2.3752  -0.3452 LP             1 S1                 0.0000
     55 ****        -4.5770   2.3177  -2.0711 LP             1 S1                 0.0000
@<TRIPOS>BOND
    1    1    2 2     
    2    2    3 1     
    3    2   12 am    
    4    3    4 1     
    5    3   25 1     
    6    3   26 1     
    7    4   10 am    
    8    4    5 1     
    9    5    6 2     
   10    5   27 1     
   11    6    7 1     
   12    6   28 1     
   13    7    8 2     
   14    7    9 1     
   15    9   10 1     
   16   10   11 2     
   17   12   13 1     
   18   12   29 1     
   19   13   14 1     
   20   13   30 1     
   21   13   31 1     
   22   14   15 1     
   23   14   32 1     
   24   14   33 1     
   25   15   23 1     
   26   15   24 1     
   27   15   16 1     
   28   16   17 1     
   29   16   34 1     
   30   16   35 1     
   31   17   22 1     
   32   17   18 1     
   33   17   36 1     
   34   18   19 1     
   35   18   37 1     
   36   18   38 1     
   37   19   20 1     
   38   19   24 1     
   39   19   39 1     
   40   20   21 1     
   41   20   40 1     
   42   20   41 1     
   43   21   22 1     
   44   21   23 1     
   45   21   42 1     
   46   22   43 1     
   47   22   44 1     
   48   23   45 1     
   49   23   46 1     
   50   24   47 1     
   51   24   48 1     
   52    1   49 1     
   53    1   50 1     
   54    8   51 1     
   55    8   52 1     
   56    9   53 1     
   57   11   54 1     
   58   11   55 1     
@<TRIPOS>SUBSTRUCTURE
      1 S1             1
@<TRIPOS>SET
LONE_PAIRS      STATIC     ATOMS    <user>   **** ""
7 49 50 51 52 53 54 55
DONOR_HYDROGENS      STATIC     ATOMS    <user>   **** ""
1 29
ATOM$BLUE        STATIC     ATOMS    COLORGROUP SYSTEM
7 49 50 51 52 53 54 55
ATOM$RED        STATIC     ATOMS    COLORGROUP SYSTEM
1 29
