AV-unprocessed.smi:888|AV-procd|sdf|4054|dock4
  -GOLD-   22720 1543D 1   1.00000     0.00000
 Structure written by MMmdl.
 45 46  0  0  0  0  0  0  0  0  1 V2000
  151.6939  140.6044  157.8154 C   0  0  0  0  0  0  0  0  0  0  0  0
  151.0782  140.6957  156.4137 C   0  0  0  0  0  0  0  0  0  0  0  0
  151.5052  139.5698  155.5190 C   0  0  0  0  0  0  0  0  0  0  0  0
  152.7863  139.3649  155.1866 N   0  0  0  0  0  0  0  0  0  0  0  0
  152.7909  138.2554  154.3678 N   0  0  0  0  0  0  0  0  0  0  0  0
  151.5129  137.8903  154.2955 C   0  0  0  0  0  0  0  0  0  0  0  0
  150.6579  138.6563  154.9907 N   0  0  0  0  0  0  0  0  0  0  0  0
  149.2186  138.4796  155.1109 C   0  0  0  0  0  0  0  0  0  0  0  0
  148.8203  137.0223  155.4146 C   0  0  0  0  0  0  0  0  0  0  0  0
  148.1145  136.3816  154.3047 N   0  0  0  0  0  0  0  0  0  0  0  0
  147.1451  135.4514  154.3668 C   0  0  0  0  0  0  0  0  0  0  0  0
  146.7381  135.0094  155.4392 O   0  0  0  0  0  0  0  0  0  0  0  0
  146.6821  135.0457  153.1728 N   0  0  0  0  0  0  0  0  0  0  0  0
  145.6586  134.0233  152.9616 C   0  0  2  0  0  0  0  0  0  0  0  0
  146.2677  132.8082  152.2346 C   0  0  0  0  0  0  0  0  0  0  0  0
  145.5457  132.7023  150.8941 C   0  0  0  0  0  0  0  0  0  0  0  0
  144.1764  133.3170  151.1625 C   0  0  0  0  0  0  0  0  0  0  0  0
  144.4435  134.5039  152.1069 C   0  0  0  0  0  0  0  0  0  0  0  0
  143.2150  134.7830  152.9932 C   0  0  0  0  0  0  0  0  0  0  0  0
  144.7395  135.7657  151.2597 C   0  0  0  0  0  0  0  0  0  0  0  0
  151.3872  141.4510  158.4297 H   0  0  0  0  0  0  0  0  0  0  0  0
  152.7827  140.6006  157.7723 H   0  0  0  0  0  0  0  0  0  0  0  0
  151.3800  139.6934  158.3255 H   0  0  0  0  0  0  0  0  0  0  0  0
  149.9907  140.6780  156.4915 H   0  0  0  0  0  0  0  0  0  0  0  0
  151.3328  141.6567  155.9719 H   0  0  0  0  0  0  0  0  0  0  0  0
  151.1905  137.0331  153.7226 H   0  0  0  0  0  0  0  0  0  0  0  0
  148.8785  139.1150  155.9295 H   0  0  0  0  0  0  0  0  0  0  0  0
  148.7187  138.8601  154.2216 H   0  0  0  0  0  0  0  0  0  0  0  0
  149.7111  136.4334  155.6348 H   0  0  0  0  0  0  0  0  0  0  0  0
  148.2067  136.9815  156.3161 H   0  0  0  0  0  0  0  0  0  0  0  0
  148.4127  136.6573  153.3797 H   0  0  0  0  0  0  0  0  0  0  0  0
  147.0754  135.4705  152.3458 H   0  0  0  0  0  0  0  0  0  0  0  0
  145.3121  133.6684  153.9344 H   0  0  0  0  0  0  0  0  0  0  0  0
  147.3484  132.8784  152.1028 H   0  0  0  0  0  0  0  0  0  0  0  0
  146.0775  131.9069  152.8191 H   0  0  0  0  0  0  0  0  0  0  0  0
  146.0746  133.2860  150.1398 H   0  0  0  0  0  0  0  0  0  0  0  0
  145.4808  131.6753  150.5337 H   0  0  0  0  0  0  0  0  0  0  0  0
  143.6627  133.6042  150.2443 H   0  0  0  0  0  0  0  0  0  0  0  0
  143.5511  132.5734  151.6590 H   0  0  0  0  0  0  0  0  0  0  0  0
  142.3458  135.0496  152.3912 H   0  0  0  0  0  0  0  0  0  0  0  0
  143.4047  135.6063  153.6824 H   0  0  0  0  0  0  0  0  0  0  0  0
  142.9450  133.9116  153.5910 H   0  0  0  0  0  0  0  0  0  0  0  0
  143.9029  136.0016  150.6010 H   0  0  0  0  0  0  0  0  0  0  0  0
  145.6210  135.6365  150.6313 H   0  0  0  0  0  0  0  0  0  0  0  0
  144.9048  136.6428  151.8862 H   0  0  0  0  0  0  0  0  0  0  0  0
  1  2  1  0  0  0  0
  1 21  1  0  0  0  0
  1 22  1  0  0  0  0
  1 23  1  0  0  0  0
  2  3  1  0  0  0  0
  2 24  1  0  0  0  0
  2 25  1  0  0  0  0
  3  7  1  0  0  0  0
  3  4  2  0  0  0  0
  4  5  1  0  0  0  0
  5  6  2  0  0  0  0
  6  7  1  0  0  0  0
  6 26  1  0  0  0  0
  7  8  1  0  0  0  0
  8  9  1  0  0  0  0
  8 27  1  0  0  0  0
  8 28  1  0  0  0  0
  9 10  1  0  0  0  0
  9 29  1  0  0  0  0
  9 30  1  0  0  0  0
 10 11  1  0  0  0  0
 10 31  1  0  0  0  0
 11 12  2  0  0  0  0
 11 13  1  0  0  0  0
 13 14  1  0  0  0  0
 13 32  1  0  0  0  0
 14 18  1  0  0  0  0
 14 15  1  0  0  0  0
 14 33  1  0  0  0  0
 15 16  1  0  0  0  0
 15 34  1  0  0  0  0
 15 35  1  0  0  0  0
 16 17  1  0  0  0  0
 16 36  1  0  0  0  0
 16 37  1  0  0  0  0
 17 18  1  0  0  0  0
 17 38  1  0  0  0  0
 17 39  1  0  0  0  0
 18 19  1  0  0  0  0
 18 20  1  0  0  0  0
 19 40  1  0  0  0  0
 19 41  1  0  0  0  0
 19 42  1  0  0  0  0
 20 43  1  0  0  0  0
 20 44  1  0  0  0  0
 20 45  1  0  0  0  0
M  END
> <s_m_source_file>
AV-unprocessed.smi

> <i_m_source_file_index>
888

> <i_lp_mmshare_version>
43012

> <i_f3d_flags>
0

> <s_epik_input>
W0NIM11bQ0gyXWMxbm5bY0hdbjFbQ0gyXVtDSDJdW05IXUMoPU8pW05IXVtDQEBIXShDMihbQ0gzXSlbQ0gzXSlbQ0gyXVtDSDJdW0NIMl0y

> <s_epik_cmdline>
J2VwaWtfcHl0aG9uJywgJy1waCcsICc3LjAnLCAnLXRuJywgJzgnLCAnLW1hJywgJzIwMCcsICctbWV0YWxfYmluZGluZycsICctaW1hZScsICc8aW5maWxlLm1hZT4nLCAnLW9tYWUnLCAnPG91dGZpbGUubWFlPic=

> <r_lp_tautomer_probability>
1

> <r_epik_Ionization_Penalty>
0.000379534

> <r_epik_Ionization_Penalty_Charging>
0

> <r_epik_Ionization_Penalty_Neutral>
0.000379534

> <r_epik_State_Penalty>
-0

> <r_epik_Charging_Adjusted_Penalty>
0

> <i_epik_Tot_Q>
0

> <i_epik_Tot_abs_Q>
0

> <r_epik_Metal_State_Penalty>
-0

> <b_epik_Metal_Only>
0

> <s_lp_Force_Field>
OPLS_2005

> <r_lp_Energy>
31.9266

> <b_lp_Chiralities_Consistent>
1

> <s_lp_Variant>
AV-unprocessed.smi:888-1

> <Gold.Version>
5.8.1

> <Gold.Id.Protein>
6NUR|6NUR_protein|mol2

> <Gold.PLP.Fitness>
45.3945

> <Gold.PLP.PLP>
-35.4780

> <Gold.PLP.part.hbond>
-4.0155

> <Gold.PLP.part.metal>
0.0000

> <Gold.PLP.part.buried>
-5.3970

> <Gold.PLP.part.nonpolar>
-26.9737

> <Gold.PLP.part.repulsive>
0.0825

> <Gold.PLP.ligand.clash>
0.0000

> <Gold.PLP.ligand.torsion>
0.7205

> <Gold.PLP.Chemscore.Hbond>
2.7680

> <Gold.PLP.Chemscore.CHOScore>
1.0000

> <Gold.PLP.Chemscore.Metal>
0.0000

> <Gold.Chemscore.Hbonds>
donor molecule, donor type, donor heavy atom, donor atom, acceptor molecule, acceptor atom, score
      L1  H    10    31       P1  7948  0.99
      L1  H    13    32       P1  7948  0.65
      P1  H  7997  8008       L1     4  1.00
      L1  C     6    26       P1  7949  1.00

> <Gold.PLP.Chemscore.Internal.Correction>
0.0535

> <Gold.Rescore>
     Score         DG    S(hbond)    S(metal)    S(lipo)     H(rot)  DE(clash)    DE(int)     intcor
     15.47     -16.24       2.82        0.00      56.02       2.03       0.01       0.76       ----

> <Gold.Chemscore.Fitness>
15.4736

> <Gold.Chemscore.DG>
-16.2437

> <Gold.Chemscore.ZeroCoef>
-5.4800

> <Gold.Chemscore.Hbond>
2.8157

> <Gold.Chemscore.Metal>
0.0000

> <Gold.Chemscore.Lipo>
56.0206

> <Gold.Chemscore.Internal_Hbond>
0.0000

> <Gold.Chemscore.DEClash>
0.0106

> <Gold.Chemscore.DEInternal>
0.7595

> <Gold.Chemscore.Rot>
2.0293

> <Gold.Chemscore.Internal.Correction>
   9.000000E+99

> <Gold.Chemscore.Hbonds>
donor molecule, donor type, donor heavy atom, donor atom, acceptor molecule, acceptor atom, score
      L1  H    10    31       P1  7948  0.93
      L1  H    13    32       P1  7948  0.62
      P1  H  7997  8008       L1     4  0.97

> <Gold.Chemscore.Hbond.Weighted>
-9.4043

> <Gold.Chemscore.Metal.Weighted>
-0.0000

> <Gold.Chemscore.Lipo.Weighted>
-6.5544

> <Gold.Chemscore.Internal_Hbond.Weighted>
0.0000

> <Gold.Chemscore.DEClash.Weighted>
0.0106

> <Gold.Chemscore.DEInternal.Weighted>
0.7595

> <Gold.Chemscore.Rot.Weighted>
5.1950

> <Gold.Chemscore.Internal.Correction.Weighted>
   9.000000E+99

> <Gold.Protein.RotatedTorsions>
[ 6907 6896 6895 6894 ] final -120.36 input  -60.11 | X-H torsion
[ 7974 7965 7964 7962 ] final   79.44 input  175.53 | X-H torsion
[ 8008 7997 7996 7995 ] final  -19.74 input   59.86 | X-H torsion
[ 10167 10162 10161 10158 ] final -156.74 input  -65.29 | X-H torsion
[ 10718 10713 10712 10709 ] final   29.55 input   66.30 | X-H torsion
[ 10763 10752 10751 10750 ] final  -74.27 input  -60.55 | X-H torsion
[ 11005 11000 10999 10996 ] final -121.50 input  -57.11 | X-H torsion

> <Gold.Protein.ActiveResidues>
 VAL166  LYS551  ARG553  GLY616  TRP617  ASP618  TYR619  PRO620  LYS621  CYS622 
 ASP623  PHE694  ASN695  SER759  ASP760  ASP761  ALA762  ILE779  LEU786  VAL792 
 PHE793  MET794  SER795  GLU796  ALA797  LYS798  CYS799  TRP800  GLU811  SER814 

> <Gold.Protein.RotatedAtoms>
  150.8386  133.7972  159.3069 H   0  0  0  0  0  0  0  0  0  0  0  0  # atno 6907 bound_to 6896
  151.5681  135.1062  159.9998 H   0  0  0  0  0  0  0  0  0  0  0  0  # atno 6908 bound_to 6896
  152.4454  133.7484  159.6736 H   0  0  0  0  0  0  0  0  0  0  0  0  # atno 6909 bound_to 6896
  145.6641  139.2479  143.1906 H   0  0  0  0  0  0  0  0  0  0  0  0  # atno 7974 bound_to 7965
  154.4816  140.2080  155.9751 H   0  0  0  0  0  0  0  0  0  0  0  0  # atno 8008 bound_to 7997
  156.1173  140.3219  155.8127 H   0  0  0  0  0  0  0  0  0  0  0  0  # atno 8009 bound_to 7997
  155.4530  140.0518  157.2990 H   0  0  0  0  0  0  0  0  0  0  0  0  # atno 8010 bound_to 7997
  139.6826  143.9555  152.2344 H   0  0  0  0  0  0  0  0  0  0  0  0  # atno 10167 bound_to 10162
  157.2480  130.7101  149.6391 H   0  0  0  0  0  0  0  0  0  0  0  0  # atno 10718 bound_to 10713
  154.4708  135.5870  153.6320 H   0  0  0  0  0  0  0  0  0  0  0  0  # atno 10763 bound_to 10752
  152.9834  135.6066  154.3369 H   0  0  0  0  0  0  0  0  0  0  0  0  # atno 10764 bound_to 10752
  154.3250  135.2843  155.2479 H   0  0  0  0  0  0  0  0  0  0  0  0  # atno 10765 bound_to 10752
  141.0065  134.0326  157.3470 H   0  0  0  0  0  0  0  0  0  0  0  0  # atno 11005 bound_to 11000
  146.1100  140.7439  142.9507 LP  0  0  0  0  0  0  0  0  0  0  0  0  # atno 17320 bound_to 7965
  144.7079  140.3924  143.7104 LP  0  0  0  0  0  0  0  0  0  0  0  0  # atno 17321 bound_to 7965
  139.9349  144.6718  150.8324 LP  0  0  0  0  0  0  0  0  0  0  0  0  # atno 17342 bound_to 10162
  140.7657  143.3283  151.2466 LP  0  0  0  0  0  0  0  0  0  0  0  0  # atno 17343 bound_to 10162
  155.9667  130.4436  150.5430 LP  0  0  0  0  0  0  0  0  0  0  0  0  # atno 17370 bound_to 10713
  157.3308  131.0699  151.1862 LP  0  0  0  0  0  0  0  0  0  0  0  0  # atno 17371 bound_to 10713
  139.9066  135.0181  156.7513 LP  0  0  0  0  0  0  0  0  0  0  0  0  # atno 17394 bound_to 11000
  140.6804  133.9480  155.7907 LP  0  0  0  0  0  0  0  0  0  0  0  0  # atno 17395 bound_to 11000

$$$$
