AV-unprocessed.smi:2772|AV-procd|sdf|10673|dock1
  -GOLD-   2272015123D 1   1.00000     0.00000
 Structure written by MMmdl.
 56 58  0  0  0  0  0  0  0  0  4 V2000
  151.2398  142.8871  157.0593 C   0  0  0  0  0  0  0  0  0  0  0  0
  150.6041  141.8781  156.1265 C   0  0  0  0  0  0  0  0  0  0  0  0
  151.1832  140.6179  155.8692 C   0  0  0  0  0  0  0  0  0  0  0  0
  150.5332  139.7291  154.9884 C   0  0  0  0  0  0  0  0  0  0  0  0
  149.3129  140.1058  154.3856 C   0  0  0  0  0  0  0  0  0  0  0  0
  148.7007  139.1807  153.4962 N   0  0  0  0  0  0  0  0  0  0  0  0
  147.3908  138.9808  153.2684 C   0  0  0  0  0  0  0  0  0  0  0  0
  146.4737  139.5812  153.8271 O   0  0  0  0  0  0  0  0  0  0  0  0
  147.2010  138.0187  152.3540 N   0  0  0  0  0  0  0  0  0  0  0  0
  145.9069  137.5362  151.8780 C   0  0  2  0  0  0  0  0  0  0  0  0
  145.3088  136.5489  152.8977 C   0  0  0  0  0  0  0  0  0  0  0  0
  144.0352  135.8795  152.3455 C   0  0  0  0  0  0  0  0  0  0  0  0
  144.2894  135.1867  151.0493 N   0  3  2  0  0  0  0  0  0  0  0  0
  145.1072  133.9274  151.1415 C   0  0  2  0  0  0  0  0  0  0  0  0
  144.7337  132.9017  150.0409 C   0  0  0  0  0  0  0  0  0  0  0  0
  145.5077  131.5793  150.1778 C   0  0  0  0  0  0  0  0  0  0  0  0
  145.3013  130.9743  151.5133 N   0  3  1  0  0  0  0  0  0  0  0  0
  145.9305  129.6412  151.6333 C   0  0  0  0  0  0  0  0  0  0  0  0
  145.7207  131.8973  152.5923 C   0  0  0  0  0  0  0  0  0  0  0  0
  144.9519  133.2277  152.5160 C   0  0  0  0  0  0  0  0  0  0  0  0
  144.7654  136.1875  150.0511 C   0  0  0  0  0  0  0  0  0  0  0  0
  146.0731  136.8674  150.5009 C   0  0  0  0  0  0  0  0  0  0  0  0
  148.7880  141.3903  154.6744 C   0  0  0  0  0  0  0  0  0  0  0  0
  149.4426  142.2130  155.5228 N   0  3  0  0  0  0  0  0  0  0  0  0
  152.1588  142.4947  157.4953 H   0  0  0  0  0  0  0  0  0  0  0  0
  150.5574  143.1362  157.8726 H   0  0  0  0  0  0  0  0  0  0  0  0
  151.4826  143.8030  156.5200 H   0  0  0  0  0  0  0  0  0  0  0  0
  152.1138  140.3330  156.3382 H   0  0  0  0  0  0  0  0  0  0  0  0
  150.9697  138.7620  154.7839 H   0  0  0  0  0  0  0  0  0  0  0  0
  149.3344  138.5619  153.0116 H   0  0  0  0  0  0  0  0  0  0  0  0
  148.0197  137.5829  151.9552 H   0  0  0  0  0  0  0  0  0  0  0  0
  145.2057  138.3651  151.7641 H   0  0  0  0  0  0  0  0  0  0  0  0
  146.0431  135.7879  153.1645 H   0  0  0  0  0  0  0  0  0  0  0  0
  145.0721  137.0762  153.8227 H   0  0  0  0  0  0  0  0  0  0  0  0
  143.5881  135.2200  153.0859 H   0  0  0  0  0  0  0  0  0  0  0  0
  143.2797  136.6481  152.1754 H   0  0  0  0  0  0  0  0  0  0  0  0
  146.1595  134.1820  151.0145 H   0  0  0  0  0  0  0  0  0  0  0  0
  143.6617  132.7008  150.0695 H   0  0  0  0  0  0  0  0  0  0  0  0
  144.9538  133.2934  149.0490 H   0  0  0  0  0  0  0  0  0  0  0  0
  145.1754  130.8827  149.4069 H   0  0  0  0  0  0  0  0  0  0  0  0
  146.5732  131.7487  150.0131 H   0  0  0  0  0  0  0  0  0  0  0  0
  147.0144  129.7074  151.5289 H   0  0  0  0  0  0  0  0  0  0  0  0
  145.5530  128.9665  150.8641 H   0  0  0  0  0  0  0  0  0  0  0  0
  145.7064  129.1955  152.6031 H   0  0  0  0  0  0  0  0  0  0  0  0
  145.5419  131.4298  153.5616 H   0  0  0  0  0  0  0  0  0  0  0  0
  146.7944  132.0792  152.5222 H   0  0  0  0  0  0  0  0  0  0  0  0
  145.3293  133.8561  153.3214 H   0  0  0  0  0  0  0  0  0  0  0  0
  143.8958  133.0503  152.7244 H   0  0  0  0  0  0  0  0  0  0  0  0
  144.8680  135.7618  149.0553 H   0  0  0  0  0  0  0  0  0  0  0  0
  143.9924  136.9499  149.9411 H   0  0  0  0  0  0  0  0  0  0  0  0
  146.3681  137.6150  149.7635 H   0  0  0  0  0  0  0  0  0  0  0  0
  146.8819  136.1364  150.5292 H   0  0  0  0  0  0  0  0  0  0  0  0
  147.8815  141.8017  154.2575 H   0  0  0  0  0  0  0  0  0  0  0  0
  143.3820  134.8884  150.7198 H   0  0  0  0  0  0  0  0  0  0  0  0
  144.3070  130.8301  151.6200 H   0  0  0  0  0  0  0  0  0  0  0  0
  149.0411  143.1312  155.7142 H   0  0  0  0  0  0  0  0  0  0  0  0
  1  2  1  0  0  0  0
  1 25  1  0  0  0  0
  1 26  1  0  0  0  0
  1 27  1  0  0  0  0
  2 24  1  0  0  0  0
  2  3  2  0  0  0  0
  3  4  1  0  0  0  0
  3 28  1  0  0  0  0
  4  5  2  0  0  0  0
  4 29  1  0  0  0  0
  5  6  1  0  0  0  0
  5 23  1  0  0  0  0
  6  7  1  0  0  0  0
  6 30  1  0  0  0  0
  7  8  2  0  0  0  0
  7  9  1  0  0  0  0
  9 10  1  0  0  0  0
  9 31  1  0  0  0  0
 10 22  1  0  0  0  0
 10 11  1  0  0  0  0
 10 32  1  0  0  0  0
 11 12  1  0  0  0  0
 11 33  1  0  0  0  0
 11 34  1  0  0  0  0
 12 13  1  0  0  0  0
 12 35  1  0  0  0  0
 12 36  1  0  0  0  0
 13 14  1  0  0  0  0
 13 21  1  0  0  0  0
 13 54  1  0  0  0  0
 14 20  1  0  0  0  0
 14 15  1  0  0  0  0
 14 37  1  0  0  0  0
 15 16  1  0  0  0  0
 15 38  1  0  0  0  0
 15 39  1  0  0  0  0
 16 17  1  0  0  0  0
 16 40  1  0  0  0  0
 16 41  1  0  0  0  0
 17 18  1  0  0  0  0
 17 19  1  0  0  0  0
 17 55  1  0  0  0  0
 18 42  1  0  0  0  0
 18 43  1  0  0  0  0
 18 44  1  0  0  0  0
 19 20  1  0  0  0  0
 19 45  1  0  0  0  0
 19 46  1  0  0  0  0
 20 47  1  0  0  0  0
 20 48  1  0  0  0  0
 21 22  1  0  0  0  0
 21 49  1  0  0  0  0
 21 50  1  0  0  0  0
 22 51  1  0  0  0  0
 22 52  1  0  0  0  0
 23 24  2  0  0  0  0
 23 53  1  0  0  0  0
 24 56  1  0  0  0  0
M  CHG  1  13   1
M  CHG  1  17   1
M  CHG  1  24   1
M  END
> <s_m_source_file>
AV-unprocessed.smi

> <i_m_source_file_index>
2772

> <i_lp_mmshare_version>
43012

> <i_f3d_flags>
0

> <s_epik_input>
W0NIM11jMVtjSF1bY0hdYyhbY0hdbjEpW05IXUMoPU8pW05IXVtDSF0yW0NIMl1bQ0gyXU4oW0NIMl1bQ0gyXTIpW0NIXTNbQ0gyXVtDSDJdTihbQ0gzXSlbQ0gyXVtDSDJdMw==

> <s_epik_cmdline>
J2VwaWtfcHl0aG9uJywgJy1waCcsICc3LjAnLCAnLXRuJywgJzgnLCAnLW1hJywgJzIwMCcsICctbWV0YWxfYmluZGluZycsICctaW1hZScsICc8aW5maWxlLm1hZT4nLCAnLW9tYWUnLCAnPG91dGZpbGUubWFlPic=

> <r_epik_Ionization_Penalty>
2.34117

> <r_epik_Ionization_Penalty_Charging>
2.34115

> <r_epik_Ionization_Penalty_Neutral>
2.22786e-05

> <r_epik_State_Penalty>
2.43944

> <r_epik_Charging_Adjusted_Penalty>
4.78059

> <i_epik_Tot_Q>
3

> <i_epik_Tot_abs_Q>
3

> <r_epik_Metal_State_Penalty>
2.45906

> <b_epik_Metal_Only>
0

> <s_lp_Force_Field>
OPLS_2005

> <r_lp_Energy>
52.8488

> <b_lp_Chiralities_Consistent>
1

> <s_lp_Variant>
AV-unprocessed.smi:2772-10

> <Gold.Version>
5.8.1

> <Gold.Id.Protein>
6NUR|6NUR_protein|mol2

> <Gold.PLP.Fitness>
48.2980

> <Gold.PLP.PLP>
-41.5858

> <Gold.PLP.part.hbond>
-3.0000

> <Gold.PLP.part.metal>
0.0000

> <Gold.PLP.part.buried>
1.6115

> <Gold.PLP.part.nonpolar>
-40.2139

> <Gold.PLP.part.repulsive>
0.5175

> <Gold.PLP.ligand.clash>
0.0000

> <Gold.PLP.ligand.torsion>
1.1596

> <Gold.PLP.Chemscore.Hbond>
2.9920

> <Gold.PLP.Chemscore.CHOScore>
0.0000

> <Gold.PLP.Chemscore.Metal>
0.0000

> <Gold.Chemscore.Hbonds>
donor molecule, donor type, donor heavy atom, donor atom, acceptor molecule, acceptor atom, score
      L1  H     9    31       P1  7948  0.98
      L1  H    24    56       P1  8028  2.00

> <Gold.PLP.Chemscore.Internal.Correction>
0.0554

> <Gold.Rescore>
     Score         DG    S(hbond)    S(metal)    S(lipo)     H(rot)  DE(clash)    DE(int)     intcor
     19.13     -23.26       1.86        0.00     125.75       1.22       2.65       1.49       ----

> <Gold.Chemscore.Fitness>
19.1268

> <Gold.Chemscore.DG>
-23.2646

> <Gold.Chemscore.ZeroCoef>
-5.4800

> <Gold.Chemscore.Hbond>
1.8565

> <Gold.Chemscore.Metal>
0.0000

> <Gold.Chemscore.Lipo>
125.7511

> <Gold.Chemscore.Internal_Hbond>
0.0000

> <Gold.Chemscore.DEClash>
2.6504

> <Gold.Chemscore.DEInternal>
1.4874

> <Gold.Chemscore.Rot>
1.2222

> <Gold.Chemscore.Internal.Correction>
   9.000000E+99

> <Gold.Chemscore.Hbonds>
donor molecule, donor type, donor heavy atom, donor atom, acceptor molecule, acceptor atom, score
      L1  H     9    31       P1  7948  0.93
      L1  H    24    56       P1  8028  0.97

> <Gold.Chemscore.Hbond.Weighted>
-6.2007

> <Gold.Chemscore.Metal.Weighted>
-0.0000

> <Gold.Chemscore.Lipo.Weighted>
-14.7129

> <Gold.Chemscore.Internal_Hbond.Weighted>
0.0000

> <Gold.Chemscore.DEClash.Weighted>
2.6504

> <Gold.Chemscore.DEInternal.Weighted>
1.4874

> <Gold.Chemscore.Rot.Weighted>
3.1289

> <Gold.Chemscore.Internal.Correction.Weighted>
   9.000000E+99

> <Gold.Protein.RotatedTorsions>
[ 6907 6896 6895 6894 ] final  108.52 input  -60.11 | X-H torsion
[ 7974 7965 7964 7962 ] final   -0.90 input  175.53 | X-H torsion
[ 8008 7997 7996 7995 ] final  141.75 input   59.86 | X-H torsion
[ 10167 10162 10161 10158 ] final   -9.25 input  -65.29 | X-H torsion
[ 10718 10713 10712 10709 ] final  -27.29 input   66.30 | X-H torsion
[ 10763 10752 10751 10750 ] final  -33.54 input  -60.55 | X-H torsion
[ 11005 11000 10999 10996 ] final  -55.27 input  -57.11 | X-H torsion

> <Gold.Protein.ActiveResidues>
 VAL166  LYS551  ARG553  GLY616  TRP617  ASP618  TYR619  PRO620  LYS621  CYS622 
 ASP623  PHE694  ASN695  SER759  ASP760  ASP761  ALA762  ILE779  LEU786  VAL792 
 PHE793  MET794  SER795  GLU796  ALA797  LYS798  CYS799  TRP800  GLU811  SER814 

> <Gold.Protein.RotatedAtoms>
  152.5108  133.9077  159.7472 H   0  0  0  0  0  0  0  0  0  0  0  0  # atno 6907 bound_to 6896
  150.9478  133.6575  159.2785 H   0  0  0  0  0  0  0  0  0  0  0  0  # atno 6908 bound_to 6896
  151.3864  135.0953  159.9565 H   0  0  0  0  0  0  0  0  0  0  0  0  # atno 6909 bound_to 6896
  146.2423  140.1339  142.8337 H   0  0  0  0  0  0  0  0  0  0  0  0  # atno 7974 bound_to 7965
  156.2961  140.2307  156.4616 H   0  0  0  0  0  0  0  0  0  0  0  0  # atno 8008 bound_to 7997
  154.8013  140.0448  157.1296 H   0  0  0  0  0  0  0  0  0  0  0  0  # atno 8009 bound_to 7997
  154.9530  140.3044  155.5070 H   0  0  0  0  0  0  0  0  0  0  0  0  # atno 8010 bound_to 7997
  140.7082  143.5879  150.8924 H   0  0  0  0  0  0  0  0  0  0  0  0  # atno 10167 bound_to 10162
  156.4401  130.4462  149.7058 H   0  0  0  0  0  0  0  0  0  0  0  0  # atno 10718 bound_to 10713
  153.8320  135.6865  153.4813 H   0  0  0  0  0  0  0  0  0  0  0  0  # atno 10763 bound_to 10752
  153.1505  135.4620  154.9628 H   0  0  0  0  0  0  0  0  0  0  0  0  # atno 10764 bound_to 10752
  154.7883  135.3292  154.7782 H   0  0  0  0  0  0  0  0  0  0  0  0  # atno 10765 bound_to 10752
  141.1066  133.6613  156.4445 H   0  0  0  0  0  0  0  0  0  0  0  0  # atno 11005 bound_to 11000
  145.0303  140.8865  143.5113 LP  0  0  0  0  0  0  0  0  0  0  0  0  # atno 17320 bound_to 7965
  145.1402  139.2577  143.5494 LP  0  0  0  0  0  0  0  0  0  0  0  0  # atno 17321 bound_to 7965
  139.9605  143.6170  152.3004 LP  0  0  0  0  0  0  0  0  0  0  0  0  # atno 17342 bound_to 10162
  139.6720  144.7660  151.1765 LP  0  0  0  0  0  0  0  0  0  0  0  0  # atno 17343 bound_to 10162
  156.3926  130.7635  151.2637 LP  0  0  0  0  0  0  0  0  0  0  0  0  # atno 17370 bound_to 10713
  157.7506  131.0263  150.3957 LP  0  0  0  0  0  0  0  0  0  0  0  0  # atno 17371 bound_to 10713
  140.4886  134.6597  157.5201 LP  0  0  0  0  0  0  0  0  0  0  0  0  # atno 17394 bound_to 11000
  139.9939  134.6942  155.9643 LP  0  0  0  0  0  0  0  0  0  0  0  0  # atno 17395 bound_to 11000

$$$$
