AV-unprocessed.smi:822|AV-procd|sdf|3842|dock4
  -GOLD-   22720 1283D 1   1.00000     0.00000
 Structure written by MMmdl.
 39 40  0  0  0  0  0  0  0  0  2 V2000
  152.5453  139.9289  156.1609 O   0  0  0  0  0  0  0  0  0  0  0  0
  151.5170  140.0870  156.8191 C   0  0  0  0  0  0  0  0  0  0  0  0
  151.5990  140.4679  158.3012 C   0  0  0  0  0  0  0  0  0  0  0  0
  152.1845  141.8760  158.5524 C   0  0  0  0  0  0  0  0  0  0  0  0
  152.2587  142.1699  160.0652 C   0  0  0  0  0  0  0  0  0  0  0  0
  152.8398  143.5642  160.3507 C   0  0  0  0  0  0  0  0  0  0  0  0
  152.0378  144.6586  159.6314 C   0  0  0  0  0  0  0  0  0  0  0  0
  151.9657  144.3845  158.1223 C   0  0  0  0  0  0  0  0  0  0  0  0
  151.3865  142.9898  157.8344 C   0  0  0  0  0  0  0  0  0  0  0  0
  150.2858  139.9367  156.3073 N   0  0  0  0  0  0  0  0  0  0  0  0
  149.9951  139.5817  154.9238 C   0  0  0  0  0  0  0  0  0  0  0  0
  149.6799  140.8268  154.0786 C   0  0  0  0  0  0  0  0  0  0  0  0
  148.2484  141.1307  154.0749 N   0  0  0  0  0  0  0  0  0  0  0  0
  147.5923  142.0601  154.8405 C   0  0  0  0  0  0  0  0  0  0  0  0
  146.2687  141.9904  154.4894 C   0  0  0  0  0  0  0  0  0  0  0  0
  146.1734  141.0220  153.5259 N   0  3  0  0  0  0  0  0  0  0  0  0
  147.3790  140.5010  153.2744 C   0  0  0  0  0  0  0  0  0  0  0  0
  150.6120  140.3912  158.7601 H   0  0  0  0  0  0  0  0  0  0  0  0
  152.2213  139.7195  158.7932 H   0  0  0  0  0  0  0  0  0  0  0  0
  153.2060  141.8942  158.1684 H   0  0  0  0  0  0  0  0  0  0  0  0
  151.2627  142.0967  160.5040 H   0  0  0  0  0  0  0  0  0  0  0  0
  152.8695  141.4154  160.5620 H   0  0  0  0  0  0  0  0  0  0  0  0
  152.8441  143.7522  161.4248 H   0  0  0  0  0  0  0  0  0  0  0  0
  153.8803  143.6000  160.0259 H   0  0  0  0  0  0  0  0  0  0  0  0
  151.0291  144.7052  160.0436 H   0  0  0  0  0  0  0  0  0  0  0  0
  152.4920  145.6332  159.8120 H   0  0  0  0  0  0  0  0  0  0  0  0
  151.3566  145.1468  157.6357 H   0  0  0  0  0  0  0  0  0  0  0  0
  152.9634  144.4627  157.6886 H   0  0  0  0  0  0  0  0  0  0  0  0
  151.3827  142.8254  156.7567 H   0  0  0  0  0  0  0  0  0  0  0  0
  150.3439  142.9580  158.1530 H   0  0  0  0  0  0  0  0  0  0  0  0
  149.4957  140.0872  156.9184 H   0  0  0  0  0  0  0  0  0  0  0  0
  150.8640  139.0642  154.5158 H   0  0  0  0  0  0  0  0  0  0  0  0
  149.1665  138.8720  154.8875 H   0  0  0  0  0  0  0  0  0  0  0  0
  150.2102  141.7029  154.4552 H   0  0  0  0  0  0  0  0  0  0  0  0
  149.9950  140.6809  153.0444 H   0  0  0  0  0  0  0  0  0  0  0  0
  148.1023  142.6857  155.5589 H   0  0  0  0  0  0  0  0  0  0  0  0
  145.4101  142.5424  154.8434 H   0  0  0  0  0  0  0  0  0  0  0  0
  147.6056  139.7255  152.5643 H   0  0  0  0  0  0  0  0  0  0  0  0
  145.3159  140.7388  153.0682 H   0  0  0  0  0  0  0  0  0  0  0  0
  1  2  2  0  0  0  0
  2  3  1  0  0  0  0
  2 10  1  0  0  0  0
  3  4  1  0  0  0  0
  3 18  1  0  0  0  0
  3 19  1  0  0  0  0
  4  9  1  0  0  0  0
  4  5  1  0  0  0  0
  4 20  1  0  0  0  0
  5  6  1  0  0  0  0
  5 21  1  0  0  0  0
  5 22  1  0  0  0  0
  6  7  1  0  0  0  0
  6 23  1  0  0  0  0
  6 24  1  0  0  0  0
  7  8  1  0  0  0  0
  7 25  1  0  0  0  0
  7 26  1  0  0  0  0
  8  9  1  0  0  0  0
  8 27  1  0  0  0  0
  8 28  1  0  0  0  0
  9 29  1  0  0  0  0
  9 30  1  0  0  0  0
 10 11  1  0  0  0  0
 10 31  1  0  0  0  0
 11 12  1  0  0  0  0
 11 32  1  0  0  0  0
 11 33  1  0  0  0  0
 12 13  1  0  0  0  0
 12 34  1  0  0  0  0
 12 35  1  0  0  0  0
 13 17  1  0  0  0  0
 13 14  1  0  0  0  0
 14 15  2  0  0  0  0
 14 36  1  0  0  0  0
 15 16  1  0  0  0  0
 15 37  1  0  0  0  0
 16 17  2  0  0  0  0
 16 39  1  0  0  0  0
 17 38  1  0  0  0  0
M  CHG  1  16   1
M  END
> <s_m_source_file>
AV-unprocessed.smi

> <i_m_source_file_index>
822

> <i_lp_mmshare_version>
43012

> <i_f3d_flags>
0

> <s_epik_input>
W0NIMl0xW0NIMl1bQ0gyXVtDSDJdW0NIMl1bQ0hdMVtDSDJdQyg9TylbTkhdW0NIMl1bQ0gyXW4yW2NIXVtjSF1uW2NIXTI=

> <s_epik_cmdline>
J2VwaWtfcHl0aG9uJywgJy1waCcsICc3LjAnLCAnLXRuJywgJzgnLCAnLW1hJywgJzIwMCcsICctbWV0YWxfYmluZGluZycsICctaW1hZScsICc8aW5maWxlLm1hZT4nLCAnLW9tYWUnLCAnPG91dGZpbGUubWFlPic=

> <r_lp_tautomer_probability>
1

> <r_epik_Ionization_Penalty>
0.267085

> <r_epik_Ionization_Penalty_Charging>
0

> <r_epik_Ionization_Penalty_Neutral>
0.267085

> <r_epik_State_Penalty>
0.259064

> <r_epik_Charging_Adjusted_Penalty>
0.259064

> <i_epik_Tot_Q>
1

> <i_epik_Tot_abs_Q>
1

> <r_epik_Metal_State_Penalty>
0.544959

> <b_epik_Metal_Only>
0

> <s_lp_Force_Field>
OPLS_2005

> <r_lp_Energy>
11.7187

> <b_lp_Chiralities_Consistent>
1

> <s_lp_Variant>
AV-unprocessed.smi:822-1

> <Gold.Version>
5.8.1

> <Gold.Id.Protein>
6NUR|6NUR_protein|mol2

> <Gold.PLP.Fitness>
51.0483

> <Gold.PLP.PLP>
-38.3943

> <Gold.PLP.part.hbond>
-2.0000

> <Gold.PLP.part.metal>
0.0000

> <Gold.PLP.part.buried>
1.9073

> <Gold.PLP.part.nonpolar>
-37.8842

> <Gold.PLP.part.repulsive>
0.0470

> <Gold.PLP.ligand.clash>
0.0000

> <Gold.PLP.ligand.torsion>
0.6980

> <Gold.PLP.Chemscore.Hbond>
3.0000

> <Gold.PLP.Chemscore.CHOScore>
1.6754

> <Gold.PLP.Chemscore.Metal>
0.0000

> <Gold.Chemscore.Hbonds>
donor molecule, donor type, donor heavy atom, donor atom, acceptor molecule, acceptor atom, score
      L1  H    16    39       P1 10175  2.00
      P1  H  7997  8010       L1     1  1.00
      L1  C    14    36       P1  8028  1.00
      L1  C    17    38       P1  7957  0.75

> <Gold.PLP.Chemscore.Internal.Correction>
0.0239

> <Gold.Rescore>
     Score         DG    S(hbond)    S(metal)    S(lipo)     H(rot)  DE(clash)    DE(int)     intcor
     17.51     -18.59       1.97        0.00     100.68       2.05       0.45       0.63       ----

> <Gold.Chemscore.Fitness>
17.5087

> <Gold.Chemscore.DG>
-18.5856

> <Gold.Chemscore.ZeroCoef>
-5.4800

> <Gold.Chemscore.Hbond>
1.9719

> <Gold.Chemscore.Metal>
0.0000

> <Gold.Chemscore.Lipo>
100.6767

> <Gold.Chemscore.Internal_Hbond>
0.0000

> <Gold.Chemscore.DEClash>
0.4458

> <Gold.Chemscore.DEInternal>
0.6310

> <Gold.Chemscore.Rot>
2.0546

> <Gold.Chemscore.Internal.Correction>
   9.000000E+99

> <Gold.Chemscore.Hbonds>
donor molecule, donor type, donor heavy atom, donor atom, acceptor molecule, acceptor atom, score
      L1  H    16    39       P1 10175  0.70
      P1  H  7997  8010       L1     1  1.00

> <Gold.Chemscore.Hbond.Weighted>
-6.5861

> <Gold.Chemscore.Metal.Weighted>
-0.0000

> <Gold.Chemscore.Lipo.Weighted>
-11.7792

> <Gold.Chemscore.Internal_Hbond.Weighted>
0.0000

> <Gold.Chemscore.DEClash.Weighted>
0.4458

> <Gold.Chemscore.DEInternal.Weighted>
0.6310

> <Gold.Chemscore.Rot.Weighted>
5.2598

> <Gold.Chemscore.Internal.Correction.Weighted>
   9.000000E+99

> <Gold.Protein.RotatedTorsions>
[ 6907 6896 6895 6894 ] final -114.11 input  -60.11 | X-H torsion
[ 7974 7965 7964 7962 ] final  -11.04 input  175.53 | X-H torsion
[ 8008 7997 7996 7995 ] final   82.95 input   59.86 | X-H torsion
[ 10167 10162 10161 10158 ] final  -58.33 input  -65.29 | X-H torsion
[ 10718 10713 10712 10709 ] final   91.37 input   66.30 | X-H torsion
[ 10763 10752 10751 10750 ] final   46.72 input  -60.55 | X-H torsion
[ 11005 11000 10999 10996 ] final -102.03 input  -57.11 | X-H torsion

> <Gold.Protein.ActiveResidues>
 VAL166  LYS551  ARG553  GLY616  TRP617  ASP618  TYR619  PRO620  LYS621  CYS622 
 ASP623  PHE694  ASN695  SER759  ASP760  ASP761  ALA762  ILE779  LEU786  VAL792 
 PHE793  MET794  SER795  GLU796  ALA797  LYS798  CYS799  TRP800  GLU811  SER814 

> <Gold.Protein.RotatedAtoms>
  150.7878  133.8848  159.3295 H   0  0  0  0  0  0  0  0  0  0  0  0  # atno 6907 bound_to 6896
  151.6693  135.0976  160.0204 H   0  0  0  0  0  0  0  0  0  0  0  0  # atno 6908 bound_to 6896
  152.3946  133.6689  159.6301 H   0  0  0  0  0  0  0  0  0  0  0  0  # atno 6909 bound_to 6896
  146.2201  140.2852  142.8365 H   0  0  0  0  0  0  0  0  0  0  0  0  # atno 7974 bound_to 7965
  155.9174  140.3423  155.6146 H   0  0  0  0  0  0  0  0  0  0  0  0  # atno 8008 bound_to 7997
  155.7314  140.0796  157.2306 H   0  0  0  0  0  0  0  0  0  0  0  0  # atno 8009 bound_to 7997
  154.4064  140.1587  156.2500 H   0  0  0  0  0  0  0  0  0  0  0  0  # atno 8010 bound_to 7997
  140.6204  143.2417  151.5494 H   0  0  0  0  0  0  0  0  0  0  0  0  # atno 10167 bound_to 10162
  157.6960  131.0405  150.3719 H   0  0  0  0  0  0  0  0  0  0  0  0  # atno 10718 bound_to 10713
  152.9807  135.5999  154.3646 H   0  0  0  0  0  0  0  0  0  0  0  0  # atno 10763 bound_to 10752
  154.3325  135.2768  155.2466 H   0  0  0  0  0  0  0  0  0  0  0  0  # atno 10764 bound_to 10752
  154.4584  135.5972  153.6294 H   0  0  0  0  0  0  0  0  0  0  0  0  # atno 10765 bound_to 10752
  141.1206  133.8525  157.1307 H   0  0  0  0  0  0  0  0  0  0  0  0  # atno 11005 bound_to 11000
  144.9167  140.7821  143.5773 LP  0  0  0  0  0  0  0  0  0  0  0  0  # atno 17320 bound_to 7965
  145.2786  139.1927  143.4803 LP  0  0  0  0  0  0  0  0  0  0  0  0  # atno 17321 bound_to 7965
  139.5434  144.2587  152.1395 LP  0  0  0  0  0  0  0  0  0  0  0  0  # atno 17342 bound_to 10162
  140.1806  144.4848  150.6530 LP  0  0  0  0  0  0  0  0  0  0  0  0  # atno 17343 bound_to 10162
  156.4143  130.3940  149.6869 LP  0  0  0  0  0  0  0  0  0  0  0  0  # atno 17370 bound_to 10713
  156.4142  130.7737  151.2751 LP  0  0  0  0  0  0  0  0  0  0  0  0  # atno 17371 bound_to 10713
  140.0161  134.9967  157.0496 LP  0  0  0  0  0  0  0  0  0  0  0  0  # atno 17394 bound_to 11000
  140.4517  134.1575  155.7182 LP  0  0  0  0  0  0  0  0  0  0  0  0  # atno 17395 bound_to 11000

$$$$
