AV-unprocessed.smi:2788|AV-procd|sdf|10761|dock8
  -GOLD-   2272015193D 1   1.00000     0.00000
 Structure written by MMmdl.
 47 48  0  0  0  0  0  0  0  0  1 V2000
  146.9552  133.9844  161.9661 C   0  0  0  0  0  0  0  0  0  0  0  0
  147.3279  135.2325  161.2188 C   0  0  0  0  0  0  0  0  0  0  0  0
  147.5389  136.3541  161.8866 N   0  0  0  0  0  0  0  0  0  0  0  0
  147.8843  137.3114  160.9283 O   0  0  0  0  0  0  0  0  0  0  0  0
  147.8693  136.7214  159.7066 C   0  0  0  0  0  0  0  0  0  0  0  0
  148.2412  137.5843  158.5488 C   0  0  0  0  0  0  0  0  0  0  0  0
  147.5200  135.4028  159.8177 C   0  0  0  0  0  0  0  0  0  0  0  0
  147.3964  134.3626  158.7332 C   0  0  0  0  0  0  0  0  0  0  0  0
  148.6230  134.4404  157.8263 C   0  0  0  0  0  0  0  0  0  0  0  0
  149.6818  134.8875  158.2650 O   0  0  0  0  0  0  0  0  0  0  0  0
  148.4415  134.0277  156.5582 N   0  0  0  0  0  0  0  0  0  0  0  0
  149.3777  134.0866  155.4248 C   0  0  2  0  0  0  0  0  0  0  0  0
  150.6888  133.4277  155.9135 C   0  0  0  0  0  0  0  0  0  0  0  0
  149.6687  135.5708  155.0557 C   0  0  0  0  0  0  0  0  0  0  0  0
  150.8870  135.7236  154.3514 O   0  0  0  0  0  0  0  0  0  0  0  0
  148.7770  133.3075  154.1981 C   0  0  0  0  0  0  0  0  0  0  0  0
  147.5444  133.9949  153.5480 C   0  0  0  0  0  0  0  0  0  0  0  0
  147.0807  133.2604  152.2807 C   0  0  0  0  0  0  0  0  0  0  0  0
  146.7636  131.7884  152.5764 C   0  0  0  0  0  0  0  0  0  0  0  0
  147.9691  131.0875  153.2174 C   0  0  0  0  0  0  0  0  0  0  0  0
  148.4377  131.8222  154.4844 C   0  0  0  0  0  0  0  0  0  0  0  0
  147.8239  133.3401  162.1012 H   0  0  0  0  0  0  0  0  0  0  0  0
  146.1992  133.4137  161.4270 H   0  0  0  0  0  0  0  0  0  0  0  0
  146.5524  134.2122  162.9535 H   0  0  0  0  0  0  0  0  0  0  0  0
  148.0339  137.0852  157.6026 H   0  0  0  0  0  0  0  0  0  0  0  0
  149.3043  137.8243  158.5762 H   0  0  0  0  0  0  0  0  0  0  0  0
  147.6815  138.5193  158.5667 H   0  0  0  0  0  0  0  0  0  0  0  0
  147.3207  133.3576  159.1497 H   0  0  0  0  0  0  0  0  0  0  0  0
  146.4974  134.5089  158.1336 H   0  0  0  0  0  0  0  0  0  0  0  0
  147.5236  133.6719  156.3354 H   0  0  0  0  0  0  0  0  0  0  0  0
  151.4738  133.4719  155.1591 H   0  0  0  0  0  0  0  0  0  0  0  0
  150.5471  132.3820  156.1845 H   0  0  0  0  0  0  0  0  0  0  0  0
  151.0778  133.9280  156.8010 H   0  0  0  0  0  0  0  0  0  0  0  0
  148.8817  135.9748  154.4201 H   0  0  0  0  0  0  0  0  0  0  0  0
  149.7006  136.2028  155.9430 H   0  0  0  0  0  0  0  0  0  0  0  0
  150.6899  135.9794  153.4635 H   0  0  0  0  0  0  0  0  0  0  0  0
  149.5523  133.2878  153.4313 H   0  0  0  0  0  0  0  0  0  0  0  0
  146.7157  134.0322  154.2545 H   0  0  0  0  0  0  0  0  0  0  0  0
  147.7627  135.0273  153.2785 H   0  0  0  0  0  0  0  0  0  0  0  0
  146.2002  133.7537  151.8678 H   0  0  0  0  0  0  0  0  0  0  0  0
  147.8566  133.3239  151.5167 H   0  0  0  0  0  0  0  0  0  0  0  0
  145.9040  131.7255  153.2449 H   0  0  0  0  0  0  0  0  0  0  0  0
  146.4799  131.2760  151.6567 H   0  0  0  0  0  0  0  0  0  0  0  0
  147.7108  130.0565  153.4606 H   0  0  0  0  0  0  0  0  0  0  0  0
  148.7884  131.0387  152.4989 H   0  0  0  0  0  0  0  0  0  0  0  0
  149.3032  131.2937  154.8810 H   0  0  0  0  0  0  0  0  0  0  0  0
  147.6564  131.7505  155.2411 H   0  0  0  0  0  0  0  0  0  0  0  0
  1  2  1  0  0  0  0
  1 22  1  0  0  0  0
  1 23  1  0  0  0  0
  1 24  1  0  0  0  0
  2  7  1  0  0  0  0
  2  3  2  0  0  0  0
  3  4  1  0  0  0  0
  4  5  1  0  0  0  0
  5  6  1  0  0  0  0
  5  7  2  0  0  0  0
  6 25  1  0  0  0  0
  6 26  1  0  0  0  0
  6 27  1  0  0  0  0
  7  8  1  0  0  0  0
  8  9  1  0  0  0  0
  8 28  1  0  0  0  0
  8 29  1  0  0  0  0
  9 10  2  0  0  0  0
  9 11  1  0  0  0  0
 11 12  1  0  0  0  0
 11 30  1  0  0  0  0
 12 13  1  0  0  0  0
 12 14  1  0  0  0  0
 12 16  1  0  0  0  0
 13 31  1  0  0  0  0
 13 32  1  0  0  0  0
 13 33  1  0  0  0  0
 14 15  1  0  0  0  0
 14 34  1  0  0  0  0
 14 35  1  0  0  0  0
 15 36  1  0  0  0  0
 16 21  1  0  0  0  0
 16 17  1  0  0  0  0
 16 37  1  0  0  0  0
 17 18  1  0  0  0  0
 17 38  1  0  0  0  0
 17 39  1  0  0  0  0
 18 19  1  0  0  0  0
 18 40  1  0  0  0  0
 18 41  1  0  0  0  0
 19 20  1  0  0  0  0
 19 42  1  0  0  0  0
 19 43  1  0  0  0  0
 20 21  1  0  0  0  0
 20 44  1  0  0  0  0
 20 45  1  0  0  0  0
 21 46  1  0  0  0  0
 21 47  1  0  0  0  0
M  END
> <s_m_source_file>
AV-unprocessed.smi

> <i_m_source_file_index>
2788

> <i_lp_mmshare_version>
43012

> <i_f3d_flags>
0

> <s_epik_input>
W0NIM11jMW5vYyhbQ0gzXSljMVtDSDJdQyg9TylbTkhdW0NAQF0oW0NIM10pKFtDSDJdW09IXSlbQ0hdMltDSDJdW0NIMl1bQ0gyXVtDSDJdW0NIMl0y

> <s_epik_cmdline>
J2VwaWtfcHl0aG9uJywgJy1waCcsICc3LjAnLCAnLXRuJywgJzgnLCAnLW1hJywgJzIwMCcsICctbWV0YWxfYmluZGluZycsICctaW1hZScsICc8aW5maWxlLm1hZT4nLCAnLW9tYWUnLCAnPG91dGZpbGUubWFlPic=

> <r_lp_tautomer_probability>
1

> <r_epik_Ionization_Penalty>
1.3408e-07

> <r_epik_Ionization_Penalty_Charging>
0

> <r_epik_Ionization_Penalty_Neutral>
1.3408e-07

> <r_epik_State_Penalty>
-0

> <r_epik_Charging_Adjusted_Penalty>
0

> <i_epik_Tot_Q>
0

> <i_epik_Tot_abs_Q>
0

> <r_epik_Metal_State_Penalty>
-0

> <b_epik_Metal_Only>
0

> <s_lp_Force_Field>
OPLS_2005

> <r_lp_Energy>
14.1961

> <b_lp_Chiralities_Consistent>
1

> <s_lp_Variant>
AV-unprocessed.smi:2788-2

> <Gold.Version>
5.8.1

> <Gold.Id.Protein>
6NUR|6NUR_protein|mol2

> <Gold.PLP.Fitness>
41.2833

> <Gold.PLP.PLP>
-30.5571

> <Gold.PLP.part.hbond>
-5.3774

> <Gold.PLP.part.metal>
0.0000

> <Gold.PLP.part.buried>
-0.8614

> <Gold.PLP.part.nonpolar>
-24.0552

> <Gold.PLP.part.repulsive>
0.0243

> <Gold.PLP.ligand.clash>
0.0000

> <Gold.PLP.ligand.torsion>
0.9056

> <Gold.PLP.Chemscore.Hbond>
4.1570

> <Gold.PLP.Chemscore.CHOScore>
0.0000

> <Gold.PLP.Chemscore.Metal>
0.0000

> <Gold.Chemscore.Hbonds>
donor molecule, donor type, donor heavy atom, donor atom, acceptor molecule, acceptor atom, score
      L1  H    15    36       P1  7949  0.45
      P1  H  6896  6909       L1    10  1.00
      P1  H  6931  6943       L1     4  0.81
      P1  H  6934  6947       L1     4  0.78
      P1  H 10752 10763       L1    15  1.00

> <Gold.PLP.Chemscore.Internal.Correction>
0.0665

> <Gold.Rescore>
     Score         DG    S(hbond)    S(metal)    S(lipo)     H(rot)  DE(clash)    DE(int)     intcor
     14.92     -16.56       2.54        0.00      71.21       2.24       0.21       1.43       ----

> <Gold.Chemscore.Fitness>
14.9170

> <Gold.Chemscore.DG>
-16.5562

> <Gold.Chemscore.ZeroCoef>
-5.4800

> <Gold.Chemscore.Hbond>
2.5355

> <Gold.Chemscore.Metal>
0.0000

> <Gold.Chemscore.Lipo>
71.2061

> <Gold.Chemscore.Internal_Hbond>
0.0000

> <Gold.Chemscore.DEClash>
0.2121

> <Gold.Chemscore.DEInternal>
1.4271

> <Gold.Chemscore.Rot>
2.2357

> <Gold.Chemscore.Internal.Correction>
   9.000000E+99

> <Gold.Chemscore.Hbonds>
donor molecule, donor type, donor heavy atom, donor atom, acceptor molecule, acceptor atom, score
      L1  H    15    36       P1  7949  0.01
      P1  H  6896  6909       L1    10  0.97
      P1  H  6931  6943       L1     4  0.18
      P1  H  6934  6947       L1     4  0.68
      P1  H 10752 10763       L1    15  0.42

> <Gold.Chemscore.Hbond.Weighted>
-8.4686

> <Gold.Chemscore.Metal.Weighted>
-0.0000

> <Gold.Chemscore.Lipo.Weighted>
-8.3311

> <Gold.Chemscore.Internal_Hbond.Weighted>
0.0000

> <Gold.Chemscore.DEClash.Weighted>
0.2121

> <Gold.Chemscore.DEInternal.Weighted>
1.4271

> <Gold.Chemscore.Rot.Weighted>
5.7235

> <Gold.Chemscore.Internal.Correction.Weighted>
   9.000000E+99

> <Gold.Protein.RotatedTorsions>
[ 6907 6896 6895 6894 ] final   46.22 input  -60.11 | X-H torsion
[ 7974 7965 7964 7962 ] final    9.10 input  175.53 | X-H torsion
[ 8008 7997 7996 7995 ] final  -92.52 input   59.86 | X-H torsion
[ 10167 10162 10161 10158 ] final -142.36 input  -65.29 | X-H torsion
[ 10718 10713 10712 10709 ] final -140.99 input   66.30 | X-H torsion
[ 10763 10752 10751 10750 ] final   48.49 input  -60.55 | X-H torsion
[ 11005 11000 10999 10996 ] final -103.72 input  -57.11 | X-H torsion

> <Gold.Protein.ActiveResidues>
 VAL166  LYS551  ARG553  GLY616  TRP617  ASP618  TYR619  PRO620  LYS621  CYS622 
 ASP623  PHE694  ASN695  SER759  ASP760  ASP761  ALA762  ILE779  LEU786  VAL792 
 PHE793  MET794  SER795  GLU796  ALA797  LYS798  CYS799  TRP800  GLU811  SER814 

> <Gold.Protein.RotatedAtoms>
  152.2539  134.8104  160.0441 H   0  0  0  0  0  0  0  0  0  0  0  0  # atno 6907 bound_to 6896
  151.8775  133.3483  159.3763 H   0  0  0  0  0  0  0  0  0  0  0  0  # atno 6908 bound_to 6896
  150.7093  134.4978  159.5591 H   0  0  0  0  0  0  0  0  0  0  0  0  # atno 6909 bound_to 6896
  146.2408  139.9833  142.8433 H   0  0  0  0  0  0  0  0  0  0  0  0  # atno 7974 bound_to 7965
  154.7242  140.0508  157.0667 H   0  0  0  0  0  0  0  0  0  0  0  0  # atno 8008 bound_to 7997
  155.0387  140.3166  155.4713 H   0  0  0  0  0  0  0  0  0  0  0  0  # atno 8009 bound_to 7997
  156.2824  140.2136  156.5511 H   0  0  0  0  0  0  0  0  0  0  0  0  # atno 8010 bound_to 7997
  139.8096  143.7721  152.2663 H   0  0  0  0  0  0  0  0  0  0  0  0  # atno 10167 bound_to 10162
  156.3287  130.7574  151.1688 H   0  0  0  0  0  0  0  0  0  0  0  0  # atno 10718 bound_to 10713
  152.9791  135.5942  154.3935 H   0  0  0  0  0  0  0  0  0  0  0  0  # atno 10763 bound_to 10752
  154.3588  135.2767  155.2333 H   0  0  0  0  0  0  0  0  0  0  0  0  # atno 10764 bound_to 10752
  154.4340  135.6029  153.6142 H   0  0  0  0  0  0  0  0  0  0  0  0  # atno 10765 bound_to 10752
  141.1133  133.8664  157.1522 H   0  0  0  0  0  0  0  0  0  0  0  0  # atno 11005 bound_to 11000
  145.1571  140.9653  143.4399 LP  0  0  0  0  0  0  0  0  0  0  0  0  # atno 17320 bound_to 7965
  145.0151  139.3475  143.6100 LP  0  0  0  0  0  0  0  0  0  0  0  0  # atno 17321 bound_to 7965
  139.7866  144.7425  151.0013 LP  0  0  0  0  0  0  0  0  0  0  0  0  # atno 17342 bound_to 10162
  140.7818  143.4486  151.0446 LP  0  0  0  0  0  0  0  0  0  0  0  0  # atno 17343 bound_to 10162
  157.7426  131.0487  150.5010 LP  0  0  0  0  0  0  0  0  0  0  0  0  # atno 17370 bound_to 10713
  156.5172  130.4153  149.6269 LP  0  0  0  0  0  0  0  0  0  0  0  0  # atno 17371 bound_to 10713
  140.0039  135.0016  157.0250 LP  0  0  0  0  0  0  0  0  0  0  0  0  # atno 17394 bound_to 11000
  140.4716  134.1381  155.7204 LP  0  0  0  0  0  0  0  0  0  0  0  0  # atno 17395 bound_to 11000

$$$$
