AV-unprocessed.smi:1703|AV-procd|sdf|6861|dock5
  -GOLD-   22720 8 53D 1   1.00000     0.00000
 Structure written by MMmdl.
 49 51  0  0  0  0  0  0  0  0  2 V2000
  145.7592  133.0036  150.1117 C   0  0  0  0  0  0  0  0  0  0  0  0
  146.2106  134.2438  150.8907 C   0  0  2  0  0  0  0  0  0  0  0  0
  146.6984  133.8909  152.3077 C   0  0  0  0  0  0  0  0  0  0  0  0
  147.0431  135.1247  153.0533 N   0  3  2  0  0  0  0  0  0  0  0  0
  147.6317  134.8709  154.3930 C   0  0  0  0  0  0  0  0  0  0  0  0
  149.0915  134.3842  154.3078 C   0  0  1  0  0  0  0  0  0  0  0  0
  149.9224  135.4922  154.0169 O   0  0  0  0  0  0  0  0  0  0  0  0
  149.5538  133.7229  155.6219 C   0  0  0  0  0  0  0  0  0  0  0  0
  149.9721  132.3388  155.4396 N   0  0  0  0  0  0  0  0  0  0  0  0
  151.0888  131.7312  155.9145 C   0  0  0  0  0  0  0  0  0  0  0  0
  152.1102  132.4594  156.7332 C   0  0  0  0  0  0  0  0  0  0  0  0
  152.3405  131.8496  157.9851 O   0  0  0  0  0  0  0  0  0  0  0  0
  151.2257  130.4422  155.6026 N   0  0  0  0  0  0  0  0  0  0  0  0
  150.0957  130.1895  154.8499 C   0  0  0  0  0  0  0  0  0  0  0  0
  149.6559  129.0008  154.2248 C   0  0  0  0  0  0  0  0  0  0  0  0
  148.4478  128.9815  153.4977 C   0  0  0  0  0  0  0  0  0  0  0  0
  147.6646  130.1482  153.3838 C   0  0  0  0  0  0  0  0  0  0  0  0
  148.0847  131.3434  153.9986 C   0  0  0  0  0  0  0  0  0  0  0  0
  149.2906  131.3572  154.7255 C   0  0  0  0  0  0  0  0  0  0  0  0
  145.8769  136.0373  153.1023 C   0  0  0  0  0  0  0  0  0  0  0  0
  145.3588  136.3484  151.6843 C   0  0  1  0  0  0  0  0  0  0  0  0
  146.2720  137.3012  150.8921 C   0  0  0  0  0  0  0  0  0  0  0  0
  145.1010  135.1346  150.9781 O   0  0  0  0  0  0  0  0  0  0  0  0
  146.5749  132.2878  150.0059 H   0  0  0  0  0  0  0  0  0  0  0  0
  145.4235  133.2743  149.1102 H   0  0  0  0  0  0  0  0  0  0  0  0
  144.9335  132.4994  150.6145 H   0  0  0  0  0  0  0  0  0  0  0  0
  147.0190  134.7157  150.3322 H   0  0  0  0  0  0  0  0  0  0  0  0
  145.9262  133.3411  152.8481 H   0  0  0  0  0  0  0  0  0  0  0  0
  147.5649  133.2343  152.2372 H   0  0  0  0  0  0  0  0  0  0  0  0
  147.6065  135.7867  154.9862 H   0  0  0  0  0  0  0  0  0  0  0  0
  147.0148  134.1467  154.9273 H   0  0  0  0  0  0  0  0  0  0  0  0
  149.1997  133.6647  153.4974 H   0  0  0  0  0  0  0  0  0  0  0  0
  149.5052  136.0178  153.3510 H   0  0  0  0  0  0  0  0  0  0  0  0
  150.3851  134.2811  156.0550 H   0  0  0  0  0  0  0  0  0  0  0  0
  148.7555  133.7554  156.3634 H   0  0  0  0  0  0  0  0  0  0  0  0
  153.0486  132.5252  156.1836 H   0  0  0  0  0  0  0  0  0  0  0  0
  151.7735  133.4829  156.9018 H   0  0  0  0  0  0  0  0  0  0  0  0
  153.0660  131.2504  157.8987 H   0  0  0  0  0  0  0  0  0  0  0  0
  150.2488  128.1018  154.3059 H   0  0  0  0  0  0  0  0  0  0  0  0
  148.1211  128.0668  153.0247 H   0  0  0  0  0  0  0  0  0  0  0  0
  146.7405  130.1245  152.8249 H   0  0  0  0  0  0  0  0  0  0  0  0
  147.4853  132.2370  153.9131 H   0  0  0  0  0  0  0  0  0  0  0  0
  145.0851  135.5708  153.6908 H   0  0  0  0  0  0  0  0  0  0  0  0
  146.1437  136.9649  153.6107 H   0  0  0  0  0  0  0  0  0  0  0  0
  144.3953  136.8489  151.7855 H   0  0  0  0  0  0  0  0  0  0  0  0
  146.3456  138.2682  151.3900 H   0  0  0  0  0  0  0  0  0  0  0  0
  145.8761  137.4766  149.8915 H   0  0  0  0  0  0  0  0  0  0  0  0
  147.2855  136.9147  150.7879 H   0  0  0  0  0  0  0  0  0  0  0  0
  147.7548  135.6049  152.5203 H   0  0  0  0  0  0  0  0  0  0  0  0
  1  2  1  0  0  0  0
  1 24  1  0  0  0  0
  1 25  1  0  0  0  0
  1 26  1  0  0  0  0
  2 23  1  0  0  0  0
  2  3  1  0  0  0  0
  2 27  1  0  0  0  0
  3  4  1  0  0  0  0
  3 28  1  0  0  0  0
  3 29  1  0  0  0  0
  4  5  1  0  0  0  0
  4 20  1  0  0  0  0
  4 49  1  0  0  0  0
  5  6  1  0  0  0  0
  5 30  1  0  0  0  0
  5 31  1  0  0  0  0
  6  7  1  0  0  0  0
  6  8  1  0  0  0  0
  6 32  1  0  0  0  0
  7 33  1  0  0  0  0
  8  9  1  0  0  0  0
  8 34  1  0  0  0  0
  8 35  1  0  0  0  0
  9 19  1  0  0  0  0
  9 10  1  0  0  0  0
 10 11  1  0  0  0  0
 10 13  2  0  0  0  0
 11 12  1  0  0  0  0
 11 36  1  0  0  0  0
 11 37  1  0  0  0  0
 12 38  1  0  0  0  0
 13 14  1  0  0  0  0
 14 19  2  0  0  0  0
 14 15  1  0  0  0  0
 15 16  2  0  0  0  0
 15 39  1  0  0  0  0
 16 17  1  0  0  0  0
 16 40  1  0  0  0  0
 17 18  2  0  0  0  0
 17 41  1  0  0  0  0
 18 19  1  0  0  0  0
 18 42  1  0  0  0  0
 20 21  1  0  0  0  0
 20 43  1  0  0  0  0
 20 44  1  0  0  0  0
 21 22  1  0  0  0  0
 21 23  1  0  0  0  0
 21 45  1  0  0  0  0
 22 46  1  0  0  0  0
 22 47  1  0  0  0  0
 22 48  1  0  0  0  0
M  CHG  1   4   1
M  END
> <s_m_source_file>
AV-unprocessed.smi

> <i_m_source_file_index>
1703

> <i_lp_mmshare_version>
43012

> <i_f3d_flags>
0

> <s_epik_input>
W0NIM11bQ0BASF0xW0NIMl1OKFtDSDJdW0NASF0oTzEpW0NIM10pW0NIMl1bQ0BIXShbT0hdKVtDSDJdbihjKG4yKVtDSDJdW09IXSljKGMyMylbY0hdW2NIXVtjSF1bY0hdMw==

> <s_epik_cmdline>
J2VwaWtfcHl0aG9uJywgJy1waCcsICc3LjAnLCAnLXRuJywgJzgnLCAnLW1hJywgJzIwMCcsICctbWV0YWxfYmluZGluZycsICctaW1hZScsICc8aW5maWxlLm1hZT4nLCAnLW9tYWUnLCAnPG91dGZpbGUubWFlPic=

> <r_epik_Ionization_Penalty>
0.655661

> <r_epik_Ionization_Penalty_Charging>
0.608065

> <r_epik_Ionization_Penalty_Neutral>
0.0475963

> <r_epik_State_Penalty>
0.695267

> <r_epik_Charging_Adjusted_Penalty>
1.30333

> <i_epik_Tot_Q>
1

> <i_epik_Tot_abs_Q>
1

> <r_epik_Metal_State_Penalty>
0.653591

> <b_epik_Metal_Only>
0

> <s_lp_Force_Field>
OPLS_2005

> <r_lp_Energy>
24.4185

> <b_lp_Chiralities_Consistent>
1

> <s_lp_Variant>
AV-unprocessed.smi:1703-9

> <Gold.Version>
5.8.1

> <Gold.Id.Protein>
6NUR|6NUR_protein|mol2

> <Gold.PLP.Fitness>
45.9226

> <Gold.PLP.PLP>
-36.2717

> <Gold.PLP.part.hbond>
-3.7540

> <Gold.PLP.part.metal>
0.0000

> <Gold.PLP.part.buried>
0.7156

> <Gold.PLP.part.nonpolar>
-33.8078

> <Gold.PLP.part.repulsive>
0.1740

> <Gold.PLP.ligand.clash>
0.0000

> <Gold.PLP.ligand.torsion>
1.2131

> <Gold.PLP.Chemscore.Hbond>
4.0000

> <Gold.PLP.Chemscore.CHOScore>
0.0000

> <Gold.PLP.Chemscore.Metal>
0.0000

> <Gold.Chemscore.Hbonds>
donor molecule, donor type, donor heavy atom, donor atom, acceptor molecule, acceptor atom, score
      L1  H     4    49       P1  7948  1.79
      L1  H     7    33       P1  7948  1.00
      P1  H  6896  6908       L1    12  0.81

> <Gold.PLP.Chemscore.Internal.Correction>
0.0771

> <Gold.Rescore>
     Score         DG    S(hbond)    S(metal)    S(lipo)     H(rot)  DE(clash)    DE(int)     intcor
     13.94     -16.27       2.60        0.00      82.79       2.96       1.05       1.28       ----

> <Gold.Chemscore.Fitness>
13.9370

> <Gold.Chemscore.DG>
-16.2684

> <Gold.Chemscore.ZeroCoef>
-5.4800

> <Gold.Chemscore.Hbond>
2.5994

> <Gold.Chemscore.Metal>
0.0000

> <Gold.Chemscore.Lipo>
82.7932

> <Gold.Chemscore.Internal_Hbond>
0.0000

> <Gold.Chemscore.DEClash>
1.0543

> <Gold.Chemscore.DEInternal>
1.2772

> <Gold.Chemscore.Rot>
2.9611

> <Gold.Chemscore.Internal.Correction>
   9.000000E+99

> <Gold.Chemscore.Hbonds>
donor molecule, donor type, donor heavy atom, donor atom, acceptor molecule, acceptor atom, score
      L1  H     4    49       P1  7948  0.86
      L1  H     7    33       P1  7948  0.32
      P1  H  6896  6908       L1    12  0.43

> <Gold.Chemscore.Hbond.Weighted>
-8.6820

> <Gold.Chemscore.Metal.Weighted>
-0.0000

> <Gold.Chemscore.Lipo.Weighted>
-9.6868

> <Gold.Chemscore.Internal_Hbond.Weighted>
0.0000

> <Gold.Chemscore.DEClash.Weighted>
1.0543

> <Gold.Chemscore.DEInternal.Weighted>
1.2772

> <Gold.Chemscore.Rot.Weighted>
7.5803

> <Gold.Chemscore.Internal.Correction.Weighted>
   9.000000E+99

> <Gold.Protein.RotatedTorsions>
[ 6907 6896 6895 6894 ] final   30.66 input  -60.11 | X-H torsion
[ 7974 7965 7964 7962 ] final  -56.50 input  175.53 | X-H torsion
[ 8008 7997 7996 7995 ] final  -97.25 input   59.86 | X-H torsion
[ 10167 10162 10161 10158 ] final  -33.05 input  -65.29 | X-H torsion
[ 10718 10713 10712 10709 ] final   92.27 input   66.30 | X-H torsion
[ 10763 10752 10751 10750 ] final   81.26 input  -60.55 | X-H torsion
[ 11005 11000 10999 10996 ] final  112.84 input  -57.11 | X-H torsion

> <Gold.Protein.ActiveResidues>
 VAL166  LYS551  ARG553  GLY616  TRP617  ASP618  TYR619  PRO620  LYS621  CYS622 
 ASP623  PHE694  ASN695  SER759  ASP760  ASP761  ALA762  ILE779  LEU786  VAL792 
 PHE793  MET794  SER795  GLU796  ALA797  LYS798  CYS799  TRP800  GLU811  SER814 

> <Gold.Protein.RotatedAtoms>
  152.0492  134.9664  160.0574 H   0  0  0  0  0  0  0  0  0  0  0  0  # atno 6907 bound_to 6896
  152.1072  133.4276  159.4622 H   0  0  0  0  0  0  0  0  0  0  0  0  # atno 6908 bound_to 6896
  150.6842  134.2610  159.4593 H   0  0  0  0  0  0  0  0  0  0  0  0  # atno 6909 bound_to 6896
  145.8619  140.8279  142.9932 H   0  0  0  0  0  0  0  0  0  0  0  0  # atno 7974 bound_to 7965
  154.7853  140.0464  157.1159 H   0  0  0  0  0  0  0  0  0  0  0  0  # atno 8008 bound_to 7997
  154.9655  140.3083  155.4991 H   0  0  0  0  0  0  0  0  0  0  0  0  # atno 8009 bound_to 7997
  156.2942  140.2263  156.4744 H   0  0  0  0  0  0  0  0  0  0  0  0  # atno 8010 bound_to 7997
  140.7211  143.3649  151.1890 H   0  0  0  0  0  0  0  0  0  0  0  0  # atno 10167 bound_to 10162
  157.6959  131.0437  150.3856 H   0  0  0  0  0  0  0  0  0  0  0  0  # atno 10718 bound_to 10713
  153.1102  135.4772  154.9021 H   0  0  0  0  0  0  0  0  0  0  0  0  # atno 10763 bound_to 10752
  154.7472  135.3097  154.8625 H   0  0  0  0  0  0  0  0  0  0  0  0  # atno 10764 bound_to 10752
  153.9217  135.6854  153.4801 H   0  0  0  0  0  0  0  0  0  0  0  0  # atno 10765 bound_to 10752
  139.8937  134.9538  156.6648 H   0  0  0  0  0  0  0  0  0  0  0  0  # atno 11005 bound_to 11000
  144.6726  140.1109  143.7455 LP  0  0  0  0  0  0  0  0  0  0  0  0  # atno 17320 bound_to 7965
  145.9238  139.2562  143.1366 LP  0  0  0  0  0  0  0  0  0  0  0  0  # atno 17321 bound_to 7965
  139.7208  143.9226  152.2985 LP  0  0  0  0  0  0  0  0  0  0  0  0  # atno 17342 bound_to 10162
  139.8982  144.6927  150.8694 LP  0  0  0  0  0  0  0  0  0  0  0  0  # atno 17343 bound_to 10162
  156.4265  130.3963  149.6789 LP  0  0  0  0  0  0  0  0  0  0  0  0  # atno 17370 bound_to 10713
  156.4021  130.7680  151.2688 LP  0  0  0  0  0  0  0  0  0  0  0  0  # atno 17371 bound_to 10713
  140.7419  133.8970  155.8284 LP  0  0  0  0  0  0  0  0  0  0  0  0  # atno 17394 bound_to 11000
  141.0071  134.1072  157.4259 LP  0  0  0  0  0  0  0  0  0  0  0  0  # atno 17395 bound_to 11000

$$$$
