AV-unprocessed.smi:1142|AV-procd|sdf|4873|dock7
  -GOLD-   22720 3443D 1   1.00000     0.00000
 Structure written by MMmdl.
 33 34  0  0  0  0  0  0  0  0  1 V2000
  153.6676  137.4885  161.9868 C   0  0  0  0  0  0  0  0  0  0  0  0
  154.2201  138.5771  161.9590 C   0  0  0  0  0  0  0  0  0  0  0  0
  154.8768  139.8943  161.9150 C   0  0  0  0  0  0  0  0  0  0  0  0
  154.0686  140.9005  161.2365 N   0  0  0  0  0  0  0  0  0  0  0  0
  153.7840  140.9139  159.9235 C   0  0  0  0  0  0  0  0  0  0  0  0
  154.1733  140.0530  159.1335 O   0  0  0  0  0  0  0  0  0  0  0  0
  152.9069  142.0529  159.4727 C   0  0  0  0  0  0  0  0  0  0  0  0
  152.9211  143.2658  160.1999 C   0  0  0  0  0  0  0  0  0  0  0  0
  152.1421  144.3501  159.7596 C   0  0  0  0  0  0  0  0  0  0  0  0
  151.3764  144.1870  158.5932 C   0  0  0  0  0  0  0  0  0  0  0  0
  151.3504  143.0414  157.8836 N   0  0  0  0  0  0  0  0  0  0  0  0
  152.0944  141.9866  158.3010 C   0  0  0  0  0  0  0  0  0  0  0  0
  151.9895  140.8039  157.5406 N   0  0  0  0  0  0  0  0  0  0  0  0
  151.3207  140.8910  156.2462 C   0  0  0  0  0  0  0  0  0  0  0  0
  151.5231  139.5812  155.4652 C   0  0  0  0  0  0  0  0  0  0  0  0
  151.0606  138.4825  156.2461 O   0  0  0  0  0  0  0  0  0  0  0  0
  151.7709  138.3619  157.4756 C   0  0  0  0  0  0  0  0  0  0  0  0
  151.5778  139.6376  158.3128 C   0  0  0  0  0  0  0  0  0  0  0  0
  153.1825  136.5385  162.0123 H   0  0  0  0  0  0  0  0  0  0  0  0
  155.1204  140.1976  162.9345 H   0  0  0  0  0  0  0  0  0  0  0  0
  155.8202  139.7814  161.3807 H   0  0  0  0  0  0  0  0  0  0  0  0
  153.6938  141.6431  161.8088 H   0  0  0  0  0  0  0  0  0  0  0  0
  153.5310  143.3761  161.0851 H   0  0  0  0  0  0  0  0  0  0  0  0
  152.1385  145.2860  160.2986 H   0  0  0  0  0  0  0  0  0  0  0  0
  150.7677  144.9971  158.2194 H   0  0  0  0  0  0  0  0  0  0  0  0
  150.2547  141.0706  156.3929 H   0  0  0  0  0  0  0  0  0  0  0  0
  151.7191  141.7320  155.6776 H   0  0  0  0  0  0  0  0  0  0  0  0
  150.9662  139.6118  154.5287 H   0  0  0  0  0  0  0  0  0  0  0  0
  152.5741  139.4407  155.2075 H   0  0  0  0  0  0  0  0  0  0  0  0
  151.3962  137.4951  158.0196 H   0  0  0  0  0  0  0  0  0  0  0  0
  152.8299  138.1831  157.2803 H   0  0  0  0  0  0  0  0  0  0  0  0
  152.1473  139.5624  159.2392 H   0  0  0  0  0  0  0  0  0  0  0  0
  150.5289  139.7467  158.5923 H   0  0  0  0  0  0  0  0  0  0  0  0
  1  2  3  0  0  0  0
  1 19  1  0  0  0  0
  2  3  1  0  0  0  0
  3  4  1  0  0  0  0
  3 20  1  0  0  0  0
  3 21  1  0  0  0  0
  4  5  1  0  0  0  0
  4 22  1  0  0  0  0
  5  6  2  0  0  0  0
  5  7  1  0  0  0  0
  7 12  1  0  0  0  0
  7  8  2  0  0  0  0
  8  9  1  0  0  0  0
  8 23  1  0  0  0  0
  9 10  2  0  0  0  0
  9 24  1  0  0  0  0
 10 11  1  0  0  0  0
 10 25  1  0  0  0  0
 11 12  2  0  0  0  0
 12 13  1  0  0  0  0
 13 18  1  0  0  0  0
 13 14  1  0  0  0  0
 14 15  1  0  0  0  0
 14 26  1  0  0  0  0
 14 27  1  0  0  0  0
 15 16  1  0  0  0  0
 15 28  1  0  0  0  0
 15 29  1  0  0  0  0
 16 17  1  0  0  0  0
 17 18  1  0  0  0  0
 17 30  1  0  0  0  0
 17 31  1  0  0  0  0
 18 32  1  0  0  0  0
 18 33  1  0  0  0  0
M  END
> <s_m_source_file>
AV-unprocessed.smi

> <i_m_source_file_index>
1142

> <i_lp_mmshare_version>
43012

> <i_f3d_flags>
0

> <s_epik_input>
W0NIXSNDW0NIMl1bTkhdQyg9TyljMVtjSF1bY0hdW2NIXW5jMU4yW0NIMl1bQ0gyXU9bQ0gyXVtDSDJdMg==

> <s_epik_cmdline>
J2VwaWtfcHl0aG9uJywgJy1waCcsICc3LjAnLCAnLXRuJywgJzgnLCAnLW1hJywgJzIwMCcsICctbWV0YWxfYmluZGluZycsICctaW1hZScsICc8aW5maWxlLm1hZT4nLCAnLW9tYWUnLCAnPG91dGZpbGUubWFlPic=

> <r_lp_tautomer_probability>
1

> <r_epik_Ionization_Penalty>
1.59202e-05

> <r_epik_Ionization_Penalty_Charging>
0

> <r_epik_Ionization_Penalty_Neutral>
1.59202e-05

> <r_epik_State_Penalty>
-0

> <r_epik_Charging_Adjusted_Penalty>
0

> <i_epik_Tot_Q>
0

> <i_epik_Tot_abs_Q>
0

> <r_epik_Metal_State_Penalty>
0.00596736

> <b_epik_Metal_Only>
0

> <s_lp_Force_Field>
OPLS_2005

> <r_lp_Energy>
22.9222

> <b_lp_Chiralities_Consistent>
1

> <s_lp_Variant>
AV-unprocessed.smi:1142-1

> <Gold.Version>
5.8.1

> <Gold.Id.Protein>
6NUR|6NUR_protein|mol2

> <Gold.PLP.Fitness>
38.4165

> <Gold.PLP.PLP>
-36.0766

> <Gold.PLP.part.hbond>
-1.0000

> <Gold.PLP.part.metal>
0.0000

> <Gold.PLP.part.buried>
-4.5347

> <Gold.PLP.part.nonpolar>
-30.2970

> <Gold.PLP.part.repulsive>
0.0803

> <Gold.PLP.ligand.clash>
0.0000

> <Gold.PLP.ligand.torsion>
0.4347

> <Gold.PLP.Chemscore.Hbond>
0.9920

> <Gold.PLP.Chemscore.CHOScore>
0.0000

> <Gold.PLP.Chemscore.Metal>
0.0000

> <Gold.Chemscore.Hbonds>
donor molecule, donor type, donor heavy atom, donor atom, acceptor molecule, acceptor atom, score
      P1  H  7997  8009       L1     6  0.98

> <Gold.PLP.Chemscore.Internal.Correction>
0.2333

> <Gold.Rescore>
     Score         DG    S(hbond)    S(metal)    S(lipo)     H(rot)  DE(clash)    DE(int)     intcor
     14.23     -16.46       0.98        0.00      91.93       1.19       0.01       2.22       ----

> <Gold.Chemscore.Fitness>
14.2336

> <Gold.Chemscore.DG>
-16.4630

> <Gold.Chemscore.ZeroCoef>
-5.4800

> <Gold.Chemscore.Hbond>
0.9790

> <Gold.Chemscore.Metal>
0.0000

> <Gold.Chemscore.Lipo>
91.9344

> <Gold.Chemscore.Internal_Hbond>
0.0000

> <Gold.Chemscore.DEClash>
0.0060

> <Gold.Chemscore.DEInternal>
2.2234

> <Gold.Chemscore.Rot>
1.1887

> <Gold.Chemscore.Internal.Correction>
   9.000000E+99

> <Gold.Chemscore.Hbonds>
donor molecule, donor type, donor heavy atom, donor atom, acceptor molecule, acceptor atom, score
      P1  H  7997  8009       L1     6  0.89

> <Gold.Chemscore.Hbond.Weighted>
-3.2698

> <Gold.Chemscore.Metal.Weighted>
-0.0000

> <Gold.Chemscore.Lipo.Weighted>
-10.7563

> <Gold.Chemscore.Internal_Hbond.Weighted>
0.0000

> <Gold.Chemscore.DEClash.Weighted>
0.0060

> <Gold.Chemscore.DEInternal.Weighted>
2.2234

> <Gold.Chemscore.Rot.Weighted>
3.0432

> <Gold.Chemscore.Internal.Correction.Weighted>
   9.000000E+99

> <Gold.Protein.RotatedTorsions>
[ 6907 6896 6895 6894 ] final   90.79 input  -60.11 | X-H torsion
[ 7974 7965 7964 7962 ] final -177.37 input  175.53 | X-H torsion
[ 8008 7997 7996 7995 ] final  121.51 input   59.86 | X-H torsion
[ 10167 10162 10161 10158 ] final  -61.70 input  -65.29 | X-H torsion
[ 10718 10713 10712 10709 ] final  166.94 input   66.30 | X-H torsion
[ 10763 10752 10751 10750 ] final  -80.49 input  -60.55 | X-H torsion
[ 11005 11000 10999 10996 ] final  115.45 input  -57.11 | X-H torsion

> <Gold.Protein.ActiveResidues>
 VAL166  LYS551  ARG553  GLY616  TRP617  ASP618  TYR619  PRO620  LYS621  CYS622 
 ASP623  PHE694  ASN695  SER759  ASP760  ASP761  ALA762  ILE779  LEU786  VAL792 
 PHE793  MET794  SER795  GLU796  ALA797  LYS798  CYS799  TRP800  GLU811  SER814 

> <Gold.Protein.RotatedAtoms>
  152.5446  134.1757  159.8614 H   0  0  0  0  0  0  0  0  0  0  0  0  # atno 6907 bound_to 6896
  151.1763  133.4745  159.2601 H   0  0  0  0  0  0  0  0  0  0  0  0  # atno 6908 bound_to 6896
  151.1223  135.0097  159.8599 H   0  0  0  0  0  0  0  0  0  0  0  0  # atno 6909 bound_to 6896
  144.7127  140.1029  143.6415 H   0  0  0  0  0  0  0  0  0  0  0  0  # atno 7974 bound_to 7965
  156.2689  140.2807  156.1319 H   0  0  0  0  0  0  0  0  0  0  0  0  # atno 8008 bound_to 7997
  155.1045  140.0390  157.2724 H   0  0  0  0  0  0  0  0  0  0  0  0  # atno 8009 bound_to 7997
  154.6790  140.2604  155.6934 H   0  0  0  0  0  0  0  0  0  0  0  0  # atno 8010 bound_to 7997
  140.5989  143.2357  151.5974 H   0  0  0  0  0  0  0  0  0  0  0  0  # atno 10167 bound_to 10162
  157.0587  131.0334  151.2655 H   0  0  0  0  0  0  0  0  0  0  0  0  # atno 10718 bound_to 10713
  154.5519  135.5659  153.6929 H   0  0  0  0  0  0  0  0  0  0  0  0  # atno 10763 bound_to 10752
  152.9992  135.6253  154.2363 H   0  0  0  0  0  0  0  0  0  0  0  0  # atno 10764 bound_to 10752
  154.2298  135.2866  155.2874 H   0  0  0  0  0  0  0  0  0  0  0  0  # atno 10765 bound_to 10752
  139.9010  134.9584  156.7047 H   0  0  0  0  0  0  0  0  0  0  0  0  # atno 11005 bound_to 11000
  145.9522  139.2742  143.1205 LP  0  0  0  0  0  0  0  0  0  0  0  0  # atno 17320 bound_to 7965
  145.9311  140.9048  143.0356 LP  0  0  0  0  0  0  0  0  0  0  0  0  # atno 17321 bound_to 7965
  139.5277  144.3009  152.1074 LP  0  0  0  0  0  0  0  0  0  0  0  0  # atno 17342 bound_to 10162
  140.2187  144.4489  150.6352 LP  0  0  0  0  0  0  0  0  0  0  0  0  # atno 17343 bound_to 10162
  157.4972  130.7858  149.7567 LP  0  0  0  0  0  0  0  0  0  0  0  0  # atno 17370 bound_to 10713
  155.9985  130.3894  150.2699 LP  0  0  0  0  0  0  0  0  0  0  0  0  # atno 17371 bound_to 10713
  140.7122  133.9213  155.8092 LP  0  0  0  0  0  0  0  0  0  0  0  0  # atno 17394 bound_to 11000
  141.0291  134.0781  157.4034 LP  0  0  0  0  0  0  0  0  0  0  0  0  # atno 17395 bound_to 11000

$$$$
