AV-unprocessed.smi:109|AV-procd|sdf|1049|dock4
  -GOLD-   2262018 93D 1   1.00000     0.00000
 Structure written by MMmdl.
 58 61  0  0  0  0  0  0  0  0  1 V2000
  149.8947  141.1193  153.3204 O   0  0  0  0  0  0  0  0  0  0  0  0
  149.1553  141.4089  154.4870 C   0  0  0  0  0  0  0  0  0  0  0  0
  150.1015  141.8988  155.5965 C   0  0  0  0  0  0  0  0  0  0  0  0
  149.5705  141.6394  157.0262 C   0  0  2  0  0  0  0  0  0  0  0  0
  148.1759  142.0807  157.1045 N   0  0  0  0  0  0  0  0  0  0  0  0
  147.2089  141.3352  157.6851 C   0  0  0  0  0  0  0  0  0  0  0  0
  147.4744  140.5176  158.7355 N   0  0  0  0  0  0  0  0  0  0  0  0
  146.4927  139.8012  159.2880 C   0  0  0  0  0  0  0  0  0  0  0  0
  145.2026  139.7594  158.9520 N   0  0  0  0  0  0  0  0  0  0  0  0
  144.9222  140.5747  157.8931 C   0  0  0  0  0  0  0  0  0  0  0  0
  145.8729  141.3859  157.2096 C   0  0  0  0  0  0  0  0  0  0  0  0
  145.2517  142.0776  156.1809 N   0  0  0  0  0  0  0  0  0  0  0  0
  144.0065  141.6953  156.2542 C   0  0  0  0  0  0  0  0  0  0  0  0
  143.7078  140.8084  157.2662 N   0  0  0  0  0  0  0  0  0  0  0  0
  142.3497  140.2208  157.5454 C   0  0  1  0  0  0  0  0  0  0  0  0
  141.7632  140.9282  158.5903 O   0  0  0  0  0  0  0  0  0  0  0  0
  140.9188  141.9467  158.0729 C   0  0  2  0  0  0  0  0  0  0  0  0
  139.8426  142.3042  159.1102 C   0  0  0  0  0  0  0  0  0  0  0  0
  138.8298  143.0857  158.5140 O   0  0  0  0  0  0  0  0  0  0  0  0
  140.3394  141.3141  156.7963 C   0  0  1  0  0  0  0  0  0  0  0  0
  140.1513  142.3053  155.8063 O   0  0  0  0  0  0  0  0  0  0  0  0
  141.3890  140.2918  156.3469 C   0  0  2  0  0  0  0  0  0  0  0  0
  140.7801  139.0384  156.1099 O   0  0  0  0  0  0  0  0  0  0  0  0
  150.3982  142.3370  158.1434 C   0  0  0  0  0  0  0  0  0  0  0  0
  150.5491  143.8639  157.9285 C   0  0  0  0  0  0  0  0  0  0  0  0
  151.4096  144.5294  159.0150 C   0  0  0  0  0  0  0  0  0  0  0  0
  152.7932  143.8762  159.1126 C   0  0  0  0  0  0  0  0  0  0  0  0
  152.6609  142.3689  159.3588 C   0  0  0  0  0  0  0  0  0  0  0  0
  151.8073  141.7020  158.2690 C   0  0  0  0  0  0  0  0  0  0  0  0
  142.5705  139.1998  157.8603 H   0  0  0  0  0  0  0  0  0  0  0  0
  141.5199  142.8234  157.8311 H   0  0  0  0  0  0  0  0  0  0  0  0
  139.3878  140.8254  157.0129 H   0  0  0  0  0  0  0  0  0  0  0  0
  141.9218  140.5828  155.4416 H   0  0  0  0  0  0  0  0  0  0  0  0
  149.3035  141.1173  152.5829 H   0  0  0  0  0  0  0  0  0  0  0  0
  148.4054  142.1620  154.2438 H   0  0  0  0  0  0  0  0  0  0  0  0
  148.6252  140.5102  154.8037 H   0  0  0  0  0  0  0  0  0  0  0  0
  151.0495  141.3834  155.4523 H   0  0  0  0  0  0  0  0  0  0  0  0
  150.3053  142.9628  155.4665 H   0  0  0  0  0  0  0  0  0  0  0  0
  149.6530  140.5681  157.2062 H   0  0  0  0  0  0  0  0  0  0  0  0
  147.9850  142.9805  156.6877 H   0  0  0  0  0  0  0  0  0  0  0  0
  146.7812  139.1745  160.1188 H   0  0  0  0  0  0  0  0  0  0  0  0
  143.2593  142.0615  155.5651 H   0  0  0  0  0  0  0  0  0  0  0  0
  139.3721  141.3957  159.4875 H   0  0  0  0  0  0  0  0  0  0  0  0
  140.2721  142.8261  159.9659 H   0  0  0  0  0  0  0  0  0  0  0  0
  137.9909  142.7136  158.7397 H   0  0  0  0  0  0  0  0  0  0  0  0
  140.4326  141.9526  154.9749 H   0  0  0  0  0  0  0  0  0  0  0  0
  141.4073  138.4768  155.6806 H   0  0  0  0  0  0  0  0  0  0  0  0
  149.8777  142.1886  159.0911 H   0  0  0  0  0  0  0  0  0  0  0  0
  150.9867  144.0562  156.9480 H   0  0  0  0  0  0  0  0  0  0  0  0
  149.5772  144.3548  157.9384 H   0  0  0  0  0  0  0  0  0  0  0  0
  151.5166  145.5936  158.8029 H   0  0  0  0  0  0  0  0  0  0  0  0
  150.9025  144.4565  159.9779 H   0  0  0  0  0  0  0  0  0  0  0  0
  153.3486  144.0514  158.1902 H   0  0  0  0  0  0  0  0  0  0  0  0
  153.3691  144.3375  159.9153 H   0  0  0  0  0  0  0  0  0  0  0  0
  153.6496  141.9101  159.3881 H   0  0  0  0  0  0  0  0  0  0  0  0
  152.2092  142.1941  160.3361 H   0  0  0  0  0  0  0  0  0  0  0  0
  151.7333  140.6385  158.4970 H   0  0  0  0  0  0  0  0  0  0  0  0
  152.3258  141.7716  157.3118 H   0  0  0  0  0  0  0  0  0  0  0  0
  1  2  1  0  0  0  0
  1 34  1  0  0  0  0
  2  3  1  0  0  0  0
  2 35  1  0  0  0  0
  2 36  1  0  0  0  0
  3  4  1  0  0  0  0
  3 37  1  0  0  0  0
  3 38  1  0  0  0  0
  4  5  1  0  0  0  0
  4 24  1  0  0  0  0
  4 39  1  0  0  0  0
  5  6  1  0  0  0  0
  5 40  1  0  0  0  0
  6 11  1  0  0  0  0
  6  7  2  0  0  0  0
  7  8  1  0  0  0  0
  8  9  2  0  0  0  0
  8 41  1  0  0  0  0
  9 10  1  0  0  0  0
 10 14  1  0  0  0  0
 10 11  2  0  0  0  0
 11 12  1  0  0  0  0
 12 13  2  0  0  0  0
 13 14  1  0  0  0  0
 13 42  1  0  0  0  0
 14 15  1  0  0  0  0
 15 30  1  0  0  0  0
 15 22  1  0  0  0  0
 15 16  1  0  0  0  0
 16 17  1  0  0  0  0
 17 31  1  0  0  0  0
 17 18  1  0  0  0  0
 17 20  1  0  0  0  0
 18 19  1  0  0  0  0
 18 43  1  0  0  0  0
 18 44  1  0  0  0  0
 19 45  1  0  0  0  0
 20 32  1  0  0  0  0
 20 21  1  0  0  0  0
 20 22  1  0  0  0  0
 21 46  1  0  0  0  0
 22 33  1  0  0  0  0
 22 23  1  0  0  0  0
 23 47  1  0  0  0  0
 24 29  1  0  0  0  0
 24 25  1  0  0  0  0
 24 48  1  0  0  0  0
 25 26  1  0  0  0  0
 25 49  1  0  0  0  0
 25 50  1  0  0  0  0
 26 27  1  0  0  0  0
 26 51  1  0  0  0  0
 26 52  1  0  0  0  0
 27 28  1  0  0  0  0
 27 53  1  0  0  0  0
 27 54  1  0  0  0  0
 28 29  1  0  0  0  0
 28 55  1  0  0  0  0
 28 56  1  0  0  0  0
 29 57  1  0  0  0  0
 29 58  1  0  0  0  0
M  END
> <s_m_source_file>
AV-unprocessed.smi

> <i_m_source_file_index>
109

> <i_lp_mmshare_version>
43012

> <i_f3d_flags>
0

> <s_epik_input>
W0NIMl0xW0NIMl1bQ0gyXVtDSDJdW0NIMl1bQ0hdMVtDQEhdKFtDSDJdW0NIMl1bT0hdKVtOSF1jKG5bY0hdbjIpYyhjMjMpbltjSF1uM1tDQEBIXTRPW0NASF0oW0NIMl1bT0hdKVtDQEBIXShbT0hdKVtDQEhdNFtPSF0=

> <s_epik_cmdline>
J2VwaWtfcHl0aG9uJywgJy1waCcsICc3LjAnLCAnLXRuJywgJzgnLCAnLW1hJywgJzIwMCcsICctbWV0YWxfYmluZGluZycsICctaW1hZScsICc8aW5maWxlLm1hZT4nLCAnLW9tYWUnLCAnPG91dGZpbGUubWFlPic=

> <r_lp_tautomer_probability>
1

> <r_epik_Ionization_Penalty>
0.000793976

> <r_epik_Ionization_Penalty_Charging>
0

> <r_epik_Ionization_Penalty_Neutral>
0.000793976

> <r_epik_State_Penalty>
-0

> <r_epik_Charging_Adjusted_Penalty>
0

> <i_epik_Tot_Q>
0

> <i_epik_Tot_abs_Q>
0

> <r_epik_Metal_State_Penalty>
-0

> <b_epik_Metal_Only>
0

> <s_epik_Chemistry_Notes>
This compound contains an acetal/aminal-like group ( X-CH(R)-Y where X, Y are N, S, or O) that may be acid/base labile, releasing an aldehyde.

> <s_lp_Force_Field>
OPLS_2005

> <r_lp_Energy>
48.8451

> <b_lp_Chiralities_Consistent>
1

> <s_lp_Variant>
AV-unprocessed.smi:109-19

> <Gold.Version>
5.8.1

> <Gold.Id.Protein>
6NUR|6NUR_protein|mol2

> <Gold.PLP.Fitness>
52.4450

> <Gold.PLP.PLP>
-40.6922

> <Gold.PLP.part.hbond>
-6.3029

> <Gold.PLP.part.metal>
0.0000

> <Gold.PLP.part.buried>
-1.7429

> <Gold.PLP.part.nonpolar>
-33.8988

> <Gold.PLP.part.repulsive>
0.2773

> <Gold.PLP.ligand.clash>
0.0000

> <Gold.PLP.ligand.torsion>
1.3827

> <Gold.PLP.Chemscore.Hbond>
3.9520

> <Gold.PLP.Chemscore.CHOScore>
0.7925

> <Gold.PLP.Chemscore.Metal>
0.0000

> <Gold.Chemscore.Hbonds>
donor molecule, donor type, donor heavy atom, donor atom, acceptor molecule, acceptor atom, score
      L1  H     1    34       P1  7957  0.42
      L1  H     5    40       P1  8028  0.55
      P1  H  7989  7998       L1     1  0.13

> <Gold.PLP.Chemscore.Internal.Correction>
0.2847

> <Gold.Rescore>
     Score         DG    S(hbond)    S(metal)    S(lipo)     H(rot)  DE(clash)    DE(int)     intcor
     11.58     -13.82       3.46        0.00      92.17       5.47       0.57       1.67       ----

> <Gold.Chemscore.Fitness>
11.5800

> <Gold.Chemscore.DG>
-13.8241

> <Gold.Chemscore.ZeroCoef>
-5.4800

> <Gold.Chemscore.Hbond>
3.4591

> <Gold.Chemscore.Metal>
0.0000

> <Gold.Chemscore.Lipo>
92.1725

> <Gold.Chemscore.Internal_Hbond>
0.0000

> <Gold.Chemscore.DEClash>
0.5722

> <Gold.Chemscore.DEInternal>
1.6719

> <Gold.Chemscore.Rot>
5.4662

> <Gold.Chemscore.Internal.Correction>
   9.000000E+99

> <Gold.Chemscore.Hbonds>
donor molecule, donor type, donor heavy atom, donor atom, acceptor molecule, acceptor atom, score
      L1  H     1    34       P1  7957  0.42
      L1  H     5    40       P1  8028  0.14
      P1  H  7989  7998       L1     1  0.13

> <Gold.Chemscore.Hbond.Weighted>
-11.5534

> <Gold.Chemscore.Metal.Weighted>
-0.0000

> <Gold.Chemscore.Lipo.Weighted>
-10.7842

> <Gold.Chemscore.Internal_Hbond.Weighted>
0.0000

> <Gold.Chemscore.DEClash.Weighted>
0.5722

> <Gold.Chemscore.DEInternal.Weighted>
1.6719

> <Gold.Chemscore.Rot.Weighted>
13.9935

> <Gold.Chemscore.Internal.Correction.Weighted>
   9.000000E+99

> <Gold.Protein.RotatedTorsions>
[ 6907 6896 6895 6894 ] final   28.59 input  -60.11 | X-H torsion
[ 7974 7965 7964 7962 ] final -176.83 input  175.53 | X-H torsion
[ 8008 7997 7996 7995 ] final  -14.27 input   59.86 | X-H torsion
[ 10167 10162 10161 10158 ] final   67.47 input  -65.29 | X-H torsion
[ 10718 10713 10712 10709 ] final  -47.78 input   66.30 | X-H torsion
[ 10763 10752 10751 10750 ] final  160.56 input  -60.55 | X-H torsion
[ 11005 11000 10999 10996 ] final  -59.28 input  -57.11 | X-H torsion

> <Gold.Protein.ActiveResidues>
 VAL166  LYS551  ARG553  GLY616  TRP617  ASP618  TYR619  PRO620  LYS621  CYS622 
 ASP623  PHE694  ASN695  SER759  ASP760  ASP761  ALA762  ILE779  LEU786  VAL792 
 PHE793  MET794  SER795  GLU796  ALA797  LYS798  CYS799  TRP800  GLU811  SER814 

> <Gold.Protein.RotatedAtoms>
  152.0191  134.9833  160.0569 H   0  0  0  0  0  0  0  0  0  0  0  0  # atno 6907 bound_to 6896
  152.1354  133.4428  159.4749 H   0  0  0  0  0  0  0  0  0  0  0  0  # atno 6908 bound_to 6896
  150.6860  134.2288  159.4469 H   0  0  0  0  0  0  0  0  0  0  0  0  # atno 6909 bound_to 6896
  144.7127  140.1111  143.6411 H   0  0  0  0  0  0  0  0  0  0  0  0  # atno 7974 bound_to 7965
  154.5224  140.2227  155.8951 H   0  0  0  0  0  0  0  0  0  0  0  0  # atno 8008 bound_to 7997
  156.1676  140.3129  155.8882 H   0  0  0  0  0  0  0  0  0  0  0  0  # atno 8009 bound_to 7997
  155.3623  140.0462  157.3037 H   0  0  0  0  0  0  0  0  0  0  0  0  # atno 8010 bound_to 7997
  140.0892  144.5003  150.7110 H   0  0  0  0  0  0  0  0  0  0  0  0  # atno 10167 bound_to 10162
  156.2051  130.4158  149.9189 H   0  0  0  0  0  0  0  0  0  0  0  0  # atno 10718 bound_to 10713
  154.2492  135.2772  155.2823 H   0  0  0  0  0  0  0  0  0  0  0  0  # atno 10763 bound_to 10752
  154.5479  135.5683  153.6899 H   0  0  0  0  0  0  0  0  0  0  0  0  # atno 10764 bound_to 10752
  152.9984  135.6267  154.2639 H   0  0  0  0  0  0  0  0  0  0  0  0  # atno 10765 bound_to 10752
  141.1242  133.6615  156.5047 H   0  0  0  0  0  0  0  0  0  0  0  0  # atno 11005 bound_to 11000
  145.9454  139.2697  143.1244 LP  0  0  0  0  0  0  0  0  0  0  0  0  # atno 17320 bound_to 7965
  145.9380  140.9001  143.0322 LP  0  0  0  0  0  0  0  0  0  0  0  0  # atno 17321 bound_to 7965
  140.7037  143.2453  151.4788 LP  0  0  0  0  0  0  0  0  0  0  0  0  # atno 17342 bound_to 10162
  139.5734  144.1874  152.1869 LP  0  0  0  0  0  0  0  0  0  0  0  0  # atno 17343 bound_to 10162
  156.6885  130.8886  151.3585 LP  0  0  0  0  0  0  0  0  0  0  0  0  # atno 17370 bound_to 10713
  157.7008  130.9330  150.0778 LP  0  0  0  0  0  0  0  0  0  0  0  0  # atno 17371 bound_to 10713
  140.4417  134.7009  157.4995 LP  0  0  0  0  0  0  0  0  0  0  0  0  # atno 17394 bound_to 11000
  140.0224  134.6527  155.9220 LP  0  0  0  0  0  0  0  0  0  0  0  0  # atno 17395 bound_to 11000

$$$$
