AV-unprocessed.smi:2331|AV-procd|sdf|9314|dock4
  -GOLD-   2272012533D 1   1.00000     0.00000
 Structure written by MMmdl.
 49 50  0  0  0  0  0  0  0  0  1 V2000
  153.2743  142.1292  162.0957 C   0  0  0  0  0  0  0  0  0  0  0  0
  153.1319  142.0329  160.5572 C   0  0  0  0  0  0  0  0  0  0  0  0
  154.5013  141.5779  160.0096 C   0  0  0  0  0  0  0  0  0  0  0  0
  152.0719  140.9494  160.2161 C   0  0  0  0  0  0  0  0  0  0  0  0
  151.8592  140.8026  158.7779 N   0  0  0  0  0  0  0  0  0  0  0  0
  151.2802  139.7571  158.1648 C   0  0  0  0  0  0  0  0  0  0  0  0
  150.9656  138.7269  158.7601 O   0  0  0  0  0  0  0  0  0  0  0  0
  151.1557  139.9226  156.8274 N   0  0  0  0  0  0  0  0  0  0  0  0
  150.8866  141.2319  156.2194 C   0  0  0  0  0  0  0  0  0  0  0  0
  149.9640  140.9540  155.0411 C   0  0  0  0  0  0  0  0  0  0  0  0
  150.3838  139.5666  154.5953 C   0  0  0  0  0  0  0  0  0  0  0  0
  150.8055  138.8380  155.8868 C   0  0  1  0  0  0  0  0  0  0  0  0
  151.9425  137.7875  155.6507 C   0  0  0  0  0  0  0  0  0  0  0  0
  153.1913  138.4268  155.0088 C   0  0  0  0  0  0  0  0  0  0  0  0
  152.3289  136.9913  156.9136 C   0  0  0  0  0  0  0  0  0  0  0  0
  151.5089  136.8620  154.6737 O   0  0  0  0  0  0  0  0  0  0  0  0
  152.7416  143.3796  159.9161 C   0  0  0  0  0  0  0  0  0  0  0  0
  152.8799  143.6396  158.5301 C   0  0  0  0  0  0  0  0  0  0  0  0
  152.5259  144.9095  158.0331 C   0  0  0  0  0  0  0  0  0  0  0  0
  152.0551  145.9073  158.8087 N   0  0  0  0  0  0  0  0  0  0  0  0
  151.9210  145.6634  160.1281 C   0  0  0  0  0  0  0  0  0  0  0  0
  152.2480  144.4302  160.7250 C   0  0  0  0  0  0  0  0  0  0  0  0
  153.5461  141.1652  162.5272 H   0  0  0  0  0  0  0  0  0  0  0  0
  152.3483  142.4408  162.5790 H   0  0  0  0  0  0  0  0  0  0  0  0
  154.0515  142.8384  162.3827 H   0  0  0  0  0  0  0  0  0  0  0  0
  154.8140  140.6351  160.4597 H   0  0  0  0  0  0  0  0  0  0  0  0
  155.2763  142.3150  160.2224 H   0  0  0  0  0  0  0  0  0  0  0  0
  154.4832  141.4249  158.9306 H   0  0  0  0  0  0  0  0  0  0  0  0
  152.4063  139.9766  160.5779 H   0  0  0  0  0  0  0  0  0  0  0  0
  151.1331  141.1455  160.7370 H   0  0  0  0  0  0  0  0  0  0  0  0
  152.1239  141.5893  158.2028 H   0  0  0  0  0  0  0  0  0  0  0  0
  150.4212  141.9433  156.9044 H   0  0  0  0  0  0  0  0  0  0  0  0
  151.8302  141.6598  155.8783 H   0  0  0  0  0  0  0  0  0  0  0  0
  148.9273  140.9352  155.3797 H   0  0  0  0  0  0  0  0  0  0  0  0
  150.0478  141.6999  154.2503 H   0  0  0  0  0  0  0  0  0  0  0  0
  149.5920  139.0447  154.0575 H   0  0  0  0  0  0  0  0  0  0  0  0
  151.2300  139.6710  153.9160 H   0  0  0  0  0  0  0  0  0  0  0  0
  149.9182  138.3320  156.2733 H   0  0  0  0  0  0  0  0  0  0  0  0
  153.6967  139.1113  155.6898 H   0  0  0  0  0  0  0  0  0  0  0  0
  152.9322  138.9875  154.1097 H   0  0  0  0  0  0  0  0  0  0  0  0
  153.9242  137.6708  154.7232 H   0  0  0  0  0  0  0  0  0  0  0  0
  152.6636  137.6518  157.7133 H   0  0  0  0  0  0  0  0  0  0  0  0
  153.1405  136.2927  156.7074 H   0  0  0  0  0  0  0  0  0  0  0  0
  151.4937  136.4056  157.2979 H   0  0  0  0  0  0  0  0  0  0  0  0
  150.7004  137.1757  154.2986 H   0  0  0  0  0  0  0  0  0  0  0  0
  153.2543  142.9016  157.8382 H   0  0  0  0  0  0  0  0  0  0  0  0
  152.6272  145.1301  156.9809 H   0  0  0  0  0  0  0  0  0  0  0  0
  151.5446  146.4777  160.7295 H   0  0  0  0  0  0  0  0  0  0  0  0
  152.1255  144.3047  161.7904 H   0  0  0  0  0  0  0  0  0  0  0  0
  1  2  1  0  0  0  0
  1 23  1  0  0  0  0
  1 24  1  0  0  0  0
  1 25  1  0  0  0  0
  2  3  1  0  0  0  0
  2  4  1  0  0  0  0
  2 17  1  0  0  0  0
  3 26  1  0  0  0  0
  3 27  1  0  0  0  0
  3 28  1  0  0  0  0
  4  5  1  0  0  0  0
  4 29  1  0  0  0  0
  4 30  1  0  0  0  0
  5  6  1  0  0  0  0
  5 31  1  0  0  0  0
  6  7  2  0  0  0  0
  6  8  1  0  0  0  0
  8 12  1  0  0  0  0
  8  9  1  0  0  0  0
  9 10  1  0  0  0  0
  9 32  1  0  0  0  0
  9 33  1  0  0  0  0
 10 11  1  0  0  0  0
 10 34  1  0  0  0  0
 10 35  1  0  0  0  0
 11 12  1  0  0  0  0
 11 36  1  0  0  0  0
 11 37  1  0  0  0  0
 12 13  1  0  0  0  0
 12 38  1  0  0  0  0
 13 14  1  0  0  0  0
 13 15  1  0  0  0  0
 13 16  1  0  0  0  0
 14 39  1  0  0  0  0
 14 40  1  0  0  0  0
 14 41  1  0  0  0  0
 15 42  1  0  0  0  0
 15 43  1  0  0  0  0
 15 44  1  0  0  0  0
 16 45  1  0  0  0  0
 17 22  1  0  0  0  0
 17 18  2  0  0  0  0
 18 19  1  0  0  0  0
 18 46  1  0  0  0  0
 19 20  2  0  0  0  0
 19 47  1  0  0  0  0
 20 21  1  0  0  0  0
 21 22  2  0  0  0  0
 21 48  1  0  0  0  0
 22 49  1  0  0  0  0
M  END
> <s_m_source_file>
AV-unprocessed.smi

> <i_m_source_file_index>
2331

> <i_lp_mmshare_version>
43012

> <i_f3d_flags>
0

> <s_epik_input>
W2NIXTFbY0hdbltjSF1bY0hdYzFDKFtDSDNdKShbQ0gzXSlbQ0gyXVtOSF1DKD1PKU4yW0NIMl1bQ0gyXVtDSDJdW0NASF0yQyhbQ0gzXSkoW0NIM10pW09IXQ==

> <s_epik_cmdline>
J2VwaWtfcHl0aG9uJywgJy1waCcsICc3LjAnLCAnLXRuJywgJzgnLCAnLW1hJywgJzIwMCcsICctbWV0YWxfYmluZGluZycsICctaW1hZScsICc8aW5maWxlLm1hZT4nLCAnLW9tYWUnLCAnPG91dGZpbGUubWFlPic=

> <r_epik_Ionization_Penalty>
0.0581496

> <r_epik_Ionization_Penalty_Charging>
0

> <r_epik_Ionization_Penalty_Neutral>
0.0581496

> <r_epik_State_Penalty>
0.0501956

> <r_epik_Charging_Adjusted_Penalty>
0.0501956

> <i_epik_Tot_Q>
0

> <i_epik_Tot_abs_Q>
0

> <r_epik_Metal_State_Penalty>
0.0456895

> <b_epik_Metal_Only>
0

> <s_lp_Force_Field>
OPLS_2005

> <r_lp_Energy>
47.1334

> <b_lp_Chiralities_Consistent>
1

> <s_lp_Variant>
AV-unprocessed.smi:2331-1

> <Gold.Version>
5.8.1

> <Gold.Id.Protein>
6NUR|6NUR_protein|mol2

> <Gold.PLP.Fitness>
53.2139

> <Gold.PLP.PLP>
-51.6489

> <Gold.PLP.part.hbond>
-2.8824

> <Gold.PLP.part.metal>
0.0000

> <Gold.PLP.part.buried>
-2.6199

> <Gold.PLP.part.nonpolar>
-45.1145

> <Gold.PLP.part.repulsive>
0.2414

> <Gold.PLP.ligand.clash>
0.0000

> <Gold.PLP.ligand.torsion>
0.9455

> <Gold.PLP.Chemscore.Hbond>
0.9913

> <Gold.PLP.Chemscore.CHOScore>
0.0000

> <Gold.PLP.Chemscore.Metal>
0.0000

> <Gold.Chemscore.Hbonds>
donor molecule, donor type, donor heavy atom, donor atom, acceptor molecule, acceptor atom, score
      P1  H 10752 10765       L1    16  1.00

> <Gold.PLP.Chemscore.Internal.Correction>
0.4822

> <Gold.Rescore>
     Score         DG    S(hbond)    S(metal)    S(lipo)     H(rot)  DE(clash)    DE(int)     intcor
     17.27     -21.41       0.88        0.00     153.43       1.94       1.62       2.51       ----

> <Gold.Chemscore.Fitness>
17.2746

> <Gold.Chemscore.DG>
-21.4059

> <Gold.Chemscore.ZeroCoef>
-5.4800

> <Gold.Chemscore.Hbond>
0.8766

> <Gold.Chemscore.Metal>
0.0000

> <Gold.Chemscore.Lipo>
153.4326

> <Gold.Chemscore.Internal_Hbond>
0.0000

> <Gold.Chemscore.DEClash>
1.6242

> <Gold.Chemscore.DEInternal>
2.5071

> <Gold.Chemscore.Rot>
1.9350

> <Gold.Chemscore.Internal.Correction>
   9.000000E+99

> <Gold.Chemscore.Hbonds>
donor molecule, donor type, donor heavy atom, donor atom, acceptor molecule, acceptor atom, score
      P1  H 10752 10765       L1    16  0.65

> <Gold.Chemscore.Hbond.Weighted>
-2.9279

> <Gold.Chemscore.Metal.Weighted>
-0.0000

> <Gold.Chemscore.Lipo.Weighted>
-17.9516

> <Gold.Chemscore.Internal_Hbond.Weighted>
0.0000

> <Gold.Chemscore.DEClash.Weighted>
1.6242

> <Gold.Chemscore.DEInternal.Weighted>
2.5071

> <Gold.Chemscore.Rot.Weighted>
4.9536

> <Gold.Chemscore.Internal.Correction.Weighted>
   9.000000E+99

> <Gold.Protein.RotatedTorsions>
[ 6907 6896 6895 6894 ] final   23.21 input  -60.11 | X-H torsion
[ 7974 7965 7964 7962 ] final   73.23 input  175.53 | X-H torsion
[ 8008 7997 7996 7995 ] final  125.91 input   59.86 | X-H torsion
[ 10167 10162 10161 10158 ] final -152.91 input  -65.29 | X-H torsion
[ 10718 10713 10712 10709 ] final   72.28 input   66.30 | X-H torsion
[ 10763 10752 10751 10750 ] final  163.82 input  -60.55 | X-H torsion
[ 11005 11000 10999 10996 ] final  -35.23 input  -57.11 | X-H torsion

> <Gold.Protein.ActiveResidues>
 VAL166  LYS551  ARG553  GLY616  TRP617  ASP618  TYR619  PRO620  LYS621  CYS622 
 ASP623  PHE694  ASN695  SER759  ASP760  ASP761  ALA762  ILE779  LEU786  VAL792 
 PHE793  MET794  SER795  GLU796  ALA797  LYS798  CYS799  TRP800  GLU811  SER814 

> <Gold.Protein.RotatedAtoms>
  151.9389  135.0222  160.0534 H   0  0  0  0  0  0  0  0  0  0  0  0  # atno 6907 bound_to 6896
  152.2054  133.4867  159.5089 H   0  0  0  0  0  0  0  0  0  0  0  0  # atno 6908 bound_to 6896
  150.6964  134.1454  159.4163 H   0  0  0  0  0  0  0  0  0  0  0  0  # atno 6909 bound_to 6896
  145.7435  139.2730  143.1473 H   0  0  0  0  0  0  0  0  0  0  0  0  # atno 7974 bound_to 7965
  156.2848  140.2705  156.2025 H   0  0  0  0  0  0  0  0  0  0  0  0  # atno 8008 bound_to 7997
  155.0346  140.0386  157.2505 H   0  0  0  0  0  0  0  0  0  0  0  0  # atno 8009 bound_to 7997
  154.7325  140.2709  155.6449 H   0  0  0  0  0  0  0  0  0  0  0  0  # atno 8010 bound_to 7997
  139.7141  143.9062  152.2479 H   0  0  0  0  0  0  0  0  0  0  0  0  # atno 10167 bound_to 10162
  157.6493  130.9571  150.0907 H   0  0  0  0  0  0  0  0  0  0  0  0  # atno 10718 bound_to 10713
  154.2995  135.2759  155.2617 H   0  0  0  0  0  0  0  0  0  0  0  0  # atno 10763 bound_to 10752
  154.5061  135.5795  153.6571 H   0  0  0  0  0  0  0  0  0  0  0  0  # atno 10764 bound_to 10752
  152.9902  135.6169  154.3165 H   0  0  0  0  0  0  0  0  0  0  0  0  # atno 10765 bound_to 10752
  140.9779  133.7072  156.1634 H   0  0  0  0  0  0  0  0  0  0  0  0  # atno 11005 bound_to 11000
  146.0425  140.8150  142.9821 LP  0  0  0  0  0  0  0  0  0  0  0  0  # atno 17320 bound_to 7965
  144.6865  140.2932  143.7275 LP  0  0  0  0  0  0  0  0  0  0  0  0  # atno 17321 bound_to 7965
  139.8939  144.6950  150.8740 LP  0  0  0  0  0  0  0  0  0  0  0  0  # atno 17342 bound_to 10162
  140.7740  143.3565  151.1911 LP  0  0  0  0  0  0  0  0  0  0  0  0  # atno 17343 bound_to 10162
  156.1857  130.3652  149.8976 LP  0  0  0  0  0  0  0  0  0  0  0  0  # atno 17370 bound_to 10713
  156.6917  130.8898  151.3589 LP  0  0  0  0  0  0  0  0  0  0  0  0  # atno 17371 bound_to 10713
  140.7230  134.4337  157.5573 LP  0  0  0  0  0  0  0  0  0  0  0  0  # atno 17394 bound_to 11000
  139.8938  134.8721  156.2206 LP  0  0  0  0  0  0  0  0  0  0  0  0  # atno 17395 bound_to 11000

$$$$
