AV-unprocessed.smi:2845|AV-procd|sdf|10947|dock4
  -GOLD-   2272015393D 1   1.00000     0.00000
 Structure written by MMmdl.
 43 45  0  0  0  0  0  0  0  0  2 V2000
  151.8587  144.5008  160.9096 C   0  0  0  0  0  0  0  0  0  0  0  0
  151.8249  143.4350  159.8275 C   0  0  0  0  0  0  0  0  0  0  0  0
  151.0417  143.6693  158.6745 C   0  0  0  0  0  0  0  0  0  0  0  0
  151.0320  142.6767  157.7018 C   0  0  0  0  0  0  0  0  0  0  0  0
  150.3743  142.6059  156.4716 N   0  3  0  0  0  0  0  0  0  0  0  0
  150.6748  141.4250  155.8632 C   0  0  0  0  0  0  0  0  0  0  0  0
  151.5140  140.7415  156.6875 N   0  0  0  0  0  0  0  0  0  0  0  0
  152.1415  139.4258  156.5125 C   0  0  0  0  0  0  0  0  0  0  0  0
  151.4054  138.5486  155.4773 C   0  0  2  0  0  0  0  0  0  0  0  0
  151.5861  139.0976  154.1855 O   0  0  0  0  0  0  0  0  0  0  0  0
  149.8994  138.3779  155.7719 C   0  0  0  0  0  0  0  0  0  0  0  0
  149.6188  137.7033  157.0284 N   0  0  0  0  0  0  0  0  0  0  0  0
  150.4484  137.1684  157.9296 C   0  0  0  0  0  0  0  0  0  0  0  0
  149.8351  136.6269  158.9733 N   0  0  0  0  0  0  0  0  0  0  0  0
  148.5426  136.8815  158.6157 C   0  0  0  0  0  0  0  0  0  0  0  0
  147.1421  136.3704  159.6599 S   0  0  1  0  0  0  0  0  0  0  0  0
  147.7138  134.6212  159.8902 C   0  0  0  0  0  0  0  0  0  0  0  0
  147.3321  137.0841  161.0000 O   0  0  0  0  0  0  0  0  0  0  0  0
  148.3492  137.5170  157.4623 N   0  0  0  0  0  0  0  0  0  0  0  0
  151.7654  141.4830  157.8460 C   0  0  0  0  0  0  0  0  0  0  0  0
  152.5421  141.2354  158.9750 C   0  0  0  0  0  0  0  0  0  0  0  0
  152.5654  142.2333  159.9757 C   0  0  0  0  0  0  0  0  0  0  0  0
  153.4035  141.9921  161.2198 C   0  0  0  0  0  0  0  0  0  0  0  0
  151.2345  145.3557  160.6475 H   0  0  0  0  0  0  0  0  0  0  0  0
  152.8758  144.8645  161.0577 H   0  0  0  0  0  0  0  0  0  0  0  0
  151.4929  144.0993  161.8549 H   0  0  0  0  0  0  0  0  0  0  0  0
  150.4753  144.5814  158.5552 H   0  0  0  0  0  0  0  0  0  0  0  0
  150.3172  141.0922  154.8993 H   0  0  0  0  0  0  0  0  0  0  0  0
  153.1846  139.5733  156.2304 H   0  0  0  0  0  0  0  0  0  0  0  0
  152.1505  138.9431  157.4906 H   0  0  0  0  0  0  0  0  0  0  0  0
  151.8587  137.5570  155.4662 H   0  0  0  0  0  0  0  0  0  0  0  0
  152.2487  138.5963  153.7350 H   0  0  0  0  0  0  0  0  0  0  0  0
  149.4000  139.3481  155.7766 H   0  0  0  0  0  0  0  0  0  0  0  0
  149.4353  137.8003  154.9715 H   0  0  0  0  0  0  0  0  0  0  0  0
  151.5232  137.1796  157.8215 H   0  0  0  0  0  0  0  0  0  0  0  0
  148.2999  134.2839  159.0349 H   0  0  0  0  0  0  0  0  0  0  0  0
  146.8549  133.9594  159.9991 H   0  0  0  0  0  0  0  0  0  0  0  0
  148.3290  134.5403  160.7862 H   0  0  0  0  0  0  0  0  0  0  0  0
  153.1057  140.3210  159.0862 H   0  0  0  0  0  0  0  0  0  0  0  0
  153.9069  141.0256  161.1813 H   0  0  0  0  0  0  0  0  0  0  0  0
  152.7772  142.0056  162.1122 H   0  0  0  0  0  0  0  0  0  0  0  0
  154.1688  142.7619  161.3216 H   0  0  0  0  0  0  0  0  0  0  0  0
  149.7664  143.3100  156.0728 H   0  0  0  0  0  0  0  0  0  0  0  0
  1  2  1  0  0  0  0
  1 24  1  0  0  0  0
  1 25  1  0  0  0  0
  1 26  1  0  0  0  0
  2 22  1  0  0  0  0
  2  3  2  0  0  0  0
  3  4  1  0  0  0  0
  3 27  1  0  0  0  0
  4 20  2  0  0  0  0
  4  5  1  0  0  0  0
  5  6  2  0  0  0  0
  5 43  1  0  0  0  0
  6  7  1  0  0  0  0
  6 28  1  0  0  0  0
  7  8  1  0  0  0  0
  7 20  1  0  0  0  0
  8  9  1  0  0  0  0
  8 29  1  0  0  0  0
  8 30  1  0  0  0  0
  9 10  1  0  0  0  0
  9 11  1  0  0  0  0
  9 31  1  0  0  0  0
 10 32  1  0  0  0  0
 11 12  1  0  0  0  0
 11 33  1  0  0  0  0
 11 34  1  0  0  0  0
 12 19  1  0  0  0  0
 12 13  1  0  0  0  0
 13 14  2  0  0  0  0
 13 35  1  0  0  0  0
 14 15  1  0  0  0  0
 15 16  1  0  0  0  0
 15 19  2  0  0  0  0
 16 17  1  0  0  0  0
 16 18  2  0  0  0  0
 17 36  1  0  0  0  0
 17 37  1  0  0  0  0
 17 38  1  0  0  0  0
 20 21  1  0  0  0  0
 21 22  2  0  0  0  0
 21 39  1  0  0  0  0
 22 23  1  0  0  0  0
 23 40  1  0  0  0  0
 23 41  1  0  0  0  0
 23 42  1  0  0  0  0
M  CHG  1   5   1
M  END
> <s_m_source_file>
AV-unprocessed.smi

> <i_m_source_file_index>
2845

> <i_lp_mmshare_version>
43012

> <i_f3d_flags>
0

> <s_epik_input>
W0NIM11jKFtjSF0xKWMoW0NIM10pW2NIXWMoYzEyKW4oW2NIXW4yKVtDSDJdW0NASF0oW09IXSlbQ0gyXW4zW2NIXW5jKG4zKVtTQF0oPU8pW0NIM10=

> <s_epik_cmdline>
J2VwaWtfcHl0aG9uJywgJy1waCcsICc3LjAnLCAnLXRuJywgJzgnLCAnLW1hJywgJzIwMCcsICctbWV0YWxfYmluZGluZycsICctaW1hZScsICc8aW5maWxlLm1hZT4nLCAnLW9tYWUnLCAnPG91dGZpbGUubWFlPic=

> <r_lp_tautomer_probability>
1

> <r_epik_Ionization_Penalty>
1.12076

> <r_epik_Ionization_Penalty_Charging>
1.12075

> <r_epik_Ionization_Penalty_Neutral>
1.54566e-06

> <r_epik_State_Penalty>
1.17957

> <r_epik_Charging_Adjusted_Penalty>
2.30033

> <i_epik_Tot_Q>
1

> <i_epik_Tot_abs_Q>
1

> <r_epik_Metal_State_Penalty>
1.26402

> <b_epik_Metal_Only>
0

> <s_lp_Force_Field>
OPLS_2005

> <r_lp_Energy>
15.2254

> <b_lp_Chiralities_Consistent>
1

> <s_lp_Variant>
AV-unprocessed.smi:2845-5

> <Gold.Version>
5.8.1

> <Gold.Id.Protein>
6NUR|6NUR_protein|mol2

> <Gold.PLP.Fitness>
59.0078

> <Gold.PLP.PLP>
-43.2353

> <Gold.PLP.part.hbond>
-5.0000

> <Gold.PLP.part.metal>
0.0000

> <Gold.PLP.part.buried>
-4.5736

> <Gold.PLP.part.nonpolar>
-32.4207

> <Gold.PLP.part.repulsive>
0.0712

> <Gold.PLP.ligand.clash>
0.0000

> <Gold.PLP.ligand.torsion>
1.3310

> <Gold.PLP.Chemscore.Hbond>
5.8080

> <Gold.PLP.Chemscore.CHOScore>
0.0000

> <Gold.PLP.Chemscore.Metal>
0.0000

> <Gold.Chemscore.Hbonds>
donor molecule, donor type, donor heavy atom, donor atom, acceptor molecule, acceptor atom, score
      L1  H     5    43       P1  8028  2.00
      P1  H  6896  6909       L1    14  0.71
      P1  H  6931  6943       L1    18  0.39
      P1  H  6934  6947       L1    18  1.00
      P1  H  7989  7998       L1    10  0.99

> <Gold.PLP.Chemscore.Internal.Correction>
1.0105

> <Gold.Rescore>
     Score         DG    S(hbond)    S(metal)    S(lipo)     H(rot)  DE(clash)    DE(int)     intcor
     21.39     -24.99       4.33        0.00     103.82       2.77       1.33       2.27       ----

> <Gold.Chemscore.Fitness>
21.3921

> <Gold.Chemscore.DG>
-24.9920

> <Gold.Chemscore.ZeroCoef>
-5.4800

> <Gold.Chemscore.Hbond>
4.3267

> <Gold.Chemscore.Metal>
0.0000

> <Gold.Chemscore.Lipo>
103.8213

> <Gold.Chemscore.Internal_Hbond>
0.0000

> <Gold.Chemscore.DEClash>
1.3325

> <Gold.Chemscore.DEInternal>
2.2674

> <Gold.Chemscore.Rot>
2.7681

> <Gold.Chemscore.Internal.Correction>
   9.000000E+99

> <Gold.Chemscore.Hbonds>
donor molecule, donor type, donor heavy atom, donor atom, acceptor molecule, acceptor atom, score
      L1  H     5    43       P1  8028  1.00
      P1  H  6896  6909       L1    14  0.56
      P1  H  6931  6943       L1    18  0.39
      P1  H  6934  6947       L1    18  0.88
      P1  H  7989  7998       L1    10  0.52

> <Gold.Chemscore.Hbond.Weighted>
-14.4512

> <Gold.Chemscore.Metal.Weighted>
-0.0000

> <Gold.Chemscore.Lipo.Weighted>
-12.1471

> <Gold.Chemscore.Internal_Hbond.Weighted>
0.0000

> <Gold.Chemscore.DEClash.Weighted>
1.3325

> <Gold.Chemscore.DEInternal.Weighted>
2.2674

> <Gold.Chemscore.Rot.Weighted>
7.0863

> <Gold.Chemscore.Internal.Correction.Weighted>
   9.000000E+99

> <Gold.Protein.RotatedTorsions>
[ 6907 6896 6895 6894 ] final   81.39 input  -60.11 | X-H torsion
[ 7974 7965 7964 7962 ] final  -69.13 input  175.53 | X-H torsion
[ 8008 7997 7996 7995 ] final -166.45 input   59.86 | X-H torsion
[ 10167 10162 10161 10158 ] final   79.03 input  -65.29 | X-H torsion
[ 10718 10713 10712 10709 ] final   62.25 input   66.30 | X-H torsion
[ 10763 10752 10751 10750 ] final   99.86 input  -60.55 | X-H torsion
[ 11005 11000 10999 10996 ] final  152.38 input  -57.11 | X-H torsion

> <Gold.Protein.ActiveResidues>
 VAL166  LYS551  ARG553  GLY616  TRP617  ASP618  TYR619  PRO620  LYS621  CYS622 
 ASP623  PHE694  ASN695  SER759  ASP760  ASP761  ALA762  ILE779  LEU786  VAL792 
 PHE793  MET794  SER795  GLU796  ALA797  LYS798  CYS799  TRP800  GLU811  SER814 

> <Gold.Protein.RotatedAtoms>
  152.5267  134.3211  159.9148 H   0  0  0  0  0  0  0  0  0  0  0  0  # atno 6907 bound_to 6896
  151.3160  133.4054  159.2658 H   0  0  0  0  0  0  0  0  0  0  0  0  # atno 6908 bound_to 6896
  150.9999  134.9330  159.8005 H   0  0  0  0  0  0  0  0  0  0  0  0  # atno 6909 bound_to 6896
  145.7077  140.9091  143.0697 H   0  0  0  0  0  0  0  0  0  0  0  0  # atno 7974 bound_to 7965
  155.8639  140.0982  157.1595 H   0  0  0  0  0  0  0  0  0  0  0  0  # atno 8008 bound_to 7997
  154.3992  140.1360  156.4057 H   0  0  0  0  0  0  0  0  0  0  0  0  # atno 8009 bound_to 7997
  155.7826  140.3458  155.5308 H   0  0  0  0  0  0  0  0  0  0  0  0  # atno 8010 bound_to 7997
  139.9646  144.5937  150.8040 H   0  0  0  0  0  0  0  0  0  0  0  0  # atno 10167 bound_to 10162
  157.5887  130.9040  149.9564 H   0  0  0  0  0  0  0  0  0  0  0  0  # atno 10718 bound_to 10713
  153.3067  135.4099  155.1300 H   0  0  0  0  0  0  0  0  0  0  0  0  # atno 10763 bound_to 10752
  154.8564  135.3554  154.5778 H   0  0  0  0  0  0  0  0  0  0  0  0  # atno 10764 bound_to 10752
  153.6206  135.7064  153.5370 H   0  0  0  0  0  0  0  0  0  0  0  0  # atno 10765 bound_to 10752
  140.1303  134.8806  157.2194 H   0  0  0  0  0  0  0  0  0  0  0  0  # atno 11005 bound_to 11000
  144.6950  139.9032  143.7459 LP  0  0  0  0  0  0  0  0  0  0  0  0  # atno 17320 bound_to 7965
  146.0741  139.3729  143.0505 LP  0  0  0  0  0  0  0  0  0  0  0  0  # atno 17321 bound_to 7965
  140.7542  143.3022  151.3051 LP  0  0  0  0  0  0  0  0  0  0  0  0  # atno 17342 bound_to 10162
  139.6527  144.0332  152.2638 LP  0  0  0  0  0  0  0  0  0  0  0  0  # atno 17343 bound_to 10162
  156.0939  130.3661  150.0342 LP  0  0  0  0  0  0  0  0  0  0  0  0  # atno 17370 bound_to 10713
  156.8469  130.9445  151.3628 LP  0  0  0  0  0  0  0  0  0  0  0  0  # atno 17371 bound_to 10713
  140.2851  134.3305  155.7331 LP  0  0  0  0  0  0  0  0  0  0  0  0  # atno 17394 bound_to 11000
  141.2169  133.7501  156.9421 LP  0  0  0  0  0  0  0  0  0  0  0  0  # atno 17395 bound_to 11000

$$$$
