AV-unprocessed.smi:2726|AV-procd|sdf|10520|dock8
  -GOLD-   2272014563D 1   1.00000     0.00000
 Structure written by MMmdl.
 42 43  0  0  0  0  0  0  0  0  2 V2000
  138.8219  139.1707  153.1566 C   0  0  0  0  0  0  0  0  0  0  0  0
  139.9867  139.5944  154.0689 C   0  0  0  0  0  0  0  0  0  0  0  0
  140.1024  141.1332  154.0479 C   0  0  0  0  0  0  0  0  0  0  0  0
  139.7114  139.0893  155.5013 C   0  0  0  0  0  0  0  0  0  0  0  0
  141.2021  138.9766  153.5240 N   0  0  0  0  0  0  0  0  0  0  0  0
  141.5139  137.6713  153.4507 C   0  0  0  0  0  0  0  0  0  0  0  0
  140.7810  136.7642  153.8433 O   0  0  0  0  0  0  0  0  0  0  0  0
  142.7340  137.4979  152.9137 N   0  0  0  0  0  0  0  0  0  0  0  0
  143.4231  136.2802  152.6648 C   0  0  0  0  0  0  0  0  0  0  0  0
  144.4142  136.2775  151.6600 C   0  0  0  0  0  0  0  0  0  0  0  0
  145.1134  135.0882  151.3692 C   0  0  0  0  0  0  0  0  0  0  0  0
  144.8016  133.9082  152.0838 C   0  0  0  0  0  0  0  0  0  0  0  0
  145.4370  132.6763  151.8748 N   0  0  0  0  0  0  0  0  0  0  0  0
  146.0390  132.0831  153.0573 C   0  0  0  0  0  0  0  0  0  0  0  0
  146.2856  130.6157  152.6981 C   0  0  0  0  0  0  0  0  0  0  0  0
  145.3186  130.3246  151.5443 C   0  0  0  0  0  0  0  0  0  0  0  0
  144.5878  131.6476  151.2986 C   0  0  0  0  0  0  0  0  0  0  0  0
  143.8377  133.9484  153.0291 N   0  3  0  0  0  0  0  0  0  0  0  0
  143.1464  135.0662  153.3400 C   0  0  0  0  0  0  0  0  0  0  0  0
  137.8772  139.5985  153.4941 H   0  0  0  0  0  0  0  0  0  0  0  0
  138.7022  138.0866  153.1394 H   0  0  0  0  0  0  0  0  0  0  0  0
  138.9805  139.5006  152.1290 H   0  0  0  0  0  0  0  0  0  0  0  0
  140.3260  141.5008  153.0458 H   0  0  0  0  0  0  0  0  0  0  0  0
  140.8846  141.4964  154.7144 H   0  0  0  0  0  0  0  0  0  0  0  0
  139.1703  141.6006  154.3668 H   0  0  0  0  0  0  0  0  0  0  0  0
  138.7609  139.4710  155.8758 H   0  0  0  0  0  0  0  0  0  0  0  0
  140.4803  139.4080  156.2050 H   0  0  0  0  0  0  0  0  0  0  0  0
  139.6634  138.0004  155.5363 H   0  0  0  0  0  0  0  0  0  0  0  0
  141.8886  139.6249  153.1667 H   0  0  0  0  0  0  0  0  0  0  0  0
  143.2528  138.3397  152.7108 H   0  0  0  0  0  0  0  0  0  0  0  0
  144.6451  137.1826  151.1170 H   0  0  0  0  0  0  0  0  0  0  0  0
  145.8785  135.0892  150.6069 H   0  0  0  0  0  0  0  0  0  0  0  0
  146.9667  132.5915  153.3217 H   0  0  0  0  0  0  0  0  0  0  0  0
  145.3636  132.1512  153.9111 H   0  0  0  0  0  0  0  0  0  0  0  0
  147.3140  130.4750  152.3634 H   0  0  0  0  0  0  0  0  0  0  0  0
  146.1229  129.9594  153.5536 H   0  0  0  0  0  0  0  0  0  0  0  0
  145.8780  130.0286  150.6560 H   0  0  0  0  0  0  0  0  0  0  0  0
  144.6211  129.5205  151.7805 H   0  0  0  0  0  0  0  0  0  0  0  0
  143.6134  131.6352  151.7890 H   0  0  0  0  0  0  0  0  0  0  0  0
  144.4262  131.8241  150.2347 H   0  0  0  0  0  0  0  0  0  0  0  0
  142.3961  134.9363  154.1051 H   0  0  0  0  0  0  0  0  0  0  0  0
  143.6183  133.0890  153.5336 H   0  0  0  0  0  0  0  0  0  0  0  0
  1  2  1  0  0  0  0
  1 20  1  0  0  0  0
  1 21  1  0  0  0  0
  1 22  1  0  0  0  0
  2  3  1  0  0  0  0
  2  4  1  0  0  0  0
  2  5  1  0  0  0  0
  3 23  1  0  0  0  0
  3 24  1  0  0  0  0
  3 25  1  0  0  0  0
  4 26  1  0  0  0  0
  4 27  1  0  0  0  0
  4 28  1  0  0  0  0
  5  6  1  0  0  0  0
  5 29  1  0  0  0  0
  6  7  2  0  0  0  0
  6  8  1  0  0  0  0
  8  9  1  0  0  0  0
  8 30  1  0  0  0  0
  9 19  1  0  0  0  0
  9 10  2  0  0  0  0
 10 11  1  0  0  0  0
 10 31  1  0  0  0  0
 11 12  2  0  0  0  0
 11 32  1  0  0  0  0
 12 13  1  0  0  0  0
 12 18  1  0  0  0  0
 13 17  1  0  0  0  0
 13 14  1  0  0  0  0
 14 15  1  0  0  0  0
 14 33  1  0  0  0  0
 14 34  1  0  0  0  0
 15 16  1  0  0  0  0
 15 35  1  0  0  0  0
 15 36  1  0  0  0  0
 16 17  1  0  0  0  0
 16 37  1  0  0  0  0
 16 38  1  0  0  0  0
 17 39  1  0  0  0  0
 17 40  1  0  0  0  0
 18 19  2  0  0  0  0
 18 42  1  0  0  0  0
 19 41  1  0  0  0  0
M  CHG  1  18   1
M  END
> <s_m_source_file>
AV-unprocessed.smi

> <i_m_source_file_index>
2726

> <i_lp_mmshare_version>
43012

> <i_f3d_flags>
0

> <s_epik_input>
W0NIM11DKFtDSDNdKShbQ0gzXSlbTkhdQyg9TylbTkhdYzFbY0hdW2NIXWMobltjSF0xKU4yW0NIMl1bQ0gyXVtDSDJdW0NIMl0y

> <s_epik_cmdline>
J2VwaWtfcHl0aG9uJywgJy1waCcsICc3LjAnLCAnLXRuJywgJzgnLCAnLW1hJywgJzIwMCcsICctbWV0YWxfYmluZGluZycsICctaW1hZScsICc8aW5maWxlLm1hZT4nLCAnLW9tYWUnLCAnPG91dGZpbGUubWFlPic=

> <r_lp_tautomer_probability>
0.999994

> <r_epik_Ionization_Penalty>
1.07826

> <r_epik_Ionization_Penalty_Charging>
1.07824

> <r_epik_Ionization_Penalty_Neutral>
2.30307e-05

> <r_epik_State_Penalty>
1.13344

> <r_epik_Charging_Adjusted_Penalty>
2.21168

> <i_epik_Tot_Q>
1

> <i_epik_Tot_abs_Q>
1

> <r_epik_Metal_State_Penalty>
1.22394

> <b_epik_Metal_Only>
0

> <s_lp_Force_Field>
OPLS_2005

> <r_lp_Energy>
40.4449

> <b_lp_Chiralities_Consistent>
1

> <s_lp_Variant>
AV-unprocessed.smi:2726-2

> <Gold.Version>
5.8.1

> <Gold.Id.Protein>
6NUR|6NUR_protein|mol2

> <Gold.PLP.Fitness>
40.4168

> <Gold.PLP.PLP>
-29.6991

> <Gold.PLP.part.hbond>
-3.2722

> <Gold.PLP.part.metal>
0.0000

> <Gold.PLP.part.buried>
-4.5763

> <Gold.PLP.part.nonpolar>
-23.3659

> <Gold.PLP.part.repulsive>
0.2158

> <Gold.PLP.ligand.clash>
0.0000

> <Gold.PLP.ligand.torsion>
0.2468

> <Gold.PLP.Chemscore.Hbond>
3.7313

> <Gold.PLP.Chemscore.CHOScore>
0.0000

> <Gold.PLP.Chemscore.Metal>
0.0000

> <Gold.Chemscore.Hbonds>
donor molecule, donor type, donor heavy atom, donor atom, acceptor molecule, acceptor atom, score
      L1  H     5    29       P1 10175  1.00
      L1  H     8    30       P1 10175  0.73
      L1  H    18    42       P1 10957  1.89

> <Gold.PLP.Chemscore.Internal.Correction>
0.0175

> <Gold.Rescore>
     Score         DG    S(hbond)    S(metal)    S(lipo)     H(rot)  DE(clash)    DE(int)     intcor
     17.18     -18.57       2.48        0.00      66.97       1.18       0.09       1.29       ----

> <Gold.Chemscore.Fitness>
17.1839

> <Gold.Chemscore.DG>
-18.5692

> <Gold.Chemscore.ZeroCoef>
-5.4800

> <Gold.Chemscore.Hbond>
2.4798

> <Gold.Chemscore.Metal>
0.0000

> <Gold.Chemscore.Lipo>
66.9664

> <Gold.Chemscore.Internal_Hbond>
0.0000

> <Gold.Chemscore.DEClash>
0.0941

> <Gold.Chemscore.DEInternal>
1.2912

> <Gold.Chemscore.Rot>
1.1830

> <Gold.Chemscore.Internal.Correction>
   9.000000E+99

> <Gold.Chemscore.Hbonds>
donor molecule, donor type, donor heavy atom, donor atom, acceptor molecule, acceptor atom, score
      L1  H     5    29       P1 10175  0.67
      L1  H     8    30       P1 10175  0.72
      L1  H    18    42       P1 10957  0.83

> <Gold.Chemscore.Hbond.Weighted>
-8.2826

> <Gold.Chemscore.Metal.Weighted>
-0.0000

> <Gold.Chemscore.Lipo.Weighted>
-7.8351

> <Gold.Chemscore.Internal_Hbond.Weighted>
0.0000

> <Gold.Chemscore.DEClash.Weighted>
0.0941

> <Gold.Chemscore.DEInternal.Weighted>
1.2912

> <Gold.Chemscore.Rot.Weighted>
3.0285

> <Gold.Chemscore.Internal.Correction.Weighted>
   9.000000E+99

> <Gold.Protein.RotatedTorsions>
[ 6907 6896 6895 6894 ] final  150.59 input  -60.11 | X-H torsion
[ 7974 7965 7964 7962 ] final  -50.11 input  175.53 | X-H torsion
[ 8008 7997 7996 7995 ] final   28.75 input   59.86 | X-H torsion
[ 10167 10162 10161 10158 ] final -121.37 input  -65.29 | X-H torsion
[ 10718 10713 10712 10709 ] final -175.52 input   66.30 | X-H torsion
[ 10763 10752 10751 10750 ] final -135.11 input  -60.55 | X-H torsion
[ 11005 11000 10999 10996 ] final  135.30 input  -57.11 | X-H torsion

> <Gold.Protein.ActiveResidues>
 VAL166  LYS551  ARG553  GLY616  TRP617  ASP618  TYR619  PRO620  LYS621  CYS622 
 ASP623  PHE694  ASN695  SER759  ASP760  ASP761  ALA762  ILE779  LEU786  VAL792 
 PHE793  MET794  SER795  GLU796  ALA797  LYS798  CYS799  TRP800  GLU811  SER814 

> <Gold.Protein.RotatedAtoms>
  152.1124  133.4308  159.4636 H   0  0  0  0  0  0  0  0  0  0  0  0  # atno 6907 bound_to 6896
  150.6868  134.2633  159.4567 H   0  0  0  0  0  0  0  0  0  0  0  0  # atno 6908 bound_to 6896
  152.0502  134.9657  160.0625 H   0  0  0  0  0  0  0  0  0  0  0  0  # atno 6909 bound_to 6896
  145.9334  140.7729  142.9588 H   0  0  0  0  0  0  0  0  0  0  0  0  # atno 7974 bound_to 7965
  155.0635  140.3192  155.4653 H   0  0  0  0  0  0  0  0  0  0  0  0  # atno 8008 bound_to 7997
  156.2807  140.2124  156.5707 H   0  0  0  0  0  0  0  0  0  0  0  0  # atno 8009 bound_to 7997
  154.7112  140.0498  157.0540 H   0  0  0  0  0  0  0  0  0  0  0  0  # atno 8010 bound_to 7997
  140.0258  143.5298  152.2199 H   0  0  0  0  0  0  0  0  0  0  0  0  # atno 10167 bound_to 10162
  156.8011  130.9552  151.3118 H   0  0  0  0  0  0  0  0  0  0  0  0  # atno 10718 bound_to 10713
  154.8708  135.3713  154.4845 H   0  0  0  0  0  0  0  0  0  0  0  0  # atno 10763 bound_to 10752
  153.5496  135.7025  153.5602 H   0  0  0  0  0  0  0  0  0  0  0  0  # atno 10764 bound_to 10752
  153.3727  135.4017  155.1765 H   0  0  0  0  0  0  0  0  0  0  0  0  # atno 10765 bound_to 10752
  139.9971  134.9493  156.9988 H   0  0  0  0  0  0  0  0  0  0  0  0  # atno 11005 bound_to 11000
  144.6768  140.2163  143.7371 LP  0  0  0  0  0  0  0  0  0  0  0  0  # atno 17320 bound_to 7965
  145.8396  139.2123  143.1835 LP  0  0  0  0  0  0  0  0  0  0  0  0  # atno 17321 bound_to 7965
  139.6109  144.7608  151.2954 LP  0  0  0  0  0  0  0  0  0  0  0  0  # atno 17342 bound_to 10162
  140.7323  143.6827  150.7987 LP  0  0  0  0  0  0  0  0  0  0  0  0  # atno 17343 bound_to 10162
  157.6553  130.8919  149.9717 LP  0  0  0  0  0  0  0  0  0  0  0  0  # atno 17370 bound_to 10713
  156.1101  130.3650  150.0065 LP  0  0  0  0  0  0  0  0  0  0  0  0  # atno 17371 bound_to 10713
  140.4798  134.1301  155.7215 LP  0  0  0  0  0  0  0  0  0  0  0  0  # atno 17394 bound_to 11000
  141.1612  133.8788  157.1841 LP  0  0  0  0  0  0  0  0  0  0  0  0  # atno 17395 bound_to 11000

$$$$
