AV-unprocessed.smi:3175|AV-procd|sdf|12122|dock10
  -GOLD-   2272017563D 1   1.00000     0.00000
 Structure written by MMmdl.
 37 38  0  0  0  0  0  0  0  0  1 V2000
  150.7787  140.8214  157.2793 O   0  0  0  0  0  0  0  0  0  0  0  0
  150.5157  141.8234  156.6141 C   0  0  0  0  0  0  0  0  0  0  0  0
  150.1891  141.6982  155.1225 C   0  0  0  0  0  0  0  0  0  0  0  0
  148.8714  140.9449  154.8464 C   0  0  0  0  0  0  0  0  0  0  0  0
  149.0816  139.5195  154.3303 C   0  0  0  0  0  0  0  0  0  0  0  0
  147.7507  139.1321  153.6760 C   0  0  0  0  0  0  0  0  0  0  0  0
  147.0493  140.4500  153.3118 C   0  0  0  0  0  0  0  0  0  0  0  0
  147.9856  141.5751  153.7655 C   0  0  0  0  0  0  0  0  0  0  0  0
  150.5077  143.0637  157.1250 N   0  0  0  0  0  0  0  0  0  0  0  0
  150.8196  143.4003  158.5106 C   0  0  0  0  0  0  0  0  0  0  0  0
  152.3198  143.2559  158.8294 C   0  0  0  0  0  0  0  0  0  0  0  0
  152.5923  142.8464  160.2666 C   0  0  0  0  0  0  0  0  0  0  0  0
  152.1935  143.6695  161.3397 C   0  0  0  0  0  0  0  0  0  0  0  0
  152.4754  143.2531  162.6550 C   0  0  0  0  0  0  0  0  0  0  0  0
  153.1456  142.0275  162.8412 C   0  0  0  0  0  0  0  0  0  0  0  0
  153.5316  141.2308  161.8216 N   0  0  0  0  0  0  0  0  0  0  0  0
  153.2562  141.6366  160.5633 C   0  0  0  0  0  0  0  0  0  0  0  0
  150.1512  142.6902  154.6692 H   0  0  0  0  0  0  0  0  0  0  0  0
  151.0168  141.1740  154.6436 H   0  0  0  0  0  0  0  0  0  0  0  0
  148.2914  140.8804  155.7690 H   0  0  0  0  0  0  0  0  0  0  0  0
  149.8708  139.5091  153.5771 H   0  0  0  0  0  0  0  0  0  0  0  0
  149.3728  138.8280  155.1216 H   0  0  0  0  0  0  0  0  0  0  0  0
  147.9075  138.4980  152.8030 H   0  0  0  0  0  0  0  0  0  0  0  0
  147.1352  138.5705  154.3799 H   0  0  0  0  0  0  0  0  0  0  0  0
  146.8355  140.5174  152.2447 H   0  0  0  0  0  0  0  0  0  0  0  0
  146.0973  140.5184  153.8397 H   0  0  0  0  0  0  0  0  0  0  0  0
  147.4390  142.4475  154.1256 H   0  0  0  0  0  0  0  0  0  0  0  0
  148.6005  141.8961  152.9234 H   0  0  0  0  0  0  0  0  0  0  0  0
  150.2867  143.8311  156.5070 H   0  0  0  0  0  0  0  0  0  0  0  0
  150.5092  144.4321  158.6767 H   0  0  0  0  0  0  0  0  0  0  0  0
  150.2264  142.7882  159.1918 H   0  0  0  0  0  0  0  0  0  0  0  0
  152.7674  142.5187  158.1619 H   0  0  0  0  0  0  0  0  0  0  0  0
  152.8332  144.1966  158.6250 H   0  0  0  0  0  0  0  0  0  0  0  0
  151.6833  144.6044  161.1594 H   0  0  0  0  0  0  0  0  0  0  0  0
  152.1856  143.8584  163.5011 H   0  0  0  0  0  0  0  0  0  0  0  0
  153.3780  141.6780  163.8362 H   0  0  0  0  0  0  0  0  0  0  0  0
  153.5823  140.9794  159.7705 H   0  0  0  0  0  0  0  0  0  0  0  0
  1  2  2  0  0  0  0
  2  3  1  0  0  0  0
  2  9  1  0  0  0  0
  3  4  1  0  0  0  0
  3 18  1  0  0  0  0
  3 19  1  0  0  0  0
  4  8  1  0  0  0  0
  4  5  1  0  0  0  0
  4 20  1  0  0  0  0
  5  6  1  0  0  0  0
  5 21  1  0  0  0  0
  5 22  1  0  0  0  0
  6  7  1  0  0  0  0
  6 23  1  0  0  0  0
  6 24  1  0  0  0  0
  7  8  1  0  0  0  0
  7 25  1  0  0  0  0
  7 26  1  0  0  0  0
  8 27  1  0  0  0  0
  8 28  1  0  0  0  0
  9 10  1  0  0  0  0
  9 29  1  0  0  0  0
 10 11  1  0  0  0  0
 10 30  1  0  0  0  0
 10 31  1  0  0  0  0
 11 12  1  0  0  0  0
 11 32  1  0  0  0  0
 11 33  1  0  0  0  0
 12 17  1  0  0  0  0
 12 13  2  0  0  0  0
 13 14  1  0  0  0  0
 13 34  1  0  0  0  0
 14 15  2  0  0  0  0
 14 35  1  0  0  0  0
 15 16  1  0  0  0  0
 15 36  1  0  0  0  0
 16 17  2  0  0  0  0
 17 37  1  0  0  0  0
M  END
> <s_m_source_file>
AV-unprocessed.smi

> <i_m_source_file_index>
3175

> <i_lp_mmshare_version>
43012

> <i_f3d_flags>
0

> <s_epik_input>
W0NIMl0xW0NIMl1bQ0gyXVtDSDJdW0NIXTFbQ0gyXUMoPU8pW05IXVtDSDJdW0NIMl1jMltjSF1bY0hdW2NIXW5bY0hdMg==

> <s_epik_cmdline>
J2VwaWtfcHl0aG9uJywgJy1waCcsICc3LjAnLCAnLXRuJywgJzgnLCAnLW1hJywgJzIwMCcsICctbWV0YWxfYmluZGluZycsICctaW1hZScsICc8aW5maWxlLm1hZT4nLCAnLW9tYWUnLCAnPG91dGZpbGUubWFlPic=

> <r_epik_Ionization_Penalty>
0.013409

> <r_epik_Ionization_Penalty_Charging>
0

> <r_epik_Ionization_Penalty_Neutral>
0.013409

> <r_epik_State_Penalty>
0.010434

> <r_epik_Charging_Adjusted_Penalty>
0.010434

> <i_epik_Tot_Q>
0

> <i_epik_Tot_abs_Q>
0

> <r_epik_Metal_State_Penalty>
0.0102027

> <b_epik_Metal_Only>
0

> <s_lp_Force_Field>
OPLS_2005

> <r_lp_Energy>
19.7305

> <b_lp_Chiralities_Consistent>
1

> <s_lp_Variant>
AV-unprocessed.smi:3175-1

> <Gold.Version>
5.8.1

> <Gold.Id.Protein>
6NUR|6NUR_protein|mol2

> <Gold.PLP.Fitness>
43.4754

> <Gold.PLP.PLP>
-42.3212

> <Gold.PLP.part.hbond>
-1.2519

> <Gold.PLP.part.metal>
0.0000

> <Gold.PLP.part.buried>
-2.3491

> <Gold.PLP.part.nonpolar>
-38.2115

> <Gold.PLP.part.repulsive>
0.0347

> <Gold.PLP.ligand.clash>
0.0000

> <Gold.PLP.ligand.torsion>
0.9309

> <Gold.PLP.Chemscore.Hbond>
1.0000

> <Gold.PLP.Chemscore.CHOScore>
0.0000

> <Gold.PLP.Chemscore.Metal>
0.0000

> <Gold.Chemscore.Hbonds>
donor molecule, donor type, donor heavy atom, donor atom, acceptor molecule, acceptor atom, score
      L1  H     9    29       P1  8028  0.90

> <Gold.PLP.Chemscore.Internal.Correction>
0.0160

> <Gold.Rescore>
     Score         DG    S(hbond)    S(metal)    S(lipo)     H(rot)  DE(clash)    DE(int)     intcor
     17.54     -18.68       0.92        0.00     118.91       1.48       0.28       0.85       ----

> <Gold.Chemscore.Fitness>
17.5430

> <Gold.Chemscore.DG>
-18.6760

> <Gold.Chemscore.ZeroCoef>
-5.4800

> <Gold.Chemscore.Hbond>
0.9237

> <Gold.Chemscore.Metal>
0.0000

> <Gold.Chemscore.Lipo>
118.9079

> <Gold.Chemscore.Internal_Hbond>
0.0000

> <Gold.Chemscore.DEClash>
0.2787

> <Gold.Chemscore.DEInternal>
0.8543

> <Gold.Chemscore.Rot>
1.4848

> <Gold.Chemscore.Internal.Correction>
   9.000000E+99

> <Gold.Chemscore.Hbonds>
donor molecule, donor type, donor heavy atom, donor atom, acceptor molecule, acceptor atom, score
      L1  H     9    29       P1  8028  0.88

> <Gold.Chemscore.Hbond.Weighted>
-3.0850

> <Gold.Chemscore.Metal.Weighted>
-0.0000

> <Gold.Chemscore.Lipo.Weighted>
-13.9122

> <Gold.Chemscore.Internal_Hbond.Weighted>
0.0000

> <Gold.Chemscore.DEClash.Weighted>
0.2787

> <Gold.Chemscore.DEInternal.Weighted>
0.8543

> <Gold.Chemscore.Rot.Weighted>
3.8012

> <Gold.Chemscore.Internal.Correction.Weighted>
   9.000000E+99

> <Gold.Protein.RotatedTorsions>
[ 6907 6896 6895 6894 ] final  108.73 input  -60.11 | X-H torsion
[ 7974 7965 7964 7962 ] final  106.12 input  175.53 | X-H torsion
[ 8008 7997 7996 7995 ] final  163.13 input   59.86 | X-H torsion
[ 10167 10162 10161 10158 ] final  153.43 input  -65.29 | X-H torsion
[ 10718 10713 10712 10709 ] final    7.41 input   66.30 | X-H torsion
[ 10763 10752 10751 10750 ] final  -89.36 input  -60.55 | X-H torsion
[ 11005 11000 10999 10996 ] final   84.26 input  -57.11 | X-H torsion

> <Gold.Protein.ActiveResidues>
 VAL166  LYS551  ARG553  GLY616  TRP617  ASP618  TYR619  PRO620  LYS621  CYS622 
 ASP623  PHE694  ASN695  SER759  ASP760  ASP761  ALA762  ILE779  LEU786  VAL792 
 PHE793  MET794  SER795  GLU796  ALA797  LYS798  CYS799  TRP800  GLU811  SER814 

> <Gold.Protein.RotatedAtoms>
  152.5099  133.9046  159.7457 H   0  0  0  0  0  0  0  0  0  0  0  0  # atno 6907 bound_to 6896
  150.9454  133.6600  159.2789 H   0  0  0  0  0  0  0  0  0  0  0  0  # atno 6908 bound_to 6896
  151.3897  135.0959  159.9575 H   0  0  0  0  0  0  0  0  0  0  0  0  # atno 6909 bound_to 6896
  145.3107  139.2541  143.3764 H   0  0  0  0  0  0  0  0  0  0  0  0  # atno 7974 bound_to 7965
  156.1980  140.1732  156.7958 H   0  0  0  0  0  0  0  0  0  0  0  0  # atno 8008 bound_to 7997
  154.5555  140.0709  156.8767 H   0  0  0  0  0  0  0  0  0  0  0  0  # atno 8009 bound_to 7997
  155.2948  140.3357  155.4253 H   0  0  0  0  0  0  0  0  0  0  0  0  # atno 8010 bound_to 7997
  139.4827  144.5273  151.7779 H   0  0  0  0  0  0  0  0  0  0  0  0  # atno 10167 bound_to 10162
  156.9365  130.5845  149.5651 H   0  0  0  0  0  0  0  0  0  0  0  0  # atno 10718 bound_to 10713
  154.6544  135.5344  153.7941 H   0  0  0  0  0  0  0  0  0  0  0  0  # atno 10763 bound_to 10752
  153.0405  135.6490  154.0968 H   0  0  0  0  0  0  0  0  0  0  0  0  # atno 10764 bound_to 10752
  154.0882  135.2942  155.3257 H   0  0  0  0  0  0  0  0  0  0  0  0  # atno 10765 bound_to 10752
  139.9005  134.8204  156.2421 H   0  0  0  0  0  0  0  0  0  0  0  0  # atno 11005 bound_to 11000
  146.3119  140.3642  142.8668 LP  0  0  0  0  0  0  0  0  0  0  0  0  # atno 17320 bound_to 7965
  144.9018  140.7652  143.5862 LP  0  0  0  0  0  0  0  0  0  0  0  0  # atno 17321 bound_to 7965
  140.4795  144.1470  150.5930 LP  0  0  0  0  0  0  0  0  0  0  0  0  # atno 17342 bound_to 10162
  140.4293  143.2575  151.9615 LP  0  0  0  0  0  0  0  0  0  0  0  0  # atno 17343 bound_to 10162
  156.0423  130.5504  150.8801 LP  0  0  0  0  0  0  0  0  0  0  0  0  # atno 17370 bound_to 10713
  157.5813  131.0946  150.9267 LP  0  0  0  0  0  0  0  0  0  0  0  0  # atno 17371 bound_to 10713
  141.0278  133.7005  156.1377 LP  0  0  0  0  0  0  0  0  0  0  0  0  # atno 17394 bound_to 11000
  140.7141  134.4430  157.5579 LP  0  0  0  0  0  0  0  0  0  0  0  0  # atno 17395 bound_to 11000

$$$$
