AV-unprocessed.smi:678|AV-procd|sdf|3315|dock7
  -GOLD-   22720 0283D 1   1.00000     0.00000
 Structure written by MMmdl.
 51 52  0  0  0  0  0  0  0  0  2 V2000
  151.9893  145.9111  160.1323 C   0  0  0  0  0  0  0  0  0  0  0  0
  152.3135  144.4592  160.4375 C   0  0  0  0  0  0  0  0  0  0  0  0
  152.5274  144.0347  161.7018 C   0  0  0  0  0  0  0  0  0  0  0  0
  152.8394  142.6542  161.9824 C   0  0  0  0  0  0  0  0  0  0  0  0
  152.9119  141.7990  160.9525 C   0  0  0  0  0  0  0  0  0  0  0  0
  152.6912  142.2146  159.6262 N   0  0  0  0  0  0  0  0  0  0  0  0
  152.8003  141.1878  158.5753 C   0  0  0  0  0  0  0  0  0  0  0  0
  151.5152  141.0407  157.7491 C   0  0  0  0  0  0  0  0  0  0  0  0
  150.4150  141.2612  158.2569 O   0  0  0  0  0  0  0  0  0  0  0  0
  151.6738  140.6667  156.4708 N   0  0  0  0  0  0  0  0  0  0  0  0
  150.5880  140.3860  155.5379 C   0  0  0  0  0  0  0  0  0  0  0  0
  150.0757  138.9429  155.6972 C   0  0  2  0  0  0  0  0  0  0  0  0
  150.1515  138.1547  154.3703 C   0  0  0  0  0  0  0  0  0  0  0  0
  149.5627  136.7960  154.5008 N   0  3  1  0  0  0  0  0  0  0  0  0
  150.4335  135.7982  155.1802 C   0  0  0  0  0  0  0  0  0  0  0  0
  149.7245  134.4495  155.4312 C   0  0  0  0  0  0  0  0  0  0  0  0
  150.5023  133.5695  156.4244 C   0  0  0  0  0  0  0  0  0  0  0  0
  149.5072  133.6998  154.1085 C   0  0  0  0  0  0  0  0  0  0  0  0
  148.1956  136.8758  155.0705 C   0  0  0  0  0  0  0  0  0  0  0  0
  148.1850  137.6883  156.3769 C   0  0  0  0  0  0  0  0  0  0  0  0
  148.7171  138.9814  156.1241 O   0  0  0  0  0  0  0  0  0  0  0  0
  152.3920  143.5134  159.3085 C   0  0  0  0  0  0  0  0  0  0  0  0
  152.2032  143.8628  158.1411 O   0  0  0  0  0  0  0  0  0  0  0  0
  151.9606  146.5122  161.0417 H   0  0  0  0  0  0  0  0  0  0  0  0
  151.0170  145.9909  159.6452 H   0  0  0  0  0  0  0  0  0  0  0  0
  152.7425  146.3393  159.4700 H   0  0  0  0  0  0  0  0  0  0  0  0
  152.4683  144.7349  162.5224 H   0  0  0  0  0  0  0  0  0  0  0  0
  153.0144  142.3198  162.9945 H   0  0  0  0  0  0  0  0  0  0  0  0
  153.1473  140.7520  161.0772 H   0  0  0  0  0  0  0  0  0  0  0  0
  153.6183  141.4137  157.8902 H   0  0  0  0  0  0  0  0  0  0  0  0
  153.0611  140.2286  159.0274 H   0  0  0  0  0  0  0  0  0  0  0  0
  152.6148  140.5232  156.1331 H   0  0  0  0  0  0  0  0  0  0  0  0
  149.7740  141.1033  155.6559 H   0  0  0  0  0  0  0  0  0  0  0  0
  150.9791  140.5277  154.5300 H   0  0  0  0  0  0  0  0  0  0  0  0
  150.6791  138.4487  156.4599 H   0  0  0  0  0  0  0  0  0  0  0  0
  149.5913  138.6897  153.6022 H   0  0  0  0  0  0  0  0  0  0  0  0
  151.1788  138.1035  154.0124 H   0  0  0  0  0  0  0  0  0  0  0  0
  151.3464  135.6463  154.6046 H   0  0  0  0  0  0  0  0  0  0  0  0
  150.7539  136.1943  156.1449 H   0  0  0  0  0  0  0  0  0  0  0  0
  148.7363  134.6348  155.8513 H   0  0  0  0  0  0  0  0  0  0  0  0
  151.5045  133.3465  156.0566 H   0  0  0  0  0  0  0  0  0  0  0  0
  149.9917  132.6202  156.5893 H   0  0  0  0  0  0  0  0  0  0  0  0
  150.6037  134.0548  157.3953 H   0  0  0  0  0  0  0  0  0  0  0  0
  150.4556  133.4671  153.6230 H   0  0  0  0  0  0  0  0  0  0  0  0
  148.9135  134.2930  153.4122 H   0  0  0  0  0  0  0  0  0  0  0  0
  148.9778  132.7604  154.2705 H   0  0  0  0  0  0  0  0  0  0  0  0
  147.5483  137.3630  154.3403 H   0  0  0  0  0  0  0  0  0  0  0  0
  147.7816  135.8791  155.2274 H   0  0  0  0  0  0  0  0  0  0  0  0
  147.1640  137.7951  156.7436 H   0  0  0  0  0  0  0  0  0  0  0  0
  148.7537  137.1894  157.1630 H   0  0  0  0  0  0  0  0  0  0  0  0
  149.4457  136.4409  153.5622 H   0  0  0  0  0  0  0  0  0  0  0  0
  1  2  1  0  0  0  0
  1 24  1  0  0  0  0
  1 25  1  0  0  0  0
  1 26  1  0  0  0  0
  2 22  1  0  0  0  0
  2  3  2  0  0  0  0
  3  4  1  0  0  0  0
  3 27  1  0  0  0  0
  4  5  2  0  0  0  0
  4 28  1  0  0  0  0
  5  6  1  0  0  0  0
  5 29  1  0  0  0  0
  6  7  1  0  0  0  0
  6 22  1  0  0  0  0
  7  8  1  0  0  0  0
  7 30  1  0  0  0  0
  7 31  1  0  0  0  0
  8  9  2  0  0  0  0
  8 10  1  0  0  0  0
 10 11  1  0  0  0  0
 10 32  1  0  0  0  0
 11 12  1  0  0  0  0
 11 33  1  0  0  0  0
 11 34  1  0  0  0  0
 12 21  1  0  0  0  0
 12 13  1  0  0  0  0
 12 35  1  0  0  0  0
 13 14  1  0  0  0  0
 13 36  1  0  0  0  0
 13 37  1  0  0  0  0
 14 15  1  0  0  0  0
 14 19  1  0  0  0  0
 14 51  1  0  0  0  0
 15 16  1  0  0  0  0
 15 38  1  0  0  0  0
 15 39  1  0  0  0  0
 16 17  1  0  0  0  0
 16 18  1  0  0  0  0
 16 40  1  0  0  0  0
 17 41  1  0  0  0  0
 17 42  1  0  0  0  0
 17 43  1  0  0  0  0
 18 44  1  0  0  0  0
 18 45  1  0  0  0  0
 18 46  1  0  0  0  0
 19 20  1  0  0  0  0
 19 47  1  0  0  0  0
 19 48  1  0  0  0  0
 20 21  1  0  0  0  0
 20 49  1  0  0  0  0
 20 50  1  0  0  0  0
 22 23  2  0  0  0  0
M  CHG  1  14   1
M  END
> <s_m_source_file>
AV-unprocessed.smi

> <i_m_source_file_index>
678

> <i_lp_mmshare_version>
43012

> <i_f3d_flags>
0

> <s_epik_input>
W0NIM11jMVtjSF1bY0hdW2NIXW4oYzE9TylbQ0gyXUMoPU8pW05IXVtDSDJdW0NAQEhdMltDSDJdTihbQ0gyXVtDSDJdTzIpW0NIMl1bQ0hdKFtDSDNdKVtDSDNd

> <s_epik_cmdline>
J2VwaWtfcHl0aG9uJywgJy1waCcsICc3LjAnLCAnLXRuJywgJzgnLCAnLW1hJywgJzIwMCcsICctbWV0YWxfYmluZGluZycsICctaW1hZScsICc8aW5maWxlLm1hZT4nLCAnLW9tYWUnLCAnPG91dGZpbGUubWFlPic=

> <r_lp_tautomer_probability>
1

> <r_epik_Ionization_Penalty>
0.0975937

> <r_epik_Ionization_Penalty_Charging>
0.0975937

> <r_epik_Ionization_Penalty_Neutral>
6.27044e-08

> <r_epik_State_Penalty>
0.0877056

> <r_epik_Charging_Adjusted_Penalty>
0.185299

> <i_epik_Tot_Q>
1

> <i_epik_Tot_abs_Q>
1

> <r_epik_Metal_State_Penalty>
0.0877109

> <b_epik_Metal_Only>
0

> <s_lp_Force_Field>
OPLS_2005

> <r_lp_Energy>
29.877

> <b_lp_Chiralities_Consistent>
1

> <s_lp_Variant>
AV-unprocessed.smi:678-3

> <Gold.Version>
5.8.1

> <Gold.Id.Protein>
6NUR|6NUR_protein|mol2

> <Gold.PLP.Fitness>
49.8036

> <Gold.PLP.PLP>
-46.5322

> <Gold.PLP.part.hbond>
-1.0000

> <Gold.PLP.part.metal>
0.0000

> <Gold.PLP.part.buried>
-6.6001

> <Gold.PLP.part.nonpolar>
-38.7410

> <Gold.PLP.part.repulsive>
0.2287

> <Gold.PLP.ligand.clash>
0.0000

> <Gold.PLP.ligand.torsion>
1.4300

> <Gold.PLP.Chemscore.Hbond>
2.0000

> <Gold.PLP.Chemscore.CHOScore>
0.0000

> <Gold.PLP.Chemscore.Metal>
0.0000

> <Gold.Chemscore.Hbonds>
donor molecule, donor type, donor heavy atom, donor atom, acceptor molecule, acceptor atom, score
      L1  H    14    51       P1  7948  2.00

> <Gold.PLP.Chemscore.Internal.Correction>
0.1314

> <Gold.Rescore>
     Score         DG    S(hbond)    S(metal)    S(lipo)     H(rot)  DE(clash)    DE(int)     intcor
     15.01     -16.55       0.95        0.00     108.73       1.89       0.07       1.48       ----

> <Gold.Chemscore.Fitness>
15.0077

> <Gold.Chemscore.DG>
-16.5542

> <Gold.Chemscore.ZeroCoef>
-5.4800

> <Gold.Chemscore.Hbond>
0.9532

> <Gold.Chemscore.Metal>
0.0000

> <Gold.Chemscore.Lipo>
108.7317

> <Gold.Chemscore.Internal_Hbond>
0.0000

> <Gold.Chemscore.DEClash>
0.0668

> <Gold.Chemscore.DEInternal>
1.4797

> <Gold.Chemscore.Rot>
1.8871

> <Gold.Chemscore.Internal.Correction>
   9.000000E+99

> <Gold.Chemscore.Hbonds>
donor molecule, donor type, donor heavy atom, donor atom, acceptor molecule, acceptor atom, score
      L1  H    14    51       P1  7948  0.78

> <Gold.Chemscore.Hbond.Weighted>
-3.1836

> <Gold.Chemscore.Metal.Weighted>
-0.0000

> <Gold.Chemscore.Lipo.Weighted>
-12.7216

> <Gold.Chemscore.Internal_Hbond.Weighted>
0.0000

> <Gold.Chemscore.DEClash.Weighted>
0.0668

> <Gold.Chemscore.DEInternal.Weighted>
1.4797

> <Gold.Chemscore.Rot.Weighted>
4.8309

> <Gold.Chemscore.Internal.Correction.Weighted>
   9.000000E+99

> <Gold.Protein.RotatedTorsions>
[ 6907 6896 6895 6894 ] final  179.03 input  -60.11 | X-H torsion
[ 7974 7965 7964 7962 ] final  135.45 input  175.53 | X-H torsion
[ 8008 7997 7996 7995 ] final  145.51 input   59.86 | X-H torsion
[ 10167 10162 10161 10158 ] final   69.37 input  -65.29 | X-H torsion
[ 10718 10713 10712 10709 ] final -151.44 input   66.30 | X-H torsion
[ 10763 10752 10751 10750 ] final  145.67 input  -60.55 | X-H torsion
[ 11005 11000 10999 10996 ] final -163.03 input  -57.11 | X-H torsion

> <Gold.Protein.ActiveResidues>
 VAL166  LYS551  ARG553  GLY616  TRP617  ASP618  TYR619  PRO620  LYS621  CYS622 
 ASP623  PHE694  ASN695  SER759  ASP760  ASP761  ALA762  ILE779  LEU786  VAL792 
 PHE793  MET794  SER795  GLU796  ALA797  LYS798  CYS799  TRP800  GLU811  SER814 

> <Gold.Protein.RotatedAtoms>
  151.6782  133.3312  159.3212 H   0  0  0  0  0  0  0  0  0  0  0  0  # atno 6907 bound_to 6896
  150.7835  134.6803  159.6450 H   0  0  0  0  0  0  0  0  0  0  0  0  # atno 6908 bound_to 6896
  152.3899  134.6461  160.0163 H   0  0  0  0  0  0  0  0  0  0  0  0  # atno 6909 bound_to 6896
  144.9662  139.4655  143.5455 H   0  0  0  0  0  0  0  0  0  0  0  0  # atno 7974 bound_to 7965
  156.2881  140.2207  156.5227 H   0  0  0  0  0  0  0  0  0  0  0  0  # atno 8008 bound_to 7997
  154.7515  140.0480  157.0919 H   0  0  0  0  0  0  0  0  0  0  0  0  # atno 8009 bound_to 7997
  155.0104  140.3112  155.4835 H   0  0  0  0  0  0  0  0  0  0  0  0  # atno 8010 bound_to 7997
  140.0686  144.5172  150.7243 H   0  0  0  0  0  0  0  0  0  0  0  0  # atno 10167 bound_to 10162
  156.4593  130.8205  151.2436 H   0  0  0  0  0  0  0  0  0  0  0  0  # atno 10718 bound_to 10713
  154.0093  135.2916  155.3394 H   0  0  0  0  0  0  0  0  0  0  0  0  # atno 10763 bound_to 10752
  154.7113  135.5148  153.8673 H   0  0  0  0  0  0  0  0  0  0  0  0  # atno 10764 bound_to 10752
  153.0730  135.6654  154.0326 H   0  0  0  0  0  0  0  0  0  0  0  0  # atno 10765 bound_to 10752
  140.6026  134.4931  157.5207 H   0  0  0  0  0  0  0  0  0  0  0  0  # atno 11005 bound_to 11000
  146.3368  139.8844  142.8819 LP  0  0  0  0  0  0  0  0  0  0  0  0  # atno 17320 bound_to 7965
  145.2626  141.0082  143.3817 LP  0  0  0  0  0  0  0  0  0  0  0  0  # atno 17321 bound_to 7965
  140.7137  143.2526  151.4502 LP  0  0  0  0  0  0  0  0  0  0  0  0  # atno 17342 bound_to 10162
  139.5850  144.1625  152.2017 LP  0  0  0  0  0  0  0  0  0  0  0  0  # atno 17343 bound_to 10162
  157.7499  131.0112  150.3337 LP  0  0  0  0  0  0  0  0  0  0  0  0  # atno 17370 bound_to 10713
  156.3733  130.3867  149.7158 LP  0  0  0  0  0  0  0  0  0  0  0  0  # atno 17371 bound_to 10713
  139.9226  134.8119  156.1166 LP  0  0  0  0  0  0  0  0  0  0  0  0  # atno 17394 bound_to 11000
  141.0862  133.6733  156.2441 LP  0  0  0  0  0  0  0  0  0  0  0  0  # atno 17395 bound_to 11000

$$$$
