AV-unprocessed.smi:2442|AV-procd|sdf|9623|dock5
  -GOLD-   2272013253D 1   1.00000     0.00000
 Structure written by MMmdl.
 46 47  0  0  0  0  0  0  0  0  1 V2000
  152.1071  144.5658  158.3779 C   0  0  0  0  0  0  0  0  0  0  0  0
  150.9569  143.9474  158.9320 O   0  0  0  0  0  0  0  0  0  0  0  0
  151.0246  142.5268  158.9718 C   0  0  2  0  0  0  0  0  0  0  0  0
  152.3973  142.0798  159.5176 C   0  0  0  0  0  0  0  0  0  0  0  0
  152.5624  140.5528  159.4463 C   0  0  0  0  0  0  0  0  0  0  0  0
  152.3549  140.0332  158.0149 C   0  0  0  0  0  0  0  0  0  0  0  0
  150.9881  140.4647  157.4621 C   0  0  0  0  0  0  0  0  0  0  0  0
  150.8217  141.9984  157.5314 C   0  0  1  0  0  0  0  0  0  0  0  0
  149.5569  142.4359  156.9357 N   0  0  0  0  0  0  0  0  0  0  0  0
  148.3908  141.7722  156.9236 C   0  0  0  0  0  0  0  0  0  0  0  0
  148.2026  140.6832  157.4659 O   0  0  0  0  0  0  0  0  0  0  0  0
  147.4575  142.4274  156.2179 N   0  0  0  0  0  0  0  0  0  0  0  0
  146.1093  141.9356  155.9423 C   0  0  0  0  0  0  0  0  0  0  0  0
  145.7599  141.9631  154.4385 C   0  0  0  0  0  0  0  0  0  0  0  0
  145.3511  143.3344  153.9112 C   0  0  0  0  0  0  0  0  0  0  0  0
  145.9975  143.8578  152.7706 C   0  0  0  0  0  0  0  0  0  0  0  0
  145.5867  145.1079  152.2698 C   0  0  0  0  0  0  0  0  0  0  0  0
  144.6035  145.8423  152.8286 N   0  0  0  0  0  0  0  0  0  0  0  0
  143.9918  145.3450  153.9238 C   0  0  0  0  0  0  0  0  0  0  0  0
  144.3226  144.1041  154.5107 C   0  0  0  0  0  0  0  0  0  0  0  0
  143.5669  143.6317  155.7396 C   0  0  0  0  0  0  0  0  0  0  0  0
  151.9790  145.6479  158.3909 H   0  0  0  0  0  0  0  0  0  0  0  0
  152.2728  144.2629  157.3444 H   0  0  0  0  0  0  0  0  0  0  0  0
  152.9987  144.3292  158.9602 H   0  0  0  0  0  0  0  0  0  0  0  0
  150.2408  142.1284  159.6178 H   0  0  0  0  0  0  0  0  0  0  0  0
  153.1925  142.5575  158.9437 H   0  0  0  0  0  0  0  0  0  0  0  0
  152.5241  142.4061  160.5495 H   0  0  0  0  0  0  0  0  0  0  0  0
  153.5531  140.2698  159.8032 H   0  0  0  0  0  0  0  0  0  0  0  0
  151.8448  140.0765  160.1155 H   0  0  0  0  0  0  0  0  0  0  0  0
  153.1478  140.4128  157.3694 H   0  0  0  0  0  0  0  0  0  0  0  0
  152.4358  138.9460  157.9984 H   0  0  0  0  0  0  0  0  0  0  0  0
  150.8847  140.1223  156.4318 H   0  0  0  0  0  0  0  0  0  0  0  0
  150.2016  139.9684  158.0315 H   0  0  0  0  0  0  0  0  0  0  0  0
  151.5997  142.4392  156.9064 H   0  0  0  0  0  0  0  0  0  0  0  0
  149.5831  143.3258  156.4601 H   0  0  0  0  0  0  0  0  0  0  0  0
  147.7083  143.3169  155.8118 H   0  0  0  0  0  0  0  0  0  0  0  0
  145.9864  140.9297  156.3444 H   0  0  0  0  0  0  0  0  0  0  0  0
  145.4030  142.5610  156.4885 H   0  0  0  0  0  0  0  0  0  0  0  0
  146.5987  141.5821  153.8565 H   0  0  0  0  0  0  0  0  0  0  0  0
  144.9424  141.2652  154.2534 H   0  0  0  0  0  0  0  0  0  0  0  0
  146.7841  143.3070  152.2764 H   0  0  0  0  0  0  0  0  0  0  0  0
  146.0589  145.5275  151.3939 H   0  0  0  0  0  0  0  0  0  0  0  0
  143.2094  145.9600  154.3437 H   0  0  0  0  0  0  0  0  0  0  0  0
  142.9176  144.4178  156.1263 H   0  0  0  0  0  0  0  0  0  0  0  0
  144.2545  143.3510  156.5370 H   0  0  0  0  0  0  0  0  0  0  0  0
  142.9403  142.7740  155.4970 H   0  0  0  0  0  0  0  0  0  0  0  0
  1  2  1  0  0  0  0
  1 22  1  0  0  0  0
  1 23  1  0  0  0  0
  1 24  1  0  0  0  0
  2  3  1  0  0  0  0
  3  8  1  0  0  0  0
  3  4  1  0  0  0  0
  3 25  1  0  0  0  0
  4  5  1  0  0  0  0
  4 26  1  0  0  0  0
  4 27  1  0  0  0  0
  5  6  1  0  0  0  0
  5 28  1  0  0  0  0
  5 29  1  0  0  0  0
  6  7  1  0  0  0  0
  6 30  1  0  0  0  0
  6 31  1  0  0  0  0
  7  8  1  0  0  0  0
  7 32  1  0  0  0  0
  7 33  1  0  0  0  0
  8  9  1  0  0  0  0
  8 34  1  0  0  0  0
  9 10  1  0  0  0  0
  9 35  1  0  0  0  0
 10 11  2  0  0  0  0
 10 12  1  0  0  0  0
 12 13  1  0  0  0  0
 12 36  1  0  0  0  0
 13 14  1  0  0  0  0
 13 37  1  0  0  0  0
 13 38  1  0  0  0  0
 14 15  1  0  0  0  0
 14 39  1  0  0  0  0
 14 40  1  0  0  0  0
 15 20  1  0  0  0  0
 15 16  2  0  0  0  0
 16 17  1  0  0  0  0
 16 41  1  0  0  0  0
 17 18  2  0  0  0  0
 17 42  1  0  0  0  0
 18 19  1  0  0  0  0
 19 20  2  0  0  0  0
 19 43  1  0  0  0  0
 20 21  1  0  0  0  0
 21 44  1  0  0  0  0
 21 45  1  0  0  0  0
 21 46  1  0  0  0  0
M  END
> <s_m_source_file>
AV-unprocessed.smi

> <i_m_source_file_index>
2442

> <i_lp_mmshare_version>
43012

> <i_f3d_flags>
0

> <s_epik_input>
W0NIM11PW0NAQEhdMVtDSDJdW0NIMl1bQ0gyXVtDSDJdW0NASF0xW05IXUMoPU8pW05IXVtDSDJdW0NIMl1jMltjSF1bY0hdbltjSF1jMltDSDNd

> <s_epik_cmdline>
J2VwaWtfcHl0aG9uJywgJy1waCcsICc3LjAnLCAnLXRuJywgJzgnLCAnLW1hJywgJzIwMCcsICctbWV0YWxfYmluZGluZycsICctaW1hZScsICc8aW5maWxlLm1hZT4nLCAnLW9tYWUnLCAnPG91dGZpbGUubWFlPic=

> <r_epik_Ionization_Penalty>
0.106136

> <r_epik_Ionization_Penalty_Charging>
0

> <r_epik_Ionization_Penalty_Neutral>
0.106136

> <r_epik_State_Penalty>
0.0959393

> <r_epik_Charging_Adjusted_Penalty>
0.0959393

> <i_epik_Tot_Q>
0

> <i_epik_Tot_abs_Q>
0

> <r_epik_Metal_State_Penalty>
0.0812517

> <b_epik_Metal_Only>
0

> <s_lp_Force_Field>
OPLS_2005

> <r_lp_Energy>
10.1716

> <b_lp_Chiralities_Consistent>
1

> <s_lp_Variant>
AV-unprocessed.smi:2442-1

> <Gold.Version>
5.8.1

> <Gold.Id.Protein>
6NUR|6NUR_protein|mol2

> <Gold.PLP.Fitness>
46.3346

> <Gold.PLP.PLP>
-43.0412

> <Gold.PLP.part.hbond>
-4.4788

> <Gold.PLP.part.metal>
0.0000

> <Gold.PLP.part.buried>
-5.2055

> <Gold.PLP.part.nonpolar>
-32.7659

> <Gold.PLP.part.repulsive>
0.2590

> <Gold.PLP.ligand.clash>
0.0000

> <Gold.PLP.ligand.torsion>
0.6302

> <Gold.PLP.Chemscore.Hbond>
1.5000

> <Gold.PLP.Chemscore.CHOScore>
0.0000

> <Gold.PLP.Chemscore.Metal>
0.0000

> <Gold.Chemscore.Hbonds>
donor molecule, donor type, donor heavy atom, donor atom, acceptor molecule, acceptor atom, score
      L1  H     9    35       P1  8028  1.00
      L1  H    12    36       P1  8028  0.85

> <Gold.PLP.Chemscore.Internal.Correction>
0.0537

> <Gold.Rescore>
     Score         DG    S(hbond)    S(metal)    S(lipo)     H(rot)  DE(clash)    DE(int)     intcor
     14.50     -16.36       0.98        0.00     100.73       1.64       0.18       1.68       ----

> <Gold.Chemscore.Fitness>
14.5031

> <Gold.Chemscore.DG>
-16.3612

> <Gold.Chemscore.ZeroCoef>
-5.4800

> <Gold.Chemscore.Hbond>
0.9849

> <Gold.Chemscore.Metal>
0.0000

> <Gold.Chemscore.Lipo>
100.7269

> <Gold.Chemscore.Internal_Hbond>
0.0000

> <Gold.Chemscore.DEClash>
0.1752

> <Gold.Chemscore.DEInternal>
1.6828

> <Gold.Chemscore.Rot>
1.6380

> <Gold.Chemscore.Internal.Correction>
   9.000000E+99

> <Gold.Chemscore.Hbonds>
donor molecule, donor type, donor heavy atom, donor atom, acceptor molecule, acceptor atom, score
      L1  H     9    35       P1  8028  0.98
      L1  H    12    36       P1  8028  0.14

> <Gold.Chemscore.Hbond.Weighted>
-3.2895

> <Gold.Chemscore.Metal.Weighted>
-0.0000

> <Gold.Chemscore.Lipo.Weighted>
-11.7851

> <Gold.Chemscore.Internal_Hbond.Weighted>
0.0000

> <Gold.Chemscore.DEClash.Weighted>
0.1752

> <Gold.Chemscore.DEInternal.Weighted>
1.6828

> <Gold.Chemscore.Rot.Weighted>
4.1934

> <Gold.Chemscore.Internal.Correction.Weighted>
   9.000000E+99

> <Gold.Protein.RotatedTorsions>
[ 6907 6896 6895 6894 ] final -117.37 input  -60.11 | X-H torsion
[ 7974 7965 7964 7962 ] final  164.64 input  175.53 | X-H torsion
[ 8008 7997 7996 7995 ] final -118.17 input   59.86 | X-H torsion
[ 10167 10162 10161 10158 ] final  -60.67 input  -65.29 | X-H torsion
[ 10718 10713 10712 10709 ] final -134.77 input   66.30 | X-H torsion
[ 10763 10752 10751 10750 ] final   48.79 input  -60.55 | X-H torsion
[ 11005 11000 10999 10996 ] final  177.18 input  -57.11 | X-H torsion

> <Gold.Protein.ActiveResidues>
 VAL166  LYS551  ARG553  GLY616  TRP617  ASP618  TYR619  PRO620  LYS621  CYS622 
 ASP623  PHE694  ASN695  SER759  ASP760  ASP761  ALA762  ILE779  LEU786  VAL792 
 PHE793  MET794  SER795  GLU796  ALA797  LYS798  CYS799  TRP800  GLU811  SER814 

> <Gold.Protein.RotatedAtoms>
  150.8131  133.8385  159.3172 H   0  0  0  0  0  0  0  0  0  0  0  0  # atno 6907 bound_to 6896
  151.6165  135.1034  160.0102 H   0  0  0  0  0  0  0  0  0  0  0  0  # atno 6908 bound_to 6896
  152.4223  133.7097  159.6528 H   0  0  0  0  0  0  0  0  0  0  0  0  # atno 6909 bound_to 6896
  144.7536  139.8355  143.6357 H   0  0  0  0  0  0  0  0  0  0  0  0  # atno 7974 bound_to 7965
  155.0953  140.0395  157.2681 H   0  0  0  0  0  0  0  0  0  0  0  0  # atno 8008 bound_to 7997
  154.6800  140.2631  155.6893 H   0  0  0  0  0  0  0  0  0  0  0  0  # atno 8009 bound_to 7997
  156.2691  140.2780  156.1340 H   0  0  0  0  0  0  0  0  0  0  0  0  # atno 8010 bound_to 7997
  140.6056  143.2373  151.5828 H   0  0  0  0  0  0  0  0  0  0  0  0  # atno 10167 bound_to 10162
  156.2590  130.7198  151.1126 H   0  0  0  0  0  0  0  0  0  0  0  0  # atno 10718 bound_to 10713
  152.9790  135.5932  154.3984 H   0  0  0  0  0  0  0  0  0  0  0  0  # atno 10763 bound_to 10752
  154.3632  135.2767  155.2310 H   0  0  0  0  0  0  0  0  0  0  0  0  # atno 10764 bound_to 10752
  154.4298  135.6039  153.6116 H   0  0  0  0  0  0  0  0  0  0  0  0  # atno 10765 bound_to 10752
  140.3813  134.6944  157.4452 H   0  0  0  0  0  0  0  0  0  0  0  0  # atno 11005 bound_to 11000
  146.1519  139.4605  143.0043 LP  0  0  0  0  0  0  0  0  0  0  0  0  # atno 17320 bound_to 7965
  145.6856  141.0179  143.1583 LP  0  0  0  0  0  0  0  0  0  0  0  0  # atno 17321 bound_to 7965
  139.5323  144.2881  152.1174 LP  0  0  0  0  0  0  0  0  0  0  0  0  # atno 17342 bound_to 10162
  140.2070  144.4600  150.6404 LP  0  0  0  0  0  0  0  0  0  0  0  0  # atno 17343 bound_to 10162
  157.7243  131.0660  150.5999 LP  0  0  0  0  0  0  0  0  0  0  0  0  # atno 17370 bound_to 10713
  156.6085  130.4373  149.5868 LP  0  0  0  0  0  0  0  0  0  0  0  0  # atno 17371 bound_to 10713
  140.0476  134.6176  155.8901 LP  0  0  0  0  0  0  0  0  0  0  0  0  # atno 17394 bound_to 11000
  141.1922  133.6574  156.5493 LP  0  0  0  0  0  0  0  0  0  0  0  0  # atno 17395 bound_to 11000

$$$$
