#       Name:                AV-unprocessed.smi:2768
#       Creating user name   scv26
#       Creation time:       Fri Mar 27 15:10:00 2020


#       File generated by GOLD software.
#

@<TRIPOS>MOLECULE
AV-unprocessed.smi:2768
    40    41     1
SMALL
NO_CHARGES


@<TRIPOS>ATOM
      1 ****        -0.2694   2.7367   0.1209 O.2            1 S1                 0.0000
      2 ****         0.4862   1.9077  -0.3879 C.2            1 S1                 0.0000
      3 ****         0.0534   0.7569  -0.9291 N.am           1 S1                 0.0000
      4 ****        -1.3324   0.2949  -0.9434 C.3            1 S1                 0.0000
      5 ****        -1.5610  -0.6835  -2.1118 C.3            1 S1                 0.0000
      6 ****        -3.0135  -1.1861  -2.1400 C.3            1 S1                 0.0000
      7 ****        -3.4079  -1.8304  -0.8018 C.3            1 S1                 0.0000
      8 ****        -3.1763  -0.8678   0.3773 C.3            1 S1                 0.0000
      9 ****        -1.7327  -0.3300   0.4159 C.3            1 S1                 0.0000
     10 ****        -0.8552  -1.3856   0.7646 O.3            1 S1                 0.0000
     11 ****         2.0033   2.1444  -0.4013 C.3            1 S1                 0.0000
     12 ****         2.4805   1.8034  -1.6009 F              1 S1                 0.0000
     13 ****         2.2492   3.4438  -0.2171 F              1 S1                 0.0000
     14 ****         2.6716   1.3258   0.7007 C.ar           1 S1                 0.0000
     15 ****         3.3384   0.1137   0.4085 C.ar           1 S1                 0.0000
     16 ****         3.9207  -0.6089   1.4676 C.ar           1 S1                 0.0000
     17 ****         3.8156  -0.1001   2.7758 C.ar           1 S1                 0.0000
     18 ****         3.1289   1.1144   2.9680 C.ar           1 S1                 0.0000
     19 ****         2.5665   1.8142   1.9597 N.ar           1 S1                 0.0000
     20 ****        -1.9760   1.1592  -1.1198 H              1 S1                 0.0000
     21 ****        -1.6593   0.4228   1.2016 H              1 S1                 0.0000
     22 ****         0.7415   0.1362  -1.3302 H              1 S1                 0.0000
     23 ****        -1.3258  -0.1955  -3.0584 H              1 S1                 0.0000
     24 ****        -0.8831  -1.5341  -2.0269 H              1 S1                 0.0000
     25 ****        -3.6841  -0.3533  -2.3560 H              1 S1                 0.0000
     26 ****        -3.1426  -1.9043  -2.9503 H              1 S1                 0.0000
     27 ****        -4.4547  -2.1338  -0.8314 H              1 S1                 0.0000
     28 ****        -2.8289  -2.7424  -0.6519 H              1 S1                 0.0000
     29 ****        -3.8662  -0.0276   0.2893 H              1 S1                 0.0000
     30 ****        -3.4202  -1.3623   1.3183 H              1 S1                 0.0000
     31 ****         0.0184  -1.0337   0.8416 H              1 S1                 0.0000
     32 ****         3.4021  -0.2616  -0.6022 H              1 S1                 0.0000
     33 ****         4.4374  -1.5383   1.2799 H              1 S1                 0.0000
     34 ****         4.2499  -0.6278   3.6120 H              1 S1                 0.0000
     35 ****         3.0274   1.5346   3.9577 H              1 S1                 0.0000
     36 ****        -1.2547   2.5673   0.1440 LP             1 S1                 0.0000
     37 ****         0.1024   3.5790   0.5110 LP             1 S1                 0.0000
     38 ****        -0.8745  -2.0895   0.0545 LP             1 S1                 0.0000
     39 ****        -1.1368  -1.7847   1.6372 LP             1 S1                 0.0000
     40 ****         2.0842   2.6719   2.1380 LP             1 S1                 0.0000
@<TRIPOS>BOND
    1    1    2 2     
    2    2    3 am    
    3    2   11 1     
    4    3    4 1     
    5    3   22 1     
    6    4   20 1     
    7    4    9 1     
    8    4    5 1     
    9    5    6 1     
   10    5   23 1     
   11    5   24 1     
   12    6    7 1     
   13    6   25 1     
   14    6   26 1     
   15    7    8 1     
   16    7   27 1     
   17    7   28 1     
   18    8    9 1     
   19    8   29 1     
   20    8   30 1     
   21    9   21 1     
   22    9   10 1     
   23   10   31 1     
   24   11   12 1     
   25   11   13 1     
   26   11   14 1     
   27   14   19 ar    
   28   14   15 ar    
   29   15   16 ar    
   30   15   32 1     
   31   16   17 ar    
   32   16   33 1     
   33   17   18 ar    
   34   17   34 1     
   35   18   19 ar    
   36   18   35 1     
   37    1   36 1     
   38    1   37 1     
   39   10   38 1     
   40   10   39 1     
   41   19   40 1     
@<TRIPOS>SUBSTRUCTURE
      1 S1             1
@<TRIPOS>SET
LONE_PAIRS      STATIC     ATOMS    <user>   **** ""
5 36 37 38 39 40
DONOR_HYDROGENS      STATIC     ATOMS    <user>   **** ""
2 22 31
ATOM$BLUE        STATIC     ATOMS    COLORGROUP SYSTEM
5 36 37 38 39 40
ATOM$RED        STATIC     ATOMS    COLORGROUP SYSTEM
2 22 31
