AV-unprocessed.smi:224|AV-procd|sdf|1717|dock2
  -GOLD-   2262020193D 1   1.00000     0.00000
 Structure written by MMmdl.
 56 59  0  0  0  0  0  0  0  0  2 V2000
  144.4495  132.8458  149.4077 C   0  0  0  0  0  0  0  0  0  0  0  0
  145.6751  132.6753  150.3146 C   0  0  2  0  0  0  0  0  0  0  0  0
  146.8287  132.7573  149.5015 O   0  0  0  0  0  0  0  0  0  0  0  0
  145.6633  131.3185  151.0469 C   0  0  0  0  0  0  0  0  0  0  0  0
  146.8630  131.1320  151.9117 N   0  3  1  0  0  0  0  0  0  0  0  0
  147.1837  132.3833  152.6557 C   0  0  0  0  0  0  0  0  0  0  0  0
  148.4545  132.2402  153.5029 C   0  0  0  0  0  0  0  0  0  0  0  0
  148.3246  131.1100  154.4115 N   0  0  0  0  0  0  0  0  0  0  0  0
  147.7356  131.3630  155.6109 C   0  0  0  0  0  0  0  0  0  0  0  0
  146.3846  131.4984  155.6862 N   0  0  0  0  0  0  0  0  0  0  0  0
  145.7940  131.7644  156.8547 C   0  0  0  0  0  0  0  0  0  0  0  0
  146.3549  131.9278  158.0533 N   0  0  0  0  0  0  0  0  0  0  0  0
  147.7083  131.7753  157.9919 C   0  0  0  0  0  0  0  0  0  0  0  0
  148.4726  131.4986  156.8226 C   0  0  0  0  0  0  0  0  0  0  0  0
  149.8204  131.4122  157.1516 N   0  0  0  0  0  0  0  0  0  0  0  0
  149.8519  131.6364  158.4366 C   0  0  0  0  0  0  0  0  0  0  0  0
  148.6266  131.8519  159.0254 N   0  0  0  0  0  0  0  0  0  0  0  0
  148.3697  132.1245  160.4320 C   0  0  0  0  0  0  0  0  0  0  0  0
  147.6110  133.4505  160.6972 C   0  0  1  0  0  0  0  0  0  0  0  0
  146.3210  133.3770  160.1189 O   0  0  0  0  0  0  0  0  0  0  0  0
  147.4742  133.8109  162.1786 C   0  0  0  0  0  0  0  0  0  0  0  0
  148.5879  134.8260  162.3902 C   0  0  0  0  0  0  0  0  0  0  0  0
  148.5453  135.5749  161.1893 O   0  0  0  0  0  0  0  0  0  0  0  0
  148.3684  134.6613  160.1136 C   0  0  0  0  0  0  0  0  0  0  0  0
  148.0457  129.8509  153.7276 C   0  0  0  0  0  0  0  0  0  0  0  0
  146.8041  129.9290  152.8033 C   0  0  2  0  0  0  0  0  0  0  0  0
  146.7186  128.6061  152.0140 C   0  0  0  0  0  0  0  0  0  0  0  0
  143.5261  132.8152  149.9870 H   0  0  0  0  0  0  0  0  0  0  0  0
  144.3967  132.0575  148.6556 H   0  0  0  0  0  0  0  0  0  0  0  0
  144.4768  133.8026  148.8850 H   0  0  0  0  0  0  0  0  0  0  0  0
  145.6947  133.5026  151.0234 H   0  0  0  0  0  0  0  0  0  0  0  0
  147.5152  132.2342  149.8853 H   0  0  0  0  0  0  0  0  0  0  0  0
  144.7649  131.2272  151.6598 H   0  0  0  0  0  0  0  0  0  0  0  0
  145.5705  130.5373  150.2965 H   0  0  0  0  0  0  0  0  0  0  0  0
  147.3141  133.2140  151.9632 H   0  0  0  0  0  0  0  0  0  0  0  0
  146.3446  132.6451  153.3026 H   0  0  0  0  0  0  0  0  0  0  0  0
  149.3168  132.0703  152.8570 H   0  0  0  0  0  0  0  0  0  0  0  0
  148.6485  133.1717  154.0327 H   0  0  0  0  0  0  0  0  0  0  0  0
  144.7185  131.8595  156.8257 H   0  0  0  0  0  0  0  0  0  0  0  0
  150.7769  131.6452  158.9950 H   0  0  0  0  0  0  0  0  0  0  0  0
  147.8081  131.2838  160.8417 H   0  0  0  0  0  0  0  0  0  0  0  0
  149.3276  132.1321  160.9541 H   0  0  0  0  0  0  0  0  0  0  0  0
  145.6793  133.4345  160.8102 H   0  0  0  0  0  0  0  0  0  0  0  0
  146.5176  134.3001  162.3703 H   0  0  0  0  0  0  0  0  0  0  0  0
  147.5455  132.9651  162.8600 H   0  0  0  0  0  0  0  0  0  0  0  0
  148.4259  135.4562  163.2650 H   0  0  0  0  0  0  0  0  0  0  0  0
  149.5571  134.3344  162.4886 H   0  0  0  0  0  0  0  0  0  0  0  0
  149.3531  134.3714  159.7444 H   0  0  0  0  0  0  0  0  0  0  0  0
  147.8420  135.1441  159.2892 H   0  0  0  0  0  0  0  0  0  0  0  0
  148.9260  129.6042  153.1324 H   0  0  0  0  0  0  0  0  0  0  0  0
  147.9407  129.0390  154.4490 H   0  0  0  0  0  0  0  0  0  0  0  0
  145.9113  130.0200  153.4232 H   0  0  0  0  0  0  0  0  0  0  0  0
  146.8291  127.7514  152.6824 H   0  0  0  0  0  0  0  0  0  0  0  0
  147.5092  128.5394  151.2658 H   0  0  0  0  0  0  0  0  0  0  0  0
  145.7641  128.4691  151.5090 H   0  0  0  0  0  0  0  0  0  0  0  0
  147.6385  130.9623  151.2878 H   0  0  0  0  0  0  0  0  0  0  0  0
  1  2  1  0  0  0  0
  1 28  1  0  0  0  0
  1 29  1  0  0  0  0
  1 30  1  0  0  0  0
  2  3  1  0  0  0  0
  2  4  1  0  0  0  0
  2 31  1  0  0  0  0
  3 32  1  0  0  0  0
  4  5  1  0  0  0  0
  4 33  1  0  0  0  0
  4 34  1  0  0  0  0
  5 26  1  0  0  0  0
  5  6  1  0  0  0  0
  5 56  1  0  0  0  0
  6  7  1  0  0  0  0
  6 35  1  0  0  0  0
  6 36  1  0  0  0  0
  7  8  1  0  0  0  0
  7 37  1  0  0  0  0
  7 38  1  0  0  0  0
  8  9  1  0  0  0  0
  8 25  1  0  0  0  0
  9 14  1  0  0  0  0
  9 10  2  0  0  0  0
 10 11  1  0  0  0  0
 11 12  2  0  0  0  0
 11 39  1  0  0  0  0
 12 13  1  0  0  0  0
 13 17  1  0  0  0  0
 13 14  2  0  0  0  0
 14 15  1  0  0  0  0
 15 16  2  0  0  0  0
 16 17  1  0  0  0  0
 16 40  1  0  0  0  0
 17 18  1  0  0  0  0
 18 19  1  0  0  0  0
 18 41  1  0  0  0  0
 18 42  1  0  0  0  0
 19 24  1  0  0  0  0
 19 20  1  0  0  0  0
 19 21  1  0  0  0  0
 20 43  1  0  0  0  0
 21 22  1  0  0  0  0
 21 44  1  0  0  0  0
 21 45  1  0  0  0  0
 22 23  1  0  0  0  0
 22 46  1  0  0  0  0
 22 47  1  0  0  0  0
 23 24  1  0  0  0  0
 24 48  1  0  0  0  0
 24 49  1  0  0  0  0
 25 26  1  0  0  0  0
 25 50  1  0  0  0  0
 25 51  1  0  0  0  0
 26 27  1  0  0  0  0
 26 52  1  0  0  0  0
 27 53  1  0  0  0  0
 27 54  1  0  0  0  0
 27 55  1  0  0  0  0
M  CHG  1   5   1
M  END
> <s_m_source_file>
AV-unprocessed.smi

> <i_m_source_file_index>
224

> <i_lp_mmshare_version>
43012

> <i_f3d_flags>
0

> <s_epik_input>
W0NIM11bQ0BIXShbT0hdKVtDSDJdTjFbQ0gyXVtDSDJdTihbQ0gyXVtDQEhdMVtDSDNdKWMobltjSF1uMiljKGMyMyluW2NIXW4zW0NIMl1bQ0BAXTQoW09IXSlbQ0gyXVtDSDJdT1tDSDJdNA==

> <s_epik_cmdline>
J2VwaWtfcHl0aG9uJywgJy1waCcsICc3LjAnLCAnLXRuJywgJzgnLCAnLW1hJywgJzIwMCcsICctbWV0YWxfYmluZGluZycsICctaW1hZScsICc8aW5maWxlLm1hZT4nLCAnLW9tYWUnLCAnPG91dGZpbGUubWFlPic=

> <r_lp_tautomer_probability>
1

> <r_epik_Ionization_Penalty>
0.00516958

> <r_epik_Ionization_Penalty_Charging>
0.00509693

> <r_epik_Ionization_Penalty_Neutral>
7.26542e-05

> <r_epik_State_Penalty>
-0

> <r_epik_Charging_Adjusted_Penalty>
0.00509693

> <i_epik_Tot_Q>
1

> <i_epik_Tot_abs_Q>
1

> <r_epik_Metal_State_Penalty>
-0

> <b_epik_Metal_Only>
0

> <s_lp_Force_Field>
OPLS_2005

> <r_lp_Energy>
50.0315

> <b_lp_Chiralities_Consistent>
1

> <s_lp_Variant>
AV-unprocessed.smi:224-11

> <Gold.Version>
5.8.1

> <Gold.Id.Protein>
6NUR|6NUR_protein|mol2

> <Gold.PLP.Fitness>
45.6407

> <Gold.PLP.PLP>
-36.7997

> <Gold.PLP.part.hbond>
-4.0000

> <Gold.PLP.part.metal>
0.0000

> <Gold.PLP.part.buried>
-3.1233

> <Gold.PLP.part.nonpolar>
-29.2270

> <Gold.PLP.part.repulsive>
0.2186

> <Gold.PLP.ligand.clash>
0.0000

> <Gold.PLP.ligand.torsion>
0.3702

> <Gold.PLP.Chemscore.Hbond>
2.0000

> <Gold.PLP.Chemscore.CHOScore>
1.0000

> <Gold.PLP.Chemscore.Metal>
0.0000

> <Gold.Chemscore.Hbonds>
donor molecule, donor type, donor heavy atom, donor atom, acceptor molecule, acceptor atom, score
      L1  H     3    32       P1 10747  1.00
      L1  H     5    56       P1 10747  1.00
      L1  C    11    39       P1 10957  0.23

> <Gold.PLP.Chemscore.Internal.Correction>
0.5814

> <Gold.Rescore>
     Score         DG    S(hbond)    S(metal)    S(lipo)     H(rot)  DE(clash)    DE(int)     intcor
     14.18     -14.76       2.00        0.00      95.78       3.36       0.16       0.42       ----

> <Gold.Chemscore.Fitness>
14.1801

> <Gold.Chemscore.DG>
-14.7602

> <Gold.Chemscore.ZeroCoef>
-5.4800

> <Gold.Chemscore.Hbond>
1.9995

> <Gold.Chemscore.Metal>
0.0000

> <Gold.Chemscore.Lipo>
95.7802

> <Gold.Chemscore.Internal_Hbond>
0.0000

> <Gold.Chemscore.DEClash>
0.1588

> <Gold.Chemscore.DEInternal>
0.4214

> <Gold.Chemscore.Rot>
3.3611

> <Gold.Chemscore.Internal.Correction>
   9.000000E+99

> <Gold.Chemscore.Hbonds>
donor molecule, donor type, donor heavy atom, donor atom, acceptor molecule, acceptor atom, score
      L1  H     3    32       P1 10747  0.93
      L1  H     5    56       P1 10747  1.00

> <Gold.Chemscore.Hbond.Weighted>
-6.6785

> <Gold.Chemscore.Metal.Weighted>
-0.0000

> <Gold.Chemscore.Lipo.Weighted>
-11.2063

> <Gold.Chemscore.Internal_Hbond.Weighted>
0.0000

> <Gold.Chemscore.DEClash.Weighted>
0.1588

> <Gold.Chemscore.DEInternal.Weighted>
0.4214

> <Gold.Chemscore.Rot.Weighted>
8.6045

> <Gold.Chemscore.Internal.Correction.Weighted>
   9.000000E+99

> <Gold.Protein.RotatedTorsions>
[ 6907 6896 6895 6894 ] final   20.64 input  -60.11 | X-H torsion
[ 7974 7965 7964 7962 ] final    7.12 input  175.53 | X-H torsion
[ 8008 7997 7996 7995 ] final   29.52 input   59.86 | X-H torsion
[ 10167 10162 10161 10158 ] final  -26.23 input  -65.29 | X-H torsion
[ 10718 10713 10712 10709 ] final   52.27 input   66.30 | X-H torsion
[ 10763 10752 10751 10750 ] final  -96.11 input  -60.55 | X-H torsion
[ 11005 11000 10999 10996 ] final -134.21 input  -57.11 | X-H torsion

> <Gold.Protein.ActiveResidues>
 VAL166  LYS551  ARG553  GLY616  TRP617  ASP618  TYR619  PRO620  LYS621  CYS622 
 ASP623  PHE694  ASN695  SER759  ASP760  ASP761  ALA762  ILE779  LEU786  VAL792 
 PHE793  MET794  SER795  GLU796  ALA797  LYS798  CYS799  TRP800  GLU811  SER814 

> <Gold.Protein.RotatedAtoms>
  151.8994  135.0384  160.0504 H   0  0  0  0  0  0  0  0  0  0  0  0  # atno 6907 bound_to 6896
  152.2370  133.5100  159.5257 H   0  0  0  0  0  0  0  0  0  0  0  0  # atno 6908 bound_to 6896
  150.7042  134.1056  159.4024 H   0  0  0  0  0  0  0  0  0  0  0  0  # atno 6909 bound_to 6896
  146.2429  140.0130  142.8405 H   0  0  0  0  0  0  0  0  0  0  0  0  # atno 7974 bound_to 7965
  155.0759  140.3205  155.4616 H   0  0  0  0  0  0  0  0  0  0  0  0  # atno 8008 bound_to 7997
  156.2779  140.2103  156.5832 H   0  0  0  0  0  0  0  0  0  0  0  0  # atno 8009 bound_to 7997
  154.7018  140.0506  157.0452 H   0  0  0  0  0  0  0  0  0  0  0  0  # atno 8010 bound_to 7997
  140.7283  143.4196  151.0972 H   0  0  0  0  0  0  0  0  0  0  0  0  # atno 10167 bound_to 10162
  157.5059  130.8468  149.8374 H   0  0  0  0  0  0  0  0  0  0  0  0  # atno 10718 bound_to 10713
  154.7209  135.5096  153.8811 H   0  0  0  0  0  0  0  0  0  0  0  0  # atno 10763 bound_to 10752
  153.0862  135.6646  153.9954 H   0  0  0  0  0  0  0  0  0  0  0  0  # atno 10764 bound_to 10752
  153.9777  135.3032  155.3402 H   0  0  0  0  0  0  0  0  0  0  0  0  # atno 10765 bound_to 10752
  140.9011  134.1689  157.4460 H   0  0  0  0  0  0  0  0  0  0  0  0  # atno 11005 bound_to 11000
  145.1310  140.9518  143.4544 LP  0  0  0  0  0  0  0  0  0  0  0  0  # atno 17320 bound_to 7965
  145.0388  139.3278  143.5987 LP  0  0  0  0  0  0  0  0  0  0  0  0  # atno 17321 bound_to 7965
  139.7840  143.8313  152.3142 LP  0  0  0  0  0  0  0  0  0  0  0  0  # atno 17342 bound_to 10162
  139.8274  144.7269  150.9493 LP  0  0  0  0  0  0  0  0  0  0  0  0  # atno 17343 bound_to 10162
  156.0258  130.3780  150.1828 LP  0  0  0  0  0  0  0  0  0  0  0  0  # atno 17370 bound_to 10713
  157.0018  130.9924  151.3389 LP  0  0  0  0  0  0  0  0  0  0  0  0  # atno 17371 bound_to 10713
  139.8742  134.9898  156.5475 LP  0  0  0  0  0  0  0  0  0  0  0  0  # atno 17394 bound_to 11000
  140.8229  133.8340  155.8912 LP  0  0  0  0  0  0  0  0  0  0  0  0  # atno 17395 bound_to 11000

$$$$
