#       Name:                AV-unprocessed.smi:2198
#       Creating user name   scv26
#       Creation time:       Fri Mar 27 12:13:39 2020


#       File generated by GOLD software.
#

@<TRIPOS>MOLECULE
AV-unprocessed.smi:2198
    48    49     1
SMALL
NO_CHARGES


@<TRIPOS>ATOM
      1 ****        -6.8073  -1.0454  -1.0363 C.3            1 S1                 0.0000
      2 ****        -5.2970  -0.9453  -1.0414 C.2            1 S1                 0.0000
      3 ****        -4.7471   0.1662  -1.3520 N.2            1 S1                 0.0000
      4 ****        -3.3456   0.2660  -1.3585 C.2            1 S1                 0.0000
      5 ****        -2.7790   1.6217  -1.7431 C.3            1 S1                 0.0000
      6 ****        -2.5603  -0.8017  -1.0370 C.2            1 S1                 0.0000
      7 ****        -1.0330  -0.7425  -1.0316 C.3            1 S1                 0.0000
      8 ****        -0.3910  -0.1221   0.2114 C.2            1 S1                 0.0000
      9 ****        -0.9639  -0.1648   1.3003 O.2            1 S1                 0.0000
     10 ****         0.8067   0.4546   0.0309 N.am           1 S1                 0.0000
     11 ****         1.5981   1.1120   1.0692 C.3            1 S1                 0.0000
     12 ****         2.5723   2.1241   0.4360 C.3            1 S1                 0.0000
     13 ****         3.7142   1.4316  -0.3279 C.3            1 S1                 0.0000
     14 ****         4.4585   0.4286   0.5672 C.3            1 S1                 0.0000
     15 ****         3.4974  -0.6140   1.1696 C.3            1 S1                 0.0000
     16 ****         4.2436  -1.6155   2.0621 C.3            1 S1                 0.0000
     17 ****         2.3568   0.0850   1.9385 C.3            1 S1                 0.0000
     18 ****        -3.2333  -2.0636  -0.6802 C.2            1 S1                 0.0000
     19 ****        -2.5724  -3.0539  -0.3691 O.2            1 S1                 0.0000
     20 ****        -4.5967  -2.0826  -0.7066 N.pl3          1 S1                -1.0000
     21 ****        -7.2658  -0.0573  -1.0925 H              1 S1                 0.0000
     22 ****        -7.1549  -1.5289  -0.1227 H              1 S1                 0.0000
     23 ****        -7.1479  -1.6316  -1.8899 H              1 S1                 0.0000
     24 ****        -2.2144   1.5492  -2.6727 H              1 S1                 0.0000
     25 ****        -2.1184   1.9991  -0.9626 H              1 S1                 0.0000
     26 ****        -3.5738   2.3541  -1.8894 H              1 S1                 0.0000
     27 ****        -0.6048  -1.7348  -1.1762 H              1 S1                 0.0000
     28 ****        -0.7139  -0.1752  -1.9064 H              1 S1                 0.0000
     29 ****         1.2003   0.4395  -0.8987 H              1 S1                 0.0000
     30 ****         0.9121   1.6691   1.7100 H              1 S1                 0.0000
     31 ****         2.0350   2.8025  -0.2279 H              1 S1                 0.0000
     32 ****         3.0000   2.7463   1.2231 H              1 S1                 0.0000
     33 ****         3.3156   0.9158  -1.2025 H              1 S1                 0.0000
     34 ****         4.4123   2.1793  -0.7052 H              1 S1                 0.0000
     35 ****         5.2354  -0.0702  -0.0131 H              1 S1                 0.0000
     36 ****         4.9691   0.9663   1.3674 H              1 S1                 0.0000
     37 ****         3.0562  -1.1798   0.3477 H              1 S1                 0.0000
     38 ****         4.7136  -1.1179   2.9110 H              1 S1                 0.0000
     39 ****         5.0252  -2.1322   1.5043 H              1 S1                 0.0000
     40 ****         3.5643  -2.3731   2.4539 H              1 S1                 0.0000
     41 ****         2.7725   0.5992   2.8060 H              1 S1                 0.0000
     42 ****         1.6630  -0.6566   2.3367 H              1 S1                 0.0000
     43 ****        -5.3099   0.9582  -1.5885 LP             1 S1                 0.0000
     44 ****        -1.8571  -0.6078   1.3783 LP             1 S1                 0.0000
     45 ****        -0.5362   0.2435   2.1067 LP             1 S1                 0.0000
     46 ****        -1.5737  -3.0051  -0.3575 LP             1 S1                 0.0000
     47 ****        -3.0341  -3.9076  -0.1280 LP             1 S1                 0.0000
     48 ****        -5.0887  -2.9239  -0.4825 LP             1 S1                 0.0000
@<TRIPOS>BOND
    1    1    2 1     
    2    1   21 1     
    3    1   22 1     
    4    1   23 1     
    5    2   20 1     
    6    2    3 2     
    7    3    4 1     
    8    4    5 1     
    9    4    6 2     
   10    5   24 1     
   11    5   25 1     
   12    5   26 1     
   13    6    7 1     
   14    6   18 1     
   15    7    8 1     
   16    7   27 1     
   17    7   28 1     
   18    8    9 2     
   19    8   10 am    
   20   10   11 1     
   21   10   29 1     
   22   11   17 1     
   23   11   12 1     
   24   11   30 1     
   25   12   13 1     
   26   12   31 1     
   27   12   32 1     
   28   13   14 1     
   29   13   33 1     
   30   13   34 1     
   31   14   15 1     
   32   14   35 1     
   33   14   36 1     
   34   15   16 1     
   35   15   17 1     
   36   15   37 1     
   37   16   38 1     
   38   16   39 1     
   39   16   40 1     
   40   17   41 1     
   41   17   42 1     
   42   18   19 2     
   43   18   20 1     
   44    3   43 1     
   45    9   44 1     
   46    9   45 1     
   47   19   46 1     
   48   19   47 1     
   49   20   48 1     
@<TRIPOS>SUBSTRUCTURE
      1 S1             1
@<TRIPOS>SET
LONE_PAIRS      STATIC     ATOMS    <user>   **** ""
6 43 44 45 46 47 48
DONOR_HYDROGENS      STATIC     ATOMS    <user>   **** ""
1 29
ATOM$BLUE        STATIC     ATOMS    COLORGROUP SYSTEM
6 43 44 45 46 47 48
ATOM$RED        STATIC     ATOMS    COLORGROUP SYSTEM
1 29
