AV-unprocessed.smi:1826|AV-procd|sdf|7417|dock9
  -GOLD-   22720 9 93D 1   1.00000     0.00000
 Structure written by MMmdl.
 40 42  0  0  0  0  0  0  0  0  2 V2000
  150.2126  140.4658  154.1039 O   0  0  0  0  0  0  0  0  0  0  0  0
  149.4534  140.7654  155.2541 C   0  0  0  0  0  0  0  0  0  0  0  0
  150.2485  141.4973  156.2843 C   0  0  0  0  0  0  0  0  0  0  0  0
  150.5501  142.8264  156.2643 N   0  3  0  0  0  0  0  0  0  0  0  0
  151.3033  143.1570  157.3918 C   0  0  0  0  0  0  0  0  0  0  0  0
  151.8397  144.3723  157.8062 C   0  0  0  0  0  0  0  0  0  0  0  0
  152.5625  144.3647  159.0175 C   0  0  0  0  0  0  0  0  0  0  0  0
  152.7285  143.1813  159.7664 C   0  0  0  0  0  0  0  0  0  0  0  0
  152.1795  141.9552  159.3365 C   0  0  0  0  0  0  0  0  0  0  0  0
  151.4674  141.9721  158.1376 C   0  0  0  0  0  0  0  0  0  0  0  0
  150.8016  140.9752  157.4171 N   0  0  0  0  0  0  0  0  0  0  0  0
  150.7862  139.6005  157.9403 C   0  0  0  0  0  0  0  0  0  0  0  0
  152.0906  138.8306  157.6522 C   0  0  2  0  0  0  0  0  0  0  0  0
  151.8085  137.6796  156.8791 O   0  0  0  0  0  0  0  0  0  0  0  0
  152.8265  138.4944  158.9394 C   0  0  0  0  0  0  0  0  0  0  0  0
  152.3113  137.5119  159.8106 C   0  0  0  0  0  0  0  0  0  0  0  0
  152.9927  137.1889  161.0002 C   0  0  0  0  0  0  0  0  0  0  0  0
  154.2007  137.8400  161.3309 C   0  0  0  0  0  0  0  0  0  0  0  0
  154.9301  137.4977  162.6218 C   0  0  0  0  0  0  0  0  0  0  0  0
  154.1171  136.8805  163.4800 F   0  0  0  0  0  0  0  0  0  0  0  0
  155.9541  136.6912  162.3455 F   0  0  0  0  0  0  0  0  0  0  0  0
  155.3979  138.5991  163.2103 F   0  0  0  0  0  0  0  0  0  0  0  0
  154.7137  138.8251  160.4597 C   0  0  0  0  0  0  0  0  0  0  0  0
  154.0334  139.1479  159.2697 C   0  0  0  0  0  0  0  0  0  0  0  0
  149.6239  140.3744  153.3700 H   0  0  0  0  0  0  0  0  0  0  0  0
  148.5888  141.3642  154.9674 H   0  0  0  0  0  0  0  0  0  0  0  0
  149.0724  139.8372  155.6808 H   0  0  0  0  0  0  0  0  0  0  0  0
  151.7136  145.2802  157.2345 H   0  0  0  0  0  0  0  0  0  0  0  0
  152.9983  145.2847  159.3794 H   0  0  0  0  0  0  0  0  0  0  0  0
  153.2884  143.2145  160.6898 H   0  0  0  0  0  0  0  0  0  0  0  0
  152.3119  141.0539  159.9166 H   0  0  0  0  0  0  0  0  0  0  0  0
  150.5883  139.6435  159.0122 H   0  0  0  0  0  0  0  0  0  0  0  0
  149.9344  139.0856  157.4946 H   0  0  0  0  0  0  0  0  0  0  0  0
  152.7436  139.4561  157.0424 H   0  0  0  0  0  0  0  0  0  0  0  0
  150.9879  137.3152  157.1742 H   0  0  0  0  0  0  0  0  0  0  0  0
  151.3903  137.0008  159.5712 H   0  0  0  0  0  0  0  0  0  0  0  0
  152.5816  136.4385  161.6593 H   0  0  0  0  0  0  0  0  0  0  0  0
  155.6326  139.3393  160.7002 H   0  0  0  0  0  0  0  0  0  0  0  0
  154.4427  139.8993  158.6102 H   0  0  0  0  0  0  0  0  0  0  0  0
  150.2576  143.4593  155.5311 H   0  0  0  0  0  0  0  0  0  0  0  0
  1  2  1  0  0  0  0
  1 25  1  0  0  0  0
  2  3  1  0  0  0  0
  2 26  1  0  0  0  0
  2 27  1  0  0  0  0
  3 11  1  0  0  0  0
  3  4  2  0  0  0  0
  4  5  1  0  0  0  0
  4 40  1  0  0  0  0
  5 10  2  0  0  0  0
  5  6  1  0  0  0  0
  6  7  2  0  0  0  0
  6 28  1  0  0  0  0
  7  8  1  0  0  0  0
  7 29  1  0  0  0  0
  8  9  2  0  0  0  0
  8 30  1  0  0  0  0
  9 10  1  0  0  0  0
  9 31  1  0  0  0  0
 10 11  1  0  0  0  0
 11 12  1  0  0  0  0
 12 13  1  0  0  0  0
 12 32  1  0  0  0  0
 12 33  1  0  0  0  0
 13 14  1  0  0  0  0
 13 15  1  0  0  0  0
 13 34  1  0  0  0  0
 14 35  1  0  0  0  0
 15 24  1  0  0  0  0
 15 16  2  0  0  0  0
 16 17  1  0  0  0  0
 16 36  1  0  0  0  0
 17 18  2  0  0  0  0
 17 37  1  0  0  0  0
 18 19  1  0  0  0  0
 18 23  1  0  0  0  0
 19 20  1  0  0  0  0
 19 21  1  0  0  0  0
 19 22  1  0  0  0  0
 23 24  2  0  0  0  0
 23 38  1  0  0  0  0
 24 39  1  0  0  0  0
M  CHG  1   4   1
M  END
> <s_m_source_file>
AV-unprocessed.smi

> <i_m_source_file_index>
1826

> <i_lp_mmshare_version>
43012

> <i_f3d_flags>
0

> <s_epik_input>
W2NIXTFbY0hdW2NIXVtjSF1jKGMxMiluKGMobjIpW0NIMl1bT0hdKVtDSDJdW0NASF0oW09IXSljM1tjSF1bY0hdYyhDKEYpKEYpRilbY0hdW2NIXTM=

> <s_epik_cmdline>
J2VwaWtfcHl0aG9uJywgJy1waCcsICc3LjAnLCAnLXRuJywgJzgnLCAnLW1hJywgJzIwMCcsICctbWV0YWxfYmluZGluZycsICctaW1hZScsICc8aW5maWxlLm1hZT4nLCAnLW9tYWUnLCAnPG91dGZpbGUubWFlPic=

> <r_epik_Ionization_Penalty>
1.35643

> <r_epik_Ionization_Penalty_Charging>
1.35557

> <r_epik_Ionization_Penalty_Neutral>
0.000856405

> <r_epik_State_Penalty>
1.43401

> <r_epik_Charging_Adjusted_Penalty>
2.78958

> <i_epik_Tot_Q>
1

> <i_epik_Tot_abs_Q>
1

> <r_epik_Metal_State_Penalty>
5.47166

> <b_epik_Metal_Only>
0

> <s_lp_Force_Field>
OPLS_2005

> <r_lp_Energy>
15.9337

> <b_lp_Chiralities_Consistent>
1

> <s_lp_Variant>
AV-unprocessed.smi:1826-3

> <Gold.Version>
5.8.1

> <Gold.Id.Protein>
6NUR|6NUR_protein|mol2

> <Gold.PLP.Fitness>
51.7462

> <Gold.PLP.PLP>
-48.0373

> <Gold.PLP.part.hbond>
-2.6255

> <Gold.PLP.part.metal>
0.0000

> <Gold.PLP.part.buried>
-5.3799

> <Gold.PLP.part.nonpolar>
-41.1577

> <Gold.PLP.part.repulsive>
0.1073

> <Gold.PLP.ligand.clash>
0.3539

> <Gold.PLP.ligand.torsion>
2.2262

> <Gold.PLP.Chemscore.Hbond>
2.3759

> <Gold.PLP.Chemscore.CHOScore>
0.0000

> <Gold.PLP.Chemscore.Metal>
0.0000

> <Gold.Chemscore.Hbonds>
donor molecule, donor type, donor heavy atom, donor atom, acceptor molecule, acceptor atom, score
      L1  H     1    25       P1  7957  0.41
      L1  H     4    40       P1  8028  1.06
      P1  H  7989  7998       L1     1  0.83

> <Gold.PLP.Chemscore.Internal.Correction>
1.3875

> <Gold.Rescore>
     Score         DG    S(hbond)    S(metal)    S(lipo)     H(rot)  DE(clash)    DE(int)     intcor
     16.58     -18.51       1.87        0.00     123.27       2.98       0.07       1.86       ----

> <Gold.Chemscore.Fitness>
16.5819

> <Gold.Chemscore.DG>
-18.5098

> <Gold.Chemscore.ZeroCoef>
-5.4800

> <Gold.Chemscore.Hbond>
1.8687

> <Gold.Chemscore.Metal>
0.0000

> <Gold.Chemscore.Lipo>
123.2696

> <Gold.Chemscore.Internal_Hbond>
0.0000

> <Gold.Chemscore.DEClash>
0.0692

> <Gold.Chemscore.DEInternal>
1.8587

> <Gold.Chemscore.Rot>
2.9822

> <Gold.Chemscore.Internal.Correction>
   9.000000E+99

> <Gold.Chemscore.Hbonds>
donor molecule, donor type, donor heavy atom, donor atom, acceptor molecule, acceptor atom, score
      L1  H     1    25       P1  7957  0.41
      L1  H     4    40       P1  8028  0.54
      P1  H  7989  7998       L1     1  0.41

> <Gold.Chemscore.Hbond.Weighted>
-6.2416

> <Gold.Chemscore.Metal.Weighted>
-0.0000

> <Gold.Chemscore.Lipo.Weighted>
-14.4225

> <Gold.Chemscore.Internal_Hbond.Weighted>
0.0000

> <Gold.Chemscore.DEClash.Weighted>
0.0692

> <Gold.Chemscore.DEInternal.Weighted>
1.8587

> <Gold.Chemscore.Rot.Weighted>
7.6343

> <Gold.Chemscore.Internal.Correction.Weighted>
   9.000000E+99

> <Gold.Protein.RotatedTorsions>
[ 6907 6896 6895 6894 ] final  126.99 input  -60.11 | X-H torsion
[ 7974 7965 7964 7962 ] final  165.49 input  175.53 | X-H torsion
[ 8008 7997 7996 7995 ] final  -50.71 input   59.86 | X-H torsion
[ 10167 10162 10161 10158 ] final   96.22 input  -65.29 | X-H torsion
[ 10718 10713 10712 10709 ] final  -99.91 input   66.30 | X-H torsion
[ 10763 10752 10751 10750 ] final   52.11 input  -60.55 | X-H torsion
[ 11005 11000 10999 10996 ] final    1.73 input  -57.11 | X-H torsion

> <Gold.Protein.ActiveResidues>
 VAL166  LYS551  ARG553  GLY616  TRP617  ASP618  TYR619  PRO620  LYS621  CYS622 
 ASP623  PHE694  ASN695  SER759  ASP760  ASP761  ALA762  ILE779  LEU786  VAL792 
 PHE793  MET794  SER795  GLU796  ALA797  LYS798  CYS799  TRP800  GLU811  SER814 

> <Gold.Protein.RotatedAtoms>
  152.3853  133.6603  159.6193 H   0  0  0  0  0  0  0  0  0  0  0  0  # atno 6907 bound_to 6896
  150.7774  133.9045  159.3360 H   0  0  0  0  0  0  0  0  0  0  0  0  # atno 6908 bound_to 6896
  151.6843  135.0958  160.0273 H   0  0  0  0  0  0  0  0  0  0  0  0  # atno 6909 bound_to 6896
  144.7500  139.8478  143.6369 H   0  0  0  0  0  0  0  0  0  0  0  0  # atno 7974 bound_to 7965
  154.4067  140.1265  156.4711 H   0  0  0  0  0  0  0  0  0  0  0  0  # atno 8008 bound_to 7997
  155.7178  140.3493  155.4983 H   0  0  0  0  0  0  0  0  0  0  0  0  # atno 8009 bound_to 7997
  155.9242  140.1058  157.1173 H   0  0  0  0  0  0  0  0  0  0  0  0  # atno 8010 bound_to 7997
  139.7914  144.6850  150.9887 H   0  0  0  0  0  0  0  0  0  0  0  0  # atno 10167 bound_to 10162
  156.0147  130.5304  150.6740 H   0  0  0  0  0  0  0  0  0  0  0  0  # atno 10718 bound_to 10713
  152.9787  135.5823  154.4525 H   0  0  0  0  0  0  0  0  0  0  0  0  # atno 10763 bound_to 10752
  154.4112  135.2770  155.2037 H   0  0  0  0  0  0  0  0  0  0  0  0  # atno 10764 bound_to 10752
  154.3827  135.6143  153.5853 H   0  0  0  0  0  0  0  0  0  0  0  0  # atno 10765 bound_to 10752
  140.6122  133.9738  155.8183 H   0  0  0  0  0  0  0  0  0  0  0  0  # atno 11005 bound_to 11000
  146.1437  139.4501  143.0092 LP  0  0  0  0  0  0  0  0  0  0  0  0  # atno 17320 bound_to 7965
  145.6978  141.0145  143.1521 LP  0  0  0  0  0  0  0  0  0  0  0  0  # atno 17321 bound_to 7965
  140.7820  143.4377  151.0599 LP  0  0  0  0  0  0  0  0  0  0  0  0  # atno 17342 bound_to 10162
  139.8053  143.8026  152.3167 LP  0  0  0  0  0  0  0  0  0  0  0  0  # atno 17343 bound_to 10162
  157.4456  131.0866  151.0899 LP  0  0  0  0  0  0  0  0  0  0  0  0  # atno 17370 bound_to 10713
  157.1430  130.6151  149.5560 LP  0  0  0  0  0  0  0  0  0  0  0  0  # atno 17371 bound_to 10713
  141.0800  134.0077  157.3400 LP  0  0  0  0  0  0  0  0  0  0  0  0  # atno 17394 bound_to 11000
  139.9187  135.0199  156.7983 LP  0  0  0  0  0  0  0  0  0  0  0  0  # atno 17395 bound_to 11000

$$$$
