AV-unprocessed.smi:1201|AV-procd|sdf|5027|dock5
  -GOLD-   22720 4 53D 1   1.00000     0.00000
 Structure written by MMmdl.
 31 32  0  0  0  0  0  0  0  0  1 V2000
  150.9396  142.1927  157.8054 C   0  0  0  0  0  0  0  0  0  0  0  0
  150.9859  141.9396  156.4055 O   0  0  0  0  0  0  0  0  0  0  0  0
  150.6357  140.6835  155.9547 C   0  0  0  0  0  0  0  0  0  0  0  0
  150.5512  139.6315  156.8882 C   0  0  0  0  0  0  0  0  0  0  0  0
  150.1954  138.3461  156.4372 C   0  0  0  0  0  0  0  0  0  0  0  0
  149.9264  138.1540  155.0606 C   0  0  0  0  0  0  0  0  0  0  0  0
  149.5740  136.9085  154.4721 N   0  0  0  0  0  0  0  0  0  0  0  0
  149.5455  135.6868  155.0320 C   0  0  0  0  0  0  0  0  0  0  0  0
  149.8114  135.4318  156.2062 O   0  0  0  0  0  0  0  0  0  0  0  0
  149.1683  134.7582  154.1424 N   0  0  0  0  0  0  0  0  0  0  0  0
  149.0436  133.3343  154.4248 C   0  0  0  0  0  0  0  0  0  0  0  0
  148.5805  132.4906  153.2527 C   0  0  0  0  0  0  0  0  0  0  0  0
  147.4574  132.9724  152.3644 C   0  0  0  0  0  0  0  0  0  0  0  0
  147.2434  131.7861  153.2727 C   0  0  0  0  0  0  0  0  0  0  0  0
  150.0491  139.2704  154.2078 C   0  0  0  0  0  0  0  0  0  0  0  0
  150.3900  140.5050  154.6332 N   0  0  0  0  0  0  0  0  0  0  0  0
  151.2490  143.2201  157.9967 H   0  0  0  0  0  0  0  0  0  0  0  0
  151.6177  141.5365  158.3528 H   0  0  0  0  0  0  0  0  0  0  0  0
  149.9291  142.0729  158.1985 H   0  0  0  0  0  0  0  0  0  0  0  0
  150.7606  139.8062  157.9332 H   0  0  0  0  0  0  0  0  0  0  0  0
  150.1502  137.5410  157.1533 H   0  0  0  0  0  0  0  0  0  0  0  0
  149.2642  136.9599  153.5127 H   0  0  0  0  0  0  0  0  0  0  0  0
  148.9613  135.0555  153.2001 H   0  0  0  0  0  0  0  0  0  0  0  0
  149.9871  132.9437  154.8103 H   0  0  0  0  0  0  0  0  0  0  0  0
  148.3169  133.2224  155.2295 H   0  0  0  0  0  0  0  0  0  0  0  0
  149.3895  131.9729  152.7406 H   0  0  0  0  0  0  0  0  0  0  0  0
  146.9606  133.9030  152.6317 H   0  0  0  0  0  0  0  0  0  0  0  0
  147.5444  132.7802  151.2969 H   0  0  0  0  0  0  0  0  0  0  0  0
  147.1891  130.8018  152.8124 H   0  0  0  0  0  0  0  0  0  0  0  0
  146.6066  131.9287  154.1436 H   0  0  0  0  0  0  0  0  0  0  0  0
  149.8649  139.1727  153.1478 H   0  0  0  0  0  0  0  0  0  0  0  0
  1  2  1  0  0  0  0
  1 17  1  0  0  0  0
  1 18  1  0  0  0  0
  1 19  1  0  0  0  0
  2  3  1  0  0  0  0
  3 16  1  0  0  0  0
  3  4  2  0  0  0  0
  4  5  1  0  0  0  0
  4 20  1  0  0  0  0
  5  6  2  0  0  0  0
  5 21  1  0  0  0  0
  6  7  1  0  0  0  0
  6 15  1  0  0  0  0
  7  8  1  0  0  0  0
  7 22  1  0  0  0  0
  8  9  2  0  0  0  0
  8 10  1  0  0  0  0
 10 11  1  0  0  0  0
 10 23  1  0  0  0  0
 11 12  1  0  0  0  0
 11 24  1  0  0  0  0
 11 25  1  0  0  0  0
 12 14  1  0  0  0  0
 12 13  1  0  0  0  0
 12 26  1  0  0  0  0
 13 14  1  0  0  0  0
 13 27  1  0  0  0  0
 13 28  1  0  0  0  0
 14 29  1  0  0  0  0
 14 30  1  0  0  0  0
 15 16  2  0  0  0  0
 15 31  1  0  0  0  0
M  END
> <s_m_source_file>
AV-unprocessed.smi

> <i_m_source_file_index>
1201

> <i_lp_mmshare_version>
43012

> <i_f3d_flags>
0

> <s_epik_input>
W0NIM11PYzFbY0hdW2NIXWMoW2NIXW4xKVtOSF1DKD1PKVtOSF1bQ0gyXVtDSF0yW0NIMl1bQ0gyXTI=

> <s_epik_cmdline>
J2VwaWtfcHl0aG9uJywgJy1waCcsICc3LjAnLCAnLXRuJywgJzgnLCAnLW1hJywgJzIwMCcsICctbWV0YWxfYmluZGluZycsICctaW1hZScsICc8aW5maWxlLm1hZT4nLCAnLW9tYWUnLCAnPG91dGZpbGUubWFlPic=

> <r_lp_tautomer_probability>
1

> <r_epik_Ionization_Penalty>
9.92182e-05

> <r_epik_Ionization_Penalty_Charging>
0

> <r_epik_Ionization_Penalty_Neutral>
9.92182e-05

> <r_epik_State_Penalty>
-0

> <r_epik_Charging_Adjusted_Penalty>
0

> <i_epik_Tot_Q>
0

> <i_epik_Tot_abs_Q>
0

> <r_epik_Metal_State_Penalty>
-0

> <b_epik_Metal_Only>
0

> <s_lp_Force_Field>
OPLS_2005

> <r_lp_Energy>
14.9196

> <b_lp_Chiralities_Consistent>
1

> <s_lp_Variant>
AV-unprocessed.smi:1201-1

> <Gold.Version>
5.8.1

> <Gold.Id.Protein>
6NUR|6NUR_protein|mol2

> <Gold.PLP.Fitness>
36.1426

> <Gold.PLP.PLP>
-24.9463

> <Gold.PLP.part.hbond>
-3.0000

> <Gold.PLP.part.metal>
0.0000

> <Gold.PLP.part.buried>
-1.5124

> <Gold.PLP.part.nonpolar>
-19.7848

> <Gold.PLP.part.repulsive>
0.2407

> <Gold.PLP.ligand.clash>
0.0713

> <Gold.PLP.ligand.torsion>
0.6235

> <Gold.PLP.Chemscore.Hbond>
2.9920

> <Gold.PLP.Chemscore.CHOScore>
1.0000

> <Gold.PLP.Chemscore.Metal>
0.0000

> <Gold.Chemscore.Hbonds>
donor molecule, donor type, donor heavy atom, donor atom, acceptor molecule, acceptor atom, score
      L1  H     7    22       P1  7948  1.00
      L1  H    10    23       P1  7948  1.00
      P1  H  7989  7998       L1    16  0.98
      L1  C    15    31       P1  7957  1.00

> <Gold.PLP.Chemscore.Internal.Correction>
0.5387

> <Gold.Rescore>
     Score         DG    S(hbond)    S(metal)    S(lipo)     H(rot)  DE(clash)    DE(int)     intcor
     13.97     -15.71       2.61        0.00      44.55       1.45       0.06       1.68       ----

> <Gold.Chemscore.Fitness>
13.9743

> <Gold.Chemscore.DG>
-15.7108

> <Gold.Chemscore.ZeroCoef>
-5.4800

> <Gold.Chemscore.Hbond>
2.6137

> <Gold.Chemscore.Metal>
0.0000

> <Gold.Chemscore.Lipo>
44.5490

> <Gold.Chemscore.Internal_Hbond>
0.0000

> <Gold.Chemscore.DEClash>
0.0580

> <Gold.Chemscore.DEInternal>
1.6785

> <Gold.Chemscore.Rot>
1.4497

> <Gold.Chemscore.Internal.Correction>
   9.000000E+99

> <Gold.Chemscore.Hbonds>
donor molecule, donor type, donor heavy atom, donor atom, acceptor molecule, acceptor atom, score
      L1  H     7    22       P1  7948  0.94
      L1  H    10    23       P1  7948  0.25
      P1  H  7989  7998       L1    16  0.23

> <Gold.Chemscore.Hbond.Weighted>
-8.7297

> <Gold.Chemscore.Metal.Weighted>
-0.0000

> <Gold.Chemscore.Lipo.Weighted>
-5.2122

> <Gold.Chemscore.Internal_Hbond.Weighted>
0.0000

> <Gold.Chemscore.DEClash.Weighted>
0.0580

> <Gold.Chemscore.DEInternal.Weighted>
1.6785

> <Gold.Chemscore.Rot.Weighted>
3.7111

> <Gold.Chemscore.Internal.Correction.Weighted>
   9.000000E+99

> <Gold.Protein.RotatedTorsions>
[ 6907 6896 6895 6894 ] final -146.81 input  -60.11 | X-H torsion
[ 7974 7965 7964 7962 ] final  160.64 input  175.53 | X-H torsion
[ 8008 7997 7996 7995 ] final   67.18 input   59.86 | X-H torsion
[ 10167 10162 10161 10158 ] final  136.16 input  -65.29 | X-H torsion
[ 10718 10713 10712 10709 ] final  -86.95 input   66.30 | X-H torsion
[ 10763 10752 10751 10750 ] final  140.57 input  -60.55 | X-H torsion
[ 11005 11000 10999 10996 ] final  -19.67 input  -57.11 | X-H torsion

> <Gold.Protein.ActiveResidues>
 VAL166  LYS551  ARG553  GLY616  TRP617  ASP618  TYR619  PRO620  LYS621  CYS622 
 ASP623  PHE694  ASN695  SER759  ASP760  ASP761  ALA762  ILE779  LEU786  VAL792 
 PHE793  MET794  SER795  GLU796  ALA797  LYS798  CYS799  TRP800  GLU811  SER814 

> <Gold.Protein.RotatedAtoms>
  151.1468  133.4934  159.2595 H   0  0  0  0  0  0  0  0  0  0  0  0  # atno 6907 bound_to 6896
  151.1596  135.0266  159.8714 H   0  0  0  0  0  0  0  0  0  0  0  0  # atno 6908 bound_to 6896
  152.5463  134.1343  159.8505 H   0  0  0  0  0  0  0  0  0  0  0  0  # atno 6909 bound_to 6896
  144.7726  139.7786  143.6291 H   0  0  0  0  0  0  0  0  0  0  0  0  # atno 7974 bound_to 7965
  155.6890  140.3496  155.4885 H   0  0  0  0  0  0  0  0  0  0  0  0  # atno 8008 bound_to 7997
  155.9541  140.1125  157.0974 H   0  0  0  0  0  0  0  0  0  0  0  0  # atno 8009 bound_to 7997
  154.4128  140.1188  156.5078 H   0  0  0  0  0  0  0  0  0  0  0  0  # atno 8010 bound_to 7997
  139.5190  144.6479  151.5386 H   0  0  0  0  0  0  0  0  0  0  0  0  # atno 10167 bound_to 10162
  155.9987  130.4783  150.4793 H   0  0  0  0  0  0  0  0  0  0  0  0  # atno 10718 bound_to 10713
  153.9249  135.2996  155.3447 H   0  0  0  0  0  0  0  0  0  0  0  0  # atno 10763 bound_to 10752
  154.7556  135.4959  153.9372 H   0  0  0  0  0  0  0  0  0  0  0  0  # atno 10764 bound_to 10752
  153.1122  135.6762  153.9584 H   0  0  0  0  0  0  0  0  0  0  0  0  # atno 10765 bound_to 10752
  140.8390  133.7941  155.9839 H   0  0  0  0  0  0  0  0  0  0  0  0  # atno 11005 bound_to 11000
  146.1884  139.5111  142.9821 LP  0  0  0  0  0  0  0  0  0  0  0  0  # atno 17320 bound_to 7965
  145.6278  141.0310  143.1879 LP  0  0  0  0  0  0  0  0  0  0  0  0  # atno 17321 bound_to 7965
  140.6272  143.9146  150.6574 LP  0  0  0  0  0  0  0  0  0  0  0  0  # atno 17342 bound_to 10162
  140.2438  143.3643  152.1464 LP  0  0  0  0  0  0  0  0  0  0  0  0  # atno 17343 bound_to 10162
  157.2800  131.0605  151.2204 LP  0  0  0  0  0  0  0  0  0  0  0  0  # atno 17370 bound_to 10713
  157.3254  130.6958  149.6293 LP  0  0  0  0  0  0  0  0  0  0  0  0  # atno 17371 bound_to 10713
  140.8916  134.2488  157.5091 LP  0  0  0  0  0  0  0  0  0  0  0  0  # atno 17394 bound_to 11000
  139.8703  134.9664  156.4562 LP  0  0  0  0  0  0  0  0  0  0  0  0  # atno 17395 bound_to 11000

$$$$
