AV-unprocessed.smi:1554|AV-procd|sdf|6260|dock1
  -GOLD-   22720 6443D 1   1.00000     0.00000
 Structure written by MMmdl.
 49 51  0  0  0  0  0  0  0  0  3 V2000
  152.2563  144.5283  161.2363 C   0  0  0  0  0  0  0  0  0  0  0  0
  152.1318  143.5459  160.0841 C   0  0  0  0  0  0  0  0  0  0  0  0
  151.3097  143.8923  158.9884 C   0  0  0  0  0  0  0  0  0  0  0  0
  151.2169  142.9741  157.9493 C   0  0  0  0  0  0  0  0  0  0  0  0
  150.5023  143.0215  156.7510 N   0  3  0  0  0  0  0  0  0  0  0  0
  150.7233  141.8790  156.0449 C   0  0  0  0  0  0  0  0  0  0  0  0
  151.5632  141.0973  156.7776 N   0  0  0  0  0  0  0  0  0  0  0  0
  152.1098  139.7652  156.4676 C   0  0  0  0  0  0  0  0  0  0  0  0
  151.1281  138.8497  155.7023 C   0  0  2  0  0  0  0  0  0  0  0  0
  151.0002  139.3302  154.3775 O   0  0  0  0  0  0  0  0  0  0  0  0
  149.7266  138.7808  156.3478 C   0  0  0  0  0  0  0  0  0  0  0  0
  149.0599  137.4660  156.1460 N   0  3  1  0  0  0  0  0  0  0  0  0
  149.9767  136.3520  155.7922 C   0  0  0  0  0  0  0  0  0  0  0  0
  150.7228  135.8160  157.0301 C   0  0  0  0  0  0  0  0  0  0  0  0
  149.7890  135.4520  158.0395 O   0  0  0  0  0  0  0  0  0  0  0  0
  148.9938  136.5510  158.4704 C   0  0  2  0  0  0  0  0  0  0  0  0
  148.0964  136.0712  159.6166 C   0  0  0  0  0  0  0  0  0  0  0  0
  148.1758  137.0712  157.2704 C   0  0  0  0  0  0  0  0  0  0  0  0
  151.9053  141.7448  157.9719 C   0  0  0  0  0  0  0  0  0  0  0  0
  152.7211  141.3897  159.0446 C   0  0  0  0  0  0  0  0  0  0  0  0
  152.8280  142.3101  160.1116 C   0  0  0  0  0  0  0  0  0  0  0  0
  153.7104  141.9482  161.2942 C   0  0  0  0  0  0  0  0  0  0  0  0
  151.6800  145.4353  161.0512 H   0  0  0  0  0  0  0  0  0  0  0  0
  153.2968  144.8197  161.3812 H   0  0  0  0  0  0  0  0  0  0  0  0
  151.8888  144.0830  162.1610 H   0  0  0  0  0  0  0  0  0  0  0  0
  150.7771  144.8320  158.9600 H   0  0  0  0  0  0  0  0  0  0  0  0
  150.3030  141.6333  155.0799 H   0  0  0  0  0  0  0  0  0  0  0  0
  153.0117  139.9192  155.8737 H   0  0  0  0  0  0  0  0  0  0  0  0
  152.4411  139.2880  157.3894 H   0  0  0  0  0  0  0  0  0  0  0  0
  151.5747  137.8574  155.6530 H   0  0  0  0  0  0  0  0  0  0  0  0
  150.1977  138.9968  154.0060 H   0  0  0  0  0  0  0  0  0  0  0  0
  149.7948  138.9959  157.4138 H   0  0  0  0  0  0  0  0  0  0  0  0
  149.1070  139.5711  155.9218 H   0  0  0  0  0  0  0  0  0  0  0  0
  149.3788  135.5474  155.3619 H   0  0  0  0  0  0  0  0  0  0  0  0
  150.6838  136.6499  155.0191 H   0  0  0  0  0  0  0  0  0  0  0  0
  151.3052  134.9351  156.7597 H   0  0  0  0  0  0  0  0  0  0  0  0
  151.4302  136.5485  157.4203 H   0  0  0  0  0  0  0  0  0  0  0  0
  149.6445  137.3400  158.8516 H   0  0  0  0  0  0  0  0  0  0  0  0
  147.4718  136.8819  159.9928 H   0  0  0  0  0  0  0  0  0  0  0  0
  148.6934  135.6994  160.4498 H   0  0  0  0  0  0  0  0  0  0  0  0
  147.4385  135.2642  159.2925 H   0  0  0  0  0  0  0  0  0  0  0  0
  147.5356  137.9038  157.5644 H   0  0  0  0  0  0  0  0  0  0  0  0
  147.5071  136.2846  156.9175 H   0  0  0  0  0  0  0  0  0  0  0  0
  153.2557  140.4523  159.0704 H   0  0  0  0  0  0  0  0  0  0  0  0
  154.1450  140.9547  161.1794 H   0  0  0  0  0  0  0  0  0  0  0  0
  153.1340  141.9532  162.2195 H   0  0  0  0  0  0  0  0  0  0  0  0
  154.5296  142.6610  161.3915 H   0  0  0  0  0  0  0  0  0  0  0  0
  148.4480  137.6012  155.3539 H   0  0  0  0  0  0  0  0  0  0  0  0
  149.9089  143.7778  156.4339 H   0  0  0  0  0  0  0  0  0  0  0  0
  1  2  1  0  0  0  0
  1 23  1  0  0  0  0
  1 24  1  0  0  0  0
  1 25  1  0  0  0  0
  2 21  1  0  0  0  0
  2  3  2  0  0  0  0
  3  4  1  0  0  0  0
  3 26  1  0  0  0  0
  4 19  2  0  0  0  0
  4  5  1  0  0  0  0
  5  6  2  0  0  0  0
  5 49  1  0  0  0  0
  6  7  1  0  0  0  0
  6 27  1  0  0  0  0
  7  8  1  0  0  0  0
  7 19  1  0  0  0  0
  8  9  1  0  0  0  0
  8 28  1  0  0  0  0
  8 29  1  0  0  0  0
  9 10  1  0  0  0  0
  9 11  1  0  0  0  0
  9 30  1  0  0  0  0
 10 31  1  0  0  0  0
 11 12  1  0  0  0  0
 11 32  1  0  0  0  0
 11 33  1  0  0  0  0
 12 18  1  0  0  0  0
 12 13  1  0  0  0  0
 12 48  1  0  0  0  0
 13 14  1  0  0  0  0
 13 34  1  0  0  0  0
 13 35  1  0  0  0  0
 14 15  1  0  0  0  0
 14 36  1  0  0  0  0
 14 37  1  0  0  0  0
 15 16  1  0  0  0  0
 16 17  1  0  0  0  0
 16 18  1  0  0  0  0
 16 38  1  0  0  0  0
 17 39  1  0  0  0  0
 17 40  1  0  0  0  0
 17 41  1  0  0  0  0
 18 42  1  0  0  0  0
 18 43  1  0  0  0  0
 19 20  1  0  0  0  0
 20 21  2  0  0  0  0
 20 44  1  0  0  0  0
 21 22  1  0  0  0  0
 22 45  1  0  0  0  0
 22 46  1  0  0  0  0
 22 47  1  0  0  0  0
M  CHG  1   5   1
M  CHG  1  12   1
M  END
> <s_m_source_file>
AV-unprocessed.smi

> <i_m_source_file_index>
1554

> <i_lp_mmshare_version>
43012

> <i_f3d_flags>
0

> <s_epik_input>
W0NIM11jKFtjSF0xKWMoW0NIM10pW2NIXWMoYzEyKW4oW2NIXW4yKVtDSDJdW0NASF0oW09IXSlbQ0gyXU4zW0NIMl1bQ0gyXU9bQ0BASF0oW0NIM10pW0NIMl0z

> <s_epik_cmdline>
J2VwaWtfcHl0aG9uJywgJy1waCcsICc3LjAnLCAnLXRuJywgJzgnLCAnLW1hJywgJzIwMCcsICctbWV0YWxfYmluZGluZycsICctaW1hZScsICc8aW5maWxlLm1hZT4nLCAnLW9tYWUnLCAnPG91dGZpbGUubWFlPic=

> <r_epik_Ionization_Penalty>
1.8848

> <r_epik_Ionization_Penalty_Charging>
1.88479

> <r_epik_Ionization_Penalty_Neutral>
1.42224e-05

> <r_epik_State_Penalty>
1.94551

> <r_epik_Charging_Adjusted_Penalty>
3.8303

> <i_epik_Tot_Q>
2

> <i_epik_Tot_abs_Q>
2

> <r_epik_Metal_State_Penalty>
5.95849

> <b_epik_Metal_Only>
0

> <s_lp_Force_Field>
OPLS_2005

> <r_lp_Energy>
33.2635

> <b_lp_Chiralities_Consistent>
1

> <s_lp_Variant>
AV-unprocessed.smi:1554-21

> <Gold.Version>
5.8.1

> <Gold.Id.Protein>
6NUR|6NUR_protein|mol2

> <Gold.PLP.Fitness>
49.9700

> <Gold.PLP.PLP>
-40.4177

> <Gold.PLP.part.hbond>
-3.0000

> <Gold.PLP.part.metal>
0.0000

> <Gold.PLP.part.buried>
-5.4603

> <Gold.PLP.part.nonpolar>
-31.7112

> <Gold.PLP.part.repulsive>
0.0329

> <Gold.PLP.ligand.clash>
0.0000

> <Gold.PLP.ligand.torsion>
1.2985

> <Gold.PLP.Chemscore.Hbond>
3.9760

> <Gold.PLP.Chemscore.CHOScore>
0.0000

> <Gold.PLP.Chemscore.Metal>
0.0000

> <Gold.Chemscore.Hbonds>
donor molecule, donor type, donor heavy atom, donor atom, acceptor molecule, acceptor atom, score
      L1  H     5    49       P1  8028  2.00
      P1  H  6896  6909       L1    15  0.99
      P1  H  7989  7998       L1    10  1.00

> <Gold.PLP.Chemscore.Internal.Correction>
0.2214

> <Gold.Rescore>
     Score         DG    S(hbond)    S(metal)    S(lipo)     H(rot)  DE(clash)    DE(int)     intcor
     21.16     -22.67       2.77        0.00     114.20       2.11       0.00       1.51       ----

> <Gold.Chemscore.Fitness>
21.1579

> <Gold.Chemscore.DG>
-22.6738

> <Gold.Chemscore.ZeroCoef>
-5.4800

> <Gold.Chemscore.Hbond>
2.7662

> <Gold.Chemscore.Metal>
0.0000

> <Gold.Chemscore.Lipo>
114.2036

> <Gold.Chemscore.Internal_Hbond>
0.0000

> <Gold.Chemscore.DEClash>
0.0021

> <Gold.Chemscore.DEInternal>
1.5138

> <Gold.Chemscore.Rot>
2.1122

> <Gold.Chemscore.Internal.Correction>
   9.000000E+99

> <Gold.Chemscore.Hbonds>
donor molecule, donor type, donor heavy atom, donor atom, acceptor molecule, acceptor atom, score
      L1  H     5    49       P1  8028  0.98
      P1  H  6896  6909       L1    15  0.65
      P1  H  7989  7998       L1    10  0.85

> <Gold.Chemscore.Hbond.Weighted>
-9.2392

> <Gold.Chemscore.Metal.Weighted>
-0.0000

> <Gold.Chemscore.Lipo.Weighted>
-13.3618

> <Gold.Chemscore.Internal_Hbond.Weighted>
0.0000

> <Gold.Chemscore.DEClash.Weighted>
0.0021

> <Gold.Chemscore.DEInternal.Weighted>
1.5138

> <Gold.Chemscore.Rot.Weighted>
5.4073

> <Gold.Chemscore.Internal.Correction.Weighted>
   9.000000E+99

> <Gold.Protein.RotatedTorsions>
[ 6907 6896 6895 6894 ] final   42.96 input  -60.11 | X-H torsion
[ 7974 7965 7964 7962 ] final  164.42 input  175.53 | X-H torsion
[ 8008 7997 7996 7995 ] final   53.58 input   59.86 | X-H torsion
[ 10167 10162 10161 10158 ] final -129.84 input  -65.29 | X-H torsion
[ 10718 10713 10712 10709 ] final  -92.56 input   66.30 | X-H torsion
[ 10763 10752 10751 10750 ] final -120.63 input  -60.55 | X-H torsion
[ 11005 11000 10999 10996 ] final -174.30 input  -57.11 | X-H torsion

> <Gold.Protein.ActiveResidues>
 VAL166  LYS551  ARG553  GLY616  TRP617  ASP618  TYR619  PRO620  LYS621  CYS622 
 ASP623  PHE694  ASN695  SER759  ASP760  ASP761  ALA762  ILE779  LEU786  VAL792 
 PHE793  MET794  SER795  GLU796  ALA797  LYS798  CYS799  TRP800  GLU811  SER814 

> <Gold.Protein.RotatedAtoms>
  152.2144  134.8471  160.0493 H   0  0  0  0  0  0  0  0  0  0  0  0  # atno 6907 bound_to 6896
  151.9278  133.3598  159.3928 H   0  0  0  0  0  0  0  0  0  0  0  0  # atno 6908 bound_to 6896
  150.6984  134.4493  159.5373 H   0  0  0  0  0  0  0  0  0  0  0  0  # atno 6909 bound_to 6896
  144.7546  139.8324  143.6354 H   0  0  0  0  0  0  0  0  0  0  0  0  # atno 7974 bound_to 7965
  155.4706  140.3465  155.4325 H   0  0  0  0  0  0  0  0  0  0  0  0  # atno 8008 bound_to 7997
  156.1103  140.1459  156.9377 H   0  0  0  0  0  0  0  0  0  0  0  0  # atno 8009 bound_to 7997
  154.4752  140.0887  156.7222 H   0  0  0  0  0  0  0  0  0  0  0  0  # atno 8010 bound_to 7997
  139.9356  143.6222  152.2518 H   0  0  0  0  0  0  0  0  0  0  0  0  # atno 10167 bound_to 10162
  156.0003  130.4992  150.5644 H   0  0  0  0  0  0  0  0  0  0  0  0  # atno 10718 bound_to 10713
  154.8649  135.4196  154.2490 H   0  0  0  0  0  0  0  0  0  0  0  0  # atno 10763 bound_to 10752
  153.3440  135.6995  153.6849 H   0  0  0  0  0  0  0  0  0  0  0  0  # atno 10764 bound_to 10752
  153.5816  135.3572  155.2850 H   0  0  0  0  0  0  0  0  0  0  0  0  # atno 10765 bound_to 10752
  140.4761  134.6120  157.4901 H   0  0  0  0  0  0  0  0  0  0  0  0  # atno 11005 bound_to 11000
  146.1540  139.4632  143.0031 LP  0  0  0  0  0  0  0  0  0  0  0  0  # atno 17320 bound_to 7965
  145.6824  141.0187  143.1599 LP  0  0  0  0  0  0  0  0  0  0  0  0  # atno 17321 bound_to 7965
  139.6746  144.7659  151.1719 LP  0  0  0  0  0  0  0  0  0  0  0  0  # atno 17342 bound_to 10162
  140.7625  143.5814  150.8891 LP  0  0  0  0  0  0  0  0  0  0  0  0  # atno 17343 bound_to 10162
  157.3548  131.0740  151.1684 LP  0  0  0  0  0  0  0  0  0  0  0  0  # atno 17370 bound_to 10713
  157.2488  130.6604  149.5922 LP  0  0  0  0  0  0  0  0  0  0  0  0  # atno 17371 bound_to 10713
  139.9855  134.7068  155.9781 LP  0  0  0  0  0  0  0  0  0  0  0  0  # atno 17394 bound_to 11000
  141.1554  133.6543  156.4144 LP  0  0  0  0  0  0  0  0  0  0  0  0  # atno 17395 bound_to 11000

$$$$
