AV-unprocessed.smi:2881|AV-procd|sdf|11056|dock10
  -GOLD-   2272015523D 1   1.00000     0.00000
 Structure written by MMmdl.
 40 42  0  0  0  0  0  0  0  0  1 V2000
  139.5654  139.3165  153.6399 C   0  0  0  0  0  0  0  0  0  0  0  0
  140.5322  138.2054  153.4098 C   0  0  0  0  0  0  0  0  0  0  0  0
  140.4026  136.8518  153.5423 C   0  0  0  0  0  0  0  0  0  0  0  0
  141.6770  136.3355  153.1629 C   0  0  0  0  0  0  0  0  0  0  0  0
  142.1090  134.8938  153.0896 C   0  0  0  0  0  0  0  0  0  0  0  0
  143.5082  134.7940  152.4788 C   0  0  0  0  0  0  0  0  0  0  0  0
  144.4948  135.1343  153.1310 O   0  0  0  0  0  0  0  0  0  0  0  0
  143.5774  134.3145  151.2279 N   0  0  0  0  0  0  0  0  0  0  0  0
  144.8073  134.0555  150.4826 C   0  0  1  0  0  0  0  0  0  0  0  0
  145.9547  133.5009  151.3687 C   0  0  1  0  0  0  0  0  0  0  0  0
  145.4720  132.3187  152.2370 C   0  0  0  0  0  0  0  0  0  0  0  0
  145.2506  131.2081  151.1952 C   0  0  0  0  0  0  0  0  0  0  0  0
  145.6801  131.8818  149.8741 C   0  0  2  0  0  0  0  0  0  0  0  0
  146.8228  132.7708  150.3495 C   0  0  0  0  0  0  0  0  0  0  0  0
  144.6563  132.9421  149.4050 C   0  0  1  0  0  0  0  0  0  0  0  0
  143.2402  132.3927  149.1158 C   0  0  0  0  0  0  0  0  0  0  0  0
  142.5981  133.1765  148.1316 O   0  0  0  0  0  0  0  0  0  0  0  0
  142.5307  137.2951  152.8306 N   0  0  0  0  0  0  0  0  0  0  0  0
  141.8206  138.4281  152.9825 N   0  0  0  0  0  0  0  0  0  0  0  0
  142.2233  139.3353  152.7948 H   0  0  0  0  0  0  0  0  0  0  0  0
  138.6670  138.9541  154.1399 H   0  0  0  0  0  0  0  0  0  0  0  0
  139.2656  139.7695  152.6948 H   0  0  0  0  0  0  0  0  0  0  0  0
  140.0069  140.0938  154.2639 H   0  0  0  0  0  0  0  0  0  0  0  0
  139.5239  136.3068  153.8542 H   0  0  0  0  0  0  0  0  0  0  0  0
  142.1184  134.4342  154.0790 H   0  0  0  0  0  0  0  0  0  0  0  0
  141.4058  134.3192  152.4856 H   0  0  0  0  0  0  0  0  0  0  0  0
  142.7108  134.0726  150.7695 H   0  0  0  0  0  0  0  0  0  0  0  0
  145.1251  134.9791  149.9954 H   0  0  0  0  0  0  0  0  0  0  0  0
  146.4744  134.2710  151.9393 H   0  0  0  0  0  0  0  0  0  0  0  0
  146.2501  132.0243  152.9425 H   0  0  0  0  0  0  0  0  0  0  0  0
  144.5766  132.5338  152.8199 H   0  0  0  0  0  0  0  0  0  0  0  0
  145.8910  130.3531  151.4154 H   0  0  0  0  0  0  0  0  0  0  0  0
  144.2232  130.8468  151.1803 H   0  0  0  0  0  0  0  0  0  0  0  0
  145.9549  131.1716  149.0939 H   0  0  0  0  0  0  0  0  0  0  0  0
  147.2193  133.4253  149.5712 H   0  0  0  0  0  0  0  0  0  0  0  0
  147.6476  132.2152  150.7997 H   0  0  0  0  0  0  0  0  0  0  0  0
  145.0347  133.3433  148.4626 H   0  0  0  0  0  0  0  0  0  0  0  0
  143.3079  131.3711  148.7414 H   0  0  0  0  0  0  0  0  0  0  0  0
  142.6173  132.3626  150.0096 H   0  0  0  0  0  0  0  0  0  0  0  0
  141.8109  133.5431  148.5049 H   0  0  0  0  0  0  0  0  0  0  0  0
  1  2  1  0  0  0  0
  1 21  1  0  0  0  0
  1 22  1  0  0  0  0
  1 23  1  0  0  0  0
  2 19  1  0  0  0  0
  2  3  2  0  0  0  0
  3  4  1  0  0  0  0
  3 24  1  0  0  0  0
  4  5  1  0  0  0  0
  4 18  2  0  0  0  0
  5  6  1  0  0  0  0
  5 25  1  0  0  0  0
  5 26  1  0  0  0  0
  6  7  2  0  0  0  0
  6  8  1  0  0  0  0
  8  9  1  0  0  0  0
  8 27  1  0  0  0  0
  9 15  1  0  0  0  0
  9 10  1  0  0  0  0
  9 28  1  0  0  0  0
 10 14  1  0  0  0  0
 10 11  1  0  0  0  0
 10 29  1  0  0  0  0
 11 12  1  0  0  0  0
 11 30  1  0  0  0  0
 11 31  1  0  0  0  0
 12 13  1  0  0  0  0
 12 32  1  0  0  0  0
 12 33  1  0  0  0  0
 13 14  1  0  0  0  0
 13 15  1  0  0  0  0
 13 34  1  0  0  0  0
 14 35  1  0  0  0  0
 14 36  1  0  0  0  0
 15 16  1  0  0  0  0
 15 37  1  0  0  0  0
 16 17  1  0  0  0  0
 16 38  1  0  0  0  0
 16 39  1  0  0  0  0
 17 40  1  0  0  0  0
 18 19  1  0  0  0  0
 19 20  1  0  0  0  0
M  END
> <s_m_source_file>
AV-unprocessed.smi

> <i_m_source_file_index>
2881

> <i_lp_mmshare_version>
43012

> <i_f3d_flags>
0

> <s_epik_input>
W0NIM11jMVtjSF1jKG5bbkhdMSlbQ0gyXUMoPU8pW05IXVtDQEhdKFtDQEBIXTIzKVtDQEhdKFtDSDJdW09IXSlbQ0BASF0oW0NIMl0zKVtDSDJdW0NIMl0y

> <s_epik_cmdline>
J2VwaWtfcHl0aG9uJywgJy1waCcsICc3LjAnLCAnLXRuJywgJzgnLCAnLW1hJywgJzIwMCcsICctbWV0YWxfYmluZGluZycsICctaW1hZScsICc8aW5maWxlLm1hZT4nLCAnLW9tYWUnLCAnPG91dGZpbGUubWFlPic=

> <r_lp_tautomer_probability>
0.5

> <r_epik_Ionization_Penalty>
9.4349e-05

> <r_epik_Ionization_Penalty_Charging>
0

> <r_epik_Ionization_Penalty_Neutral>
9.4349e-05

> <r_epik_State_Penalty>
0.41068

> <r_epik_Charging_Adjusted_Penalty>
0.41068

> <i_epik_Tot_Q>
0

> <i_epik_Tot_abs_Q>
0

> <r_epik_Metal_State_Penalty>
0.4107

> <b_epik_Metal_Only>
0

> <s_lp_Force_Field>
OPLS_2005

> <r_lp_Energy>
48.3908

> <b_lp_Chiralities_Consistent>
1

> <s_lp_Variant>
AV-unprocessed.smi:2881-2

> <Gold.Version>
5.8.1

> <Gold.Id.Protein>
6NUR|6NUR_protein|mol2

> <Gold.PLP.Fitness>
43.9577

> <Gold.PLP.PLP>
-37.2951

> <Gold.PLP.part.hbond>
-4.7539

> <Gold.PLP.part.metal>
0.0000

> <Gold.PLP.part.buried>
-1.0324

> <Gold.PLP.part.nonpolar>
-31.1499

> <Gold.PLP.part.repulsive>
0.2908

> <Gold.PLP.ligand.clash>
0.0000

> <Gold.PLP.ligand.torsion>
0.8698

> <Gold.PLP.Chemscore.Hbond>
2.7963

> <Gold.PLP.Chemscore.CHOScore>
0.0000

> <Gold.PLP.Chemscore.Metal>
0.0000

> <Gold.Chemscore.Hbonds>
donor molecule, donor type, donor heavy atom, donor atom, acceptor molecule, acceptor atom, score
      L1  H     8    27       P1 10186  0.78
      L1  H    17    40       P1 10186  1.00
      L1  H    19    20       P1 10175  1.00

> <Gold.PLP.Chemscore.Internal.Correction>
0.0134

> <Gold.Rescore>
     Score         DG    S(hbond)    S(metal)    S(lipo)     H(rot)  DE(clash)    DE(int)     intcor
     15.05     -20.84       2.57        0.00     107.66       2.28       2.79       3.00       ----

> <Gold.Chemscore.Fitness>
15.0501

> <Gold.Chemscore.DG>
-20.8391

> <Gold.Chemscore.ZeroCoef>
-5.4800

> <Gold.Chemscore.Hbond>
2.5714

> <Gold.Chemscore.Metal>
0.0000

> <Gold.Chemscore.Lipo>
107.6570

> <Gold.Chemscore.Internal_Hbond>
0.0000

> <Gold.Chemscore.DEClash>
2.7891

> <Gold.Chemscore.DEInternal>
2.9999

> <Gold.Chemscore.Rot>
2.2755

> <Gold.Chemscore.Internal.Correction>
   9.000000E+99

> <Gold.Chemscore.Hbonds>
donor molecule, donor type, donor heavy atom, donor atom, acceptor molecule, acceptor atom, score
      L1  H     8    27       P1 10186  0.49
      L1  H    17    40       P1 10186  0.94
      L1  H    19    20       P1 10175  0.88

> <Gold.Chemscore.Hbond.Weighted>
-8.5885

> <Gold.Chemscore.Metal.Weighted>
-0.0000

> <Gold.Chemscore.Lipo.Weighted>
-12.5959

> <Gold.Chemscore.Internal_Hbond.Weighted>
0.0000

> <Gold.Chemscore.DEClash.Weighted>
2.7891

> <Gold.Chemscore.DEInternal.Weighted>
2.9999

> <Gold.Chemscore.Rot.Weighted>
5.8252

> <Gold.Chemscore.Internal.Correction.Weighted>
   9.000000E+99

> <Gold.Protein.RotatedTorsions>
[ 6907 6896 6895 6894 ] final -144.98 input  -60.11 | X-H torsion
[ 7974 7965 7964 7962 ] final -169.23 input  175.53 | X-H torsion
[ 8008 7997 7996 7995 ] final  -79.31 input   59.86 | X-H torsion
[ 10167 10162 10161 10158 ] final   75.73 input  -65.29 | X-H torsion
[ 10718 10713 10712 10709 ] final -138.50 input   66.30 | X-H torsion
[ 10763 10752 10751 10750 ] final -114.78 input  -60.55 | X-H torsion
[ 11005 11000 10999 10996 ] final -112.92 input  -57.11 | X-H torsion

> <Gold.Protein.ActiveResidues>
 VAL166  LYS551  ARG553  GLY616  TRP617  ASP618  TYR619  PRO620  LYS621  CYS622 
 ASP623  PHE694  ASN695  SER759  ASP760  ASP761  ALA762  ILE779  LEU786  VAL792 
 PHE793  MET794  SER795  GLU796  ALA797  LYS798  CYS799  TRP800  GLU811  SER814 

> <Gold.Protein.RotatedAtoms>
  151.1215  133.5100  159.2601 H   0  0  0  0  0  0  0  0  0  0  0  0  # atno 6907 bound_to 6896
  151.1856  135.0380  159.8821 H   0  0  0  0  0  0  0  0  0  0  0  0  # atno 6908 bound_to 6896
  152.5456  134.1062  159.8392 H   0  0  0  0  0  0  0  0  0  0  0  0  # atno 6909 bound_to 6896
  144.7189  140.2252  143.6311 H   0  0  0  0  0  0  0  0  0  0  0  0  # atno 7974 bound_to 7965
  154.5772  140.0680  156.9052 H   0  0  0  0  0  0  0  0  0  0  0  0  # atno 8008 bound_to 7997
  155.2527  140.3353  155.4262 H   0  0  0  0  0  0  0  0  0  0  0  0  # atno 8009 bound_to 7997
  156.2163  140.1780  156.7566 H   0  0  0  0  0  0  0  0  0  0  0  0  # atno 8010 bound_to 7997
  139.9998  144.5694  150.7746 H   0  0  0  0  0  0  0  0  0  0  0  0  # atno 10167 bound_to 10162
  156.3001  130.7424  151.1473 H   0  0  0  0  0  0  0  0  0  0  0  0  # atno 10718 bound_to 10713
  154.8454  135.4405  154.1560 H   0  0  0  0  0  0  0  0  0  0  0  0  # atno 10763 bound_to 10752
  153.2709  135.6945  153.7488 H   0  0  0  0  0  0  0  0  0  0  0  0  # atno 10764 bound_to 10752
  153.6729  135.3416  155.3133 H   0  0  0  0  0  0  0  0  0  0  0  0  # atno 10765 bound_to 10752
  141.0646  133.9480  157.2603 H   0  0  0  0  0  0  0  0  0  0  0  0  # atno 11005 bound_to 11000
  145.8463  139.2154  143.1798 LP  0  0  0  0  0  0  0  0  0  0  0  0  # atno 17320 bound_to 7965
  146.0301  140.8266  142.9880 LP  0  0  0  0  0  0  0  0  0  0  0  0  # atno 17321 bound_to 7965
  140.7423  143.2830  151.3544 LP  0  0  0  0  0  0  0  0  0  0  0  0  # atno 17342 bound_to 10162
  139.6280  144.0777  152.2451 LP  0  0  0  0  0  0  0  0  0  0  0  0  # atno 17343 bound_to 10162
  157.7365  131.0561  150.5406 LP  0  0  0  0  0  0  0  0  0  0  0  0  # atno 17370 bound_to 10713
  156.5533  130.4237  149.6097 LP  0  0  0  0  0  0  0  0  0  0  0  0  # atno 17371 bound_to 10713
  139.9464  135.0183  156.8864 LP  0  0  0  0  0  0  0  0  0  0  0  0  # atno 17394 bound_to 11000
  140.5800  134.0361  155.7460 LP  0  0  0  0  0  0  0  0  0  0  0  0  # atno 17395 bound_to 11000

$$$$
