AV-unprocessed.smi:2032|AV-procd|sdf|8253|dock1
  -GOLD-   2272010523D 1   1.00000     0.00000
 Structure written by MMmdl.
 42 43  0  0  0  0  0  0  0  0  3 V2000
  144.4633  134.8327  150.8696 C   0  0  0  0  0  0  0  0  0  0  0  0
  145.4803  135.6114  151.7113 C   0  0  2  0  0  0  0  0  0  0  0  0
  146.1282  134.7277  152.7936 C   0  0  0  0  0  0  0  0  0  0  0  0
  147.0365  135.5273  153.6585 N   0  3  2  0  0  0  0  0  0  0  0  0
  147.8030  134.7642  154.6956 C   0  0  1  0  0  0  0  0  0  0  0  0
  148.4193  133.4436  154.1740 C   0  0  0  0  0  0  0  0  0  0  0  0
  148.9060  135.6699  155.3031 C   0  0  0  0  0  0  0  0  0  0  0  0
  148.5031  136.2938  156.5594 N   0  0  0  0  0  0  0  0  0  0  0  0
  148.7646  135.8184  157.7850 C   0  0  0  0  0  0  0  0  0  0  0  0
  149.3778  134.7560  157.9136 O   0  0  0  0  0  0  0  0  0  0  0  0
  148.3071  136.6076  158.7822 N   0  5  0  0  0  0  0  0  0  0  0  0
  147.9343  136.0631  159.9517 C   0  0  0  0  0  0  0  0  0  0  0  0
  147.7565  136.7798  161.0674 N   0  0  0  0  0  0  0  0  0  0  0  0
  147.3751  136.0090  162.1672 C   0  0  0  0  0  0  0  0  0  0  0  0
  147.2684  134.6731  161.8842 C   0  0  0  0  0  0  0  0  0  0  0  0
  147.6469  134.3411  160.2180 S   0  0  0  0  0  0  0  0  0  0  0  0
  146.2819  136.6690  154.2416 C   0  0  0  0  0  0  0  0  0  0  0  0
  145.6148  137.5249  153.1493 C   0  0  1  0  0  0  0  0  0  0  0  0
  146.6104  138.3760  152.3405 C   0  0  0  0  0  0  0  0  0  0  0  0
  144.7977  136.7027  152.3192 O   0  0  0  0  0  0  0  0  0  0  0  0
  144.9346  133.9890  150.3650 H   0  0  0  0  0  0  0  0  0  0  0  0
  144.0202  135.4708  150.1044 H   0  0  0  0  0  0  0  0  0  0  0  0
  143.6538  134.4433  151.4877 H   0  0  0  0  0  0  0  0  0  0  0  0
  146.2517  135.9896  151.0401 H   0  0  0  0  0  0  0  0  0  0  0  0
  145.3630  134.2514  153.4092 H   0  0  0  0  0  0  0  0  0  0  0  0
  146.6764  133.9377  152.2810 H   0  0  0  0  0  0  0  0  0  0  0  0
  147.0990  134.4857  155.4814 H   0  0  0  0  0  0  0  0  0  0  0  0
  148.9801  132.9272  154.9531 H   0  0  0  0  0  0  0  0  0  0  0  0
  149.1040  133.6217  153.3442 H   0  0  0  0  0  0  0  0  0  0  0  0
  147.6557  132.7383  153.8459 H   0  0  0  0  0  0  0  0  0  0  0  0
  149.8003  135.0774  155.4989 H   0  0  0  0  0  0  0  0  0  0  0  0
  149.2140  136.4575  154.6163 H   0  0  0  0  0  0  0  0  0  0  0  0
  147.9937  137.1636  156.4985 H   0  0  0  0  0  0  0  0  0  0  0  0
  147.2017  136.4949  163.1157 H   0  0  0  0  0  0  0  0  0  0  0  0
  146.9940  133.8682  162.5494 H   0  0  0  0  0  0  0  0  0  0  0  0
  145.5146  136.2786  154.9125 H   0  0  0  0  0  0  0  0  0  0  0  0
  146.9243  137.3040  154.8498 H   0  0  0  0  0  0  0  0  0  0  0  0
  144.9354  138.2205  153.6429 H   0  0  0  0  0  0  0  0  0  0  0  0
  147.1197  139.0910  152.9870 H   0  0  0  0  0  0  0  0  0  0  0  0
  146.0964  138.9430  151.5642 H   0  0  0  0  0  0  0  0  0  0  0  0
  147.3798  137.7715  151.8604 H   0  0  0  0  0  0  0  0  0  0  0  0
  147.7298  135.9192  153.0374 H   0  0  0  0  0  0  0  0  0  0  0  0
  1  2  1  0  0  0  0
  1 21  1  0  0  0  0
  1 22  1  0  0  0  0
  1 23  1  0  0  0  0
  2 20  1  0  0  0  0
  2  3  1  0  0  0  0
  2 24  1  0  0  0  0
  3  4  1  0  0  0  0
  3 25  1  0  0  0  0
  3 26  1  0  0  0  0
  4  5  1  0  0  0  0
  4 17  1  0  0  0  0
  4 42  1  0  0  0  0
  5  6  1  0  0  0  0
  5  7  1  0  0  0  0
  5 27  1  0  0  0  0
  6 28  1  0  0  0  0
  6 29  1  0  0  0  0
  6 30  1  0  0  0  0
  7  8  1  0  0  0  0
  7 31  1  0  0  0  0
  7 32  1  0  0  0  0
  8  9  1  0  0  0  0
  8 33  1  0  0  0  0
  9 10  2  0  0  0  0
  9 11  1  0  0  0  0
 11 12  1  0  0  0  0
 12 16  1  0  0  0  0
 12 13  2  0  0  0  0
 13 14  1  0  0  0  0
 14 15  2  0  0  0  0
 14 34  1  0  0  0  0
 15 16  1  0  0  0  0
 15 35  1  0  0  0  0
 17 18  1  0  0  0  0
 17 36  1  0  0  0  0
 17 37  1  0  0  0  0
 18 19  1  0  0  0  0
 18 20  1  0  0  0  0
 18 38  1  0  0  0  0
 19 39  1  0  0  0  0
 19 40  1  0  0  0  0
 19 41  1  0  0  0  0
M  CHG  1   4   1
M  CHG  1  11  -1
M  END
> <s_m_source_file>
AV-unprocessed.smi

> <i_m_source_file_index>
2032

> <i_lp_mmshare_version>
43012

> <i_f3d_flags>
0

> <s_epik_input>
W0NIM11bQ0BASF0xW0NIMl1OKFtDSDJdW0NASF0oTzEpW0NIM10pW0NASF0oW0NIM10pW0NIMl1bTkhdQyg9TylbTkhdYzJuW2NIXVtjSF1zMg==

> <s_epik_cmdline>
J2VwaWtfcHl0aG9uJywgJy1waCcsICc3LjAnLCAnLXRuJywgJzgnLCAnLW1hJywgJzIwMCcsICctbWV0YWxfYmluZGluZycsICctaW1hZScsICc8aW5maWxlLm1hZT4nLCAnLW9tYWUnLCAnPG91dGZpbGUubWFlPic=

> <r_lp_tautomer_probability>
0.999

> <r_epik_Ionization_Penalty>
6.71699

> <r_epik_Ionization_Penalty_Charging>
5.88592

> <r_epik_Ionization_Penalty_Neutral>
0.831074

> <r_epik_State_Penalty>
6.08365

> <r_epik_Charging_Adjusted_Penalty>
11.9696

> <i_epik_Tot_Q>
0

> <i_epik_Tot_abs_Q>
2

> <r_epik_Metal_State_Penalty>
2.0947

> <b_epik_Metal_Only>
1

> <s_lp_Force_Field>
OPLS_2005

> <r_lp_Energy>
13.0518

> <b_lp_Chiralities_Consistent>
1

> <s_lp_Variant>
AV-unprocessed.smi:2032-23

> <Gold.Version>
5.8.1

> <Gold.Id.Protein>
6NUR|6NUR_protein|mol2

> <Gold.PLP.Fitness>
42.1270

> <Gold.PLP.PLP>
-29.6355

> <Gold.PLP.part.hbond>
-4.0000

> <Gold.PLP.part.metal>
0.0000

> <Gold.PLP.part.buried>
-4.2150

> <Gold.PLP.part.nonpolar>
-22.3569

> <Gold.PLP.part.repulsive>
0.1838

> <Gold.PLP.ligand.clash>
0.0000

> <Gold.PLP.ligand.torsion>
1.1008

> <Gold.PLP.Chemscore.Hbond>
4.8720

> <Gold.PLP.Chemscore.CHOScore>
0.0000

> <Gold.PLP.Chemscore.Metal>
0.0000

> <Gold.Chemscore.Hbonds>
donor molecule, donor type, donor heavy atom, donor atom, acceptor molecule, acceptor atom, score
      L1  H     4    42       P1  7948  2.00
      P1  H  6896  6907       L1    10  0.98
      P1  H  6931  6943       L1    13  0.78
      P1  H  6934  6947       L1    13  0.27

> <Gold.PLP.Chemscore.Internal.Correction>
0.0770

> <Gold.Rescore>
     Score         DG    S(hbond)    S(metal)    S(lipo)     H(rot)  DE(clash)    DE(int)     intcor
     17.16     -19.50       3.32        0.00      59.76       1.58       0.00       2.34       ----

> <Gold.Chemscore.Fitness>
17.1631

> <Gold.Chemscore.DG>
-19.5050

> <Gold.Chemscore.ZeroCoef>
-5.4800

> <Gold.Chemscore.Hbond>
3.3160

> <Gold.Chemscore.Metal>
0.0000

> <Gold.Chemscore.Lipo>
59.7616

> <Gold.Chemscore.Internal_Hbond>
0.0000

> <Gold.Chemscore.DEClash>
0.0013

> <Gold.Chemscore.DEInternal>
2.3406

> <Gold.Chemscore.Rot>
1.5791

> <Gold.Chemscore.Internal.Correction>
   9.000000E+99

> <Gold.Chemscore.Hbonds>
donor molecule, donor type, donor heavy atom, donor atom, acceptor molecule, acceptor atom, score
      L1  H     4    42       P1  7948  1.00
      P1  H  6896  6907       L1    10  0.90
      P1  H  6931  6943       L1    13  0.34
      P1  H  6934  6947       L1    13  0.25

> <Gold.Chemscore.Hbond.Weighted>
-11.0754

> <Gold.Chemscore.Metal.Weighted>
-0.0000

> <Gold.Chemscore.Lipo.Weighted>
-6.9921

> <Gold.Chemscore.Internal_Hbond.Weighted>
0.0000

> <Gold.Chemscore.DEClash.Weighted>
0.0013

> <Gold.Chemscore.DEInternal.Weighted>
2.3406

> <Gold.Chemscore.Rot.Weighted>
4.0425

> <Gold.Chemscore.Internal.Correction.Weighted>
   9.000000E+99

> <Gold.Protein.RotatedTorsions>
[ 6907 6896 6895 6894 ] final  -78.50 input  -60.11 | X-H torsion
[ 7974 7965 7964 7962 ] final  142.36 input  175.53 | X-H torsion
[ 8008 7997 7996 7995 ] final  -29.52 input   59.86 | X-H torsion
[ 10167 10162 10161 10158 ] final -152.59 input  -65.29 | X-H torsion
[ 10718 10713 10712 10709 ] final  -62.81 input   66.30 | X-H torsion
[ 10763 10752 10751 10750 ] final -153.57 input  -60.55 | X-H torsion
[ 11005 11000 10999 10996 ] final  122.27 input  -57.11 | X-H torsion

> <Gold.Protein.ActiveResidues>
 VAL166  LYS551  ARG553  GLY616  TRP617  ASP618  TYR619  PRO620  LYS621  CYS622 
 ASP623  PHE694  ASN695  SER759  ASP760  ASP761  ALA762  ILE779  LEU786  VAL792 
 PHE793  MET794  SER795  GLU796  ALA797  LYS798  CYS799  TRP800  GLU811  SER814 

> <Gold.Protein.RotatedAtoms>
  150.6971  134.4262  159.5227 H   0  0  0  0  0  0  0  0  0  0  0  0  # atno 6907 bound_to 6896
  152.1996  134.8597  160.0518 H   0  0  0  0  0  0  0  0  0  0  0  0  # atno 6908 bound_to 6896
  151.9522  133.3634  159.4041 H   0  0  0  0  0  0  0  0  0  0  0  0  # atno 6909 bound_to 6896
  144.9014  139.5417  143.5752 H   0  0  0  0  0  0  0  0  0  0  0  0  # atno 7974 bound_to 7965
  154.4287  140.1816  156.1261 H   0  0  0  0  0  0  0  0  0  0  0  0  # atno 8008 bound_to 7997
  156.0105  140.3351  155.6911 H   0  0  0  0  0  0  0  0  0  0  0  0  # atno 8009 bound_to 7997
  155.6117  140.0651  157.2695 H   0  0  0  0  0  0  0  0  0  0  0  0  # atno 8010 bound_to 7997
  139.7169  143.9020  152.2489 H   0  0  0  0  0  0  0  0  0  0  0  0  # atno 10167 bound_to 10162
  156.0831  130.4213  150.1187 H   0  0  0  0  0  0  0  0  0  0  0  0  # atno 10718 bound_to 10713
  154.7919  135.3210  154.7758 H   0  0  0  0  0  0  0  0  0  0  0  0  # atno 10763 bound_to 10752
  153.8445  135.6868  153.4803 H   0  0  0  0  0  0  0  0  0  0  0  0  # atno 10764 bound_to 10752
  153.1592  135.4667  154.9689 H   0  0  0  0  0  0  0  0  0  0  0  0  # atno 10765 bound_to 10752
  139.9261  134.9641  156.8084 H   0  0  0  0  0  0  0  0  0  0  0  0  # atno 11005 bound_to 11000
  146.3110  139.7748  142.9019 LP  0  0  0  0  0  0  0  0  0  0  0  0  # atno 17320 bound_to 7965
  145.3609  141.0325  143.3285 LP  0  0  0  0  0  0  0  0  0  0  0  0  # atno 17321 bound_to 7965
  139.8904  144.6968  150.8776 LP  0  0  0  0  0  0  0  0  0  0  0  0  # atno 17342 bound_to 10162
  140.7745  143.3590  151.1864 LP  0  0  0  0  0  0  0  0  0  0  0  0  # atno 17343 bound_to 10162
  156.9214  130.9684  151.3548 LP  0  0  0  0  0  0  0  0  0  0  0  0  # atno 17370 bound_to 10713
  157.5956  130.8475  149.8724 LP  0  0  0  0  0  0  0  0  0  0  0  0  # atno 17371 bound_to 10713
  140.6332  133.9886  155.7672 LP  0  0  0  0  0  0  0  0  0  0  0  0  # atno 17394 bound_to 11000
  141.0819  134.0049  157.3372 LP  0  0  0  0  0  0  0  0  0  0  0  0  # atno 17395 bound_to 11000

$$$$
