AV-unprocessed.smi:1878|AV-procd|sdf|7630|dock1
  -GOLD-   22720 9353D 1   1.00000     0.00000
 Structure written by MMmdl.
 35 36  0  0  0  0  0  0  0  0  3 V2000
  150.8439  136.9811  156.4475 O   0  0  0  0  0  0  0  0  0  0  0  0
  150.3435  137.2524  155.3557 C   0  0  0  0  0  0  0  0  0  0  0  0
  150.0600  136.2587  154.5037 N   0  0  0  0  0  0  0  0  0  0  0  0
  150.2990  134.8420  154.7540 C   0  0  0  0  0  0  0  0  0  0  0  0
  148.9988  134.0325  154.6447 C   0  0  0  0  0  0  0  0  0  0  0  0
  147.9567  134.8591  154.7265 F   0  0  0  0  0  0  0  0  0  0  0  0
  148.9467  133.3928  153.4761 F   0  0  0  0  0  0  0  0  0  0  0  0
  148.9193  133.1446  155.6360 F   0  0  0  0  0  0  0  0  0  0  0  0
  150.0218  138.4769  154.8663 N   0  5  0  0  0  0  0  0  0  0  0  0
  150.2294  139.6718  155.4607 C   0  0  0  0  0  0  0  0  0  0  0  0
  151.1760  139.7100  156.5118 C   0  0  0  0  0  0  0  0  0  0  0  0
  151.4610  140.9084  157.1958 C   0  0  0  0  0  0  0  0  0  0  0  0
  150.7897  142.0913  156.8206 C   0  0  0  0  0  0  0  0  0  0  0  0
  150.9942  143.3360  157.4321 N   0  0  0  0  0  0  0  0  0  0  0  0
  152.3294  143.8887  157.2756 C   0  0  0  0  0  0  0  0  0  0  0  0
  152.4466  144.9837  158.3389 C   0  0  0  0  0  0  0  0  0  0  0  0
  151.3872  144.6284  159.3889 C   0  0  0  0  0  0  0  0  0  0  0  0
  150.7161  143.3588  158.8582 C   0  0  0  0  0  0  0  0  0  0  0  0
  149.8895  142.0368  155.8191 N   0  3  0  0  0  0  0  0  0  0  0  0
  149.5934  140.9040  155.1457 C   0  0  0  0  0  0  0  0  0  0  0  0
  149.6488  136.5035  153.6148 H   0  0  0  0  0  0  0  0  0  0  0  0
  151.0307  134.4677  154.0363 H   0  0  0  0  0  0  0  0  0  0  0  0
  150.7309  134.7184  155.7483 H   0  0  0  0  0  0  0  0  0  0  0  0
  151.6935  138.8069  156.8027 H   0  0  0  0  0  0  0  0  0  0  0  0
  152.1846  140.9089  157.9973 H   0  0  0  0  0  0  0  0  0  0  0  0
  153.0882  143.1233  157.4427 H   0  0  0  0  0  0  0  0  0  0  0  0
  152.4723  144.2892  156.2715 H   0  0  0  0  0  0  0  0  0  0  0  0
  153.4513  145.0289  158.7603 H   0  0  0  0  0  0  0  0  0  0  0  0
  152.2248  145.9591  157.9041 H   0  0  0  0  0  0  0  0  0  0  0  0
  151.8194  144.4697  160.3774 H   0  0  0  0  0  0  0  0  0  0  0  0
  150.6597  145.4369  159.4707 H   0  0  0  0  0  0  0  0  0  0  0  0
  149.6422  143.3645  159.0478 H   0  0  0  0  0  0  0  0  0  0  0  0
  151.1389  142.4787  159.3452 H   0  0  0  0  0  0  0  0  0  0  0  0
  148.8504  141.0431  154.3768 H   0  0  0  0  0  0  0  0  0  0  0  0
  149.4059  142.8949  155.5544 H   0  0  0  0  0  0  0  0  0  0  0  0
  1  2  2  0  0  0  0
  2  3  1  0  0  0  0
  2  9  1  0  0  0  0
  3  4  1  0  0  0  0
  3 21  1  0  0  0  0
  4  5  1  0  0  0  0
  4 22  1  0  0  0  0
  4 23  1  0  0  0  0
  5  6  1  0  0  0  0
  5  7  1  0  0  0  0
  5  8  1  0  0  0  0
  9 10  1  0  0  0  0
 10 20  1  0  0  0  0
 10 11  2  0  0  0  0
 11 12  1  0  0  0  0
 11 24  1  0  0  0  0
 12 13  2  0  0  0  0
 12 25  1  0  0  0  0
 13 14  1  0  0  0  0
 13 19  1  0  0  0  0
 14 18  1  0  0  0  0
 14 15  1  0  0  0  0
 15 16  1  0  0  0  0
 15 26  1  0  0  0  0
 15 27  1  0  0  0  0
 16 17  1  0  0  0  0
 16 28  1  0  0  0  0
 16 29  1  0  0  0  0
 17 18  1  0  0  0  0
 17 30  1  0  0  0  0
 17 31  1  0  0  0  0
 18 32  1  0  0  0  0
 18 33  1  0  0  0  0
 19 20  2  0  0  0  0
 19 35  1  0  0  0  0
 20 34  1  0  0  0  0
M  CHG  1   9  -1
M  CHG  1  19   1
M  END
> <s_m_source_file>
AV-unprocessed.smi

> <i_m_source_file_index>
1878

> <i_lp_mmshare_version>
43012

> <i_f3d_flags>
0

> <s_epik_input>
RkMoRikoRilbQ0gyXVtOSF1DKD1PKVtOSF1jMVtjSF1bY0hdYyhuW2NIXTEpTjJbQ0gyXVtDSDJdW0NIMl1bQ0gyXTI=

> <s_epik_cmdline>
J2VwaWtfcHl0aG9uJywgJy1waCcsICc3LjAnLCAnLXRuJywgJzgnLCAnLW1hJywgJzIwMCcsICctbWV0YWxfYmluZGluZycsICctaW1hZScsICc8aW5maWxlLm1hZT4nLCAnLW9tYWUnLCAnPG91dGZpbGUubWFlPic=

> <r_lp_tautomer_probability>
0.999994

> <r_epik_Ionization_Penalty>
6.00991

> <r_epik_Ionization_Penalty_Charging>
6.00991

> <r_epik_Ionization_Penalty_Neutral>
1.33916e-07

> <r_epik_State_Penalty>
7.27363

> <r_epik_Charging_Adjusted_Penalty>
13.2835

> <i_epik_Tot_Q>
0

> <i_epik_Tot_abs_Q>
2

> <r_epik_Metal_State_Penalty>
3.28277

> <b_epik_Metal_Only>
1

> <s_lp_Force_Field>
OPLS_2005

> <r_lp_Energy>
31.9355

> <b_lp_Chiralities_Consistent>
1

> <s_lp_Variant>
AV-unprocessed.smi:1878-5

> <Gold.Version>
5.8.1

> <Gold.Id.Protein>
6NUR|6NUR_protein|mol2

> <Gold.PLP.Fitness>
41.9270

> <Gold.PLP.PLP>
-34.8561

> <Gold.PLP.part.hbond>
-2.6164

> <Gold.PLP.part.metal>
0.0000

> <Gold.PLP.part.buried>
-5.2556

> <Gold.PLP.part.nonpolar>
-27.8416

> <Gold.PLP.part.repulsive>
0.8167

> <Gold.PLP.ligand.clash>
0.0106

> <Gold.PLP.ligand.torsion>
1.0012

> <Gold.PLP.Chemscore.Hbond>
3.0000

> <Gold.PLP.Chemscore.CHOScore>
0.0000

> <Gold.PLP.Chemscore.Metal>
0.0000

> <Gold.Chemscore.Hbonds>
donor molecule, donor type, donor heavy atom, donor atom, acceptor molecule, acceptor atom, score
      L1  H     3    21       P1  7948  1.00
      L1  H    19    35       P1  8028  2.00

> <Gold.PLP.Chemscore.Internal.Correction>
0.0840

> <Gold.Rescore>
     Score         DG    S(hbond)    S(metal)    S(lipo)     H(rot)  DE(clash)    DE(int)     intcor
     14.16     -18.24       1.84        0.00      85.60       1.33       1.86       2.23       ----

> <Gold.Chemscore.Fitness>
14.1576

> <Gold.Chemscore.DG>
-18.2433

> <Gold.Chemscore.ZeroCoef>
-5.4800

> <Gold.Chemscore.Hbond>
1.8435

> <Gold.Chemscore.Metal>
0.0000

> <Gold.Chemscore.Lipo>
85.6016

> <Gold.Chemscore.Internal_Hbond>
0.0000

> <Gold.Chemscore.DEClash>
1.8554

> <Gold.Chemscore.DEInternal>
2.2304

> <Gold.Chemscore.Rot>
1.3317

> <Gold.Chemscore.Internal.Correction>
   9.000000E+99

> <Gold.Chemscore.Hbonds>
donor molecule, donor type, donor heavy atom, donor atom, acceptor molecule, acceptor atom, score
      L1  H     3    21       P1  7948  0.55
      L1  H    19    35       P1  8028  0.99

> <Gold.Chemscore.Hbond.Weighted>
-6.1571

> <Gold.Chemscore.Metal.Weighted>
-0.0000

> <Gold.Chemscore.Lipo.Weighted>
-10.0154

> <Gold.Chemscore.Internal_Hbond.Weighted>
0.0000

> <Gold.Chemscore.DEClash.Weighted>
1.8554

> <Gold.Chemscore.DEInternal.Weighted>
2.2304

> <Gold.Chemscore.Rot.Weighted>
3.4092

> <Gold.Chemscore.Internal.Correction.Weighted>
   9.000000E+99

> <Gold.Protein.RotatedTorsions>
[ 6907 6896 6895 6894 ] final  -91.03 input  -60.11 | X-H torsion
[ 7974 7965 7964 7962 ] final   23.11 input  175.53 | X-H torsion
[ 8008 7997 7996 7995 ] final  -63.76 input   59.86 | X-H torsion
[ 10167 10162 10161 10158 ] final  155.96 input  -65.29 | X-H torsion
[ 10718 10713 10712 10709 ] final  -79.04 input   66.30 | X-H torsion
[ 10763 10752 10751 10750 ] final  -36.14 input  -60.55 | X-H torsion
[ 11005 11000 10999 10996 ] final  121.38 input  -57.11 | X-H torsion

> <Gold.Protein.ActiveResidues>
 VAL166  LYS551  ARG553  GLY616  TRP617  ASP618  TYR619  PRO620  LYS621  CYS622 
 ASP623  PHE694  ASN695  SER759  ASP760  ASP761  ALA762  ILE779  LEU786  VAL792 
 PHE793  MET794  SER795  GLU796  ALA797  LYS798  CYS799  TRP800  GLU811  SER814 

> <Gold.Protein.RotatedAtoms>
  150.6888  134.2340  159.4445 H   0  0  0  0  0  0  0  0  0  0  0  0  # atno 6907 bound_to 6896
  152.0289  134.9777  160.0581 H   0  0  0  0  0  0  0  0  0  0  0  0  # atno 6908 bound_to 6896
  152.1324  133.4381  159.4764 H   0  0  0  0  0  0  0  0  0  0  0  0  # atno 6909 bound_to 6896
  146.1999  139.7790  142.8769 H   0  0  0  0  0  0  0  0  0  0  0  0  # atno 7974 bound_to 7965
  154.4572  140.0968  156.6792 H   0  0  0  0  0  0  0  0  0  0  0  0  # atno 8008 bound_to 7997
  155.5102  140.3476  155.4368 H   0  0  0  0  0  0  0  0  0  0  0  0  # atno 8009 bound_to 7997
  156.0801  140.1371  156.9711 H   0  0  0  0  0  0  0  0  0  0  0  0  # atno 8010 bound_to 7997
  139.4821  144.5052  151.8109 H   0  0  0  0  0  0  0  0  0  0  0  0  # atno 10167 bound_to 10162
  156.0102  130.4535  150.3588 H   0  0  0  0  0  0  0  0  0  0  0  0  # atno 10718 bound_to 10713
  153.8748  135.6827  153.4771 H   0  0  0  0  0  0  0  0  0  0  0  0  # atno 10763 bound_to 10752
  153.1267  135.4716  154.9281 H   0  0  0  0  0  0  0  0  0  0  0  0  # atno 10764 bound_to 10752
  154.7697  135.3235  154.8166 H   0  0  0  0  0  0  0  0  0  0  0  0  # atno 10765 bound_to 10752
  139.9224  134.9638  156.7950 H   0  0  0  0  0  0  0  0  0  0  0  0  # atno 11005 bound_to 11000
  145.3519  141.0309  143.3333 LP  0  0  0  0  0  0  0  0  0  0  0  0  # atno 17320 bound_to 7965
  144.8660  139.5107  143.6790 LP  0  0  0  0  0  0  0  0  0  0  0  0  # atno 17321 bound_to 7965
  140.4549  144.1803  150.5900 LP  0  0  0  0  0  0  0  0  0  0  0  0  # atno 17342 bound_to 10162
  140.4546  143.2473  151.9302 LP  0  0  0  0  0  0  0  0  0  0  0  0  # atno 17343 bound_to 10162
  157.1678  131.0361  151.2810 LP  0  0  0  0  0  0  0  0  0  0  0  0  # atno 17370 bound_to 10713
  157.4255  130.7461  149.6948 LP  0  0  0  0  0  0  0  0  0  0  0  0  # atno 17371 bound_to 10713
  140.6436  133.9796  155.7720 LP  0  0  0  0  0  0  0  0  0  0  0  0  # atno 17394 bound_to 11000
  141.0755  134.0141  157.3464 LP  0  0  0  0  0  0  0  0  0  0  0  0  # atno 17395 bound_to 11000

$$$$
