#       Name:                AV-unprocessed.smi:1898
#       Creating user name   scv26
#       Creation time:       Fri Mar 27 09:43:48 2020


#       File generated by GOLD software.
#

@<TRIPOS>MOLECULE
AV-unprocessed.smi:1898
    54    55     1
SMALL
NO_CHARGES


@<TRIPOS>ATOM
      1 ****        -5.0901  -4.3146  -1.4769 C.3            1 S1                 0.0000
      2 ****        -4.6959  -3.3759  -0.4381 N.am           1 S1                 0.0000
      3 ****        -5.2377  -2.1603  -0.2743 C.2            1 S1                 0.0000
      4 ****        -6.1398  -1.7201  -0.9864 O.2            1 S1                 0.0000
      5 ****        -4.6803  -1.3089   0.8727 C.3            1 S1                 0.0000
      6 ****        -3.2248  -1.0389   0.7981 N.3            1 S1                 0.0000
      7 ****        -2.8129  -0.2936   1.9926 C.3            1 S1                 0.0000
      8 ****        -1.2867  -0.0959   2.0146 C.3            1 S1                 0.0000
      9 ****        -0.8055   0.6410   0.7571 C.3            1 S1                 0.0000
     10 ****         0.6527   0.7157   0.7491 N.am           1 S1                 0.0000
     11 ****         1.3768   1.5988   0.0469 C.2            1 S1                 0.0000
     12 ****         0.8792   2.4606  -0.6775 O.2            1 S1                 0.0000
     13 ****         2.6931   1.3986   0.2276 N.am           1 S1                 0.0000
     14 ****         3.7870   2.0962  -0.3558 C.ar           1 S1                 0.0000
     15 ****         3.6983   3.4156  -0.8627 C.ar           1 S1                 0.0000
     16 ****         4.8488   4.0183  -1.4040 C.ar           1 S1                 0.0000
     17 ****         6.0491   3.2849  -1.4115 C.ar           1 S1                 0.0000
     18 ****         6.1529   2.0335  -0.9193 N.ar           1 S1                 0.0000
     19 ****         5.0447   1.4499  -0.3972 C.ar           1 S1                 0.0000
     20 ****         5.1543   0.1693   0.1109 O.3            1 S1                 0.0000
     21 ****         6.4233  -0.4739   0.0658 C.3            1 S1                 0.0000
     22 ****        -1.3261  -0.1032  -0.4833 C.3            1 S1                 0.0000
     23 ****        -2.8506  -0.3000  -0.4171 C.3            1 S1                 0.0000
     24 ****        -4.4974  -5.2259  -1.4003 H              1 S1                 0.0000
     25 ****        -4.9291  -3.8860  -2.4668 H              1 S1                 0.0000
     26 ****        -6.1430  -4.5824  -1.3804 H              1 S1                 0.0000
     27 ****        -3.9570  -3.6595   0.1895 H              1 S1                 0.0000
     28 ****        -5.2275  -0.3649   0.9091 H              1 S1                 0.0000
     29 ****        -4.9053  -1.8327   1.8030 H              1 S1                 0.0000
     30 ****        -3.3185   0.6732   2.0307 H              1 S1                 0.0000
     31 ****        -3.1090  -0.8409   2.8887 H              1 S1                 0.0000
     32 ****        -1.0015   0.4634   2.9065 H              1 S1                 0.0000
     33 ****        -0.7968  -1.0680   2.0895 H              1 S1                 0.0000
     34 ****        -1.2181   1.6518   0.7696 H              1 S1                 0.0000
     35 ****         1.1453   0.0401   1.3148 H              1 S1                 0.0000
     36 ****         2.9467   0.6015   0.7931 H              1 S1                 0.0000
     37 ****         2.7804   3.9815  -0.8354 H              1 S1                 0.0000
     38 ****         4.8123   5.0227  -1.7992 H              1 S1                 0.0000
     39 ****         6.9515   3.7171  -1.8177 H              1 S1                 0.0000
     40 ****         6.3408  -1.4648   0.5120 H              1 S1                 0.0000
     41 ****         7.1729   0.0812   0.6316 H              1 S1                 0.0000
     42 ****         6.7700  -0.6011  -0.9607 H              1 S1                 0.0000
     43 ****        -1.0692   0.4475  -1.3888 H              1 S1                 0.0000
     44 ****        -0.8394  -1.0763  -0.5662 H              1 S1                 0.0000
     45 ****        -3.1571  -0.8395  -1.3131 H              1 S1                 0.0000
     46 ****        -3.3587   0.6657  -0.4418 H              1 S1                 0.0000
     47 ****        -6.5052  -2.2773  -1.7321 LP             1 S1                 0.0000
     48 ****        -6.5075  -0.8053  -0.8193 LP             1 S1                 0.0000
     49 ****        -2.7506  -1.9183   0.7575 LP             1 S1                 0.0000
     50 ****        -0.1148   2.5275  -0.7647 LP             1 S1                 0.0000
     51 ****         1.4688   3.0939  -1.1787 LP             1 S1                 0.0000
     52 ****         7.0263   1.5470  -0.9387 LP             1 S1                 0.0000
     53 ****         4.5137  -0.4058  -0.3979 LP             1 S1                 0.0000
     54 ****         4.8771   0.2081   1.0710 LP             1 S1                 0.0000
@<TRIPOS>BOND
    1    1    2 1     
    2    1   24 1     
    3    1   25 1     
    4    1   26 1     
    5    2    3 am    
    6    2   27 1     
    7    3    4 2     
    8    3    5 1     
    9    5    6 1     
   10    5   28 1     
   11    5   29 1     
   12    6   23 1     
   13    6    7 1     
   14    7    8 1     
   15    7   30 1     
   16    7   31 1     
   17    8    9 1     
   18    8   32 1     
   19    8   33 1     
   20    9   10 1     
   21    9   22 1     
   22    9   34 1     
   23   10   11 am    
   24   10   35 1     
   25   11   12 2     
   26   11   13 am    
   27   13   14 1     
   28   13   36 1     
   29   14   19 ar    
   30   14   15 ar    
   31   15   16 ar    
   32   15   37 1     
   33   16   17 ar    
   34   16   38 1     
   35   17   18 ar    
   36   17   39 1     
   37   18   19 ar    
   38   19   20 1     
   39   20   21 1     
   40   21   40 1     
   41   21   41 1     
   42   21   42 1     
   43   22   23 1     
   44   22   43 1     
   45   22   44 1     
   46   23   45 1     
   47   23   46 1     
   48    4   47 1     
   49    4   48 1     
   50    6   49 1     
   51   12   50 1     
   52   12   51 1     
   53   18   52 1     
   54   20   53 1     
   55   20   54 1     
@<TRIPOS>SUBSTRUCTURE
      1 S1             1
@<TRIPOS>SET
LONE_PAIRS      STATIC     ATOMS    <user>   **** ""
8 47 48 49 50 51 52 53 54
DONOR_HYDROGENS      STATIC     ATOMS    <user>   **** ""
3 27 35 36
ATOM$BLUE        STATIC     ATOMS    COLORGROUP SYSTEM
8 47 48 49 50 51 52 53 54
ATOM$RED        STATIC     ATOMS    COLORGROUP SYSTEM
3 27 35 36
