AV-unprocessed.smi:84|AV-procd|sdf|808|dock5
  -GOLD-   2262017203D 1   1.00000     0.00000
 Structure written by MMmdl.
 51 55  0  0  0  0  0  0  0  0  1 V2000
  151.7259  145.9140  159.1406 O   0  0  0  0  0  0  0  0  0  0  0  0
  151.2984  144.7764  158.9595 C   0  0  0  0  0  0  0  0  0  0  0  0
  152.1703  143.5318  158.9941 C   0  0  0  0  0  0  0  0  0  0  0  0
  151.2734  142.4644  158.3373 C   0  0  1  0  0  0  0  0  0  0  0  0
  151.5521  142.2861  156.8331 C   0  0  0  0  0  0  0  0  0  0  0  0
  151.0226  140.8844  156.5351 C   0  0  0  0  0  0  0  0  0  0  0  0
  151.2513  140.1375  157.7626 N   0  0  0  0  0  0  0  0  0  0  0  0
  150.8085  138.8644  157.9283 C   0  0  0  0  0  0  0  0  0  0  0  0
  150.5693  138.4191  159.1904 N   0  0  0  0  0  0  0  0  0  0  0  0
  150.1372  137.1730  159.4010 C   0  0  0  0  0  0  0  0  0  0  0  0
  149.8730  136.2208  158.5059 N   0  0  0  0  0  0  0  0  0  0  0  0
  150.0926  136.6620  157.2347 C   0  0  0  0  0  0  0  0  0  0  0  0
  150.5604  137.9543  156.8580 C   0  0  0  0  0  0  0  0  0  0  0  0
  150.6645  138.0251  155.4726 N   0  0  0  0  0  0  0  0  0  0  0  0
  150.2965  136.8438  155.0589 C   0  0  0  0  0  0  0  0  0  0  0  0
  149.9076  135.9721  156.0495 N   0  0  0  0  0  0  0  0  0  0  0  0
  149.4949  134.6097  155.8807 C   0  0  0  0  0  0  0  0  0  0  0  0
  150.3819  133.5948  155.1553 C   0  0  0  0  0  0  0  0  0  0  0  0
  149.1172  132.8739  154.6353 C   0  0  0  0  0  0  0  0  0  0  0  0
  149.1751  132.4067  153.1716 C   0  0  0  0  0  0  0  0  0  0  0  0
  147.8946  132.0377  152.7004 O   0  0  0  0  0  0  0  0  0  0  0  0
  148.6094  131.7155  155.5177 C   0  0  0  0  0  0  0  0  0  0  0  0
  149.5739  130.6887  155.6277 O   0  0  0  0  0  0  0  0  0  0  0  0
  148.4144  134.2297  154.8655 C   0  0  0  0  0  0  0  0  0  0  0  0
  151.4625  141.0386  158.8874 C   0  0  0  0  0  0  0  0  0  0  0  0
  149.8453  143.0155  158.5652 C   0  0  0  0  0  0  0  0  0  0  0  0
  150.0320  144.4464  158.7123 N   0  0  0  0  0  0  0  0  0  0  0  0
  153.1154  143.6829  158.4715 H   0  0  0  0  0  0  0  0  0  0  0  0
  152.3871  143.2867  160.0347 H   0  0  0  0  0  0  0  0  0  0  0  0
  151.0950  143.0535  156.2068 H   0  0  0  0  0  0  0  0  0  0  0  0
  152.6265  142.3052  156.6446 H   0  0  0  0  0  0  0  0  0  0  0  0
  149.9544  140.9149  156.3164 H   0  0  0  0  0  0  0  0  0  0  0  0
  151.5366  140.4320  155.6863 H   0  0  0  0  0  0  0  0  0  0  0  0
  149.9794  136.9008  160.4342 H   0  0  0  0  0  0  0  0  0  0  0  0
  150.2921  136.5785  154.0116 H   0  0  0  0  0  0  0  0  0  0  0  0
  149.2323  134.2505  156.8772 H   0  0  0  0  0  0  0  0  0  0  0  0
  150.9695  134.0508  154.3560 H   0  0  0  0  0  0  0  0  0  0  0  0
  151.0173  133.0017  155.8138 H   0  0  0  0  0  0  0  0  0  0  0  0
  149.5493  133.2020  152.5259 H   0  0  0  0  0  0  0  0  0  0  0  0
  149.8565  131.5654  153.0445 H   0  0  0  0  0  0  0  0  0  0  0  0
  148.0002  131.5426  151.9024 H   0  0  0  0  0  0  0  0  0  0  0  0
  148.3753  132.0597  156.5251 H   0  0  0  0  0  0  0  0  0  0  0  0
  147.6863  131.2892  155.1244 H   0  0  0  0  0  0  0  0  0  0  0  0
  149.8961  130.6743  156.5162 H   0  0  0  0  0  0  0  0  0  0  0  0
  147.4086  134.1602  155.2811 H   0  0  0  0  0  0  0  0  0  0  0  0
  148.4279  134.8723  153.9826 H   0  0  0  0  0  0  0  0  0  0  0  0
  152.4813  140.8971  159.2496 H   0  0  0  0  0  0  0  0  0  0  0  0
  150.7807  140.8337  159.7133 H   0  0  0  0  0  0  0  0  0  0  0  0
  149.1596  142.7866  157.7486 H   0  0  0  0  0  0  0  0  0  0  0  0
  149.4063  142.6327  159.4874 H   0  0  0  0  0  0  0  0  0  0  0  0
  149.2726  145.1086  158.6447 H   0  0  0  0  0  0  0  0  0  0  0  0
  1  2  2  0  0  0  0
  2 27  1  0  0  0  0
  2  3  1  0  0  0  0
  3  4  1  0  0  0  0
  3 28  1  0  0  0  0
  3 29  1  0  0  0  0
  4 25  1  0  0  0  0
  4  5  1  0  0  0  0
  4 26  1  0  0  0  0
  5  6  1  0  0  0  0
  5 30  1  0  0  0  0
  5 31  1  0  0  0  0
  6  7  1  0  0  0  0
  6 32  1  0  0  0  0
  6 33  1  0  0  0  0
  7  8  1  0  0  0  0
  7 25  1  0  0  0  0
  8 13  1  0  0  0  0
  8  9  2  0  0  0  0
  9 10  1  0  0  0  0
 10 11  2  0  0  0  0
 10 34  1  0  0  0  0
 11 12  1  0  0  0  0
 12 16  1  0  0  0  0
 12 13  2  0  0  0  0
 13 14  1  0  0  0  0
 14 15  2  0  0  0  0
 15 16  1  0  0  0  0
 15 35  1  0  0  0  0
 16 17  1  0  0  0  0
 17 24  1  0  0  0  0
 17 18  1  0  0  0  0
 17 36  1  0  0  0  0
 18 19  1  0  0  0  0
 18 37  1  0  0  0  0
 18 38  1  0  0  0  0
 19 20  1  0  0  0  0
 19 22  1  0  0  0  0
 19 24  1  0  0  0  0
 20 21  1  0  0  0  0
 20 39  1  0  0  0  0
 20 40  1  0  0  0  0
 21 41  1  0  0  0  0
 22 23  1  0  0  0  0
 22 42  1  0  0  0  0
 22 43  1  0  0  0  0
 23 44  1  0  0  0  0
 24 45  1  0  0  0  0
 24 46  1  0  0  0  0
 25 47  1  0  0  0  0
 25 48  1  0  0  0  0
 26 27  1  0  0  0  0
 26 49  1  0  0  0  0
 26 50  1  0  0  0  0
 27 51  1  0  0  0  0
M  END
> <s_m_source_file>
AV-unprocessed.smi

> <i_m_source_file_index>
84

> <i_lp_mmshare_version>
43012

> <i_f3d_flags>
0

> <s_epik_input>
W0NIMl0xW05IXUMoPU8pW0NIMl1bQ0BdMTJbQ0gyXVtDSDJdTihbQ0gyXTIpYyhuW2NIXW4zKWMoYzM0KW5bY0hdbjRbQ0hdKFtDSDJdNSlbQ0gyXUM1KFtDSDJdW09IXSlbQ0gyXVtPSF0=

> <s_epik_cmdline>
J2VwaWtfcHl0aG9uJywgJy1waCcsICc3LjAnLCAnLXRuJywgJzgnLCAnLW1hJywgJzIwMCcsICctbWV0YWxfYmluZGluZycsICctaW1hZScsICc8aW5maWxlLm1hZT4nLCAnLW9tYWUnLCAnPG91dGZpbGUubWFlPic=

> <r_lp_tautomer_probability>
1

> <r_epik_Ionization_Penalty>
0.00201507

> <r_epik_Ionization_Penalty_Charging>
0

> <r_epik_Ionization_Penalty_Neutral>
0.00201507

> <r_epik_State_Penalty>
0.00133787

> <r_epik_Charging_Adjusted_Penalty>
0.00133787

> <i_epik_Tot_Q>
0

> <i_epik_Tot_abs_Q>
0

> <r_epik_Metal_State_Penalty>
-0

> <b_epik_Metal_Only>
0

> <s_lp_Force_Field>
OPLS_2005

> <r_lp_Energy>
65.4538

> <b_lp_Chiralities_Consistent>
1

> <s_lp_Variant>
AV-unprocessed.smi:84-1

> <Gold.Version>
5.8.1

> <Gold.Id.Protein>
6NUR|6NUR_protein|mol2

> <Gold.PLP.Fitness>
46.8086

> <Gold.PLP.PLP>
-36.9229

> <Gold.PLP.part.hbond>
-5.2231

> <Gold.PLP.part.metal>
0.0000

> <Gold.PLP.part.buried>
-6.6995

> <Gold.PLP.part.nonpolar>
-25.2329

> <Gold.PLP.part.repulsive>
0.3479

> <Gold.PLP.ligand.clash>
0.0000

> <Gold.PLP.ligand.torsion>
0.4814

> <Gold.PLP.Chemscore.Hbond>
2.4478

> <Gold.PLP.Chemscore.CHOScore>
0.9505

> <Gold.PLP.Chemscore.Metal>
0.0000

> <Gold.Chemscore.Hbonds>
donor molecule, donor type, donor heavy atom, donor atom, acceptor molecule, acceptor atom, score
      L1  H    21    41       P1 10747  1.00
      L1  H    27    51       P1  8029  0.68
      P1  H  6896  6907       L1    11  0.67
      L1  C    15    35       P1  7948  0.80
      L1  C    15    35       P1  7949  0.15

> <Gold.PLP.Chemscore.Internal.Correction>
0.6536

> <Gold.Rescore>
     Score         DG    S(hbond)    S(metal)    S(lipo)     H(rot)  DE(clash)    DE(int)     intcor
      8.61     -13.47       1.72        0.00      84.10       2.96       3.57       1.29       ----

> <Gold.Chemscore.Fitness>
8.6083

> <Gold.Chemscore.DG>
-13.4692

> <Gold.Chemscore.ZeroCoef>
-5.4800

> <Gold.Chemscore.Hbond>
1.7185

> <Gold.Chemscore.Metal>
0.0000

> <Gold.Chemscore.Lipo>
84.0993

> <Gold.Chemscore.Internal_Hbond>
0.0000

> <Gold.Chemscore.DEClash>
3.5727

> <Gold.Chemscore.DEInternal>
1.2882

> <Gold.Chemscore.Rot>
2.9649

> <Gold.Chemscore.Internal.Correction>
   9.000000E+99

> <Gold.Chemscore.Hbonds>
donor molecule, donor type, donor heavy atom, donor atom, acceptor molecule, acceptor atom, score
      L1  H    21    41       P1 10747  0.93
      L1  H    27    51       P1  8029  0.59
      P1  H  6896  6907       L1    11  0.06

> <Gold.Chemscore.Hbond.Weighted>
-5.7398

> <Gold.Chemscore.Metal.Weighted>
-0.0000

> <Gold.Chemscore.Lipo.Weighted>
-9.8396

> <Gold.Chemscore.Internal_Hbond.Weighted>
0.0000

> <Gold.Chemscore.DEClash.Weighted>
3.5727

> <Gold.Chemscore.DEInternal.Weighted>
1.2882

> <Gold.Chemscore.Rot.Weighted>
7.5902

> <Gold.Chemscore.Internal.Correction.Weighted>
   9.000000E+99

> <Gold.Protein.RotatedTorsions>
[ 6907 6896 6895 6894 ] final  -60.14 input  -60.11 | X-H torsion
[ 7974 7965 7964 7962 ] final  -82.54 input  175.53 | X-H torsion
[ 8008 7997 7996 7995 ] final  -75.38 input   59.86 | X-H torsion
[ 10167 10162 10161 10158 ] final -141.93 input  -65.29 | X-H torsion
[ 10718 10713 10712 10709 ] final  102.80 input   66.30 | X-H torsion
[ 10763 10752 10751 10750 ] final  132.48 input  -60.55 | X-H torsion
[ 11005 11000 10999 10996 ] final  -25.07 input  -57.11 | X-H torsion

> <Gold.Protein.ActiveResidues>
 VAL166  LYS551  ARG553  GLY616  TRP617  ASP618  TYR619  PRO620  LYS621  CYS622 
 ASP623  PHE694  ASN695  SER759  ASP760  ASP761  ALA762  ILE779  LEU786  VAL792 
 PHE793  MET794  SER795  GLU796  ALA797  LYS798  CYS799  TRP800  GLU811  SER814 

> <Gold.Protein.RotatedAtoms>
  150.7878  134.6877  159.6478 H   0  0  0  0  0  0  0  0  0  0  0  0  # atno 6907 bound_to 6896
  152.3978  134.6333  160.0091 H   0  0  0  0  0  0  0  0  0  0  0  0  # atno 6908 bound_to 6896
  151.6614  133.3280  159.3211 H   0  0  0  0  0  0  0  0  0  0  0  0  # atno 6909 bound_to 6896
  145.5320  140.9520  143.1598 H   0  0  0  0  0  0  0  0  0  0  0  0  # atno 7974 bound_to 7965
  154.5412  140.0745  156.8513 H   0  0  0  0  0  0  0  0  0  0  0  0  # atno 8008 bound_to 7997
  155.3177  140.3394  155.4224 H   0  0  0  0  0  0  0  0  0  0  0  0  # atno 8009 bound_to 7997
  156.1876  140.1674  156.8141 H   0  0  0  0  0  0  0  0  0  0  0  0  # atno 8010 bound_to 7997
  139.8138  143.7667  152.2664 H   0  0  0  0  0  0  0  0  0  0  0  0  # atno 10167 bound_to 10162
  157.6791  131.0762  150.5458 H   0  0  0  0  0  0  0  0  0  0  0  0  # atno 10718 bound_to 10713
  153.7914  135.3154  155.3379 H   0  0  0  0  0  0  0  0  0  0  0  0  # atno 10763 bound_to 10752
  154.8124  135.4658  154.0555 H   0  0  0  0  0  0  0  0  0  0  0  0  # atno 10764 bound_to 10752
  153.1874  135.6903  153.8483 H   0  0  0  0  0  0  0  0  0  0  0  0  # atno 10765 bound_to 10752
  140.8904  133.7592  156.0414 H   0  0  0  0  0  0  0  0  0  0  0  0  # atno 11005 bound_to 11000
  144.7621  139.6932  143.7230 LP  0  0  0  0  0  0  0  0  0  0  0  0  # atno 17320 bound_to 7965
  146.2038  139.5349  142.9726 LP  0  0  0  0  0  0  0  0  0  0  0  0  # atno 17321 bound_to 7965
  139.7824  144.7440  151.0069 LP  0  0  0  0  0  0  0  0  0  0  0  0  # atno 17342 bound_to 10162
  140.7816  143.4528  151.0388 LP  0  0  0  0  0  0  0  0  0  0  0  0  # atno 17343 bound_to 10162
  156.5764  130.4293  149.5996 LP  0  0  0  0  0  0  0  0  0  0  0  0  # atno 17370 bound_to 10713
  156.2698  130.7010  151.1804 LP  0  0  0  0  0  0  0  0  0  0  0  0  # atno 17371 bound_to 10713
  140.8354  134.3130  157.5334 LP  0  0  0  0  0  0  0  0  0  0  0  0  # atno 17394 bound_to 11000
  139.8729  134.9386  156.3720 LP  0  0  0  0  0  0  0  0  0  0  0  0  # atno 17395 bound_to 11000

$$$$
