AV-unprocessed.smi:1648|AV-procd|sdf|6632|dock5
  -GOLD-   22720 7333D 1   1.00000     0.00000
 Structure written by MMmdl.
 41 41  0  0  0  0  0  0  0  0  1 V2000
  147.6981  145.2741  160.7020 C   0  0  0  0  0  0  0  0  0  0  0  0
  147.1130  144.0570  159.9829 C   0  0  0  0  0  0  0  0  0  0  0  0
  146.8541  143.0430  160.6268 O   0  0  0  0  0  0  0  0  0  0  0  0
  146.8894  144.1176  158.6583 N   0  0  0  0  0  0  0  0  0  0  0  0
  146.3395  143.0685  157.7934 C   0  0  1  0  0  0  0  0  0  0  0  0
  147.4020  141.9666  157.6060 C   0  0  0  0  0  0  0  0  0  0  0  0
  147.1507  140.7976  157.9023 O   0  0  0  0  0  0  0  0  0  0  0  0
  148.5855  142.3625  157.1103 N   0  0  0  0  0  0  0  0  0  0  0  0
  149.7599  141.5152  156.9097 C   0  0  2  0  0  0  0  0  0  0  0  0
  150.9421  142.1336  157.6682 C   0  0  0  0  0  0  0  0  0  0  0  0
  150.0871  141.3483  155.4094 C   0  0  0  0  0  0  0  0  0  0  0  0
  150.8354  140.1386  155.1167 N   0  0  0  0  0  0  0  0  0  0  0  0
  150.5036  139.1460  154.2033 C   0  0  0  0  0  0  0  0  0  0  0  0
  151.4961  138.1952  154.2762 C   0  0  0  0  0  0  0  0  0  0  0  0
  152.4316  138.5675  155.2384 N   0  0  0  0  0  0  0  0  0  0  0  0
  151.9684  139.7221  155.6989 C   0  0  0  0  0  0  0  0  0  0  0  0
  145.0687  142.4733  158.4700 C   0  0  0  0  0  0  0  0  0  0  0  0
  144.2377  141.5930  157.5142 C   0  0  0  0  0  0  0  0  0  0  0  0
  144.1542  143.5674  159.0573 C   0  0  0  0  0  0  0  0  0  0  0  0
  148.6804  145.5266  160.3026 H   0  0  0  0  0  0  0  0  0  0  0  0
  147.8144  145.0694  161.7667 H   0  0  0  0  0  0  0  0  0  0  0  0
  147.0427  146.1388  160.5979 H   0  0  0  0  0  0  0  0  0  0  0  0
  147.1118  144.9897  158.2007 H   0  0  0  0  0  0  0  0  0  0  0  0
  146.0634  143.4918  156.8262 H   0  0  0  0  0  0  0  0  0  0  0  0
  148.6931  143.3410  156.8853 H   0  0  0  0  0  0  0  0  0  0  0  0
  149.5808  140.5321  157.3494 H   0  0  0  0  0  0  0  0  0  0  0  0
  151.8335  141.5118  157.5802 H   0  0  0  0  0  0  0  0  0  0  0  0
  150.7179  142.2355  158.7307 H   0  0  0  0  0  0  0  0  0  0  0  0
  151.1879  143.1237  157.2822 H   0  0  0  0  0  0  0  0  0  0  0  0
  149.1723  141.3550  154.8148 H   0  0  0  0  0  0  0  0  0  0  0  0
  150.6877  142.1906  155.0641 H   0  0  0  0  0  0  0  0  0  0  0  0
  149.6186  139.2011  153.5869 H   0  0  0  0  0  0  0  0  0  0  0  0
  151.6037  137.2755  153.7204 H   0  0  0  0  0  0  0  0  0  0  0  0
  152.4680  140.2786  156.4783 H   0  0  0  0  0  0  0  0  0  0  0  0
  145.3835  141.8408  159.3025 H   0  0  0  0  0  0  0  0  0  0  0  0
  143.9114  142.1579  156.6405 H   0  0  0  0  0  0  0  0  0  0  0  0
  143.3465  141.2080  158.0105 H   0  0  0  0  0  0  0  0  0  0  0  0
  144.7966  140.7291  157.1600 H   0  0  0  0  0  0  0  0  0  0  0  0
  143.8329  144.2684  158.2863 H   0  0  0  0  0  0  0  0  0  0  0  0
  144.6493  144.1391  159.8423 H   0  0  0  0  0  0  0  0  0  0  0  0
  143.2587  143.1329  159.5026 H   0  0  0  0  0  0  0  0  0  0  0  0
  1  2  1  0  0  0  0
  1 20  1  0  0  0  0
  1 21  1  0  0  0  0
  1 22  1  0  0  0  0
  2  3  2  0  0  0  0
  2  4  1  0  0  0  0
  4  5  1  0  0  0  0
  4 23  1  0  0  0  0
  5  6  1  0  0  0  0
  5 17  1  0  0  0  0
  5 24  1  0  0  0  0
  6  7  2  0  0  0  0
  6  8  1  0  0  0  0
  8  9  1  0  0  0  0
  8 25  1  0  0  0  0
  9 10  1  0  0  0  0
  9 11  1  0  0  0  0
  9 26  1  0  0  0  0
 10 27  1  0  0  0  0
 10 28  1  0  0  0  0
 10 29  1  0  0  0  0
 11 12  1  0  0  0  0
 11 30  1  0  0  0  0
 11 31  1  0  0  0  0
 12 16  1  0  0  0  0
 12 13  1  0  0  0  0
 13 14  2  0  0  0  0
 13 32  1  0  0  0  0
 14 15  1  0  0  0  0
 14 33  1  0  0  0  0
 15 16  2  0  0  0  0
 16 34  1  0  0  0  0
 17 18  1  0  0  0  0
 17 19  1  0  0  0  0
 17 35  1  0  0  0  0
 18 36  1  0  0  0  0
 18 37  1  0  0  0  0
 18 38  1  0  0  0  0
 19 39  1  0  0  0  0
 19 40  1  0  0  0  0
 19 41  1  0  0  0  0
M  END
> <s_m_source_file>
AV-unprocessed.smi

> <i_m_source_file_index>
1648

> <i_lp_mmshare_version>
43012

> <i_f3d_flags>
0

> <s_epik_input>
W0NIM11DKD1PKVtOSF1bQ0BASF0oW0NIXShbQ0gzXSlbQ0gzXSlDKD1PKVtOSF1bQ0BIXShbQ0gzXSlbQ0gyXW4xW2NIXVtjSF1uW2NIXTE=

> <s_epik_cmdline>
J2VwaWtfcHl0aG9uJywgJy1waCcsICc3LjAnLCAnLXRuJywgJzgnLCAnLW1hJywgJzIwMCcsICctbWV0YWxfYmluZGluZycsICctaW1hZScsICc8aW5maWxlLm1hZT4nLCAnLW9tYWUnLCAnPG91dGZpbGUubWFlPic=

> <r_lp_tautomer_probability>
1

> <r_epik_Ionization_Penalty>
0.628885

> <r_epik_Ionization_Penalty_Charging>
0.628884

> <r_epik_Ionization_Penalty_Neutral>
4.35155e-07

> <r_epik_State_Penalty>
0.64556

> <r_epik_Charging_Adjusted_Penalty>
1.27444

> <i_epik_Tot_Q>
0

> <i_epik_Tot_abs_Q>
0

> <r_epik_Metal_State_Penalty>
0.30874

> <b_epik_Metal_Only>
0

> <s_lp_Force_Field>
OPLS_2005

> <r_lp_Energy>
9.77282

> <b_lp_Chiralities_Consistent>
1

> <s_lp_Variant>
AV-unprocessed.smi:1648-6

> <Gold.Version>
5.8.1

> <Gold.Id.Protein>
6NUR|6NUR_protein|mol2

> <Gold.PLP.Fitness>
46.1742

> <Gold.PLP.PLP>
-30.6358

> <Gold.PLP.part.hbond>
-4.4078

> <Gold.PLP.part.metal>
0.0000

> <Gold.PLP.part.buried>
-3.4023

> <Gold.PLP.part.nonpolar>
-22.3960

> <Gold.PLP.part.repulsive>
0.1140

> <Gold.PLP.ligand.clash>
0.0000

> <Gold.PLP.ligand.torsion>
0.7171

> <Gold.PLP.Chemscore.Hbond>
3.7840

> <Gold.PLP.Chemscore.CHOScore>
1.8504

> <Gold.PLP.Chemscore.Metal>
0.0000

> <Gold.Chemscore.Hbonds>
donor molecule, donor type, donor heavy atom, donor atom, acceptor molecule, acceptor atom, score
      L1  H     4    23       P1  8029  0.98
      L1  H     8    25       P1  8028  1.00
      P1  H  6933  6944       L1     3  1.00
      P1  H  6934  6946       L1     3  0.54
      L1  C    13    32       P1  7957  0.80
      L1  C    14    33       P1  7949  0.80

> <Gold.PLP.Chemscore.Internal.Correction>
0.0693

> <Gold.Rescore>
     Score         DG    S(hbond)    S(metal)    S(lipo)     H(rot)  DE(clash)    DE(int)     intcor
      9.73     -12.97       2.64        0.00      43.70       2.52       0.04       3.21       ----

> <Gold.Chemscore.Fitness>
9.7280

> <Gold.Chemscore.DG>
-12.9719

> <Gold.Chemscore.ZeroCoef>
-5.4800

> <Gold.Chemscore.Hbond>
2.6449

> <Gold.Chemscore.Metal>
0.0000

> <Gold.Chemscore.Lipo>
43.7024

> <Gold.Chemscore.Internal_Hbond>
0.0000

> <Gold.Chemscore.DEClash>
0.0364

> <Gold.Chemscore.DEInternal>
3.2075

> <Gold.Chemscore.Rot>
2.5216

> <Gold.Chemscore.Internal.Correction>
   9.000000E+99

> <Gold.Chemscore.Hbonds>
donor molecule, donor type, donor heavy atom, donor atom, acceptor molecule, acceptor atom, score
      L1  H     4    23       P1  8029  0.90
      L1  H     8    25       P1  8028  0.53
      P1  H  6933  6944       L1     3  0.70
      P1  H  6934  6946       L1     3  0.55

> <Gold.Chemscore.Hbond.Weighted>
-8.8340

> <Gold.Chemscore.Metal.Weighted>
-0.0000

> <Gold.Chemscore.Lipo.Weighted>
-5.1132

> <Gold.Chemscore.Internal_Hbond.Weighted>
0.0000

> <Gold.Chemscore.DEClash.Weighted>
0.0364

> <Gold.Chemscore.DEInternal.Weighted>
3.2075

> <Gold.Chemscore.Rot.Weighted>
6.4553

> <Gold.Chemscore.Internal.Correction.Weighted>
   9.000000E+99

> <Gold.Protein.RotatedTorsions>
[ 6907 6896 6895 6894 ] final  -37.20 input  -60.11 | X-H torsion
[ 7974 7965 7964 7962 ] final  -76.64 input  175.53 | X-H torsion
[ 8008 7997 7996 7995 ] final  153.41 input   59.86 | X-H torsion
[ 10167 10162 10161 10158 ] final  -31.55 input  -65.29 | X-H torsion
[ 10718 10713 10712 10709 ] final  -49.78 input   66.30 | X-H torsion
[ 10763 10752 10751 10750 ] final  -79.89 input  -60.55 | X-H torsion
[ 11005 11000 10999 10996 ] final  130.07 input  -57.11 | X-H torsion

> <Gold.Protein.ActiveResidues>
 VAL166  LYS551  ARG553  GLY616  TRP617  ASP618  TYR619  PRO620  LYS621  CYS622 
 ASP623  PHE694  ASN695  SER759  ASP760  ASP761  ALA762  ILE779  LEU786  VAL792 
 PHE793  MET794  SER795  GLU796  ALA797  LYS798  CYS799  TRP800  GLU811  SER814 

> <Gold.Protein.RotatedAtoms>
  151.0177  134.9445  159.8041 H   0  0  0  0  0  0  0  0  0  0  0  0  # atno 6907 bound_to 6896
  152.5318  134.2945  159.9065 H   0  0  0  0  0  0  0  0  0  0  0  0  # atno 6908 bound_to 6896
  151.2952  133.4105  159.2670 H   0  0  0  0  0  0  0  0  0  0  0  0  # atno 6909 bound_to 6896
  145.6101  140.9388  143.1194 H   0  0  0  0  0  0  0  0  0  0  0  0  # atno 7974 bound_to 7965
  156.2583  140.1994  156.6485 H   0  0  0  0  0  0  0  0  0  0  0  0  # atno 8008 bound_to 7997
  154.6554  140.0567  157.0028 H   0  0  0  0  0  0  0  0  0  0  0  0  # atno 8009 bound_to 7997
  155.1355  140.3237  155.4467 H   0  0  0  0  0  0  0  0  0  0  0  0  # atno 8010 bound_to 7997
  140.7234  143.3762  151.1685 H   0  0  0  0  0  0  0  0  0  0  0  0  # atno 10167 bound_to 10162
  156.1861  130.4151  149.9437 H   0  0  0  0  0  0  0  0  0  0  0  0  # atno 10718 bound_to 10713
  154.5443  135.5680  153.6866 H   0  0  0  0  0  0  0  0  0  0  0  0  # atno 10763 bound_to 10752
  152.9972  135.6235  154.2459 H   0  0  0  0  0  0  0  0  0  0  0  0  # atno 10764 bound_to 10752
  154.2392  135.2863  155.2840 H   0  0  0  0  0  0  0  0  0  0  0  0  # atno 10765 bound_to 10752
  139.9651  134.9592  156.9241 H   0  0  0  0  0  0  0  0  0  0  0  0  # atno 11005 bound_to 11000
  144.7273  139.7835  143.7360 LP  0  0  0  0  0  0  0  0  0  0  0  0  # atno 17320 bound_to 7965
  146.1510  139.4594  143.0048 LP  0  0  0  0  0  0  0  0  0  0  0  0  # atno 17321 bound_to 7965
  139.7342  143.9024  152.3029 LP  0  0  0  0  0  0  0  0  0  0  0  0  # atno 17342 bound_to 10162
  139.8824  144.7010  150.8863 LP  0  0  0  0  0  0  0  0  0  0  0  0  # atno 17343 bound_to 10162
  156.7193  130.9000  151.3616 LP  0  0  0  0  0  0  0  0  0  0  0  0  # atno 17370 bound_to 10713
  157.6899  130.9223  150.0487 LP  0  0  0  0  0  0  0  0  0  0  0  0  # atno 17371 bound_to 10713
  140.5414  134.0716  155.7342 LP  0  0  0  0  0  0  0  0  0  0  0  0  # atno 17394 bound_to 11000
  141.1330  133.9269  157.2494 LP  0  0  0  0  0  0  0  0  0  0  0  0  # atno 17395 bound_to 11000

$$$$
