AV-unprocessed.smi:3030|AV-procd|sdf|11533|dock4
  -GOLD-   2272016483D 1   1.00000     0.00000
 Structure written by MMmdl.
 52 53  0  0  0  0  0  0  0  0  1 V2000
  150.4993  141.6684  157.6285 C   0  0  0  0  0  0  0  0  0  0  0  0
  151.1923  141.3574  156.2972 C   0  0  0  0  0  0  0  0  0  0  0  0
  151.1876  139.9308  156.0079 N   0  0  0  0  0  0  0  0  0  0  0  0
  151.8524  139.4153  154.8999 C   0  0  0  0  0  0  0  0  0  0  0  0
  151.9145  138.1035  154.5997 C   0  0  0  0  0  0  0  0  0  0  0  0
  151.2509  137.1261  155.4860 C   0  0  0  0  0  0  0  0  0  0  0  0
  151.2770  135.9211  155.2357 O   0  0  0  0  0  0  0  0  0  0  0  0
  150.5590  137.6757  156.6816 C   0  0  0  0  0  0  0  0  0  0  0  0
  149.9230  136.7452  157.5182 N   0  0  0  0  0  0  0  0  0  0  0  0
  149.1146  136.9673  158.5701 C   0  0  0  0  0  0  0  0  0  0  0  0
  148.8230  138.0700  159.0323 O   0  0  0  0  0  0  0  0  0  0  0  0
  148.6621  135.8088  159.0715 N   0  0  0  0  0  0  0  0  0  0  0  0
  147.7792  135.6510  160.2271 C   0  0  2  0  0  0  0  0  0  0  0  0
  148.2846  136.5940  161.3401 C   0  0  0  0  0  0  0  0  0  0  0  0
  147.4985  136.4594  162.6570 C   0  0  1  0  0  0  0  0  0  0  0  0
  146.0924  137.0801  162.5775 C   0  0  0  0  0  0  0  0  0  0  0  0
  147.4778  134.9906  163.1145 C   0  0  0  0  0  0  0  0  0  0  0  0
  146.9437  134.0486  162.0242 C   0  0  0  0  0  0  0  0  0  0  0  0
  147.7421  134.1701  160.7042 C   0  0  1  0  0  0  0  0  0  0  0  0
  147.2699  133.1615  159.6133 C   0  0  0  0  0  0  0  0  0  0  0  0
  145.8341  133.4041  159.1118 C   0  0  0  0  0  0  0  0  0  0  0  0
  147.4479  131.6972  160.0505 C   0  0  0  0  0  0  0  0  0  0  0  0
  150.5673  139.0211  156.8619 C   0  0  0  0  0  0  0  0  0  0  0  0
  150.5112  142.7394  157.8306 H   0  0  0  0  0  0  0  0  0  0  0  0
  150.9981  141.1674  158.4587 H   0  0  0  0  0  0  0  0  0  0  0  0
  149.4585  141.3433  157.6161 H   0  0  0  0  0  0  0  0  0  0  0  0
  150.6970  141.8943  155.4875 H   0  0  0  0  0  0  0  0  0  0  0  0
  152.2203  141.7206  156.3205 H   0  0  0  0  0  0  0  0  0  0  0  0
  152.3232  140.1611  154.2756 H   0  0  0  0  0  0  0  0  0  0  0  0
  152.4398  137.7489  153.7250 H   0  0  0  0  0  0  0  0  0  0  0  0
  150.1254  135.7801  157.3017 H   0  0  0  0  0  0  0  0  0  0  0  0
  148.9609  134.9567  158.6196 H   0  0  0  0  0  0  0  0  0  0  0  0
  146.7678  135.9636  159.9670 H   0  0  0  0  0  0  0  0  0  0  0  0
  149.3351  136.3769  161.5407 H   0  0  0  0  0  0  0  0  0  0  0  0
  148.2546  137.6288  160.9956 H   0  0  0  0  0  0  0  0  0  0  0  0
  148.0388  137.0272  163.4156 H   0  0  0  0  0  0  0  0  0  0  0  0
  145.4634  136.5837  161.8390 H   0  0  0  0  0  0  0  0  0  0  0  0
  146.1466  138.1347  162.3062 H   0  0  0  0  0  0  0  0  0  0  0  0
  145.5837  137.0162  163.5396 H   0  0  0  0  0  0  0  0  0  0  0  0
  148.4904  134.6846  163.3809 H   0  0  0  0  0  0  0  0  0  0  0  0
  146.8826  134.8866  164.0222 H   0  0  0  0  0  0  0  0  0  0  0  0
  146.9870  133.0278  162.4021 H   0  0  0  0  0  0  0  0  0  0  0  0
  145.8897  134.2628  161.8500 H   0  0  0  0  0  0  0  0  0  0  0  0
  148.7733  133.9021  160.9415 H   0  0  0  0  0  0  0  0  0  0  0  0
  147.9246  133.2796  158.7503 H   0  0  0  0  0  0  0  0  0  0  0  0
  145.0967  133.2303  159.8949 H   0  0  0  0  0  0  0  0  0  0  0  0
  145.5951  132.7310  158.2883 H   0  0  0  0  0  0  0  0  0  0  0  0
  145.6974  134.4195  158.7422 H   0  0  0  0  0  0  0  0  0  0  0  0
  146.7618  131.4250  160.8524 H   0  0  0  0  0  0  0  0  0  0  0  0
  148.4635  131.5081  160.3984 H   0  0  0  0  0  0  0  0  0  0  0  0
  147.2570  131.0184  159.2188 H   0  0  0  0  0  0  0  0  0  0  0  0
  150.0641  139.5045  157.6846 H   0  0  0  0  0  0  0  0  0  0  0  0
  1  2  1  0  0  0  0
  1 24  1  0  0  0  0
  1 25  1  0  0  0  0
  1 26  1  0  0  0  0
  2  3  1  0  0  0  0
  2 27  1  0  0  0  0
  2 28  1  0  0  0  0
  3 23  1  0  0  0  0
  3  4  1  0  0  0  0
  4  5  2  0  0  0  0
  4 29  1  0  0  0  0
  5  6  1  0  0  0  0
  5 30  1  0  0  0  0
  6  7  2  0  0  0  0
  6  8  1  0  0  0  0
  8  9  1  0  0  0  0
  8 23  2  0  0  0  0
  9 10  1  0  0  0  0
  9 31  1  0  0  0  0
 10 11  2  0  0  0  0
 10 12  1  0  0  0  0
 12 13  1  0  0  0  0
 12 32  1  0  0  0  0
 13 19  1  0  0  0  0
 13 14  1  0  0  0  0
 13 33  1  0  0  0  0
 14 15  1  0  0  0  0
 14 34  1  0  0  0  0
 14 35  1  0  0  0  0
 15 16  1  0  0  0  0
 15 17  1  0  0  0  0
 15 36  1  0  0  0  0
 16 37  1  0  0  0  0
 16 38  1  0  0  0  0
 16 39  1  0  0  0  0
 17 18  1  0  0  0  0
 17 40  1  0  0  0  0
 17 41  1  0  0  0  0
 18 19  1  0  0  0  0
 18 42  1  0  0  0  0
 18 43  1  0  0  0  0
 19 20  1  0  0  0  0
 19 44  1  0  0  0  0
 20 21  1  0  0  0  0
 20 22  1  0  0  0  0
 20 45  1  0  0  0  0
 21 46  1  0  0  0  0
 21 47  1  0  0  0  0
 21 48  1  0  0  0  0
 22 49  1  0  0  0  0
 22 50  1  0  0  0  0
 22 51  1  0  0  0  0
 23 52  1  0  0  0  0
M  END
> <s_m_source_file>
AV-unprocessed.smi

> <i_m_source_file_index>
3030

> <i_lp_mmshare_version>
43012

> <i_f3d_flags>
0

> <s_epik_input>
W0NIM11bQ0gyXW4xW2NIXVtjSF1jKD1PKWMoW2NIXTEpW05IXUMoPU8pW05IXVtDQEBIXTJbQ0gyXVtDQEBIXShbQ0gzXSlbQ0gyXVtDSDJdW0NASF0yW0NIXShbQ0gzXSlbQ0gzXQ==

> <s_epik_cmdline>
J2VwaWtfcHl0aG9uJywgJy1waCcsICc3LjAnLCAnLXRuJywgJzgnLCAnLW1hJywgJzIwMCcsICctbWV0YWxfYmluZGluZycsICctaW1hZScsICc8aW5maWxlLm1hZT4nLCAnLW9tYWUnLCAnPG91dGZpbGUubWFlPic=

> <r_lp_tautomer_probability>
1

> <r_epik_Ionization_Penalty>
0.00147933

> <r_epik_Ionization_Penalty_Charging>
0.00145753

> <r_epik_Ionization_Penalty_Neutral>
2.17987e-05

> <r_epik_State_Penalty>
0.00097457

> <r_epik_Charging_Adjusted_Penalty>
0.0024321

> <i_epik_Tot_Q>
0

> <i_epik_Tot_abs_Q>
0

> <r_epik_Metal_State_Penalty>
-0

> <b_epik_Metal_Only>
0

> <s_lp_Force_Field>
OPLS_2005

> <r_lp_Energy>
11.9489

> <b_lp_Chiralities_Consistent>
1

> <s_lp_Variant>
AV-unprocessed.smi:3030-1

> <Gold.Version>
5.8.1

> <Gold.Id.Protein>
6NUR|6NUR_protein|mol2

> <Gold.PLP.Fitness>
41.4797

> <Gold.PLP.PLP>
-38.8767

> <Gold.PLP.part.hbond>
-2.0206

> <Gold.PLP.part.metal>
0.0000

> <Gold.PLP.part.buried>
-1.4355

> <Gold.PLP.part.nonpolar>
-35.7939

> <Gold.PLP.part.repulsive>
0.2798

> <Gold.PLP.ligand.clash>
0.0000

> <Gold.PLP.ligand.torsion>
0.2334

> <Gold.PLP.Chemscore.Hbond>
1.0000

> <Gold.PLP.Chemscore.CHOScore>
0.0000

> <Gold.PLP.Chemscore.Metal>
0.0000

> <Gold.Chemscore.Hbonds>
donor molecule, donor type, donor heavy atom, donor atom, acceptor molecule, acceptor atom, score
      P1  H 10752 10763       L1     7  1.00

> <Gold.PLP.Chemscore.Internal.Correction>
0.0698

> <Gold.Rescore>
     Score         DG    S(hbond)    S(metal)    S(lipo)     H(rot)  DE(clash)    DE(int)     intcor
     14.21     -17.02       1.09        0.00      95.19       1.27       0.12       2.70       ----

> <Gold.Chemscore.Fitness>
14.2052

> <Gold.Chemscore.DG>
-17.0181

> <Gold.Chemscore.ZeroCoef>
-5.4800

> <Gold.Chemscore.Hbond>
1.0921

> <Gold.Chemscore.Metal>
0.0000

> <Gold.Chemscore.Lipo>
95.1945

> <Gold.Chemscore.Internal_Hbond>
0.0000

> <Gold.Chemscore.DEClash>
0.1174

> <Gold.Chemscore.DEInternal>
2.6955

> <Gold.Chemscore.Rot>
1.2685

> <Gold.Chemscore.Internal.Correction>
   9.000000E+99

> <Gold.Chemscore.Hbonds>
donor molecule, donor type, donor heavy atom, donor atom, acceptor molecule, acceptor atom, score
      P1  H 10752 10763       L1     7  0.54

> <Gold.Chemscore.Hbond.Weighted>
-3.6478

> <Gold.Chemscore.Metal.Weighted>
-0.0000

> <Gold.Chemscore.Lipo.Weighted>
-11.1378

> <Gold.Chemscore.Internal_Hbond.Weighted>
0.0000

> <Gold.Chemscore.DEClash.Weighted>
0.1174

> <Gold.Chemscore.DEInternal.Weighted>
2.6955

> <Gold.Chemscore.Rot.Weighted>
3.2474

> <Gold.Chemscore.Internal.Correction.Weighted>
   9.000000E+99

> <Gold.Protein.RotatedTorsions>
[ 6907 6896 6895 6894 ] final -151.47 input  -60.11 | X-H torsion
[ 7974 7965 7964 7962 ] final  -20.68 input  175.53 | X-H torsion
[ 8008 7997 7996 7995 ] final  -28.33 input   59.86 | X-H torsion
[ 10167 10162 10161 10158 ] final  176.98 input  -65.29 | X-H torsion
[ 10718 10713 10712 10709 ] final   72.52 input   66.30 | X-H torsion
[ 10763 10752 10751 10750 ] final   82.30 input  -60.55 | X-H torsion
[ 11005 11000 10999 10996 ] final -129.02 input  -57.11 | X-H torsion

> <Gold.Protein.ActiveResidues>
 VAL166  LYS551  ARG553  GLY616  TRP617  ASP618  TYR619  PRO620  LYS621  CYS622 
 ASP623  PHE694  ASN695  SER759  ASP760  ASP761  ALA762  ILE779  LEU786  VAL792 
 PHE793  MET794  SER795  GLU796  ALA797  LYS798  CYS799  TRP800  GLU811  SER814 

> <Gold.Protein.RotatedAtoms>
  151.2136  133.4542  159.2598 H   0  0  0  0  0  0  0  0  0  0  0  0  # atno 6907 bound_to 6896
  151.0952  134.9940  159.8432 H   0  0  0  0  0  0  0  0  0  0  0  0  # atno 6908 bound_to 6896
  152.5438  134.2067  159.8786 H   0  0  0  0  0  0  0  0  0  0  0  0  # atno 6909 bound_to 6896
  146.1775  140.4236  142.8508 H   0  0  0  0  0  0  0  0  0  0  0  0  # atno 7974 bound_to 7965
  154.4337  140.1848  156.1072 H   0  0  0  0  0  0  0  0  0  0  0  0  # atno 8008 bound_to 7997
  156.0246  140.3337  155.7049 H   0  0  0  0  0  0  0  0  0  0  0  0  # atno 8009 bound_to 7997
  155.5927  140.0632  157.2745 H   0  0  0  0  0  0  0  0  0  0  0  0  # atno 8010 bound_to 7997
  139.5235  144.2852  152.0512 H   0  0  0  0  0  0  0  0  0  0  0  0  # atno 10167 bound_to 10162
  157.6505  130.9583  150.0940 H   0  0  0  0  0  0  0  0  0  0  0  0  # atno 10718 bound_to 10713
  153.1190  135.4733  154.9164 H   0  0  0  0  0  0  0  0  0  0  0  0  # atno 10763 bound_to 10752
  154.7557  135.3118  154.8476 H   0  0  0  0  0  0  0  0  0  0  0  0  # atno 10764 bound_to 10752
  153.9045  135.6871  153.4807 H   0  0  0  0  0  0  0  0  0  0  0  0  # atno 10765 bound_to 10752
  140.9467  134.1120  157.4100 H   0  0  0  0  0  0  0  0  0  0  0  0  # atno 11005 bound_to 11000
  144.8259  140.6628  143.6322 LP  0  0  0  0  0  0  0  0  0  0  0  0  # atno 17320 bound_to 7965
  145.4172  139.1570  143.4094 LP  0  0  0  0  0  0  0  0  0  0  0  0  # atno 17321 bound_to 7965
  140.2305  144.4373  150.6302 LP  0  0  0  0  0  0  0  0  0  0  0  0  # atno 17342 bound_to 10162
  140.6358  143.2194  151.6397 LP  0  0  0  0  0  0  0  0  0  0  0  0  # atno 17343 bound_to 10162
  156.1881  130.3653  149.8945 LP  0  0  0  0  0  0  0  0  0  0  0  0  # atno 17370 bound_to 10713
  156.6881  130.8885  151.3584 LP  0  0  0  0  0  0  0  0  0  0  0  0  # atno 17371 bound_to 10713
  139.8835  135.0053  156.6308 LP  0  0  0  0  0  0  0  0  0  0  0  0  # atno 17394 bound_to 11000
  140.7659  133.8778  155.8454 LP  0  0  0  0  0  0  0  0  0  0  0  0  # atno 17395 bound_to 11000

$$$$
