AV-unprocessed.smi:3303|AV-procd|sdf|12682|dock2
  -GOLD-   2272019 13D 1   1.00000     0.00000
 Structure written by MMmdl.
 44 45  0  0  0  0  0  0  0  0  2 V2000
  150.3781  137.8936  154.4089 C   0  0  0  0  0  0  0  0  0  0  0  0
  149.2685  138.7727  155.0231 C   0  0  1  0  0  0  0  0  0  0  0  0
  148.3834  139.4038  153.9319 C   0  0  0  0  0  0  0  0  0  0  0  0
  147.5173  138.3998  153.2572 N   0  3  2  0  0  0  0  0  0  0  0  0
  146.7947  139.0108  152.1152 C   0  0  0  0  0  0  0  0  0  0  0  0
  146.6318  137.6766  154.2203 C   0  0  1  0  0  0  0  0  0  0  0  0
  145.7628  136.6034  153.5362 C   0  0  0  0  0  0  0  0  0  0  0  0
  147.4681  137.0232  155.3409 C   0  0  0  0  0  0  0  0  0  0  0  0
  148.3681  138.0459  156.0513 C   0  0  1  0  0  0  0  0  0  0  0  0
  149.1231  137.3682  157.1001 N   0  0  0  0  0  0  0  0  0  0  0  0
  148.2542  136.8332  158.1388 C   0  0  0  0  0  0  0  0  0  0  0  0
  148.9867  136.8533  159.4870 C   0  0  0  0  0  0  0  0  0  0  0  0
  148.1429  136.2604  160.5995 C   0  0  0  0  0  0  0  0  0  0  0  0
  147.9437  134.8662  160.6896 C   0  0  0  0  0  0  0  0  0  0  0  0
  147.1595  134.3678  161.7481 C   0  0  0  0  0  0  0  0  0  0  0  0
  146.6090  135.2773  162.6714 C   0  0  0  0  0  0  0  0  0  0  0  0
  146.8680  136.6509  162.4943 C   0  0  0  0  0  0  0  0  0  0  0  0
  147.6183  137.1394  161.4831 N   0  0  0  0  0  0  0  0  0  0  0  0
  149.9728  137.0461  153.8565 H   0  0  0  0  0  0  0  0  0  0  0  0
  151.0474  137.5008  155.1746 H   0  0  0  0  0  0  0  0  0  0  0  0
  150.9906  138.4710  153.7160 H   0  0  0  0  0  0  0  0  0  0  0  0
  149.7689  139.5986  155.5291 H   0  0  0  0  0  0  0  0  0  0  0  0
  147.7526  140.1784  154.3715 H   0  0  0  0  0  0  0  0  0  0  0  0
  149.0162  139.9023  153.1959 H   0  0  0  0  0  0  0  0  0  0  0  0
  146.0177  139.6925  152.4637 H   0  0  0  0  0  0  0  0  0  0  0  0
  146.3352  138.2547  151.4795 H   0  0  0  0  0  0  0  0  0  0  0  0
  147.4795  139.5749  151.4812 H   0  0  0  0  0  0  0  0  0  0  0  0
  145.9643  138.4098  154.6767 H   0  0  0  0  0  0  0  0  0  0  0  0
  145.1985  136.0322  154.2742 H   0  0  0  0  0  0  0  0  0  0  0  0
  146.3727  135.8979  152.9709 H   0  0  0  0  0  0  0  0  0  0  0  0
  145.0301  137.0390  152.8572 H   0  0  0  0  0  0  0  0  0  0  0  0
  146.8000  136.5613  156.0696 H   0  0  0  0  0  0  0  0  0  0  0  0
  148.0696  136.2119  154.9283 H   0  0  0  0  0  0  0  0  0  0  0  0
  147.7147  138.7795  156.5269 H   0  0  0  0  0  0  0  0  0  0  0  0
  149.6445  136.6046  156.6928 H   0  0  0  0  0  0  0  0  0  0  0  0
  147.3413  137.4242  158.2110 H   0  0  0  0  0  0  0  0  0  0  0  0
  147.9673  135.8112  157.8882 H   0  0  0  0  0  0  0  0  0  0  0  0
  149.9208  136.2934  159.4175 H   0  0  0  0  0  0  0  0  0  0  0  0
  149.2598  137.8762  159.7504 H   0  0  0  0  0  0  0  0  0  0  0  0
  148.3820  134.1928  159.9676 H   0  0  0  0  0  0  0  0  0  0  0  0
  146.9849  133.3072  161.8510 H   0  0  0  0  0  0  0  0  0  0  0  0
  146.0038  134.9313  163.4962 H   0  0  0  0  0  0  0  0  0  0  0  0
  146.4625  137.3766  163.1837 H   0  0  0  0  0  0  0  0  0  0  0  0
  148.1405  137.7092  152.8637 H   0  0  0  0  0  0  0  0  0  0  0  0
  1  2  1  0  0  0  0
  1 19  1  0  0  0  0
  1 20  1  0  0  0  0
  1 21  1  0  0  0  0
  2  9  1  0  0  0  0
  2  3  1  0  0  0  0
  2 22  1  0  0  0  0
  3  4  1  0  0  0  0
  3 23  1  0  0  0  0
  3 24  1  0  0  0  0
  4  5  1  0  0  0  0
  4  6  1  0  0  0  0
  4 44  1  0  0  0  0
  5 25  1  0  0  0  0
  5 26  1  0  0  0  0
  5 27  1  0  0  0  0
  6  7  1  0  0  0  0
  6  8  1  0  0  0  0
  6 28  1  0  0  0  0
  7 29  1  0  0  0  0
  7 30  1  0  0  0  0
  7 31  1  0  0  0  0
  8  9  1  0  0  0  0
  8 32  1  0  0  0  0
  8 33  1  0  0  0  0
  9 10  1  0  0  0  0
  9 34  1  0  0  0  0
 10 11  1  0  0  0  0
 10 35  1  0  0  0  0
 11 12  1  0  0  0  0
 11 36  1  0  0  0  0
 11 37  1  0  0  0  0
 12 13  1  0  0  0  0
 12 38  1  0  0  0  0
 12 39  1  0  0  0  0
 13 18  1  0  0  0  0
 13 14  2  0  0  0  0
 14 15  1  0  0  0  0
 14 40  1  0  0  0  0
 15 16  2  0  0  0  0
 15 41  1  0  0  0  0
 16 17  1  0  0  0  0
 16 42  1  0  0  0  0
 17 18  2  0  0  0  0
 17 43  1  0  0  0  0
M  CHG  1   4   1
M  END
> <s_m_source_file>
AV-unprocessed.smi

> <i_m_source_file_index>
3303

> <i_lp_mmshare_version>
43012

> <i_f3d_flags>
0

> <s_epik_input>
W0NIM11bQ0BASF0xW0NIMl1OKFtDSDNdKVtDQEBIXShbQ0gzXSlbQ0gyXVtDQEhdMVtOSF1bQ0gyXVtDSDJdYzJbY0hdW2NIXVtjSF1bY0hdbjI=

> <s_epik_cmdline>
J2VwaWtfcHl0aG9uJywgJy1waCcsICc3LjAnLCAnLXRuJywgJzgnLCAnLW1hJywgJzIwMCcsICctbWV0YWxfYmluZGluZycsICctaW1hZScsICc8aW5maWxlLm1hZT4nLCAnLW9tYWUnLCAnPG91dGZpbGUubWFlPic=

> <r_epik_Ionization_Penalty>
2.31085

> <r_epik_Ionization_Penalty_Charging>
0.000313057

> <r_epik_Ionization_Penalty_Neutral>
2.31054

> <r_epik_State_Penalty>
2.4087

> <r_epik_Charging_Adjusted_Penalty>
2.40902

> <i_epik_Tot_Q>
1

> <i_epik_Tot_abs_Q>
1

> <r_epik_Metal_State_Penalty>
2.30979

> <b_epik_Metal_Only>
0

> <s_lp_Force_Field>
OPLS_2005

> <r_lp_Energy>
24.7509

> <b_lp_Chiralities_Consistent>
1

> <s_lp_Variant>
AV-unprocessed.smi:3303-26

> <Gold.Version>
5.8.1

> <Gold.Id.Protein>
6NUR|6NUR_protein|mol2

> <Gold.PLP.Fitness>
40.9322

> <Gold.PLP.PLP>
-30.3373

> <Gold.PLP.part.hbond>
-3.0000

> <Gold.PLP.part.metal>
0.0000

> <Gold.PLP.part.buried>
-1.7847

> <Gold.PLP.part.nonpolar>
-25.2106

> <Gold.PLP.part.repulsive>
0.0307

> <Gold.PLP.ligand.clash>
0.0000

> <Gold.PLP.ligand.torsion>
0.3856

> <Gold.PLP.Chemscore.Hbond>
3.7840

> <Gold.PLP.Chemscore.CHOScore>
0.0000

> <Gold.PLP.Chemscore.Metal>
0.0000

> <Gold.Chemscore.Hbonds>
donor molecule, donor type, donor heavy atom, donor atom, acceptor molecule, acceptor atom, score
      L1  H     4    44       P1  7948  2.00
      P1  H  6931  6943       L1    18  1.00
      P1  H  6934  6947       L1    18  0.82

> <Gold.PLP.Chemscore.Internal.Correction>
0.0142

> <Gold.Rescore>
     Score         DG    S(hbond)    S(metal)    S(lipo)     H(rot)  DE(clash)    DE(int)     intcor
     18.24     -18.60       2.22        0.00      77.94       1.33       0.01       0.35       ----

> <Gold.Chemscore.Fitness>
18.2385

> <Gold.Chemscore.DG>
-18.6017

> <Gold.Chemscore.ZeroCoef>
-5.4800

> <Gold.Chemscore.Hbond>
2.2155

> <Gold.Chemscore.Metal>
0.0000

> <Gold.Chemscore.Lipo>
77.9442

> <Gold.Chemscore.Internal_Hbond>
0.0000

> <Gold.Chemscore.DEClash>
0.0111

> <Gold.Chemscore.DEInternal>
0.3520

> <Gold.Chemscore.Rot>
1.3272

> <Gold.Chemscore.Internal.Correction>
   9.000000E+99

> <Gold.Chemscore.Hbonds>
donor molecule, donor type, donor heavy atom, donor atom, acceptor molecule, acceptor atom, score
      L1  H     4    44       P1  7948  0.99
      P1  H  6931  6943       L1    18  0.45
      P1  H  6934  6947       L1    18  0.70

> <Gold.Chemscore.Hbond.Weighted>
-7.3998

> <Gold.Chemscore.Metal.Weighted>
-0.0000

> <Gold.Chemscore.Lipo.Weighted>
-9.1195

> <Gold.Chemscore.Internal_Hbond.Weighted>
0.0000

> <Gold.Chemscore.DEClash.Weighted>
0.0111

> <Gold.Chemscore.DEInternal.Weighted>
0.3520

> <Gold.Chemscore.Rot.Weighted>
3.3976

> <Gold.Chemscore.Internal.Correction.Weighted>
   9.000000E+99

> <Gold.Protein.RotatedTorsions>
[ 6907 6896 6895 6894 ] final  114.88 input  -60.11 | X-H torsion
[ 7974 7965 7964 7962 ] final  122.79 input  175.53 | X-H torsion
[ 8008 7997 7996 7995 ] final  -98.21 input   59.86 | X-H torsion
[ 10167 10162 10161 10158 ] final  -81.05 input  -65.29 | X-H torsion
[ 10718 10713 10712 10709 ] final -157.31 input   66.30 | X-H torsion
[ 10763 10752 10751 10750 ] final  -88.12 input  -60.55 | X-H torsion
[ 11005 11000 10999 10996 ] final  -88.01 input  -57.11 | X-H torsion

> <Gold.Protein.ActiveResidues>
 VAL166  LYS551  ARG553  GLY616  TRP617  ASP618  TYR619  PRO620  LYS621  CYS622 
 ASP623  PHE694  ASN695  SER759  ASP760  ASP761  ALA762  ILE779  LEU786  VAL792 
 PHE793  MET794  SER795  GLU796  ALA797  LYS798  CYS799  TRP800  GLU811  SER814 

> <Gold.Protein.RotatedAtoms>
  152.4775  133.8175  159.7035 H   0  0  0  0  0  0  0  0  0  0  0  0  # atno 6907 bound_to 6896
  150.8802  133.7373  159.2941 H   0  0  0  0  0  0  0  0  0  0  0  0  # atno 6908 bound_to 6896
  151.4879  135.1059  159.9847 H   0  0  0  0  0  0  0  0  0  0  0  0  # atno 6909 bound_to 6896
  145.1034  139.3502  143.4800 H   0  0  0  0  0  0  0  0  0  0  0  0  # atno 7974 bound_to 7965
  154.7982  140.0457  157.1252 H   0  0  0  0  0  0  0  0  0  0  0  0  # atno 8008 bound_to 7997
  154.9510  140.3065  155.5055 H   0  0  0  0  0  0  0  0  0  0  0  0  # atno 8009 bound_to 7997
  156.2958  140.2288  156.4588 H   0  0  0  0  0  0  0  0  0  0  0  0  # atno 8010 bound_to 7997
  140.4447  143.2503  151.8575 H   0  0  0  0  0  0  0  0  0  0  0  0  # atno 10167 bound_to 10162
  156.5385  130.8553  151.2741 H   0  0  0  0  0  0  0  0  0  0  0  0  # atno 10718 bound_to 10713
  154.6410  135.5389  153.7790 H   0  0  0  0  0  0  0  0  0  0  0  0  # atno 10763 bound_to 10752
  153.0334  135.6459  154.1159 H   0  0  0  0  0  0  0  0  0  0  0  0  # atno 10764 bound_to 10752
  154.1083  135.2928  155.3216 H   0  0  0  0  0  0  0  0  0  0  0  0  # atno 10765 bound_to 10752
  141.1608  133.7545  156.9389 H   0  0  0  0  0  0  0  0  0  0  0  0  # atno 11005 bound_to 11000
  146.3529  140.0921  142.8612 LP  0  0  0  0  0  0  0  0  0  0  0  0  # atno 17320 bound_to 7965
  145.0929  140.9296  143.4758 LP  0  0  0  0  0  0  0  0  0  0  0  0  # atno 17321 bound_to 7965
  139.4792  144.5189  151.8830 LP  0  0  0  0  0  0  0  0  0  0  0  0  # atno 17342 bound_to 10162
  140.4277  144.2158  150.5887 LP  0  0  0  0  0  0  0  0  0  0  0  0  # atno 17343 bound_to 10162
  157.7409  130.9860  150.2411 LP  0  0  0  0  0  0  0  0  0  0  0  0  # atno 17370 bound_to 10713
  156.2993  130.3756  149.7765 LP  0  0  0  0  0  0  0  0  0  0  0  0  # atno 17371 bound_to 10713
  140.1335  134.9340  157.2369 LP  0  0  0  0  0  0  0  0  0  0  0  0  # atno 17394 bound_to 11000
  140.2924  134.3225  155.7311 LP  0  0  0  0  0  0  0  0  0  0  0  0  # atno 17395 bound_to 11000

$$$$
