AV-unprocessed.smi:2884|AV-procd|sdf|11083|dock4
  -GOLD-   2272015553D 1   1.00000     0.00000
 Structure written by MMmdl.
 42 43  0  0  0  0  0  0  0  0  1 V2000
  156.0546  140.8721  160.9392 C   0  0  0  0  0  0  0  0  0  0  0  0
  155.5151  141.1598  159.5319 C   0  0  0  0  0  0  0  0  0  0  0  0
  154.6772  142.4424  159.4683 C   0  0  0  0  0  0  0  0  0  0  0  0
  153.3580  142.0948  159.0636 O   0  0  0  0  0  0  0  0  0  0  0  0
  152.3264  143.0889  159.0915 C   0  0  0  0  0  0  0  0  0  0  0  0
  151.0809  142.2922  158.6294 C   0  0  0  0  0  0  0  0  0  0  0  0
  151.4095  141.2972  157.6157 N   0  0  0  0  0  0  0  0  0  0  0  0
  150.8050  141.0330  156.3928 C   0  0  0  0  0  0  0  0  0  0  0  0
  149.6525  141.7749  155.8920 C   0  0  0  0  0  0  0  0  0  0  0  0
  149.0943  141.5177  154.7587 N   0  0  0  0  0  0  0  0  0  0  0  0
  149.6112  140.5042  153.9897 N   0  0  0  0  0  0  0  0  0  0  0  0
  150.6750  139.7241  154.2931 C   0  0  0  0  0  0  0  0  0  0  0  0
  151.0632  138.8425  153.5291 O   0  0  0  0  0  0  0  0  0  0  0  0
  151.2847  140.0411  155.5918 C   0  0  0  0  0  0  0  0  0  0  0  0
  152.6465  139.0922  156.0888 Cl  0  0  0  0  0  0  0  0  0  0  0  0
  152.1206  143.7302  160.4943 C   0  0  0  0  0  0  0  0  0  0  0  0
  151.0743  144.8588  160.4783 C   0  0  0  0  0  0  0  0  0  0  0  0
  151.4404  145.9385  159.4483 C   0  0  0  0  0  0  0  0  0  0  0  0
  151.6324  145.3365  158.0477 C   0  0  0  0  0  0  0  0  0  0  0  0
  152.6681  144.1965  158.0618 C   0  0  0  0  0  0  0  0  0  0  0  0
  149.1251  140.3573  153.1169 H   0  0  0  0  0  0  0  0  0  0  0  0
  156.6578  139.9642  160.9455 H   0  0  0  0  0  0  0  0  0  0  0  0
  155.2432  140.7355  161.6551 H   0  0  0  0  0  0  0  0  0  0  0  0
  156.6810  141.6903  161.2959 H   0  0  0  0  0  0  0  0  0  0  0  0
  156.3547  141.2468  158.8416 H   0  0  0  0  0  0  0  0  0  0  0  0
  154.9193  140.3144  159.1856 H   0  0  0  0  0  0  0  0  0  0  0  0
  154.6743  142.9146  160.4509 H   0  0  0  0  0  0  0  0  0  0  0  0
  155.1330  143.1382  158.7652 H   0  0  0  0  0  0  0  0  0  0  0  0
  150.5696  141.8371  159.4736 H   0  0  0  0  0  0  0  0  0  0  0  0
  150.3587  142.9772  158.1842 H   0  0  0  0  0  0  0  0  0  0  0  0
  152.0786  140.6084  157.9303 H   0  0  0  0  0  0  0  0  0  0  0  0
  149.2760  142.5737  156.5279 H   0  0  0  0  0  0  0  0  0  0  0  0
  151.8470  142.9752  161.2315 H   0  0  0  0  0  0  0  0  0  0  0  0
  153.0518  144.1721  160.8478 H   0  0  0  0  0  0  0  0  0  0  0  0
  150.0861  144.4579  160.2570 H   0  0  0  0  0  0  0  0  0  0  0  0
  151.0028  145.3068  161.4697 H   0  0  0  0  0  0  0  0  0  0  0  0
  150.6659  146.7053  159.4213 H   0  0  0  0  0  0  0  0  0  0  0  0
  152.3589  146.4389  159.7574 H   0  0  0  0  0  0  0  0  0  0  0  0
  150.6768  144.9732  157.6693 H   0  0  0  0  0  0  0  0  0  0  0  0
  151.9535  146.1150  157.3549 H   0  0  0  0  0  0  0  0  0  0  0  0
  153.6395  144.6340  158.2883 H   0  0  0  0  0  0  0  0  0  0  0  0
  152.7585  143.7670  157.0636 H   0  0  0  0  0  0  0  0  0  0  0  0
  1  2  1  0  0  0  0
  1 22  1  0  0  0  0
  1 23  1  0  0  0  0
  1 24  1  0  0  0  0
  2  3  1  0  0  0  0
  2 25  1  0  0  0  0
  2 26  1  0  0  0  0
  3  4  1  0  0  0  0
  3 27  1  0  0  0  0
  3 28  1  0  0  0  0
  4  5  1  0  0  0  0
  5 20  1  0  0  0  0
  5  6  1  0  0  0  0
  5 16  1  0  0  0  0
  6  7  1  0  0  0  0
  6 29  1  0  0  0  0
  6 30  1  0  0  0  0
  7  8  1  0  0  0  0
  7 31  1  0  0  0  0
  8 14  2  0  0  0  0
  8  9  1  0  0  0  0
  9 10  2  0  0  0  0
  9 32  1  0  0  0  0
 10 11  1  0  0  0  0
 11 21  1  0  0  0  0
 11 12  1  0  0  0  0
 12 13  2  0  0  0  0
 12 14  1  0  0  0  0
 14 15  1  0  0  0  0
 16 17  1  0  0  0  0
 16 33  1  0  0  0  0
 16 34  1  0  0  0  0
 17 18  1  0  0  0  0
 17 35  1  0  0  0  0
 17 36  1  0  0  0  0
 18 19  1  0  0  0  0
 18 37  1  0  0  0  0
 18 38  1  0  0  0  0
 19 20  1  0  0  0  0
 19 39  1  0  0  0  0
 19 40  1  0  0  0  0
 20 41  1  0  0  0  0
 20 42  1  0  0  0  0
M  END
> <s_m_source_file>
AV-unprocessed.smi

> <i_m_source_file_index>
2884

> <i_lp_mmshare_version>
43012

> <i_f3d_flags>
0

> <s_epik_input>
W0NIMl0xW0NIMl1bQ0gyXVtDSDJdW0NIMl1DMShPW0NIMl1bQ0gyXVtDSDNdKVtDSDJdW05IXWMyW2NIXW5bbkhdYyg9TyljMkNs

> <s_epik_cmdline>
J2VwaWtfcHl0aG9uJywgJy1waCcsICc3LjAnLCAnLXRuJywgJzgnLCAnLW1hJywgJzIwMCcsICctbWV0YWxfYmluZGluZycsICctaW1hZScsICc8aW5maWxlLm1hZT4nLCAnLW9tYWUnLCAnPG91dGZpbGUubWFlPic=

> <r_lp_tautomer_probability>
0.986175

> <r_epik_Ionization_Penalty>
0.00111508

> <r_epik_Ionization_Penalty_Charging>
0.00108742

> <r_epik_Ionization_Penalty_Neutral>
2.7657e-05

> <r_epik_State_Penalty>
0.00620319

> <r_epik_Charging_Adjusted_Penalty>
0.00729061

> <i_epik_Tot_Q>
0

> <i_epik_Tot_abs_Q>
0

> <r_epik_Metal_State_Penalty>
0.300009

> <b_epik_Metal_Only>
0

> <s_lp_Force_Field>
OPLS_2005

> <r_lp_Energy>
35.8934

> <b_lp_Chiralities_Consistent>
1

> <s_lp_Variant>
AV-unprocessed.smi:2884-1

> <Gold.Version>
5.8.1

> <Gold.Id.Protein>
6NUR|6NUR_protein|mol2

> <Gold.PLP.Fitness>
47.2099

> <Gold.PLP.PLP>
-42.7836

> <Gold.PLP.part.hbond>
-2.0000

> <Gold.PLP.part.metal>
0.0000

> <Gold.PLP.part.buried>
-4.7407

> <Gold.PLP.part.nonpolar>
-37.0299

> <Gold.PLP.part.repulsive>
3.3006

> <Gold.PLP.ligand.clash>
0.0000

> <Gold.PLP.ligand.torsion>
0.7870

> <Gold.PLP.Chemscore.Hbond>
1.0000

> <Gold.PLP.Chemscore.CHOScore>
0.9915

> <Gold.PLP.Chemscore.Metal>
0.0000

> <Gold.Chemscore.Hbonds>
donor molecule, donor type, donor heavy atom, donor atom, acceptor molecule, acceptor atom, score
      L1  H    11    21       P1  7957  0.73
      L1  C     9    32       P1  8028  0.82

> <Gold.PLP.Chemscore.Internal.Correction>
0.0259

> <Gold.Rescore>
     Score         DG    S(hbond)    S(metal)    S(lipo)     H(rot)  DE(clash)    DE(int)     intcor
     15.22     -18.27       0.75        0.00     126.50       1.77       2.44       0.61       ----

> <Gold.Chemscore.Fitness>
15.2232

> <Gold.Chemscore.DG>
-18.2689

> <Gold.Chemscore.ZeroCoef>
-5.4800

> <Gold.Chemscore.Hbond>
0.7516

> <Gold.Chemscore.Metal>
0.0000

> <Gold.Chemscore.Lipo>
126.4960

> <Gold.Chemscore.Internal_Hbond>
0.0000

> <Gold.Chemscore.DEClash>
2.4368

> <Gold.Chemscore.DEInternal>
0.6089

> <Gold.Chemscore.Rot>
1.7663

> <Gold.Chemscore.Internal.Correction>
   9.000000E+99

> <Gold.Chemscore.Hbonds>
donor molecule, donor type, donor heavy atom, donor atom, acceptor molecule, acceptor atom, score
      L1  H    11    21       P1  7957  0.70

> <Gold.Chemscore.Hbond.Weighted>
-2.5105

> <Gold.Chemscore.Metal.Weighted>
-0.0000

> <Gold.Chemscore.Lipo.Weighted>
-14.8000

> <Gold.Chemscore.Internal_Hbond.Weighted>
0.0000

> <Gold.Chemscore.DEClash.Weighted>
2.4368

> <Gold.Chemscore.DEInternal.Weighted>
0.6089

> <Gold.Chemscore.Rot.Weighted>
4.5216

> <Gold.Chemscore.Internal.Correction.Weighted>
   9.000000E+99

> <Gold.Protein.RotatedTorsions>
[ 6907 6896 6895 6894 ] final -153.14 input  -60.11 | X-H torsion
[ 7974 7965 7964 7962 ] final   -3.57 input  175.53 | X-H torsion
[ 8008 7997 7996 7995 ] final  -56.37 input   59.86 | X-H torsion
[ 10167 10162 10161 10158 ] final -149.29 input  -65.29 | X-H torsion
[ 10718 10713 10712 10709 ] final  -31.73 input   66.30 | X-H torsion
[ 10763 10752 10751 10750 ] final  -27.08 input  -60.55 | X-H torsion
[ 11005 11000 10999 10996 ] final -141.54 input  -57.11 | X-H torsion

> <Gold.Protein.ActiveResidues>
 VAL166  LYS551  ARG553  GLY616  TRP617  ASP618  TYR619  PRO620  LYS621  CYS622 
 ASP623  PHE694  ASN695  SER759  ASP760  ASP761  ALA762  ILE779  LEU786  VAL792 
 PHE793  MET794  SER795  GLU796  ALA797  LYS798  CYS799  TRP800  GLU811  SER814 

> <Gold.Protein.RotatedAtoms>
  151.2382  133.4414  159.2606 H   0  0  0  0  0  0  0  0  0  0  0  0  # atno 6907 bound_to 6896
  151.0730  134.9811  159.8328 H   0  0  0  0  0  0  0  0  0  0  0  0  # atno 6908 bound_to 6896
  152.5414  134.2326  159.8883 H   0  0  0  0  0  0  0  0  0  0  0  0  # atno 6909 bound_to 6896
  146.2387  140.1741  142.8332 H   0  0  0  0  0  0  0  0  0  0  0  0  # atno 7974 bound_to 7965
  154.4228  140.1131  156.5626 H   0  0  0  0  0  0  0  0  0  0  0  0  # atno 8008 bound_to 7997
  155.6295  140.3495  155.4659 H   0  0  0  0  0  0  0  0  0  0  0  0  # atno 8009 bound_to 7997
  155.9959  140.1189  157.0583 H   0  0  0  0  0  0  0  0  0  0  0  0  # atno 8010 bound_to 7997
  139.7456  143.8596  152.2573 H   0  0  0  0  0  0  0  0  0  0  0  0  # atno 10167 bound_to 10162
  156.3836  130.4360  149.7449 H   0  0  0  0  0  0  0  0  0  0  0  0  # atno 10718 bound_to 10713
  153.7263  135.6941  153.5000 H   0  0  0  0  0  0  0  0  0  0  0  0  # atno 10763 bound_to 10752
  153.2168  135.4383  155.0442 H   0  0  0  0  0  0  0  0  0  0  0  0  # atno 10764 bound_to 10752
  154.8268  135.3450  154.6794 H   0  0  0  0  0  0  0  0  0  0  0  0  # atno 10765 bound_to 10752
  140.8315  134.2512  157.4854 H   0  0  0  0  0  0  0  0  0  0  0  0  # atno 11005 bound_to 11000
  144.9988  140.8613  143.5294 LP  0  0  0  0  0  0  0  0  0  0  0  0  # atno 17320 bound_to 7965
  145.1757  139.2379  143.5319 LP  0  0  0  0  0  0  0  0  0  0  0  0  # atno 17321 bound_to 7965
  139.8559  144.7141  150.9157 LP  0  0  0  0  0  0  0  0  0  0  0  0  # atno 17342 bound_to 10162
  140.7791  143.3859  151.1395 LP  0  0  0  0  0  0  0  0  0  0  0  0  # atno 17343 bound_to 10162
  156.4530  130.7916  151.2937 LP  0  0  0  0  0  0  0  0  0  0  0  0  # atno 17370 bound_to 10713
  157.7494  131.0089  150.3248 LP  0  0  0  0  0  0  0  0  0  0  0  0  # atno 17371 bound_to 10713
  139.8705  134.9588  156.4312 LP  0  0  0  0  0  0  0  0  0  0  0  0  # atno 17394 bound_to 11000
  140.8993  133.7791  155.9662 LP  0  0  0  0  0  0  0  0  0  0  0  0  # atno 17395 bound_to 11000

$$$$
