AV-unprocessed.smi:3205|AV-procd|sdf|12254|dock9
  -GOLD-   2272018 93D 1   1.00000     0.00000
 Structure written by MMmdl.
 38 39  0  0  0  0  0  0  0  0  2 V2000
  145.8796  137.8051  152.5332 C   0  0  0  0  0  0  0  0  0  0  0  0
  145.5003  136.3921  153.0210 C   0  0  2  0  0  0  0  0  0  0  0  0
  146.1429  135.3751  152.1555 N   0  3  0  0  0  0  0  0  0  0  0  0
  146.4054  134.0686  152.7945 C   0  0  0  0  0  0  0  0  0  0  0  0
  146.7855  133.0147  151.7441 C   0  0  0  0  0  0  0  0  0  0  0  0
  145.6934  132.7401  150.8299 N   0  0  0  0  0  0  0  0  0  0  0  0
  145.6931  131.9337  149.7110 C   0  0  0  0  0  0  0  0  0  0  0  0
  144.4430  131.9974  149.1654 C   0  0  0  0  0  0  0  0  0  0  0  0
  143.7412  132.8834  150.0295 C   0  0  0  0  0  0  0  0  0  0  0  0
  144.4936  133.3291  151.0228 N   0  0  0  0  0  0  0  0  0  0  0  0
  143.9660  136.1585  153.0509 C   0  0  0  0  0  0  0  0  0  0  0  0
  143.2073  137.2174  153.8791 C   0  0  0  0  0  0  0  0  0  0  0  0
  141.7057  136.8960  153.9613 C   0  0  0  0  0  0  0  0  0  0  0  0
  141.5133  135.5992  154.5112 O   0  0  0  0  0  0  0  0  0  0  0  0
  142.0845  134.5746  153.7085 C   0  0  0  0  0  0  0  0  0  0  0  0
  143.6066  134.7687  153.6205 C   0  0  0  0  0  0  0  0  0  0  0  0
  145.5168  138.5772  153.2111 H   0  0  0  0  0  0  0  0  0  0  0  0
  145.4669  138.0072  151.5441 H   0  0  0  0  0  0  0  0  0  0  0  0
  146.9592  137.9383  152.4736 H   0  0  0  0  0  0  0  0  0  0  0  0
  145.8783  136.2639  154.0367 H   0  0  0  0  0  0  0  0  0  0  0  0
  145.5174  135.2023  151.3813 H   0  0  0  0  0  0  0  0  0  0  0  0
  147.2085  134.1651  153.5252 H   0  0  0  0  0  0  0  0  0  0  0  0
  145.5129  133.7500  153.3350 H   0  0  0  0  0  0  0  0  0  0  0  0
  147.6464  133.3467  151.1621 H   0  0  0  0  0  0  0  0  0  0  0  0
  147.0723  132.0813  152.2306 H   0  0  0  0  0  0  0  0  0  0  0  0
  146.5713  131.3878  149.3989 H   0  0  0  0  0  0  0  0  0  0  0  0
  144.0846  131.4902  148.2819 H   0  0  0  0  0  0  0  0  0  0  0  0
  142.7154  133.2146  149.9637 H   0  0  0  0  0  0  0  0  0  0  0  0
  143.5933  136.2098  152.0263 H   0  0  0  0  0  0  0  0  0  0  0  0
  143.6219  137.2675  154.8869 H   0  0  0  0  0  0  0  0  0  0  0  0
  143.3223  138.2091  153.4427 H   0  0  0  0  0  0  0  0  0  0  0  0
  141.2017  137.6246  154.5969 H   0  0  0  0  0  0  0  0  0  0  0  0
  141.2398  136.9590  152.9766 H   0  0  0  0  0  0  0  0  0  0  0  0
  141.8560  133.6083  154.1581 H   0  0  0  0  0  0  0  0  0  0  0  0
  141.6325  134.5785  152.7155 H   0  0  0  0  0  0  0  0  0  0  0  0
  144.0271  133.9743  153.0036 H   0  0  0  0  0  0  0  0  0  0  0  0
  144.0408  134.6524  154.6145 H   0  0  0  0  0  0  0  0  0  0  0  0
  147.0059  135.7518  151.7899 H   0  0  0  0  0  0  0  0  0  0  0  0
  1  2  1  0  0  0  0
  1 17  1  0  0  0  0
  1 18  1  0  0  0  0
  1 19  1  0  0  0  0
  2  3  1  0  0  0  0
  2 11  1  0  0  0  0
  2 20  1  0  0  0  0
  3  4  1  0  0  0  0
  3 21  1  0  0  0  0
  3 38  1  0  0  0  0
  4  5  1  0  0  0  0
  4 22  1  0  0  0  0
  4 23  1  0  0  0  0
  5  6  1  0  0  0  0
  5 24  1  0  0  0  0
  5 25  1  0  0  0  0
  6 10  1  0  0  0  0
  6  7  1  0  0  0  0
  7  8  2  0  0  0  0
  7 26  1  0  0  0  0
  8  9  1  0  0  0  0
  8 27  1  0  0  0  0
  9 10  2  0  0  0  0
  9 28  1  0  0  0  0
 11 16  1  0  0  0  0
 11 12  1  0  0  0  0
 11 29  1  0  0  0  0
 12 13  1  0  0  0  0
 12 30  1  0  0  0  0
 12 31  1  0  0  0  0
 13 14  1  0  0  0  0
 13 32  1  0  0  0  0
 13 33  1  0  0  0  0
 14 15  1  0  0  0  0
 15 16  1  0  0  0  0
 15 34  1  0  0  0  0
 15 35  1  0  0  0  0
 16 36  1  0  0  0  0
 16 37  1  0  0  0  0
M  CHG  1   3   1
M  END
> <s_m_source_file>
AV-unprocessed.smi

> <i_m_source_file_index>
3205

> <i_lp_mmshare_version>
43012

> <i_f3d_flags>
0

> <s_epik_input>
W0NIMl0xW0NIMl1PW0NIMl1bQ0gyXVtDSF0xW0NASF0oW0NIM10pW05IXVtDSDJdW0NIMl1uMltjSF1bY0hdW2NIXW4y

> <s_epik_cmdline>
J2VwaWtfcHl0aG9uJywgJy1waCcsICc3LjAnLCAnLXRuJywgJzgnLCAnLW1hJywgJzIwMCcsICctbWV0YWxfYmluZGluZycsICctaW1hZScsICc8aW5maWxlLm1hZT4nLCAnLW9tYWUnLCAnPG91dGZpbGUubWFlPic=

> <r_lp_tautomer_probability>
1

> <r_epik_Ionization_Penalty>
0.00310903

> <r_epik_Ionization_Penalty_Charging>
0.00310601

> <r_epik_Ionization_Penalty_Neutral>
3.02836e-06

> <r_epik_State_Penalty>
-0

> <r_epik_Charging_Adjusted_Penalty>
0.00310601

> <i_epik_Tot_Q>
1

> <i_epik_Tot_abs_Q>
1

> <r_epik_Metal_State_Penalty>
-0

> <b_epik_Metal_Only>
0

> <s_lp_Force_Field>
OPLS_2005

> <r_lp_Energy>
15.8656

> <b_lp_Chiralities_Consistent>
1

> <s_lp_Variant>
AV-unprocessed.smi:3205-1

> <Gold.Version>
5.8.1

> <Gold.Id.Protein>
6NUR|6NUR_protein|mol2

> <Gold.PLP.Fitness>
41.9750

> <Gold.PLP.PLP>
-30.6272

> <Gold.PLP.part.hbond>
-1.0000

> <Gold.PLP.part.metal>
0.0000

> <Gold.PLP.part.buried>
-4.0330

> <Gold.PLP.part.nonpolar>
-26.7106

> <Gold.PLP.part.repulsive>
0.2735

> <Gold.PLP.ligand.clash>
0.0000

> <Gold.PLP.ligand.torsion>
0.3510

> <Gold.PLP.Chemscore.Hbond>
2.0000

> <Gold.PLP.Chemscore.CHOScore>
2.0000

> <Gold.PLP.Chemscore.Metal>
0.0000

> <Gold.Chemscore.Hbonds>
donor molecule, donor type, donor heavy atom, donor atom, acceptor molecule, acceptor atom, score
      L1  H     3    38       P1  7948  2.00
      L1  C     7    26       P1 10747  0.85
      L1  C     9    28       P1 10186  1.00

> <Gold.PLP.Chemscore.Internal.Correction>
0.0498

> <Gold.Rescore>
     Score         DG    S(hbond)    S(metal)    S(lipo)     H(rot)  DE(clash)    DE(int)     intcor
     12.11     -13.69       1.00        0.00      77.97       1.66       0.17       1.42       ----

> <Gold.Chemscore.Fitness>
12.1061

> <Gold.Chemscore.DG>
-13.6939

> <Gold.Chemscore.ZeroCoef>
-5.4800

> <Gold.Chemscore.Hbond>
0.9998

> <Gold.Chemscore.Metal>
0.0000

> <Gold.Chemscore.Lipo>
77.9711

> <Gold.Chemscore.Internal_Hbond>
0.0000

> <Gold.Chemscore.DEClash>
0.1687

> <Gold.Chemscore.DEInternal>
1.4191

> <Gold.Chemscore.Rot>
1.6594

> <Gold.Chemscore.Internal.Correction>
   9.000000E+99

> <Gold.Chemscore.Hbonds>
donor molecule, donor type, donor heavy atom, donor atom, acceptor molecule, acceptor atom, score
      L1  H     3    38       P1  7948  0.96

> <Gold.Chemscore.Hbond.Weighted>
-3.3395

> <Gold.Chemscore.Metal.Weighted>
-0.0000

> <Gold.Chemscore.Lipo.Weighted>
-9.1226

> <Gold.Chemscore.Internal_Hbond.Weighted>
0.0000

> <Gold.Chemscore.DEClash.Weighted>
0.1687

> <Gold.Chemscore.DEInternal.Weighted>
1.4191

> <Gold.Chemscore.Rot.Weighted>
4.2482

> <Gold.Chemscore.Internal.Correction.Weighted>
   9.000000E+99

> <Gold.Protein.RotatedTorsions>
[ 6907 6896 6895 6894 ] final -117.47 input  -60.11 | X-H torsion
[ 7974 7965 7964 7962 ] final   44.84 input  175.53 | X-H torsion
[ 8008 7997 7996 7995 ] final  144.08 input   59.86 | X-H torsion
[ 10167 10162 10161 10158 ] final  -93.26 input  -65.29 | X-H torsion
[ 10718 10713 10712 10709 ] final  -87.60 input   66.30 | X-H torsion
[ 10763 10752 10751 10750 ] final -166.61 input  -60.55 | X-H torsion
[ 11005 11000 10999 10996 ] final -118.94 input  -57.11 | X-H torsion

> <Gold.Protein.ActiveResidues>
 VAL166  LYS551  ARG553  GLY616  TRP617  ASP618  TYR619  PRO620  LYS621  CYS622 
 ASP623  PHE694  ASN695  SER759  ASP760  ASP761  ALA762  ILE779  LEU786  VAL792 
 PHE793  MET794  SER795  GLU796  ALA797  LYS798  CYS799  TRP800  GLU811  SER814 

> <Gold.Protein.RotatedAtoms>
  150.8139  133.8372  159.3169 H   0  0  0  0  0  0  0  0  0  0  0  0  # atno 6907 bound_to 6896
  151.6149  135.1035  160.0099 H   0  0  0  0  0  0  0  0  0  0  0  0  # atno 6908 bound_to 6896
  152.4231  133.7109  159.6535 H   0  0  0  0  0  0  0  0  0  0  0  0  # atno 6909 bound_to 6896
  146.0533  139.5030  142.9704 H   0  0  0  0  0  0  0  0  0  0  0  0  # atno 7974 bound_to 7965
  156.2916  140.2245  156.4995 H   0  0  0  0  0  0  0  0  0  0  0  0  # atno 8008 bound_to 7997
  154.7702  140.0467  157.1066 H   0  0  0  0  0  0  0  0  0  0  0  0  # atno 8009 bound_to 7997
  154.9883  140.3087  155.4920 H   0  0  0  0  0  0  0  0  0  0  0  0  # atno 8010 bound_to 7997
  140.3264  143.3019  151.9990 H   0  0  0  0  0  0  0  0  0  0  0  0  # atno 10167 bound_to 10162
  155.9985  130.4805  150.4891 H   0  0  0  0  0  0  0  0  0  0  0  0  # atno 10718 bound_to 10713
  154.6816  135.2955  154.9605 H   0  0  0  0  0  0  0  0  0  0  0  0  # atno 10763 bound_to 10752
  154.0598  135.6633  153.4814 H   0  0  0  0  0  0  0  0  0  0  0  0  # atno 10764 bound_to 10752
  153.0551  135.5149  154.7861 H   0  0  0  0  0  0  0  0  0  0  0  0  # atno 10765 bound_to 10752
  141.0251  134.0066  157.3227 H   0  0  0  0  0  0  0  0  0  0  0  0  # atno 11005 bound_to 11000
  145.6687  141.0222  143.1669 LP  0  0  0  0  0  0  0  0  0  0  0  0  # atno 17320 bound_to 7965
  144.7134  139.8285  143.7407 LP  0  0  0  0  0  0  0  0  0  0  0  0  # atno 17321 bound_to 7965
  139.4864  144.6270  151.7145 LP  0  0  0  0  0  0  0  0  0  0  0  0  # atno 17342 bound_to 10162
  140.5437  144.0538  150.6098 LP  0  0  0  0  0  0  0  0  0  0  0  0  # atno 17343 bound_to 10162
  157.2888  131.0622  151.2148 LP  0  0  0  0  0  0  0  0  0  0  0  0  # atno 17370 bound_to 10713
  157.3168  130.6917  149.6246 LP  0  0  0  0  0  0  0  0  0  0  0  0  # atno 17371 bound_to 10713
  139.9170  135.0197  156.7921 LP  0  0  0  0  0  0  0  0  0  0  0  0  # atno 17394 bound_to 11000
  140.6506  133.9735  155.7753 LP  0  0  0  0  0  0  0  0  0  0  0  0  # atno 17395 bound_to 11000

$$$$
