AV-unprocessed.smi:3032|AV-procd|sdf|11566|dock10
  -GOLD-   2272016533D 1   1.00000     0.00000
 Structure written by MMmdl.
 37 38  0  0  0  0  0  0  0  0  1 V2000
  153.4794  141.7822  160.5231 C   0  0  0  0  0  0  0  0  0  0  0  0
  152.4257  142.5174  159.6824 C   0  0  1  0  0  0  0  0  0  0  0  0
  152.8902  143.9400  159.3162 C   0  0  0  0  0  0  0  0  0  0  0  0
  151.8442  144.6737  158.4622 C   0  0  0  0  0  0  0  0  0  0  0  0
  151.4978  143.8724  157.1978 C   0  0  0  0  0  0  0  0  0  0  0  0
  151.0110  142.4528  157.5553 C   0  0  1  0  0  0  0  0  0  0  0  0
  150.6893  141.6413  156.2942 C   0  0  0  0  0  0  0  0  0  0  0  0
  151.3422  140.6333  156.0233 O   0  0  0  0  0  0  0  0  0  0  0  0
  149.6622  142.0777  155.5473 N   0  0  0  0  0  0  0  0  0  0  0  0
  149.1217  141.3991  154.3713 C   0  0  0  0  0  0  0  0  0  0  0  0
  147.6493  140.9874  154.5642 C   0  0  0  0  0  0  0  0  0  0  0  0
  147.1858  139.9202  153.6223 C   0  0  0  0  0  0  0  0  0  0  0  0
  146.9914  138.6387  153.9558 N   0  0  0  0  0  0  0  0  0  0  0  0
  146.5328  138.0194  152.8036 N   0  0  0  0  0  0  0  0  0  0  0  0
  146.4963  138.9874  151.8867 C   0  0  0  0  0  0  0  0  0  0  0  0
  146.8932  140.1824  152.3388 N   0  0  0  0  0  0  0  0  0  0  0  0
  152.0685  141.7229  158.4110 C   0  0  0  0  0  0  0  0  0  0  0  0
  146.9475  141.0599  151.8430 H   0  0  0  0  0  0  0  0  0  0  0  0
  154.4076  141.6494  159.9665 H   0  0  0  0  0  0  0  0  0  0  0  0
  153.1253  140.7946  160.8198 H   0  0  0  0  0  0  0  0  0  0  0  0
  153.7133  142.3354  161.4331 H   0  0  0  0  0  0  0  0  0  0  0  0
  151.5233  142.6041  160.2894 H   0  0  0  0  0  0  0  0  0  0  0  0
  153.0875  144.5133  160.2225 H   0  0  0  0  0  0  0  0  0  0  0  0
  153.8335  143.8913  158.7706 H   0  0  0  0  0  0  0  0  0  0  0  0
  150.9409  144.8379  159.0509 H   0  0  0  0  0  0  0  0  0  0  0  0
  152.2171  145.6604  158.1861 H   0  0  0  0  0  0  0  0  0  0  0  0
  150.7314  144.4012  156.6295 H   0  0  0  0  0  0  0  0  0  0  0  0
  152.3783  143.8201  156.5550 H   0  0  0  0  0  0  0  0  0  0  0  0
  150.0986  142.5462  158.1471 H   0  0  0  0  0  0  0  0  0  0  0  0
  149.1898  142.9197  155.8427 H   0  0  0  0  0  0  0  0  0  0  0  0
  149.2026  142.0752  153.5203 H   0  0  0  0  0  0  0  0  0  0  0  0
  149.7224  140.5234  154.1199 H   0  0  0  0  0  0  0  0  0  0  0  0
  147.4968  140.6413  155.5874 H   0  0  0  0  0  0  0  0  0  0  0  0
  147.0072  141.8599  154.4400 H   0  0  0  0  0  0  0  0  0  0  0  0
  146.1741  138.8213  150.8693 H   0  0  0  0  0  0  0  0  0  0  0  0
  152.9728  141.5552  157.8233 H   0  0  0  0  0  0  0  0  0  0  0  0
  151.6984  140.7352  158.6902 H   0  0  0  0  0  0  0  0  0  0  0  0
  1  2  1  0  0  0  0
  1 19  1  0  0  0  0
  1 20  1  0  0  0  0
  1 21  1  0  0  0  0
  2 17  1  0  0  0  0
  2  3  1  0  0  0  0
  2 22  1  0  0  0  0
  3  4  1  0  0  0  0
  3 23  1  0  0  0  0
  3 24  1  0  0  0  0
  4  5  1  0  0  0  0
  4 25  1  0  0  0  0
  4 26  1  0  0  0  0
  5  6  1  0  0  0  0
  5 27  1  0  0  0  0
  5 28  1  0  0  0  0
  6  7  1  0  0  0  0
  6 17  1  0  0  0  0
  6 29  1  0  0  0  0
  7  8  2  0  0  0  0
  7  9  1  0  0  0  0
  9 10  1  0  0  0  0
  9 30  1  0  0  0  0
 10 11  1  0  0  0  0
 10 31  1  0  0  0  0
 10 32  1  0  0  0  0
 11 12  1  0  0  0  0
 11 33  1  0  0  0  0
 11 34  1  0  0  0  0
 12 16  1  0  0  0  0
 12 13  2  0  0  0  0
 13 14  1  0  0  0  0
 14 15  2  0  0  0  0
 15 16  1  0  0  0  0
 15 35  1  0  0  0  0
 16 18  1  0  0  0  0
 17 36  1  0  0  0  0
 17 37  1  0  0  0  0
M  END
> <s_m_source_file>
AV-unprocessed.smi

> <i_m_source_file_index>
3032

> <i_lp_mmshare_version>
43012

> <i_f3d_flags>
0

> <s_epik_input>
W0NIM11bQ0BASF0xW0NIMl1bQ0gyXVtDSDJdW0NASF0oW0NIMl0xKUMoPU8pW05IXVtDSDJdW0NIMl1jMm5uW2NIXVtuSF0y

> <s_epik_cmdline>
J2VwaWtfcHl0aG9uJywgJy1waCcsICc3LjAnLCAnLXRuJywgJzgnLCAnLW1hJywgJzIwMCcsICctbWV0YWxfYmluZGluZycsICctaW1hZScsICc8aW5maWxlLm1hZT4nLCAnLW9tYWUnLCAnPG91dGZpbGUubWFlPic=

> <r_lp_tautomer_probability>
0.0517155

> <r_epik_Ionization_Penalty>
0.00149837

> <r_epik_Ionization_Penalty_Charging>
0

> <r_epik_Ionization_Penalty_Neutral>
0.00149837

> <r_epik_State_Penalty>
2.1109

> <r_epik_Charging_Adjusted_Penalty>
2.1109

> <i_epik_Tot_Q>
0

> <i_epik_Tot_abs_Q>
0

> <r_epik_Metal_State_Penalty>
2.23635

> <b_epik_Metal_Only>
0

> <s_lp_Force_Field>
OPLS_2005

> <r_lp_Energy>
11.6052

> <b_lp_Chiralities_Consistent>
1

> <s_lp_Variant>
AV-unprocessed.smi:3032-10

> <Gold.Version>
5.8.1

> <Gold.Id.Protein>
6NUR|6NUR_protein|mol2

> <Gold.PLP.Fitness>
45.4435

> <Gold.PLP.PLP>
-40.1697

> <Gold.PLP.part.hbond>
-2.3023

> <Gold.PLP.part.metal>
0.0000

> <Gold.PLP.part.buried>
-3.6487

> <Gold.PLP.part.nonpolar>
-36.0502

> <Gold.PLP.part.repulsive>
0.6716

> <Gold.PLP.ligand.clash>
0.0000

> <Gold.PLP.ligand.torsion>
0.3713

> <Gold.PLP.Chemscore.Hbond>
1.0000

> <Gold.PLP.Chemscore.CHOScore>
1.0000

> <Gold.PLP.Chemscore.Metal>
0.0000

> <Gold.Chemscore.Hbonds>
donor molecule, donor type, donor heavy atom, donor atom, acceptor molecule, acceptor atom, score
      L1  H     9    30       P1  8028  1.00
      L1  C    15    35       P1 10171  1.00

> <Gold.PLP.Chemscore.Internal.Correction>
0.0164

> <Gold.Rescore>
     Score         DG    S(hbond)    S(metal)    S(lipo)     H(rot)  DE(clash)    DE(int)     intcor
     13.98     -14.20       1.07        0.00      93.34       2.25       0.08       0.14       ----

> <Gold.Chemscore.Fitness>
13.9830

> <Gold.Chemscore.DG>
-14.2004

> <Gold.Chemscore.ZeroCoef>
-5.4800

> <Gold.Chemscore.Hbond>
1.0660

> <Gold.Chemscore.Metal>
0.0000

> <Gold.Chemscore.Lipo>
93.3351

> <Gold.Chemscore.Internal_Hbond>
0.0000

> <Gold.Chemscore.DEClash>
0.0823

> <Gold.Chemscore.DEInternal>
0.1351

> <Gold.Chemscore.Rot>
2.2501

> <Gold.Chemscore.Internal.Correction>
   9.000000E+99

> <Gold.Chemscore.Hbonds>
donor molecule, donor type, donor heavy atom, donor atom, acceptor molecule, acceptor atom, score
      L1  H     9    30       P1  8028  0.94

> <Gold.Chemscore.Hbond.Weighted>
-3.5605

> <Gold.Chemscore.Metal.Weighted>
-0.0000

> <Gold.Chemscore.Lipo.Weighted>
-10.9202

> <Gold.Chemscore.Internal_Hbond.Weighted>
0.0000

> <Gold.Chemscore.DEClash.Weighted>
0.0823

> <Gold.Chemscore.DEInternal.Weighted>
0.1351

> <Gold.Chemscore.Rot.Weighted>
5.7603

> <Gold.Chemscore.Internal.Correction.Weighted>
   9.000000E+99

> <Gold.Protein.RotatedTorsions>
[ 6907 6896 6895 6894 ] final   -9.17 input  -60.11 | X-H torsion
[ 7974 7965 7964 7962 ] final  -53.26 input  175.53 | X-H torsion
[ 8008 7997 7996 7995 ] final  -60.26 input   59.86 | X-H torsion
[ 10167 10162 10161 10158 ] final  158.23 input  -65.29 | X-H torsion
[ 10718 10713 10712 10709 ] final   -1.05 input   66.30 | X-H torsion
[ 10763 10752 10751 10750 ] final -175.39 input  -60.55 | X-H torsion
[ 11005 11000 10999 10996 ] final  147.41 input  -57.11 | X-H torsion

> <Gold.Protein.ActiveResidues>
 VAL166  LYS551  ARG553  GLY616  TRP617  ASP618  TYR619  PRO620  LYS621  CYS622 
 ASP623  PHE694  ASN695  SER759  ASP760  ASP761  ALA762  ILE779  LEU786  VAL792 
 PHE793  MET794  SER795  GLU796  ALA797  LYS798  CYS799  TRP800  GLU811  SER814 

> <Gold.Protein.RotatedAtoms>
  151.4220  135.0999  159.9616 H   0  0  0  0  0  0  0  0  0  0  0  0  # atno 6907 bound_to 6896
  152.4985  133.8698  159.7303 H   0  0  0  0  0  0  0  0  0  0  0  0  # atno 6908 bound_to 6896
  150.9216  133.6815  159.2858 H   0  0  0  0  0  0  0  0  0  0  0  0  # atno 6909 bound_to 6896
  145.8988  140.8011  142.9754 H   0  0  0  0  0  0  0  0  0  0  0  0  # atno 7974 bound_to 7965
  154.4390  140.1043  156.6245 H   0  0  0  0  0  0  0  0  0  0  0  0  # atno 8008 bound_to 7997
  155.5671  140.3488  155.4487 H   0  0  0  0  0  0  0  0  0  0  0  0  # atno 8009 bound_to 7997
  156.0417  140.1283  157.0138 H   0  0  0  0  0  0  0  0  0  0  0  0  # atno 8010 bound_to 7997
  139.4826  144.4844  151.8399 H   0  0  0  0  0  0  0  0  0  0  0  0  # atno 10167 bound_to 10162
  156.8113  130.5425  149.5708 H   0  0  0  0  0  0  0  0  0  0  0  0  # atno 10718 bound_to 10713
  154.5850  135.2839  155.0694 H   0  0  0  0  0  0  0  0  0  0  0  0  # atno 10763 bound_to 10752
  154.2016  135.6423  153.5092 H   0  0  0  0  0  0  0  0  0  0  0  0  # atno 10764 bound_to 10752
  153.0101  135.5470  154.6516 H   0  0  0  0  0  0  0  0  0  0  0  0  # atno 10765 bound_to 10752
  140.0874  134.9061  157.1597 H   0  0  0  0  0  0  0  0  0  0  0  0  # atno 11005 bound_to 11000
  144.6734  140.1644  143.7419 LP  0  0  0  0  0  0  0  0  0  0  0  0  # atno 17320 bound_to 7965
  145.8817  139.2326  143.1601 LP  0  0  0  0  0  0  0  0  0  0  0  0  # atno 17321 bound_to 7965
  140.4322  144.2100  150.5888 LP  0  0  0  0  0  0  0  0  0  0  0  0  # atno 17342 bound_to 10162
  140.4767  143.2393  151.9012 LP  0  0  0  0  0  0  0  0  0  0  0  0  # atno 17343 bound_to 10162
  156.1042  130.5992  150.9944 LP  0  0  0  0  0  0  0  0  0  0  0  0  # atno 17370 bound_to 10713
  157.6504  131.0898  150.8063 LP  0  0  0  0  0  0  0  0  0  0  0  0  # atno 17371 bound_to 10713
  140.3401  134.2713  155.7213 LP  0  0  0  0  0  0  0  0  0  0  0  0  # atno 17394 bound_to 11000
  141.2067  133.7826  157.0163 LP  0  0  0  0  0  0  0  0  0  0  0  0  # atno 17395 bound_to 11000

$$$$
