#       Name:                AV-unprocessed.smi:1626
#       Creating user name   scv26
#       Creation time:       Fri Mar 27 07:18:45 2020


#       File generated by GOLD software.
#

@<TRIPOS>MOLECULE
AV-unprocessed.smi:1626
    53    55     1
SMALL
NO_CHARGES


@<TRIPOS>ATOM
      1 ****        -2.3847   5.6486  -1.5540 C.3            1 S1                 0.0000
      2 ****        -1.9393   4.4448  -0.7423 C.ar           1 S1                 0.0000
      3 ****        -2.0052   4.5046   0.6682 C.ar           1 S1                 0.0000
      4 ****        -1.6003   3.4071   1.4593 C.ar           1 S1                 0.0000
      5 ****        -1.5795   3.2482   2.8345 N.2            1 S1                 0.0000
      6 ****        -1.1032   2.0121   2.9548 C.2            1 S1                 0.0000
      7 ****        -0.8084   1.3525   1.8178 N.pl3          1 S1                 0.0000
      8 ****        -0.2828   0.0038   1.6924 C.3            1 S1                 0.0000
      9 ****         1.2220  -0.0205   1.3476 C.3            1 S1                 0.0000
     10 ****         1.9144   0.7850   2.2822 O.3            1 S1                 0.0000
     11 ****         1.8944  -1.4116   1.3796 C.3            1 S1                 0.0000
     12 ****         1.5440  -2.3198   0.2830 N.3            1 S1                 0.0000
     13 ****         0.3736  -3.1477   0.5986 C.3            1 S1                 0.0000
     14 ****        -0.0467  -4.0483  -0.5753 C.3            1 S1                 0.0000
     15 ****         1.1202  -4.9571  -0.9921 C.3            1 S1                 0.0000
     16 ****         0.7766  -5.6850  -2.1525 O.3            1 S1                 0.0000
     17 ****         2.3740  -4.1085  -1.2555 C.3            1 S1                 0.0000
     18 ****         2.6683  -3.1998  -0.0491 C.3            1 S1                 0.0000
     19 ****        -1.1245   2.2391   0.7949 C.ar           1 S1                 0.0000
     20 ****        -1.0532   2.1676  -0.6073 C.ar           1 S1                 0.0000
     21 ****        -1.4597   3.2737  -1.3824 C.ar           1 S1                 0.0000
     22 ****        -1.3738   3.1882  -2.8959 C.3            1 S1                 0.0000
     23 ****        -2.7977   6.4293  -0.9145 H              1 S1                 0.0000
     24 ****        -3.1546   5.3650  -2.2719 H              1 S1                 0.0000
     25 ****        -1.5411   6.0722  -2.0993 H              1 S1                 0.0000
     26 ****        -2.3683   5.3972   1.1562 H              1 S1                 0.0000
     27 ****        -0.9558   1.5612   3.9254 H              1 S1                 0.0000
     28 ****        -0.4736  -0.5346   2.6220 H              1 S1                 0.0000
     29 ****        -0.8606  -0.4865   0.9107 H              1 S1                 0.0000
     30 ****         1.3747   0.4260   0.3641 H              1 S1                 0.0000
     31 ****         1.5684   1.6631   2.2328 H              1 S1                 0.0000
     32 ****         2.9687  -1.2246   1.3378 H              1 S1                 0.0000
     33 ****         1.7304  -1.8967   2.3432 H              1 S1                 0.0000
     34 ****         0.5868  -3.7690   1.4698 H              1 S1                 0.0000
     35 ****        -0.4769  -2.5321   0.8746 H              1 S1                 0.0000
     36 ****        -0.9122  -4.6494  -0.2946 H              1 S1                 0.0000
     37 ****        -0.3568  -3.4247  -1.4154 H              1 S1                 0.0000
     38 ****         1.3277  -5.6696  -0.1926 H              1 S1                 0.0000
     39 ****         0.0196  -6.2172  -1.9603 H              1 S1                 0.0000
     40 ****         3.2306  -4.7524  -1.4576 H              1 S1                 0.0000
     41 ****         2.2289  -3.4930  -2.1447 H              1 S1                 0.0000
     42 ****         3.5496  -2.5998  -0.2791 H              1 S1                 0.0000
     43 ****         2.9293  -3.8117   0.8160 H              1 S1                 0.0000
     44 ****        -0.6866   1.2687  -1.0812 H              1 S1                 0.0000
     45 ****        -0.9420   2.2399  -3.2167 H              1 S1                 0.0000
     46 ****        -0.7486   3.9897  -3.2896 H              1 S1                 0.0000
     47 ****        -2.3660   3.2719  -3.3398 H              1 S1                 0.0000
     48 ****        -1.8510   3.8929   3.5491 LP             1 S1                 0.0000
     49 ****         2.8901   0.7936   2.0633 LP             1 S1                 0.0000
     50 ****         1.7828   0.4214   3.2044 LP             1 S1                 0.0000
     51 ****         1.3219  -1.7397  -0.5008 LP             1 S1                 0.0000
     52 ****         1.5410  -6.2708  -2.4217 LP             1 S1                 0.0000
     53 ****         0.5635  -5.0520  -2.8968 LP             1 S1                 0.0000
@<TRIPOS>BOND
    1    1    2 1     
    2    1   23 1     
    3    1   24 1     
    4    1   25 1     
    5    2   21 ar    
    6    2    3 ar    
    7    3    4 ar    
    8    3   26 1     
    9    4   19 ar    
   10    4    5 1     
   11    5    6 2     
   12    6    7 1     
   13    6   27 1     
   14    7    8 1     
   15    7   19 1     
   16    8    9 1     
   17    8   28 1     
   18    8   29 1     
   19    9   10 1     
   20    9   11 1     
   21    9   30 1     
   22   10   31 1     
   23   11   12 1     
   24   11   32 1     
   25   11   33 1     
   26   12   18 1     
   27   12   13 1     
   28   13   14 1     
   29   13   34 1     
   30   13   35 1     
   31   14   15 1     
   32   14   36 1     
   33   14   37 1     
   34   15   16 1     
   35   15   17 1     
   36   15   38 1     
   37   16   39 1     
   38   17   18 1     
   39   17   40 1     
   40   17   41 1     
   41   18   42 1     
   42   18   43 1     
   43   19   20 ar    
   44   20   21 ar    
   45   20   44 1     
   46   21   22 1     
   47   22   45 1     
   48   22   46 1     
   49   22   47 1     
   50    5   48 1     
   51   10   49 1     
   52   10   50 1     
   53   12   51 1     
   54   16   52 1     
   55   16   53 1     
@<TRIPOS>SUBSTRUCTURE
      1 S1             1
@<TRIPOS>SET
LONE_PAIRS      STATIC     ATOMS    <user>   **** ""
6 48 49 50 51 52 53
DONOR_HYDROGENS      STATIC     ATOMS    <user>   **** ""
2 31 39
ATOM$BLUE        STATIC     ATOMS    COLORGROUP SYSTEM
6 48 49 50 51 52 53
ATOM$RED        STATIC     ATOMS    COLORGROUP SYSTEM
2 31 39
