AV-unprocessed.smi:1535|AV-procd|sdf|6183|dock4
  -GOLD-   22720 6343D 1   1.00000     0.00000
 Structure written by MMmdl.
 47 48  0  0  0  0  0  0  0  0  2 V2000
  153.4256  142.2295  162.1411 C   0  0  0  0  0  0  0  0  0  0  0  0
  152.8544  142.0386  160.7470 C   0  0  0  0  0  0  0  0  0  0  0  0
  153.2083  140.8852  160.0112 C   0  0  0  0  0  0  0  0  0  0  0  0
  152.6982  140.6704  158.7123 C   0  0  0  0  0  0  0  0  0  0  0  0
  152.9072  139.6285  157.8252 N   0  0  0  0  0  0  0  0  0  0  0  0
  152.1609  140.0024  156.7905 C   0  0  0  0  0  0  0  0  0  0  0  0
  151.4783  141.1579  156.9085 N   0  0  0  0  0  0  0  0  0  0  0  0
  150.5924  141.7575  155.9270 C   0  0  0  0  0  0  0  0  0  0  0  0
  149.1640  141.1811  155.9915 C   0  0  1  0  0  0  0  0  0  0  0  0
  148.2609  142.2123  155.6477 O   0  0  0  0  0  0  0  0  0  0  0  0
  148.9322  139.9808  155.0489 C   0  0  0  0  0  0  0  0  0  0  0  0
  149.7588  138.8106  155.4415 N   0  3  2  0  0  0  0  0  0  0  0  0
  150.3240  138.0997  154.2704 C   0  0  0  0  0  0  0  0  0  0  0  0
  149.0649  137.8844  156.3717 C   0  0  0  0  0  0  0  0  0  0  0  0
  150.0372  137.1888  157.3448 C   0  0  1  0  0  0  0  0  0  0  0  0
  149.2834  136.4101  158.4301 C   0  0  0  0  0  0  0  0  0  0  0  0
  150.9754  136.3104  156.6273 C   0  0  0  0  0  0  0  0  0  0  0  0
  151.7121  135.6229  156.0599 N   0  0  0  0  0  0  0  0  0  0  0  0
  151.8150  141.6471  158.1664 C   0  0  0  0  0  0  0  0  0  0  0  0
  151.4590  142.8006  158.8870 C   0  0  0  0  0  0  0  0  0  0  0  0
  151.9790  143.0008  160.1826 C   0  0  0  0  0  0  0  0  0  0  0  0
  151.5894  144.2506  160.9519 C   0  0  0  0  0  0  0  0  0  0  0  0
  154.0581  141.3897  162.4308 H   0  0  0  0  0  0  0  0  0  0  0  0
  152.6238  142.3125  162.8752 H   0  0  0  0  0  0  0  0  0  0  0  0
  154.0308  143.1352  162.1843 H   0  0  0  0  0  0  0  0  0  0  0  0
  153.8775  140.1536  160.4400 H   0  0  0  0  0  0  0  0  0  0  0  0
  152.0979  139.3950  155.8994 H   0  0  0  0  0  0  0  0  0  0  0  0
  150.5754  142.8349  156.0987 H   0  0  0  0  0  0  0  0  0  0  0  0
  151.0196  141.6045  154.9347 H   0  0  0  0  0  0  0  0  0  0  0  0
  148.9532  140.8908  157.0204 H   0  0  0  0  0  0  0  0  0  0  0  0
  148.7369  143.0265  155.5815 H   0  0  0  0  0  0  0  0  0  0  0  0
  147.8706  139.7340  155.0523 H   0  0  0  0  0  0  0  0  0  0  0  0
  149.1670  140.2365  154.0149 H   0  0  0  0  0  0  0  0  0  0  0  0
  149.5363  137.6219  153.6863 H   0  0  0  0  0  0  0  0  0  0  0  0
  151.0259  137.3287  154.5900 H   0  0  0  0  0  0  0  0  0  0  0  0
  150.8661  138.7805  153.6142 H   0  0  0  0  0  0  0  0  0  0  0  0
  148.2890  138.4255  156.9156 H   0  0  0  0  0  0  0  0  0  0  0  0
  148.5544  137.1117  155.7945 H   0  0  0  0  0  0  0  0  0  0  0  0
  150.6533  137.9349  157.8448 H   0  0  0  0  0  0  0  0  0  0  0  0
  149.9777  135.9457  159.1307 H   0  0  0  0  0  0  0  0  0  0  0  0
  148.6711  135.6191  157.9961 H   0  0  0  0  0  0  0  0  0  0  0  0
  148.6268  137.0665  159.0019 H   0  0  0  0  0  0  0  0  0  0  0  0
  150.7927  143.5275  158.4467 H   0  0  0  0  0  0  0  0  0  0  0  0
  150.9407  144.8963  160.3594 H   0  0  0  0  0  0  0  0  0  0  0  0
  152.4753  144.8260  161.2216 H   0  0  0  0  0  0  0  0  0  0  0  0
  151.0563  143.9863  161.8651 H   0  0  0  0  0  0  0  0  0  0  0  0
  150.5464  139.1798  155.9559 H   0  0  0  0  0  0  0  0  0  0  0  0
  1  2  1  0  0  0  0
  1 23  1  0  0  0  0
  1 24  1  0  0  0  0
  1 25  1  0  0  0  0
  2 21  1  0  0  0  0
  2  3  2  0  0  0  0
  3  4  1  0  0  0  0
  3 26  1  0  0  0  0
  4 19  2  0  0  0  0
  4  5  1  0  0  0  0
  5  6  2  0  0  0  0
  6  7  1  0  0  0  0
  6 27  1  0  0  0  0
  7  8  1  0  0  0  0
  7 19  1  0  0  0  0
  8  9  1  0  0  0  0
  8 28  1  0  0  0  0
  8 29  1  0  0  0  0
  9 10  1  0  0  0  0
  9 11  1  0  0  0  0
  9 30  1  0  0  0  0
 10 31  1  0  0  0  0
 11 12  1  0  0  0  0
 11 32  1  0  0  0  0
 11 33  1  0  0  0  0
 12 13  1  0  0  0  0
 12 14  1  0  0  0  0
 12 47  1  0  0  0  0
 13 34  1  0  0  0  0
 13 35  1  0  0  0  0
 13 36  1  0  0  0  0
 14 15  1  0  0  0  0
 14 37  1  0  0  0  0
 14 38  1  0  0  0  0
 15 16  1  0  0  0  0
 15 17  1  0  0  0  0
 15 39  1  0  0  0  0
 16 40  1  0  0  0  0
 16 41  1  0  0  0  0
 16 42  1  0  0  0  0
 17 18  3  0  0  0  0
 19 20  1  0  0  0  0
 20 21  2  0  0  0  0
 20 43  1  0  0  0  0
 21 22  1  0  0  0  0
 22 44  1  0  0  0  0
 22 45  1  0  0  0  0
 22 46  1  0  0  0  0
M  CHG  1  12   1
M  END
> <s_m_source_file>
AV-unprocessed.smi

> <i_m_source_file_index>
1535

> <i_lp_mmshare_version>
43012

> <i_f3d_flags>
0

> <s_epik_input>
W0NIM11jKFtjSF0xKWMoW0NIM10pW2NIXWMoYzEyKW4oW2NIXW4yKVtDSDJdW0NASF0oW09IXSlbQ0gyXU4oW0NIM10pW0NIMl1bQ0BIXShbQ0gzXSlDI04=

> <s_epik_cmdline>
J2VwaWtfcHl0aG9uJywgJy1waCcsICc3LjAnLCAnLXRuJywgJzgnLCAnLW1hJywgJzIwMCcsICctbWV0YWxfYmluZGluZycsICctaW1hZScsICc8aW5maWxlLm1hZT4nLCAnLW9tYWUnLCAnPG91dGZpbGUubWFlPic=

> <r_epik_Ionization_Penalty>
2.21058

> <r_epik_Ionization_Penalty_Charging>
2.12381

> <r_epik_Ionization_Penalty_Neutral>
0.0867699

> <r_epik_State_Penalty>
2.36208

> <r_epik_Charging_Adjusted_Penalty>
4.48589

> <i_epik_Tot_Q>
1

> <i_epik_Tot_abs_Q>
1

> <r_epik_Metal_State_Penalty>
2.2818

> <b_epik_Metal_Only>
0

> <s_lp_Force_Field>
OPLS_2005

> <r_lp_Energy>
13.4259

> <b_lp_Chiralities_Consistent>
1

> <s_lp_Variant>
AV-unprocessed.smi:1535-14

> <Gold.Version>
5.8.1

> <Gold.Id.Protein>
6NUR|6NUR_protein|mol2

> <Gold.PLP.Fitness>
45.6875

> <Gold.PLP.PLP>
-39.7429

> <Gold.PLP.part.hbond>
-3.0000

> <Gold.PLP.part.metal>
0.0000

> <Gold.PLP.part.buried>
-5.5319

> <Gold.PLP.part.nonpolar>
-31.6190

> <Gold.PLP.part.repulsive>
0.0361

> <Gold.PLP.ligand.clash>
0.0000

> <Gold.PLP.ligand.torsion>
1.6073

> <Gold.PLP.Chemscore.Hbond>
3.0000

> <Gold.PLP.Chemscore.CHOScore>
0.0000

> <Gold.PLP.Chemscore.Metal>
0.0000

> <Gold.Chemscore.Hbonds>
donor molecule, donor type, donor heavy atom, donor atom, acceptor molecule, acceptor atom, score
      L1  H    10    31       P1  8028  1.00
      P1  H  7997  8010       L1     5  0.99
      P1  H 10752 10763       L1    18  1.00

> <Gold.PLP.Chemscore.Internal.Correction>
0.1591

> <Gold.Rescore>
     Score         DG    S(hbond)    S(metal)    S(lipo)     H(rot)  DE(clash)    DE(int)     intcor
     17.47     -19.72       2.41        0.00     109.91       2.60       0.24       2.01       ----

> <Gold.Chemscore.Fitness>
17.4737

> <Gold.Chemscore.DG>
-19.7192

> <Gold.Chemscore.ZeroCoef>
-5.4800

> <Gold.Chemscore.Hbond>
2.4084

> <Gold.Chemscore.Metal>
0.0000

> <Gold.Chemscore.Lipo>
109.9066

> <Gold.Chemscore.Internal_Hbond>
0.0000

> <Gold.Chemscore.DEClash>
0.2390

> <Gold.Chemscore.DEInternal>
2.0065

> <Gold.Chemscore.Rot>
2.6031

> <Gold.Chemscore.Internal.Correction>
   9.000000E+99

> <Gold.Chemscore.Hbonds>
donor molecule, donor type, donor heavy atom, donor atom, acceptor molecule, acceptor atom, score
      L1  H    10    31       P1  8028  0.97
      P1  H  7997  8010       L1     5  0.08
      P1  H 10752 10763       L1    18  1.00

> <Gold.Chemscore.Hbond.Weighted>
-8.0441

> <Gold.Chemscore.Metal.Weighted>
-0.0000

> <Gold.Chemscore.Lipo.Weighted>
-12.8591

> <Gold.Chemscore.Internal_Hbond.Weighted>
0.0000

> <Gold.Chemscore.DEClash.Weighted>
0.2390

> <Gold.Chemscore.DEInternal.Weighted>
2.0065

> <Gold.Chemscore.Rot.Weighted>
6.6640

> <Gold.Chemscore.Internal.Correction.Weighted>
   9.000000E+99

> <Gold.Protein.RotatedTorsions>
[ 6907 6896 6895 6894 ] final  -46.15 input  -60.11 | X-H torsion
[ 7974 7965 7964 7962 ] final   -5.88 input  175.53 | X-H torsion
[ 8008 7997 7996 7995 ] final   25.66 input   59.86 | X-H torsion
[ 10167 10162 10161 10158 ] final  -67.08 input  -65.29 | X-H torsion
[ 10718 10713 10712 10709 ] final    7.83 input   66.30 | X-H torsion
[ 10763 10752 10751 10750 ] final   83.25 input  -60.55 | X-H torsion
[ 11005 11000 10999 10996 ] final    6.31 input  -57.11 | X-H torsion

> <Gold.Protein.ActiveResidues>
 VAL166  LYS551  ARG553  GLY616  TRP617  ASP618  TYR619  PRO620  LYS621  CYS622 
 ASP623  PHE694  ASN695  SER759  ASP760  ASP761  ALA762  ILE779  LEU786  VAL792 
 PHE793  MET794  SER795  GLU796  ALA797  LYS798  CYS799  TRP800  GLU811  SER814 

> <Gold.Protein.RotatedAtoms>
  150.9143  134.8561  159.7446 H   0  0  0  0  0  0  0  0  0  0  0  0  # atno 6907 bound_to 6896
  152.4960  134.4312  159.9523 H   0  0  0  0  0  0  0  0  0  0  0  0  # atno 6908 bound_to 6896
  151.4352  133.3619  159.2809 H   0  0  0  0  0  0  0  0  0  0  0  0  # atno 6909 bound_to 6896
  146.2343  140.2086  142.8335 H   0  0  0  0  0  0  0  0  0  0  0  0  # atno 7974 bound_to 7965
  155.0152  140.3141  155.4814 H   0  0  0  0  0  0  0  0  0  0  0  0  # atno 8008 bound_to 7997
  156.2902  140.2207  156.5210 H   0  0  0  0  0  0  0  0  0  0  0  0  # atno 8009 bound_to 7997
  154.7499  140.0467  157.0873 H   0  0  0  0  0  0  0  0  0  0  0  0  # atno 8010 bound_to 7997
  140.5609  143.2313  151.6729 H   0  0  0  0  0  0  0  0  0  0  0  0  # atno 10167 bound_to 10162
  156.9427  130.5867  149.5653 H   0  0  0  0  0  0  0  0  0  0  0  0  # atno 10718 bound_to 10713
  153.1274  135.4698  154.9294 H   0  0  0  0  0  0  0  0  0  0  0  0  # atno 10763 bound_to 10752
  154.7633  135.3137  154.8338 H   0  0  0  0  0  0  0  0  0  0  0  0  # atno 10764 bound_to 10752
  153.8888  135.6887  153.4816 H   0  0  0  0  0  0  0  0  0  0  0  0  # atno 10765 bound_to 10752
  140.5609  134.0193  155.7971 H   0  0  0  0  0  0  0  0  0  0  0  0  # atno 11005 bound_to 11000
  144.9724  140.8381  143.5447 LP  0  0  0  0  0  0  0  0  0  0  0  0  # atno 17320 bound_to 7965
  145.2070  139.2223  143.5163 LP  0  0  0  0  0  0  0  0  0  0  0  0  # atno 17321 bound_to 7965
  139.5070  144.3663  152.0514 LP  0  0  0  0  0  0  0  0  0  0  0  0  # atno 17342 bound_to 10162
  140.2789  144.3881  150.6125 LP  0  0  0  0  0  0  0  0  0  0  0  0  # atno 17343 bound_to 10162
  156.0397  130.5481  150.8741 LP  0  0  0  0  0  0  0  0  0  0  0  0  # atno 17370 bound_to 10713
  157.5774  131.0946  150.9324 LP  0  0  0  0  0  0  0  0  0  0  0  0  # atno 17371 bound_to 10713
  141.1115  133.9609  157.2902 LP  0  0  0  0  0  0  0  0  0  0  0  0  # atno 17394 bound_to 11000
  139.9408  135.0191  156.8702 LP  0  0  0  0  0  0  0  0  0  0  0  0  # atno 17395 bound_to 11000

$$$$
