AV-unprocessed.smi:1399|AV-procd|sdf|5684|dock5
  -GOLD-   22720 5313D 1   1.00000     0.00000
 Structure written by MMmdl.
 37 38  0  0  0  0  0  0  0  0  3 V2000
  147.4933  138.5349  151.4797 N   0  5  0  0  0  0  0  0  0  0  0  0
  146.5529  138.3483  152.4254 C   0  0  0  0  0  0  0  0  0  0  0  0
  146.4746  138.8837  153.5293 O   0  0  0  0  0  0  0  0  0  0  0  0
  145.4732  137.3521  151.9897 C   0  0  0  0  0  0  0  0  0  0  0  0
  146.0340  135.9788  151.9414 N   0  3  2  0  0  0  0  0  0  0  0  0
  145.5121  135.1963  150.7923 C   0  0  0  0  0  0  0  0  0  0  0  0
  146.2151  133.8326  150.6823 C   0  0  0  0  0  0  0  0  0  0  0  0
  146.0775  133.0302  151.9860 C   0  0  1  0  0  0  0  0  0  0  0  0
  146.8230  131.7791  151.8830 N   0  0  0  0  0  0  0  0  0  0  0  0
  146.7240  130.7510  152.7383 C   0  0  0  0  0  0  0  0  0  0  0  0
  145.9749  130.7491  153.7151 O   0  0  0  0  0  0  0  0  0  0  0  0
  147.5444  129.7458  152.3922 N   0  0  0  0  0  0  0  0  0  0  0  0
  147.7056  128.5044  153.0572 C   0  0  0  0  0  0  0  0  0  0  0  0
  148.5241  127.3910  152.7048 C   0  0  0  0  0  0  0  0  0  0  0  0
  148.4029  126.4087  153.5866 N   0  0  0  0  0  0  0  0  0  0  0  0
  147.5200  126.8818  154.4947 N   0  0  0  0  0  0  0  0  0  0  0  0
  147.0721  128.1533  154.2117 C   0  0  0  0  0  0  0  0  0  0  0  0
  146.5897  133.8757  153.1658 C   0  0  0  0  0  0  0  0  0  0  0  0
  145.8802  135.2383  153.2228 C   0  0  0  0  0  0  0  0  0  0  0  0
  147.2363  126.3307  155.2923 H   0  0  0  0  0  0  0  0  0  0  0  0
  148.2462  139.2100  151.6596 H   0  0  0  0  0  0  0  0  0  0  0  0
  144.5867  137.3820  152.6271 H   0  0  0  0  0  0  0  0  0  0  0  0
  145.1481  137.6575  150.9943 H   0  0  0  0  0  0  0  0  0  0  0  0
  144.4354  135.0589  150.9041 H   0  0  0  0  0  0  0  0  0  0  0  0
  145.6673  135.7528  149.8672 H   0  0  0  0  0  0  0  0  0  0  0  0
  145.7941  133.2683  149.8494 H   0  0  0  0  0  0  0  0  0  0  0  0
  147.2699  133.9879  150.4496 H   0  0  0  0  0  0  0  0  0  0  0  0
  145.0197  132.8071  152.1396 H   0  0  0  0  0  0  0  0  0  0  0  0
  147.4645  131.6925  151.1082 H   0  0  0  0  0  0  0  0  0  0  0  0
  148.1175  129.8840  151.5728 H   0  0  0  0  0  0  0  0  0  0  0  0
  149.1886  127.2566  151.8646 H   0  0  0  0  0  0  0  0  0  0  0  0
  146.3638  128.6773  154.8364 H   0  0  0  0  0  0  0  0  0  0  0  0
  146.4356  133.3447  154.1060 H   0  0  0  0  0  0  0  0  0  0  0  0
  147.6656  134.0320  153.0723 H   0  0  0  0  0  0  0  0  0  0  0  0
  146.2950  135.8192  154.0470 H   0  0  0  0  0  0  0  0  0  0  0  0
  144.8198  135.0996  153.4391 H   0  0  0  0  0  0  0  0  0  0  0  0
  147.0251  136.0935  151.7836 H   0  0  0  0  0  0  0  0  0  0  0  0
  1  2  1  0  0  0  0
  1 21  1  0  0  0  0
  2  3  2  0  0  0  0
  2  4  1  0  0  0  0
  4  5  1  0  0  0  0
  4 22  1  0  0  0  0
  4 23  1  0  0  0  0
  5 19  1  0  0  0  0
  5  6  1  0  0  0  0
  5 37  1  0  0  0  0
  6  7  1  0  0  0  0
  6 24  1  0  0  0  0
  6 25  1  0  0  0  0
  7  8  1  0  0  0  0
  7 26  1  0  0  0  0
  7 27  1  0  0  0  0
  8  9  1  0  0  0  0
  8 18  1  0  0  0  0
  8 28  1  0  0  0  0
  9 10  1  0  0  0  0
  9 29  1  0  0  0  0
 10 11  2  0  0  0  0
 10 12  1  0  0  0  0
 12 13  1  0  0  0  0
 12 30  1  0  0  0  0
 13 17  2  0  0  0  0
 13 14  1  0  0  0  0
 14 15  2  0  0  0  0
 14 31  1  0  0  0  0
 15 16  1  0  0  0  0
 16 20  1  0  0  0  0
 16 17  1  0  0  0  0
 17 32  1  0  0  0  0
 18 19  1  0  0  0  0
 18 33  1  0  0  0  0
 18 34  1  0  0  0  0
 19 35  1  0  0  0  0
 19 36  1  0  0  0  0
M  CHG  1   1  -1
M  CHG  1   5   1
M  END
> <s_m_source_file>
AV-unprocessed.smi

> <i_m_source_file_index>
1399

> <i_lp_mmshare_version>
43012

> <i_f3d_flags>
0

> <s_epik_input>
W05IMl1DKD1PKVtDSDJdTjFbQ0gyXVtDSDJdW0NIXShbQ0gyXVtDSDJdMSlbTkhdQyg9TylbTkhdYzJbY0hdbltuSF1bY0hdMg==

> <s_epik_cmdline>
J2VwaWtfcHl0aG9uJywgJy1waCcsICc3LjAnLCAnLXRuJywgJzgnLCAnLW1hJywgJzIwMCcsICctbWV0YWxfYmluZGluZycsICctaW1hZScsICc8aW5maWxlLm1hZT4nLCAnLW9tYWUnLCAnPG91dGZpbGUubWFlPic=

> <r_lp_tautomer_probability>
0.5

> <r_epik_Ionization_Penalty>
5.72885

> <r_epik_Ionization_Penalty_Charging>
5.7288

> <r_epik_Ionization_Penalty_Neutral>
4.21226e-05

> <r_epik_State_Penalty>
6.54882

> <r_epik_Charging_Adjusted_Penalty>
12.2776

> <i_epik_Tot_Q>
0

> <i_epik_Tot_abs_Q>
2

> <r_epik_Metal_State_Penalty>
2.51297

> <b_epik_Metal_Only>
1

> <s_lp_Force_Field>
OPLS_2005

> <r_lp_Energy>
11.0753

> <b_lp_Chiralities_Consistent>
1

> <s_lp_Variant>
AV-unprocessed.smi:1399-4

> <Gold.Version>
5.8.1

> <Gold.Id.Protein>
6NUR|6NUR_protein|mol2

> <Gold.PLP.Fitness>
44.5212

> <Gold.PLP.PLP>
-25.4910

> <Gold.PLP.part.hbond>
-6.0000

> <Gold.PLP.part.metal>
0.0000

> <Gold.PLP.part.buried>
-2.1185

> <Gold.PLP.part.nonpolar>
-16.9829

> <Gold.PLP.part.repulsive>
0.5318

> <Gold.PLP.ligand.clash>
0.0000

> <Gold.PLP.ligand.torsion>
0.6874

> <Gold.PLP.Chemscore.Hbond>
5.7940

> <Gold.PLP.Chemscore.CHOScore>
1.0000

> <Gold.PLP.Chemscore.Metal>
0.0000

> <Gold.Chemscore.Hbonds>
donor molecule, donor type, donor heavy atom, donor atom, acceptor molecule, acceptor atom, score
      L1  H     1    21       P1  7957  0.98
      L1  H     5    37       P1  7948  2.00
      L1  H     9    29       P1 10747  1.00
      L1  H    12    30       P1 10747  1.00
      P1  H  7954  7966       L1     1  0.80
      L1  C    14    31       P1 10737  0.13

> <Gold.PLP.Chemscore.Internal.Correction>
0.0230

> <Gold.Rescore>
     Score         DG    S(hbond)    S(metal)    S(lipo)     H(rot)  DE(clash)    DE(int)     intcor
     16.15     -18.02       3.82        0.00      43.03       2.06       0.03       1.83       ----

> <Gold.Chemscore.Fitness>
16.1540

> <Gold.Chemscore.DG>
-18.0173

> <Gold.Chemscore.ZeroCoef>
-5.4800

> <Gold.Chemscore.Hbond>
3.8239

> <Gold.Chemscore.Metal>
0.0000

> <Gold.Chemscore.Lipo>
43.0325

> <Gold.Chemscore.Internal_Hbond>
0.0000

> <Gold.Chemscore.DEClash>
0.0297

> <Gold.Chemscore.DEInternal>
1.8336

> <Gold.Chemscore.Rot>
2.0584

> <Gold.Chemscore.Internal.Correction>
   9.000000E+99

> <Gold.Chemscore.Hbonds>
donor molecule, donor type, donor heavy atom, donor atom, acceptor molecule, acceptor atom, score
      L1  H     1    21       P1  7957  0.89
      L1  H     5    37       P1  7948  1.00
      L1  H     9    29       P1 10747  0.95
      L1  H    12    30       P1 10747  0.87
      P1  H  7954  7966       L1     1  0.11

> <Gold.Chemscore.Hbond.Weighted>
-12.7719

> <Gold.Chemscore.Metal.Weighted>
-0.0000

> <Gold.Chemscore.Lipo.Weighted>
-5.0348

> <Gold.Chemscore.Internal_Hbond.Weighted>
0.0000

> <Gold.Chemscore.DEClash.Weighted>
0.0297

> <Gold.Chemscore.DEInternal.Weighted>
1.8336

> <Gold.Chemscore.Rot.Weighted>
5.2695

> <Gold.Chemscore.Internal.Correction.Weighted>
   9.000000E+99

> <Gold.Protein.RotatedTorsions>
[ 6907 6896 6895 6894 ] final  124.60 input  -60.11 | X-H torsion
[ 7974 7965 7964 7962 ] final   81.68 input  175.53 | X-H torsion
[ 8008 7997 7996 7995 ] final  101.99 input   59.86 | X-H torsion
[ 10167 10162 10161 10158 ] final   54.90 input  -65.29 | X-H torsion
[ 10718 10713 10712 10709 ] final   54.77 input   66.30 | X-H torsion
[ 10763 10752 10751 10750 ] final   97.93 input  -60.55 | X-H torsion
[ 11005 11000 10999 10996 ] final  140.39 input  -57.11 | X-H torsion

> <Gold.Protein.ActiveResidues>
 VAL166  LYS551  ARG553  GLY616  TRP617  ASP618  TYR619  PRO620  LYS621  CYS622 
 ASP623  PHE694  ASN695  SER759  ASP760  ASP761  ALA762  ILE779  LEU786  VAL792 
 PHE793  MET794  SER795  GLU796  ALA797  LYS798  CYS799  TRP800  GLU811  SER814 

> <Gold.Protein.RotatedAtoms>
  152.4064  133.6896  159.6359 H   0  0  0  0  0  0  0  0  0  0  0  0  # atno 6907 bound_to 6896
  150.7949  133.8701  159.3265 H   0  0  0  0  0  0  0  0  0  0  0  0  # atno 6908 bound_to 6896
  151.6454  135.1009  160.0201 H   0  0  0  0  0  0  0  0  0  0  0  0  # atno 6909 bound_to 6896
  145.6349  139.2413  143.2063 H   0  0  0  0  0  0  0  0  0  0  0  0  # atno 7974 bound_to 7965
  156.1351  140.3188  155.8409 H   0  0  0  0  0  0  0  0  0  0  0  0  # atno 8008 bound_to 7997
  155.4259  140.0515  157.3039 H   0  0  0  0  0  0  0  0  0  0  0  0  # atno 8009 bound_to 7997
  154.4930  140.2100  155.9519 H   0  0  0  0  0  0  0  0  0  0  0  0  # atno 8010 bound_to 7997
  140.2252  144.3746  150.6435 H   0  0  0  0  0  0  0  0  0  0  0  0  # atno 10167 bound_to 10162
  157.5286  130.8615  149.8656 H   0  0  0  0  0  0  0  0  0  0  0  0  # atno 10718 bound_to 10713
  153.2829  135.4166  155.1095 H   0  0  0  0  0  0  0  0  0  0  0  0  # atno 10763 bound_to 10752
  154.8495  135.3499  154.6087 H   0  0  0  0  0  0  0  0  0  0  0  0  # atno 10764 bound_to 10752
  153.6508  135.7053  153.5267 H   0  0  0  0  0  0  0  0  0  0  0  0  # atno 10765 bound_to 10752
  140.0324  134.9345  157.0688 H   0  0  0  0  0  0  0  0  0  0  0  0  # atno 11005 bound_to 11000
  146.1327  140.7164  142.9404 LP  0  0  0  0  0  0  0  0  0  0  0  0  # atno 17320 bound_to 7965
  144.7179  140.4274  143.7030 LP  0  0  0  0  0  0  0  0  0  0  0  0  # atno 17321 bound_to 7965
  140.6226  143.2178  151.6663 LP  0  0  0  0  0  0  0  0  0  0  0  0  # atno 17342 bound_to 10162
  139.5129  144.3459  152.0697 LP  0  0  0  0  0  0  0  0  0  0  0  0  # atno 17343 bound_to 10162
  156.0405  130.3740  150.1447 LP  0  0  0  0  0  0  0  0  0  0  0  0  # atno 17370 bound_to 10713
  156.9632  130.9811  151.3474 LP  0  0  0  0  0  0  0  0  0  0  0  0  # atno 17371 bound_to 10713
  140.4203  134.1887  155.7164 LP  0  0  0  0  0  0  0  0  0  0  0  0  # atno 17394 bound_to 11000
  141.1838  133.8356  157.1161 LP  0  0  0  0  0  0  0  0  0  0  0  0  # atno 17395 bound_to 11000

$$$$
