AV-unprocessed.smi:1285|AV-procd|sdf|5367|dock6
  -GOLD-   22720 4513D 1   1.00000     0.00000
 Structure written by MMmdl.
 46 47  0  0  0  0  0  0  0  0  1 V2000
  148.3359  134.3518  157.4363 C   0  0  0  0  0  0  0  0  0  0  0  0
  149.0257  135.5647  156.7852 C   0  0  0  0  0  0  0  0  0  0  0  0
  148.8991  135.6607  155.2311 C   0  0  1  0  0  0  0  0  0  0  0  0
  149.6023  134.4015  154.6565 C   0  0  0  0  0  0  0  0  0  0  0  0
  147.3818  135.5998  154.8575 C   0  0  0  0  0  0  0  0  0  0  0  0
  147.1296  135.3643  153.4356 N   0  0  0  0  0  0  0  0  0  0  0  0
  146.2398  134.4975  152.9255 C   0  0  0  0  0  0  0  0  0  0  0  0
  145.5179  133.7828  153.6216 O   0  0  0  0  0  0  0  0  0  0  0  0
  146.1533  134.4403  151.3929 C   0  0  2  0  0  0  0  0  0  0  0  0
  145.7192  135.7851  150.7744 C   0  0  0  0  0  0  0  0  0  0  0  0
  145.2993  133.3338  150.9785 N   0  0  0  0  0  0  0  0  0  0  0  0
  145.6244  132.1587  150.4347 C   0  0  0  0  0  0  0  0  0  0  0  0
  144.5901  131.3562  150.2259 N   0  0  0  0  0  0  0  0  0  0  0  0
  143.5869  132.1475  150.7093 C   0  0  0  0  0  0  0  0  0  0  0  0
  143.9582  133.3365  151.1831 N   0  0  0  0  0  0  0  0  0  0  0  0
  149.5522  136.8975  154.7158 N   0  0  0  0  0  0  0  0  0  0  0  0
  148.8793  138.1538  155.0678 C   0  0  0  0  0  0  0  0  0  0  0  0
  149.5273  139.3678  154.3801 C   0  0  0  0  0  0  0  0  0  0  0  0
  150.9092  139.4274  154.7125 O   0  0  0  0  0  0  0  0  0  0  0  0
  151.6101  138.2487  154.3350 C   0  0  0  0  0  0  0  0  0  0  0  0
  150.9803  137.0290  155.0285 C   0  0  0  0  0  0  0  0  0  0  0  0
  148.4877  134.3624  158.5156 H   0  0  0  0  0  0  0  0  0  0  0  0
  148.7331  133.4080  157.0628 H   0  0  0  0  0  0  0  0  0  0  0  0
  147.2604  134.3554  157.2618 H   0  0  0  0  0  0  0  0  0  0  0  0
  148.6090  136.4597  157.2487 H   0  0  0  0  0  0  0  0  0  0  0  0
  150.0749  135.5717  157.0803 H   0  0  0  0  0  0  0  0  0  0  0  0
  149.3216  133.4943  155.1921 H   0  0  0  0  0  0  0  0  0  0  0  0
  150.6881  134.4837  154.7141 H   0  0  0  0  0  0  0  0  0  0  0  0
  149.3446  134.2325  153.6106 H   0  0  0  0  0  0  0  0  0  0  0  0
  146.8935  134.7815  155.3860 H   0  0  0  0  0  0  0  0  0  0  0  0
  146.8622  136.5040  155.1748 H   0  0  0  0  0  0  0  0  0  0  0  0
  147.6769  135.9107  152.7867 H   0  0  0  0  0  0  0  0  0  0  0  0
  147.1553  134.2258  151.0170 H   0  0  0  0  0  0  0  0  0  0  0  0
  146.3983  136.5877  151.0644 H   0  0  0  0  0  0  0  0  0  0  0  0
  144.7148  136.0765  151.0844 H   0  0  0  0  0  0  0  0  0  0  0  0
  145.7250  135.7310  149.6854 H   0  0  0  0  0  0  0  0  0  0  0  0
  146.6398  131.8828  150.1905 H   0  0  0  0  0  0  0  0  0  0  0  0
  142.5530  131.8353  150.7184 H   0  0  0  0  0  0  0  0  0  0  0  0
  147.8305  138.1298  154.7771 H   0  0  0  0  0  0  0  0  0  0  0  0
  148.9061  138.3090  156.1461 H   0  0  0  0  0  0  0  0  0  0  0  0
  149.4083  139.3076  153.2971 H   0  0  0  0  0  0  0  0  0  0  0  0
  149.0433  140.2890  154.7047 H   0  0  0  0  0  0  0  0  0  0  0  0
  151.5846  138.1320  153.2505 H   0  0  0  0  0  0  0  0  0  0  0  0
  152.6569  138.3493  154.6217 H   0  0  0  0  0  0  0  0  0  0  0  0
  151.1247  137.1277  156.1045 H   0  0  0  0  0  0  0  0  0  0  0  0
  151.5332  136.1455  154.7148 H   0  0  0  0  0  0  0  0  0  0  0  0
  1  2  1  0  0  0  0
  1 22  1  0  0  0  0
  1 23  1  0  0  0  0
  1 24  1  0  0  0  0
  2  3  1  0  0  0  0
  2 25  1  0  0  0  0
  2 26  1  0  0  0  0
  3  4  1  0  0  0  0
  3  5  1  0  0  0  0
  3 16  1  0  0  0  0
  4 27  1  0  0  0  0
  4 28  1  0  0  0  0
  4 29  1  0  0  0  0
  5  6  1  0  0  0  0
  5 30  1  0  0  0  0
  5 31  1  0  0  0  0
  6  7  1  0  0  0  0
  6 32  1  0  0  0  0
  7  8  2  0  0  0  0
  7  9  1  0  0  0  0
  9 10  1  0  0  0  0
  9 11  1  0  0  0  0
  9 33  1  0  0  0  0
 10 34  1  0  0  0  0
 10 35  1  0  0  0  0
 10 36  1  0  0  0  0
 11 15  1  0  0  0  0
 11 12  1  0  0  0  0
 12 13  2  0  0  0  0
 12 37  1  0  0  0  0
 13 14  1  0  0  0  0
 14 15  2  0  0  0  0
 14 38  1  0  0  0  0
 16 21  1  0  0  0  0
 16 17  1  0  0  0  0
 17 18  1  0  0  0  0
 17 39  1  0  0  0  0
 17 40  1  0  0  0  0
 18 19  1  0  0  0  0
 18 41  1  0  0  0  0
 18 42  1  0  0  0  0
 19 20  1  0  0  0  0
 20 21  1  0  0  0  0
 20 43  1  0  0  0  0
 20 44  1  0  0  0  0
 21 45  1  0  0  0  0
 21 46  1  0  0  0  0
M  END
> <s_m_source_file>
AV-unprocessed.smi

> <i_m_source_file_index>
1285

> <i_lp_mmshare_version>
43012

> <i_f3d_flags>
0

> <s_epik_input>
W0NIMl0xW0NIMl1PW0NIMl1bQ0gyXU4xW0NAQF0oW0NIM10pKFtDSDJdW0NIM10pW0NIMl1bTkhdQyg9TylbQ0BIXShbQ0gzXSluMltjSF1uW2NIXW4y

> <s_epik_cmdline>
J2VwaWtfcHl0aG9uJywgJy1waCcsICc3LjAnLCAnLXRuJywgJzgnLCAnLW1hJywgJzIwMCcsICctbWV0YWxfYmluZGluZycsICctaW1hZScsICc8aW5maWxlLm1hZT4nLCAnLW9tYWUnLCAnPG91dGZpbGUubWFlPic=

> <r_lp_tautomer_probability>
1

> <r_epik_Ionization_Penalty>
0.285697

> <r_epik_Ionization_Penalty_Charging>
0

> <r_epik_Ionization_Penalty_Neutral>
0.285697

> <r_epik_State_Penalty>
0.278478

> <r_epik_Charging_Adjusted_Penalty>
0.278478

> <i_epik_Tot_Q>
0

> <i_epik_Tot_abs_Q>
0

> <r_epik_Metal_State_Penalty>
0.278477

> <b_epik_Metal_Only>
0

> <s_lp_Force_Field>
OPLS_2005

> <r_lp_Energy>
49.2775

> <b_lp_Chiralities_Consistent>
1

> <s_lp_Variant>
AV-unprocessed.smi:1285-1

> <Gold.Version>
5.8.1

> <Gold.Id.Protein>
6NUR|6NUR_protein|mol2

> <Gold.PLP.Fitness>
40.4490

> <Gold.PLP.PLP>
-29.2297

> <Gold.PLP.part.hbond>
-2.9997

> <Gold.PLP.part.metal>
0.0000

> <Gold.PLP.part.buried>
-5.9197

> <Gold.PLP.part.nonpolar>
-23.1885

> <Gold.PLP.part.repulsive>
1.6987

> <Gold.PLP.ligand.clash>
0.0000

> <Gold.PLP.ligand.torsion>
0.4640

> <Gold.PLP.Chemscore.Hbond>
2.0624

> <Gold.PLP.Chemscore.CHOScore>
1.9219

> <Gold.PLP.Chemscore.Metal>
0.0000

> <Gold.Chemscore.Hbonds>
donor molecule, donor type, donor heavy atom, donor atom, acceptor molecule, acceptor atom, score
      L1  H     6    32       P1  7948  1.00
      P1  H  7989  7998       L1    19  1.00
      P1  H 10785 10796       L1    13  0.06
      L1  C    12    37       P1 10747  0.97
      L1  C    14    38       P1 10952  0.96

> <Gold.PLP.Chemscore.Internal.Correction>
0.1945

> <Gold.Rescore>
     Score         DG    S(hbond)    S(metal)    S(lipo)     H(rot)  DE(clash)    DE(int)     intcor
      7.25      -9.38       1.43        0.00      51.14       2.68       0.44       1.68       ----

> <Gold.Chemscore.Fitness>
7.2521

> <Gold.Chemscore.DG>
-9.3774

> <Gold.Chemscore.ZeroCoef>
-5.4800

> <Gold.Chemscore.Hbond>
1.4311

> <Gold.Chemscore.Metal>
0.0000

> <Gold.Chemscore.Lipo>
51.1426

> <Gold.Chemscore.Internal_Hbond>
0.0000

> <Gold.Chemscore.DEClash>
0.4435

> <Gold.Chemscore.DEInternal>
1.6818

> <Gold.Chemscore.Rot>
2.6821

> <Gold.Chemscore.Internal.Correction>
   9.000000E+99

> <Gold.Chemscore.Hbonds>
donor molecule, donor type, donor heavy atom, donor atom, acceptor molecule, acceptor atom, score
      L1  H     6    32       P1  7948  0.97
      P1  H  7989  7998       L1    19  0.19
      P1  H 10785 10796       L1    13  0.01

> <Gold.Chemscore.Hbond.Weighted>
-4.7799

> <Gold.Chemscore.Metal.Weighted>
-0.0000

> <Gold.Chemscore.Lipo.Weighted>
-5.9837

> <Gold.Chemscore.Internal_Hbond.Weighted>
0.0000

> <Gold.Chemscore.DEClash.Weighted>
0.4435

> <Gold.Chemscore.DEInternal.Weighted>
1.6818

> <Gold.Chemscore.Rot.Weighted>
6.8661

> <Gold.Chemscore.Internal.Correction.Weighted>
   9.000000E+99

> <Gold.Protein.RotatedTorsions>
[ 6907 6896 6895 6894 ] final    0.87 input  -60.11 | X-H torsion
[ 7974 7965 7964 7962 ] final  135.24 input  175.53 | X-H torsion
[ 8008 7997 7996 7995 ] final -101.42 input   59.86 | X-H torsion
[ 10167 10162 10161 10158 ] final   58.80 input  -65.29 | X-H torsion
[ 10718 10713 10712 10709 ] final   -2.37 input   66.30 | X-H torsion
[ 10763 10752 10751 10750 ] final  100.94 input  -60.55 | X-H torsion
[ 11005 11000 10999 10996 ] final   35.82 input  -57.11 | X-H torsion

> <Gold.Protein.ActiveResidues>
 VAL166  LYS551  ARG553  GLY616  TRP617  ASP618  TYR619  PRO620  LYS621  CYS622 
 ASP623  PHE694  ASN695  SER759  ASP760  ASP761  ALA762  ILE779  LEU786  VAL792 
 PHE793  MET794  SER795  GLU796  ALA797  LYS798  CYS799  TRP800  GLU811  SER814 

> <Gold.Protein.RotatedAtoms>
  151.5834  135.1057  160.0022 H   0  0  0  0  0  0  0  0  0  0  0  0  # atno 6907 bound_to 6896
  152.4342  133.7328  159.6607 H   0  0  0  0  0  0  0  0  0  0  0  0  # atno 6908 bound_to 6896
  150.8238  133.8136  159.3150 H   0  0  0  0  0  0  0  0  0  0  0  0  # atno 6909 bound_to 6896
  144.9683  139.4633  143.5445 H   0  0  0  0  0  0  0  0  0  0  0  0  # atno 7974 bound_to 7965
  154.8423  140.0434  157.1550 H   0  0  0  0  0  0  0  0  0  0  0  0  # atno 8008 bound_to 7997
  154.9033  140.3003  155.5285 H   0  0  0  0  0  0  0  0  0  0  0  0  # atno 8009 bound_to 7997
  156.2993  140.2372  156.4063 H   0  0  0  0  0  0  0  0  0  0  0  0  # atno 8010 bound_to 7997
  140.1833  144.4160  150.6605 H   0  0  0  0  0  0  0  0  0  0  0  0  # atno 10167 bound_to 10162
  156.7919  130.5364  149.5734 H   0  0  0  0  0  0  0  0  0  0  0  0  # atno 10718 bound_to 10713
  153.3203  135.4061  155.1411 H   0  0  0  0  0  0  0  0  0  0  0  0  # atno 10763 bound_to 10752
  154.8599  135.3586  154.5605 H   0  0  0  0  0  0  0  0  0  0  0  0  # atno 10764 bound_to 10752
  153.6038  135.7070  153.5433 H   0  0  0  0  0  0  0  0  0  0  0  0  # atno 10765 bound_to 10752
  140.2388  134.3439  155.7934 H   0  0  0  0  0  0  0  0  0  0  0  0  # atno 11005 bound_to 11000
  146.3374  139.8878  142.8814 LP  0  0  0  0  0  0  0  0  0  0  0  0  # atno 17320 bound_to 7965
  145.2597  141.0072  143.3834 LP  0  0  0  0  0  0  0  0  0  0  0  0  # atno 17321 bound_to 7965
  140.6505  143.2224  151.6088 LP  0  0  0  0  0  0  0  0  0  0  0  0  # atno 17342 bound_to 10162
  139.5287  144.2981  152.1096 LP  0  0  0  0  0  0  0  0  0  0  0  0  # atno 17343 bound_to 10162
  156.1154  130.6071  151.0112 LP  0  0  0  0  0  0  0  0  0  0  0  0  # atno 17370 bound_to 10713
  157.6596  131.0883  150.7868 LP  0  0  0  0  0  0  0  0  0  0  0  0  # atno 17371 bound_to 10713
  141.2212  133.7287  156.8852 LP  0  0  0  0  0  0  0  0  0  0  0  0  # atno 17394 bound_to 11000
  140.1674  134.9123  157.2791 LP  0  0  0  0  0  0  0  0  0  0  0  0  # atno 17395 bound_to 11000

$$$$
