AV-unprocessed.smi:2279|AV-procd|sdf|9183|dock7
  -GOLD-   2272012403D 1   1.00000     0.00000
 Structure written by MMmdl.
 58 60  0  0  0  0  0  0  0  0  3 V2000
  153.2402  140.6757  159.7287 C   0  0  0  0  0  0  0  0  0  0  0  0
  152.4106  141.7882  159.1230 C   0  0  0  0  0  0  0  0  0  0  0  0
  152.4523  143.0926  159.6515 C   0  0  0  0  0  0  0  0  0  0  0  0
  151.6565  144.0825  159.0423 C   0  0  0  0  0  0  0  0  0  0  0  0
  151.6524  145.5058  159.5583 C   0  0  0  0  0  0  0  0  0  0  0  0
  150.8602  143.8367  157.9799 N   0  0  0  0  0  0  0  0  0  0  0  0
  150.8121  142.5841  157.4625 C   0  0  0  0  0  0  0  0  0  0  0  0
  150.0084  142.2226  156.3488 N   0  0  0  0  0  0  0  0  0  0  0  0
  149.5739  140.9985  156.0007 C   0  0  0  0  0  0  0  0  0  0  0  0
  149.8120  139.9577  156.6140 O   0  0  0  0  0  0  0  0  0  0  0  0
  148.8349  141.0477  154.8822 N   0  0  0  0  0  0  0  0  0  0  0  0
  148.2072  139.9043  154.2249 C   0  0  2  0  0  0  0  0  0  0  0  0
  147.6088  140.3295  152.8808 C   0  0  0  0  0  0  0  0  0  0  0  0
  146.8696  139.1626  152.2054 C   0  0  0  0  0  0  0  0  0  0  0  0
  145.7968  138.5867  153.0721 N   0  3  1  0  0  0  0  0  0  0  0  0
  145.0061  137.4972  152.4008 C   0  0  2  0  0  0  0  0  0  0  0  0
  143.9299  136.8809  153.3339 C   0  0  0  0  0  0  0  0  0  0  0  0
  143.1700  135.7143  152.6794 C   0  0  0  0  0  0  0  0  0  0  0  0
  144.0997  134.6541  152.2296 N   0  3  1  0  0  0  0  0  0  0  0  0
  143.3909  133.4653  151.7076 C   0  0  0  0  0  0  0  0  0  0  0  0
  145.0939  135.1858  151.2707 C   0  0  0  0  0  0  0  0  0  0  0  0
  145.9032  136.3388  151.8889 C   0  0  0  0  0  0  0  0  0  0  0  0
  146.3556  138.1840  154.3986 C   0  0  0  0  0  0  0  0  0  0  0  0
  147.0880  139.3378  155.1034 C   0  0  0  0  0  0  0  0  0  0  0  0
  151.5789  141.5334  158.0141 C   0  0  0  0  0  0  0  0  0  0  0  0
  153.8268  141.0327  160.5756 H   0  0  0  0  0  0  0  0  0  0  0  0
  153.9268  140.2694  158.9854 H   0  0  0  0  0  0  0  0  0  0  0  0
  152.5939  139.8698  160.0769 H   0  0  0  0  0  0  0  0  0  0  0  0
  153.0770  143.3286  160.5008 H   0  0  0  0  0  0  0  0  0  0  0  0
  152.3190  145.6185  160.4138 H   0  0  0  0  0  0  0  0  0  0  0  0
  150.6477  145.7933  159.8698 H   0  0  0  0  0  0  0  0  0  0  0  0
  151.9806  146.1930  158.7782 H   0  0  0  0  0  0  0  0  0  0  0  0
  149.7332  142.9855  155.7484 H   0  0  0  0  0  0  0  0  0  0  0  0
  148.6959  141.9502  154.4514 H   0  0  0  0  0  0  0  0  0  0  0  0
  148.9387  139.1144  154.0439 H   0  0  0  0  0  0  0  0  0  0  0  0
  146.9183  141.1621  153.0250 H   0  0  0  0  0  0  0  0  0  0  0  0
  148.3979  140.6938  152.2214 H   0  0  0  0  0  0  0  0  0  0  0  0
  146.4576  139.5598  151.2807 H   0  0  0  0  0  0  0  0  0  0  0  0
  147.5770  138.3782  151.9314 H   0  0  0  0  0  0  0  0  0  0  0  0
  144.4986  137.9396  151.5417 H   0  0  0  0  0  0  0  0  0  0  0  0
  144.3948  136.5386  154.2597 H   0  0  0  0  0  0  0  0  0  0  0  0
  143.1785  137.6179  153.6125 H   0  0  0  0  0  0  0  0  0  0  0  0
  142.4609  135.2965  153.3953 H   0  0  0  0  0  0  0  0  0  0  0  0
  142.5867  136.0747  151.8302 H   0  0  0  0  0  0  0  0  0  0  0  0
  142.8085  133.7136  150.8191 H   0  0  0  0  0  0  0  0  0  0  0  0
  142.7122  133.0603  152.4591 H   0  0  0  0  0  0  0  0  0  0  0  0
  144.0992  132.6793  151.4435 H   0  0  0  0  0  0  0  0  0  0  0  0
  145.7729  134.3866  150.9702 H   0  0  0  0  0  0  0  0  0  0  0  0
  144.5856  135.5256  150.3665 H   0  0  0  0  0  0  0  0  0  0  0  0
  146.5887  136.6811  151.1155 H   0  0  0  0  0  0  0  0  0  0  0  0
  146.5158  135.9560  152.7066 H   0  0  0  0  0  0  0  0  0  0  0  0
  145.5679  137.8657  155.0774 H   0  0  0  0  0  0  0  0  0  0  0  0
  147.0295  137.3356  154.2678 H   0  0  0  0  0  0  0  0  0  0  0  0
  147.5007  138.9856  156.0498 H   0  0  0  0  0  0  0  0  0  0  0  0
  146.3730  140.1238  155.3521 H   0  0  0  0  0  0  0  0  0  0  0  0
  151.5325  140.5391  157.5933 H   0  0  0  0  0  0  0  0  0  0  0  0
  145.1491  139.3396  153.2563 H   0  0  0  0  0  0  0  0  0  0  0  0
  144.6115  134.3457  153.0443 H   0  0  0  0  0  0  0  0  0  0  0  0
  1  2  1  0  0  0  0
  1 26  1  0  0  0  0
  1 27  1  0  0  0  0
  1 28  1  0  0  0  0
  2 25  1  0  0  0  0
  2  3  2  0  0  0  0
  3  4  1  0  0  0  0
  3 29  1  0  0  0  0
  4  5  1  0  0  0  0
  4  6  2  0  0  0  0
  5 30  1  0  0  0  0
  5 31  1  0  0  0  0
  5 32  1  0  0  0  0
  6  7  1  0  0  0  0
  7  8  1  0  0  0  0
  7 25  2  0  0  0  0
  8  9  1  0  0  0  0
  8 33  1  0  0  0  0
  9 10  2  0  0  0  0
  9 11  1  0  0  0  0
 11 12  1  0  0  0  0
 11 34  1  0  0  0  0
 12 24  1  0  0  0  0
 12 13  1  0  0  0  0
 12 35  1  0  0  0  0
 13 14  1  0  0  0  0
 13 36  1  0  0  0  0
 13 37  1  0  0  0  0
 14 15  1  0  0  0  0
 14 38  1  0  0  0  0
 14 39  1  0  0  0  0
 15 16  1  0  0  0  0
 15 23  1  0  0  0  0
 15 57  1  0  0  0  0
 16 22  1  0  0  0  0
 16 17  1  0  0  0  0
 16 40  1  0  0  0  0
 17 18  1  0  0  0  0
 17 41  1  0  0  0  0
 17 42  1  0  0  0  0
 18 19  1  0  0  0  0
 18 43  1  0  0  0  0
 18 44  1  0  0  0  0
 19 20  1  0  0  0  0
 19 21  1  0  0  0  0
 19 58  1  0  0  0  0
 20 45  1  0  0  0  0
 20 46  1  0  0  0  0
 20 47  1  0  0  0  0
 21 22  1  0  0  0  0
 21 48  1  0  0  0  0
 21 49  1  0  0  0  0
 22 50  1  0  0  0  0
 22 51  1  0  0  0  0
 23 24  1  0  0  0  0
 23 52  1  0  0  0  0
 23 53  1  0  0  0  0
 24 54  1  0  0  0  0
 24 55  1  0  0  0  0
 25 56  1  0  0  0  0
M  CHG  1  15   1
M  CHG  1  19   1
M  END
> <s_m_source_file>
AV-unprocessed.smi

> <i_m_source_file_index>
2279

> <i_lp_mmshare_version>
43012

> <i_f3d_flags>
0

> <s_epik_input>
W0NIM11jMVtjSF1jKFtDSDNdKW5jKFtjSF0xKVtOSF1DKD1PKVtOSF1bQ0hdMltDSDJdW0NIMl1OKFtDSDJdW0NIMl0yKVtDSF0zW0NIMl1bQ0gyXU4oW0NIM10pW0NIMl1bQ0gyXTM=

> <s_epik_cmdline>
J2VwaWtfcHl0aG9uJywgJy1waCcsICc3LjAnLCAnLXRuJywgJzgnLCAnLW1hJywgJzIwMCcsICctbWV0YWxfYmluZGluZycsICctaW1hZScsICc8aW5maWxlLm1hZT4nLCAnLW9tYWUnLCAnPG91dGZpbGUubWFlPic=

> <r_epik_Ionization_Penalty>
0.180973

> <r_epik_Ionization_Penalty_Charging>
0.180787

> <r_epik_Ionization_Penalty_Neutral>
0.000186186

> <r_epik_State_Penalty>
0.153592

> <r_epik_Charging_Adjusted_Penalty>
0.334379

> <i_epik_Tot_Q>
2

> <i_epik_Tot_abs_Q>
2

> <r_epik_Metal_State_Penalty>
0.153604

> <b_epik_Metal_Only>
0

> <s_lp_Force_Field>
OPLS_2005

> <r_lp_Energy>
41.0771

> <b_lp_Chiralities_Consistent>
1

> <s_lp_Variant>
AV-unprocessed.smi:2279-1

> <Gold.Version>
5.8.1

> <Gold.Id.Protein>
6NUR|6NUR_protein|mol2

> <Gold.PLP.Fitness>
50.1640

> <Gold.PLP.PLP>
-42.6882

> <Gold.PLP.part.hbond>
-2.0000

> <Gold.PLP.part.metal>
0.0000

> <Gold.PLP.part.buried>
0.0169

> <Gold.PLP.part.nonpolar>
-41.2827

> <Gold.PLP.part.repulsive>
0.3748

> <Gold.PLP.ligand.clash>
0.0000

> <Gold.PLP.ligand.torsion>
0.2141

> <Gold.PLP.Chemscore.Hbond>
2.6240

> <Gold.PLP.Chemscore.CHOScore>
0.0000

> <Gold.PLP.Chemscore.Metal>
0.0000

> <Gold.Chemscore.Hbonds>
donor molecule, donor type, donor heavy atom, donor atom, acceptor molecule, acceptor atom, score
      L1  H     8    33       P1  8028  0.93
      L1  H    15    57       P1 10175  1.79

> <Gold.PLP.Chemscore.Internal.Correction>
0.0319

> <Gold.Rescore>
     Score         DG    S(hbond)    S(metal)    S(lipo)     H(rot)  DE(clash)    DE(int)     intcor
     18.71     -21.63       1.60        0.00     118.75       1.21       1.27       1.65       ----

> <Gold.Chemscore.Fitness>
18.7107

> <Gold.Chemscore.DG>
-21.6313

> <Gold.Chemscore.ZeroCoef>
-5.4800

> <Gold.Chemscore.Hbond>
1.6028

> <Gold.Chemscore.Metal>
0.0000

> <Gold.Chemscore.Lipo>
118.7528

> <Gold.Chemscore.Internal_Hbond>
0.0000

> <Gold.Chemscore.DEClash>
1.2711

> <Gold.Chemscore.DEInternal>
1.6495

> <Gold.Chemscore.Rot>
1.2095

> <Gold.Chemscore.Internal.Correction>
   9.000000E+99

> <Gold.Chemscore.Hbonds>
donor molecule, donor type, donor heavy atom, donor atom, acceptor molecule, acceptor atom, score
      L1  H     8    33       P1  8028  0.89
      L1  H    15    57       P1 10175  0.82

> <Gold.Chemscore.Hbond.Weighted>
-5.3535

> <Gold.Chemscore.Metal.Weighted>
-0.0000

> <Gold.Chemscore.Lipo.Weighted>
-13.8941

> <Gold.Chemscore.Internal_Hbond.Weighted>
0.0000

> <Gold.Chemscore.DEClash.Weighted>
1.2711

> <Gold.Chemscore.DEInternal.Weighted>
1.6495

> <Gold.Chemscore.Rot.Weighted>
3.0963

> <Gold.Chemscore.Internal.Correction.Weighted>
   9.000000E+99

> <Gold.Protein.RotatedTorsions>
[ 6907 6896 6895 6894 ] final  120.26 input  -60.11 | X-H torsion
[ 7974 7965 7964 7962 ] final  -33.42 input  175.53 | X-H torsion
[ 8008 7997 7996 7995 ] final  157.01 input   59.86 | X-H torsion
[ 10167 10162 10161 10158 ] final -119.02 input  -65.29 | X-H torsion
[ 10718 10713 10712 10709 ] final   39.51 input   66.30 | X-H torsion
[ 10763 10752 10751 10750 ] final -156.47 input  -60.55 | X-H torsion
[ 11005 11000 10999 10996 ] final -152.47 input  -57.11 | X-H torsion

> <Gold.Protein.ActiveResidues>
 VAL166  LYS551  ARG553  GLY616  TRP617  ASP618  TYR619  PRO620  LYS621  CYS622 
 ASP623  PHE694  ASN695  SER759  ASP760  ASP761  ALA762  ILE779  LEU786  VAL792 
 PHE793  MET794  SER795  GLU796  ALA797  LYS798  CYS799  TRP800  GLU811  SER814 

> <Gold.Protein.RotatedAtoms>
  152.4411  133.7450  159.6661 H   0  0  0  0  0  0  0  0  0  0  0  0  # atno 6907 bound_to 6896
  150.8302  133.8093  159.3108 H   0  0  0  0  0  0  0  0  0  0  0  0  # atno 6908 bound_to 6896
  151.5749  135.1063  160.0055 H   0  0  0  0  0  0  0  0  0  0  0  0  # atno 6909 bound_to 6896
  146.0912  140.5914  142.8864 H   0  0  0  0  0  0  0  0  0  0  0  0  # atno 7974 bound_to 7965
  156.2389  140.1897  156.7043 H   0  0  0  0  0  0  0  0  0  0  0  0  # atno 8008 bound_to 7997
  154.6159  140.0615  156.9580 H   0  0  0  0  0  0  0  0  0  0  0  0  # atno 8009 bound_to 7997
  155.1940  140.3287  155.4356 H   0  0  0  0  0  0  0  0  0  0  0  0  # atno 8010 bound_to 7997
  140.0511  143.5059  152.2081 H   0  0  0  0  0  0  0  0  0  0  0  0  # atno 10167 bound_to 10162
  157.3714  130.7703  149.7122 H   0  0  0  0  0  0  0  0  0  0  0  0  # atno 10718 bound_to 10713
  154.7710  135.3145  154.8188 H   0  0  0  0  0  0  0  0  0  0  0  0  # atno 10763 bound_to 10752
  153.8924  135.6824  153.4764 H   0  0  0  0  0  0  0  0  0  0  0  0  # atno 10764 bound_to 10752
  153.1324  135.4774  154.9304 H   0  0  0  0  0  0  0  0  0  0  0  0  # atno 10765 bound_to 10752
  140.7185  134.3754  157.5187 H   0  0  0  0  0  0  0  0  0  0  0  0  # atno 11005 bound_to 11000
  144.7361  140.4813  143.6902 LP  0  0  0  0  0  0  0  0  0  0  0  0  # atno 17320 bound_to 7965
  145.6036  139.1506  143.3115 LP  0  0  0  0  0  0  0  0  0  0  0  0  # atno 17321 bound_to 7965
  139.5952  144.7564  151.3303 LP  0  0  0  0  0  0  0  0  0  0  0  0  # atno 17342 bound_to 10162
  140.7216  143.7120  150.7762 LP  0  0  0  0  0  0  0  0  0  0  0  0  # atno 17343 bound_to 10162
  155.9756  130.4086  150.3836 LP  0  0  0  0  0  0  0  0  0  0  0  0  # atno 17370 bound_to 10713
  157.1927  131.0419  151.2691 LP  0  0  0  0  0  0  0  0  0  0  0  0  # atno 17371 bound_to 10713
  139.8854  134.8938  156.2646 LP  0  0  0  0  0  0  0  0  0  0  0  0  # atno 17394 bound_to 11000
  141.0024  133.7144  156.0981 LP  0  0  0  0  0  0  0  0  0  0  0  0  # atno 17395 bound_to 11000

$$$$
