AV-unprocessed.smi:1701|AV-procd|sdf|6843|dock2
  -GOLD-   22720 8 23D 1   1.00000     0.00000
 Structure written by MMmdl.
 54 56  0  0  0  0  0  0  0  0  4 V2000
  145.9305  131.8076  149.0648 C   0  0  0  0  0  0  0  0  0  0  0  0
  144.7659  132.7250  149.4669 C   0  0  0  0  0  0  0  0  0  0  0  0
  144.7154  133.0001  150.9029 N   0  0  0  0  0  0  0  0  0  0  0  0
  144.5364  131.8902  151.8424 C   0  0  0  0  0  0  0  0  0  0  0  0
  145.7682  130.9775  151.9438 C   0  0  0  0  0  0  0  0  0  0  0  0
  145.0253  134.2932  151.3909 C   0  0  0  0  0  0  0  0  0  0  0  0
  145.3408  135.3929  150.5544 C   0  0  0  0  0  0  0  0  0  0  0  0
  145.6363  136.6483  151.1232 C   0  0  0  0  0  0  0  0  0  0  0  0
  145.6178  136.8123  152.5233 C   0  0  0  0  0  0  0  0  0  0  0  0
  145.9249  138.1094  153.0240 N   0  0  0  0  0  0  0  0  0  0  0  0
  145.8308  138.6251  154.2751 C   0  0  0  0  0  0  0  0  0  0  0  0
  145.4278  137.9173  155.1943 O   0  0  0  0  0  0  0  0  0  0  0  0
  146.1908  139.9248  154.4991 N   0  5  0  0  0  0  0  0  0  0  0  0
  147.1308  140.7806  153.7540 C   0  0  2  0  0  0  0  0  0  0  0  0
  148.5714  140.4175  154.1323 C   0  0  0  0  0  0  0  0  0  0  0  0
  148.8830  141.2264  155.4064 C   0  0  0  0  0  0  0  0  0  0  0  0
  147.8753  142.3147  155.4964 N   0  3  2  0  0  0  0  0  0  0  0  0
  147.1094  142.2823  156.7761 C   0  0  0  0  0  0  0  0  0  0  0  0
  145.9168  143.2455  156.7680 C   0  0  0  0  0  0  0  0  0  0  0  0
  144.9629  142.8826  155.6283 C   0  0  0  0  0  0  0  0  0  0  0  0
  145.7020  142.9888  154.2878 C   0  0  0  0  0  0  0  0  0  0  0  0
  147.0645  142.2411  154.2484 C   0  0  2  0  0  0  0  0  0  0  0  0
  145.2942  135.6864  153.3177 C   0  0  0  0  0  0  0  0  0  0  0  0
  145.0183  134.5021  152.7303 N   0  3  0  0  0  0  0  0  0  0  0  0
  145.9553  131.6756  147.9831 H   0  0  0  0  0  0  0  0  0  0  0  0
  145.8328  130.8176  149.5083 H   0  0  0  0  0  0  0  0  0  0  0  0
  146.8933  132.2187  149.3683 H   0  0  0  0  0  0  0  0  0  0  0  0
  144.8042  133.6595  148.9075 H   0  0  0  0  0  0  0  0  0  0  0  0
  143.8286  132.2553  149.1675 H   0  0  0  0  0  0  0  0  0  0  0  0
  144.2708  132.2736  152.8280 H   0  0  0  0  0  0  0  0  0  0  0  0
  143.6804  131.2937  151.5256 H   0  0  0  0  0  0  0  0  0  0  0  0
  145.5987  130.1877  152.6755 H   0  0  0  0  0  0  0  0  0  0  0  0
  146.6540  131.5305  152.2573 H   0  0  0  0  0  0  0  0  0  0  0  0
  145.9933  130.4956  150.9936 H   0  0  0  0  0  0  0  0  0  0  0  0
  145.3684  135.3014  149.4796 H   0  0  0  0  0  0  0  0  0  0  0  0
  145.8775  137.4827  150.4808 H   0  0  0  0  0  0  0  0  0  0  0  0
  146.2738  138.7563  152.3321 H   0  0  0  0  0  0  0  0  0  0  0  0
  146.9867  140.7332  152.6738 H   0  0  0  0  0  0  0  0  0  0  0  0
  148.7269  139.3458  154.2657 H   0  0  0  0  0  0  0  0  0  0  0  0
  149.2403  140.7389  153.3328 H   0  0  0  0  0  0  0  0  0  0  0  0
  148.8481  140.5779  156.2844 H   0  0  0  0  0  0  0  0  0  0  0  0
  149.8873  141.6494  155.3656 H   0  0  0  0  0  0  0  0  0  0  0  0
  146.7449  141.2720  156.9689 H   0  0  0  0  0  0  0  0  0  0  0  0
  147.7839  142.5304  157.5962 H   0  0  0  0  0  0  0  0  0  0  0  0
  145.3907  143.1905  157.7214 H   0  0  0  0  0  0  0  0  0  0  0  0
  146.2626  144.2742  156.6595 H   0  0  0  0  0  0  0  0  0  0  0  0
  144.5749  141.8736  155.7717 H   0  0  0  0  0  0  0  0  0  0  0  0
  144.1000  143.5491  155.6321 H   0  0  0  0  0  0  0  0  0  0  0  0
  145.0487  142.6808  153.4693 H   0  0  0  0  0  0  0  0  0  0  0  0
  145.8984  144.0472  154.1114 H   0  0  0  0  0  0  0  0  0  0  0  0
  147.6579  142.7947  153.5180 H   0  0  0  0  0  0  0  0  0  0  0  0
  145.2389  135.6674  154.3946 H   0  0  0  0  0  0  0  0  0  0  0  0
  148.3597  143.2001  155.4756 H   0  0  0  0  0  0  0  0  0  0  0  0
  144.7897  133.7145  153.3369 H   0  0  0  0  0  0  0  0  0  0  0  0
  1  2  1  0  0  0  0
  1 25  1  0  0  0  0
  1 26  1  0  0  0  0
  1 27  1  0  0  0  0
  2  3  1  0  0  0  0
  2 28  1  0  0  0  0
  2 29  1  0  0  0  0
  3  4  1  0  0  0  0
  3  6  1  0  0  0  0
  4  5  1  0  0  0  0
  4 30  1  0  0  0  0
  4 31  1  0  0  0  0
  5 32  1  0  0  0  0
  5 33  1  0  0  0  0
  5 34  1  0  0  0  0
  6 24  1  0  0  0  0
  6  7  2  0  0  0  0
  7  8  1  0  0  0  0
  7 35  1  0  0  0  0
  8  9  2  0  0  0  0
  8 36  1  0  0  0  0
  9 10  1  0  0  0  0
  9 23  1  0  0  0  0
 10 11  1  0  0  0  0
 10 37  1  0  0  0  0
 11 12  2  0  0  0  0
 11 13  1  0  0  0  0
 13 14  1  0  0  0  0
 14 22  1  0  0  0  0
 14 15  1  0  0  0  0
 14 38  1  0  0  0  0
 15 16  1  0  0  0  0
 15 39  1  0  0  0  0
 15 40  1  0  0  0  0
 16 17  1  0  0  0  0
 16 41  1  0  0  0  0
 16 42  1  0  0  0  0
 17 22  1  0  0  0  0
 17 18  1  0  0  0  0
 17 53  1  0  0  0  0
 18 19  1  0  0  0  0
 18 43  1  0  0  0  0
 18 44  1  0  0  0  0
 19 20  1  0  0  0  0
 19 45  1  0  0  0  0
 19 46  1  0  0  0  0
 20 21  1  0  0  0  0
 20 47  1  0  0  0  0
 20 48  1  0  0  0  0
 21 22  1  0  0  0  0
 21 49  1  0  0  0  0
 21 50  1  0  0  0  0
 22 51  1  0  0  0  0
 23 24  2  0  0  0  0
 23 52  1  0  0  0  0
 24 54  1  0  0  0  0
M  CHG  1  13  -1
M  CHG  1  17   1
M  CHG  1  24   1
M  END
> <s_m_source_file>
AV-unprocessed.smi

> <i_m_source_file_index>
1701

> <i_lp_mmshare_version>
43012

> <i_f3d_flags>
0

> <s_epik_input>
W0NIM11bQ0gyXU4oW0NIMl1bQ0gzXSljMVtjSF1bY0hdYyhbY0hdbjEpW05IXUMoPU8pW05IXVtDQEhdKFtDSDJdW0NIMl0yKVtDQEBIXShOMjMpW0NIMl1bQ0gyXVtDSDJdW0NIMl0z

> <s_epik_cmdline>
J2VwaWtfcHl0aG9uJywgJy1waCcsICc3LjAnLCAnLXRuJywgJzgnLCAnLW1hJywgJzIwMCcsICctbWV0YWxfYmluZGluZycsICctaW1hZScsICc8aW5maWxlLm1hZT4nLCAnLW9tYWUnLCAnPG91dGZpbGUubWFlPic=

> <r_lp_tautomer_probability>
0.999994

> <r_epik_Ionization_Penalty>
7.37095

> <r_epik_Ionization_Penalty_Charging>
7.37095

> <r_epik_Ionization_Penalty_Neutral>
3.78969e-06

> <r_epik_State_Penalty>
6.83842

> <r_epik_Charging_Adjusted_Penalty>
14.2094

> <i_epik_Tot_Q>
1

> <i_epik_Tot_abs_Q>
3

> <r_epik_Metal_State_Penalty>
2.78552

> <b_epik_Metal_Only>
1

> <s_lp_Force_Field>
OPLS_2005

> <r_lp_Energy>
56.3102

> <b_lp_Chiralities_Consistent>
1

> <s_lp_Variant>
AV-unprocessed.smi:1701-23

> <Gold.Version>
5.8.1

> <Gold.Id.Protein>
6NUR|6NUR_protein|mol2

> <Gold.PLP.Fitness>
43.8754

> <Gold.PLP.PLP>
-38.6554

> <Gold.PLP.part.hbond>
-1.1821

> <Gold.PLP.part.metal>
0.0000

> <Gold.PLP.part.buried>
-1.2443

> <Gold.PLP.part.nonpolar>
-36.8091

> <Gold.PLP.part.repulsive>
0.2459

> <Gold.PLP.ligand.clash>
0.0000

> <Gold.PLP.ligand.torsion>
0.5581

> <Gold.PLP.Chemscore.Hbond>
2.0000

> <Gold.PLP.Chemscore.CHOScore>
0.0000

> <Gold.PLP.Chemscore.Metal>
0.0000

> <Gold.Chemscore.Hbonds>
donor molecule, donor type, donor heavy atom, donor atom, acceptor molecule, acceptor atom, score
      L1  H    17    53       P1  8028  2.00

> <Gold.PLP.Chemscore.Internal.Correction>
0.3361

> <Gold.Rescore>
     Score         DG    S(hbond)    S(metal)    S(lipo)     H(rot)  DE(clash)    DE(int)     intcor
     14.81     -17.15       0.99        0.00      99.51       1.28       0.44       1.89       ----

> <Gold.Chemscore.Fitness>
14.8135

> <Gold.Chemscore.DG>
-17.1463

> <Gold.Chemscore.ZeroCoef>
-5.4800

> <Gold.Chemscore.Hbond>
0.9909

> <Gold.Chemscore.Metal>
0.0000

> <Gold.Chemscore.Lipo>
99.5137

> <Gold.Chemscore.Internal_Hbond>
0.0000

> <Gold.Chemscore.DEClash>
0.4385

> <Gold.Chemscore.DEInternal>
1.8943

> <Gold.Chemscore.Rot>
1.2838

> <Gold.Chemscore.Internal.Correction>
   9.000000E+99

> <Gold.Chemscore.Hbonds>
donor molecule, donor type, donor heavy atom, donor atom, acceptor molecule, acceptor atom, score
      L1  H    17    53       P1  8028  0.96

> <Gold.Chemscore.Hbond.Weighted>
-3.3097

> <Gold.Chemscore.Metal.Weighted>
-0.0000

> <Gold.Chemscore.Lipo.Weighted>
-11.6431

> <Gold.Chemscore.Internal_Hbond.Weighted>
0.0000

> <Gold.Chemscore.DEClash.Weighted>
0.4385

> <Gold.Chemscore.DEInternal.Weighted>
1.8943

> <Gold.Chemscore.Rot.Weighted>
3.2865

> <Gold.Chemscore.Internal.Correction.Weighted>
   9.000000E+99

> <Gold.Protein.RotatedTorsions>
[ 6907 6896 6895 6894 ] final  -96.09 input  -60.11 | X-H torsion
[ 7974 7965 7964 7962 ] final  -15.81 input  175.53 | X-H torsion
[ 8008 7997 7996 7995 ] final  149.35 input   59.86 | X-H torsion
[ 10167 10162 10161 10158 ] final  -30.66 input  -65.29 | X-H torsion
[ 10718 10713 10712 10709 ] final   83.61 input   66.30 | X-H torsion
[ 10763 10752 10751 10750 ] final -170.27 input  -60.55 | X-H torsion
[ 11005 11000 10999 10996 ] final  -74.02 input  -57.11 | X-H torsion

> <Gold.Protein.ActiveResidues>
 VAL166  LYS551  ARG553  GLY616  TRP617  ASP618  TYR619  PRO620  LYS621  CYS622 
 ASP623  PHE694  ASN695  SER759  ASP760  ASP761  ALA762  ILE779  LEU786  VAL792 
 PHE793  MET794  SER795  GLU796  ALA797  LYS798  CYS799  TRP800  GLU811  SER814 

> <Gold.Protein.RotatedAtoms>
  150.6980  134.1557  159.4156 H   0  0  0  0  0  0  0  0  0  0  0  0  # atno 6907 bound_to 6896
  151.9538  135.0154  160.0553 H   0  0  0  0  0  0  0  0  0  0  0  0  # atno 6908 bound_to 6896
  152.1987  133.4790  159.5083 H   0  0  0  0  0  0  0  0  0  0  0  0  # atno 6909 bound_to 6896
  146.2016  140.3546  142.8421 H   0  0  0  0  0  0  0  0  0  0  0  0  # atno 7974 bound_to 7965
  156.2758  140.2104  156.5844 H   0  0  0  0  0  0  0  0  0  0  0  0  # atno 8008 bound_to 7997
  154.7033  140.0519  157.0502 H   0  0  0  0  0  0  0  0  0  0  0  0  # atno 8009 bound_to 7997
  155.0705  140.3176  155.4635 H   0  0  0  0  0  0  0  0  0  0  0  0  # atno 8010 bound_to 7997
  140.7246  143.3831  151.1564 H   0  0  0  0  0  0  0  0  0  0  0  0  # atno 10167 bound_to 10162
  157.6882  131.0098  150.2549 H   0  0  0  0  0  0  0  0  0  0  0  0  # atno 10718 bound_to 10713
  154.6433  135.2901  155.0077 H   0  0  0  0  0  0  0  0  0  0  0  0  # atno 10763 bound_to 10752
  154.1196  135.6550  153.4904 H   0  0  0  0  0  0  0  0  0  0  0  0  # atno 10764 bound_to 10752
  153.0338  135.5284  154.7309 H   0  0  0  0  0  0  0  0  0  0  0  0  # atno 10765 bound_to 10752
  141.1630  133.6897  156.7301 H   0  0  0  0  0  0  0  0  0  0  0  0  # atno 11005 bound_to 11000
  144.8696  140.7253  143.6055 LP  0  0  0  0  0  0  0  0  0  0  0  0  # atno 17320 bound_to 7965
  145.3465  139.1718  143.4457 LP  0  0  0  0  0  0  0  0  0  0  0  0  # atno 17321 bound_to 7965
  139.7424  143.8904  152.3053 LP  0  0  0  0  0  0  0  0  0  0  0  0  # atno 17342 bound_to 10162
  139.8730  144.7058  150.8965 LP  0  0  0  0  0  0  0  0  0  0  0  0  # atno 17343 bound_to 10162
  156.3139  130.3776  149.7637 LP  0  0  0  0  0  0  0  0  0  0  0  0  # atno 17370 bound_to 10713
  156.5228  130.8223  151.3210 LP  0  0  0  0  0  0  0  0  0  0  0  0  # atno 17371 bound_to 10713
  140.2751  134.8361  157.3883 LP  0  0  0  0  0  0  0  0  0  0  0  0  # atno 17394 bound_to 11000
  140.1485  134.4880  155.7979 LP  0  0  0  0  0  0  0  0  0  0  0  0  # atno 17395 bound_to 11000

$$$$
