AV-unprocessed.smi:671|AV-procd|sdf|3277|dock7
  -GOLD-   22720 0233D 1   1.00000     0.00000
 Structure written by MMmdl.
 49 50  0  0  0  0  0  0  0  0  1 V2000
  152.7716  138.3858  154.8719 C   0  0  0  0  0  0  0  0  0  0  0  0
  151.8352  139.3942  155.4747 C   0  0  0  0  0  0  0  0  0  0  0  0
  152.2806  140.1855  156.4357 N   0  0  0  0  0  0  0  0  0  0  0  0
  151.2257  140.9586  156.7622 N   0  0  0  0  0  0  0  0  0  0  0  0
  151.3708  141.9563  157.8045 C   0  0  0  0  0  0  0  0  0  0  0  0
  150.1111  140.6567  156.0046 C   0  0  0  0  0  0  0  0  0  0  0  0
  148.8137  141.3792  156.1775 C   0  0  0  0  0  0  0  0  0  0  0  0
  150.4675  139.6434  155.1547 C   0  0  0  0  0  0  0  0  0  0  0  0
  149.6301  138.9398  154.1177 C   0  0  0  0  0  0  0  0  0  0  0  0
  148.3496  138.3185  154.7195 C   0  0  2  0  0  0  0  0  0  0  0  0
  148.5731  137.7695  156.1373 C   0  0  0  0  0  0  0  0  0  0  0  0
  147.8549  137.2351  153.8657 N   0  0  0  0  0  0  0  0  0  0  0  0
  146.6959  136.5585  153.9693 C   0  0  0  0  0  0  0  0  0  0  0  0
  145.8823  136.7968  154.8596 O   0  0  0  0  0  0  0  0  0  0  0  0
  146.5194  135.6121  153.0320 N   0  0  0  0  0  0  0  0  0  0  0  0
  145.3784  134.7056  152.9138 C   0  0  2  0  0  0  0  0  0  0  0  0
  145.7572  133.5080  152.0202 C   0  0  0  0  0  0  0  0  0  0  0  0
  144.9797  133.6661  150.7057 C   0  0  0  0  0  0  0  0  0  0  0  0
  144.3999  135.0803  150.7285 C   0  0  0  0  0  0  0  0  0  0  0  0
  144.1769  135.3720  152.2127 C   0  0  2  0  0  0  0  0  0  0  0  0
  143.9366  136.8587  152.5273 C   0  0  0  0  0  0  0  0  0  0  0  0
  152.3126  137.8651  154.0329 H   0  0  0  0  0  0  0  0  0  0  0  0
  153.0626  137.6336  155.6052 H   0  0  0  0  0  0  0  0  0  0  0  0
  153.6798  138.8630  154.5034 H   0  0  0  0  0  0  0  0  0  0  0  0
  151.2275  142.9509  157.3820 H   0  0  0  0  0  0  0  0  0  0  0  0
  152.3636  141.9036  158.2539 H   0  0  0  0  0  0  0  0  0  0  0  0
  150.6238  141.7872  158.5804 H   0  0  0  0  0  0  0  0  0  0  0  0
  148.1029  141.1132  155.3957 H   0  0  0  0  0  0  0  0  0  0  0  0
  148.9610  142.4585  156.1357 H   0  0  0  0  0  0  0  0  0  0  0  0
  148.3613  141.1356  157.1390 H   0  0  0  0  0  0  0  0  0  0  0  0
  149.3625  139.6465  153.3318 H   0  0  0  0  0  0  0  0  0  0  0  0
  150.2041  138.1643  153.6098 H   0  0  0  0  0  0  0  0  0  0  0  0
  147.5777  139.0867  154.7903 H   0  0  0  0  0  0  0  0  0  0  0  0
  148.8664  138.5597  156.8287 H   0  0  0  0  0  0  0  0  0  0  0  0
  149.3542  137.0087  156.1507 H   0  0  0  0  0  0  0  0  0  0  0  0
  147.6618  137.3183  156.5309 H   0  0  0  0  0  0  0  0  0  0  0  0
  148.4725  136.9518  153.1186 H   0  0  0  0  0  0  0  0  0  0  0  0
  147.2487  135.5015  152.3430 H   0  0  0  0  0  0  0  0  0  0  0  0
  145.0798  134.3494  153.9013 H   0  0  0  0  0  0  0  0  0  0  0  0
  146.8313  133.4666  151.8327 H   0  0  0  0  0  0  0  0  0  0  0  0
  145.4878  132.5677  152.5018 H   0  0  0  0  0  0  0  0  0  0  0  0
  145.6072  133.4948  149.8306 H   0  0  0  0  0  0  0  0  0  0  0  0
  144.1675  132.9391  150.6733 H   0  0  0  0  0  0  0  0  0  0  0  0
  145.1251  135.7823  150.3147 H   0  0  0  0  0  0  0  0  0  0  0  0
  143.4848  135.1640  150.1417 H   0  0  0  0  0  0  0  0  0  0  0  0
  143.2845  134.8235  152.5192 H   0  0  0  0  0  0  0  0  0  0  0  0
  144.7559  137.4870  152.1766 H   0  0  0  0  0  0  0  0  0  0  0  0
  143.8275  137.0171  153.6004 H   0  0  0  0  0  0  0  0  0  0  0  0
  143.0246  137.2130  152.0464 H   0  0  0  0  0  0  0  0  0  0  0  0
  1  2  1  0  0  0  0
  1 22  1  0  0  0  0
  1 23  1  0  0  0  0
  1 24  1  0  0  0  0
  2  8  1  0  0  0  0
  2  3  2  0  0  0  0
  3  4  1  0  0  0  0
  4  5  1  0  0  0  0
  4  6  1  0  0  0  0
  5 25  1  0  0  0  0
  5 26  1  0  0  0  0
  5 27  1  0  0  0  0
  6  7  1  0  0  0  0
  6  8  2  0  0  0  0
  7 28  1  0  0  0  0
  7 29  1  0  0  0  0
  7 30  1  0  0  0  0
  8  9  1  0  0  0  0
  9 10  1  0  0  0  0
  9 31  1  0  0  0  0
  9 32  1  0  0  0  0
 10 11  1  0  0  0  0
 10 12  1  0  0  0  0
 10 33  1  0  0  0  0
 11 34  1  0  0  0  0
 11 35  1  0  0  0  0
 11 36  1  0  0  0  0
 12 13  1  0  0  0  0
 12 37  1  0  0  0  0
 13 14  2  0  0  0  0
 13 15  1  0  0  0  0
 15 16  1  0  0  0  0
 15 38  1  0  0  0  0
 16 20  1  0  0  0  0
 16 17  1  0  0  0  0
 16 39  1  0  0  0  0
 17 18  1  0  0  0  0
 17 40  1  0  0  0  0
 17 41  1  0  0  0  0
 18 19  1  0  0  0  0
 18 42  1  0  0  0  0
 18 43  1  0  0  0  0
 19 20  1  0  0  0  0
 19 44  1  0  0  0  0
 19 45  1  0  0  0  0
 20 21  1  0  0  0  0
 20 46  1  0  0  0  0
 21 47  1  0  0  0  0
 21 48  1  0  0  0  0
 21 49  1  0  0  0  0
M  END
> <s_m_source_file>
AV-unprocessed.smi

> <i_m_source_file_index>
671

> <i_lp_mmshare_version>
43012

> <i_f3d_flags>
0

> <s_epik_input>
W0NIM11jMW5uKFtDSDNdKWMoW0NIM10pYzFbQ0gyXVtDQEhdKFtDSDNdKVtOSF1DKD1PKVtOSF1bQ0BASF0yW0NIMl1bQ0gyXVtDSDJdW0NASF0yW0NIM10=

> <s_epik_cmdline>
J2VwaWtfcHl0aG9uJywgJy1waCcsICc3LjAnLCAnLXRuJywgJzgnLCAnLW1hJywgJzIwMCcsICctbWV0YWxfYmluZGluZycsICctaW1hZScsICc8aW5maWxlLm1hZT4nLCAnLW9tYWUnLCAnPG91dGZpbGUubWFlPic=

> <r_lp_tautomer_probability>
1

> <r_epik_Ionization_Penalty>
0.0126855

> <r_epik_Ionization_Penalty_Charging>
0

> <r_epik_Ionization_Penalty_Neutral>
0.0126855

> <r_epik_State_Penalty>
0.00977547

> <r_epik_Charging_Adjusted_Penalty>
0.00977547

> <i_epik_Tot_Q>
0

> <i_epik_Tot_abs_Q>
0

> <r_epik_Metal_State_Penalty>
0.00957132

> <b_epik_Metal_Only>
0

> <s_lp_Force_Field>
OPLS_2005

> <r_lp_Energy>
22.3824

> <b_lp_Chiralities_Consistent>
1

> <s_lp_Variant>
AV-unprocessed.smi:671-5

> <Gold.Version>
5.8.1

> <Gold.Id.Protein>
6NUR|6NUR_protein|mol2

> <Gold.PLP.Fitness>
40.3360

> <Gold.PLP.PLP>
-32.8912

> <Gold.PLP.part.hbond>
-2.9236

> <Gold.PLP.part.metal>
0.0000

> <Gold.PLP.part.buried>
-1.7214

> <Gold.PLP.part.nonpolar>
-28.3270

> <Gold.PLP.part.repulsive>
0.0359

> <Gold.PLP.ligand.clash>
0.0000

> <Gold.PLP.ligand.torsion>
0.5780

> <Gold.PLP.Chemscore.Hbond>
2.8480

> <Gold.PLP.Chemscore.CHOScore>
0.0000

> <Gold.PLP.Chemscore.Metal>
0.0000

> <Gold.Chemscore.Hbonds>
donor molecule, donor type, donor heavy atom, donor atom, acceptor molecule, acceptor atom, score
      L1  H    12    37       P1  7948  0.98
      L1  H    15    38       P1  7948  0.85
      P1  H  7997  8010       L1     3  0.94

> <Gold.PLP.Chemscore.Internal.Correction>
0.0567

> <Gold.Rescore>
     Score         DG    S(hbond)    S(metal)    S(lipo)     H(rot)  DE(clash)    DE(int)     intcor
     19.50     -20.50       2.83        0.00      79.47       1.45       0.32       0.69       ----

> <Gold.Chemscore.Fitness>
19.4956

> <Gold.Chemscore.DG>
-20.5027

> <Gold.Chemscore.ZeroCoef>
-5.4800

> <Gold.Chemscore.Hbond>
2.8253

> <Gold.Chemscore.Metal>
0.0000

> <Gold.Chemscore.Lipo>
79.4704

> <Gold.Chemscore.Internal_Hbond>
0.0000

> <Gold.Chemscore.DEClash>
0.3156

> <Gold.Chemscore.DEInternal>
0.6915

> <Gold.Chemscore.Rot>
1.4499

> <Gold.Chemscore.Internal.Correction>
   9.000000E+99

> <Gold.Chemscore.Hbonds>
donor molecule, donor type, donor heavy atom, donor atom, acceptor molecule, acceptor atom, score
      L1  H    12    37       P1  7948  0.92
      L1  H    15    38       P1  7948  0.83
      P1  H  7997  8010       L1     3  0.62

> <Gold.Chemscore.Hbond.Weighted>
-9.4365

> <Gold.Chemscore.Metal.Weighted>
-0.0000

> <Gold.Chemscore.Lipo.Weighted>
-9.2980

> <Gold.Chemscore.Internal_Hbond.Weighted>
0.0000

> <Gold.Chemscore.DEClash.Weighted>
0.3156

> <Gold.Chemscore.DEInternal.Weighted>
0.6915

> <Gold.Chemscore.Rot.Weighted>
3.7118

> <Gold.Chemscore.Internal.Correction.Weighted>
   9.000000E+99

> <Gold.Protein.RotatedTorsions>
[ 6907 6896 6895 6894 ] final -112.02 input  -60.11 | X-H torsion
[ 7974 7965 7964 7962 ] final -121.95 input  175.53 | X-H torsion
[ 8008 7997 7996 7995 ] final   71.50 input   59.86 | X-H torsion
[ 10167 10162 10161 10158 ] final   82.11 input  -65.29 | X-H torsion
[ 10718 10713 10712 10709 ] final  104.81 input   66.30 | X-H torsion
[ 10763 10752 10751 10750 ] final  127.75 input  -60.55 | X-H torsion
[ 11005 11000 10999 10996 ] final  139.81 input  -57.11 | X-H torsion

> <Gold.Protein.ActiveResidues>
 VAL166  LYS551  ARG553  GLY616  TRP617  ASP618  TYR619  PRO620  LYS621  CYS622 
 ASP623  PHE694  ASN695  SER759  ASP760  ASP761  ALA762  ILE779  LEU786  VAL792 
 PHE793  MET794  SER795  GLU796  ALA797  LYS798  CYS799  TRP800  GLU811  SER814 

> <Gold.Protein.RotatedAtoms>
  150.7730  133.9151  159.3380 H   0  0  0  0  0  0  0  0  0  0  0  0  # atno 6907 bound_to 6896
  151.7032  135.0924  160.0264 H   0  0  0  0  0  0  0  0  0  0  0  0  # atno 6908 bound_to 6896
  152.3755  133.6437  159.6155 H   0  0  0  0  0  0  0  0  0  0  0  0  # atno 6909 bound_to 6896
  145.0347  140.8096  143.4302 H   0  0  0  0  0  0  0  0  0  0  0  0  # atno 7974 bound_to 7965
  155.7548  140.3488  155.5168 H   0  0  0  0  0  0  0  0  0  0  0  0  # atno 8008 bound_to 7997
  155.8970  140.1027  157.1398 H   0  0  0  0  0  0  0  0  0  0  0  0  # atno 8009 bound_to 7997
  154.4039  140.1293  156.4375 H   0  0  0  0  0  0  0  0  0  0  0  0  # atno 8010 bound_to 7997
  139.9322  144.6144  150.8333 H   0  0  0  0  0  0  0  0  0  0  0  0  # atno 10167 bound_to 10162
  157.6727  131.0813  150.5762 H   0  0  0  0  0  0  0  0  0  0  0  0  # atno 10718 bound_to 10713
  153.7145  135.3263  155.3253 H   0  0  0  0  0  0  0  0  0  0  0  0  # atno 10763 bound_to 10752
  154.8375  135.4485  154.1280 H   0  0  0  0  0  0  0  0  0  0  0  0  # atno 10764 bound_to 10752
  153.2383  135.6968  153.7891 H   0  0  0  0  0  0  0  0  0  0  0  0  # atno 10765 bound_to 10752
  140.0282  134.9365  157.0610 H   0  0  0  0  0  0  0  0  0  0  0  0  # atno 11005 bound_to 11000
  145.1724  139.2397  143.5335 LP  0  0  0  0  0  0  0  0  0  0  0  0  # atno 17320 bound_to 7965
  146.3503  140.1478  142.8593 LP  0  0  0  0  0  0  0  0  0  0  0  0  # atno 17321 bound_to 7965
  140.7634  143.3222  151.2596 LP  0  0  0  0  0  0  0  0  0  0  0  0  # atno 17342 bound_to 10162
  139.6772  143.9916  152.2788 LP  0  0  0  0  0  0  0  0  0  0  0  0  # atno 17343 bound_to 10162
  156.6063  130.4368  149.5877 LP  0  0  0  0  0  0  0  0  0  0  0  0  # atno 17370 bound_to 10713
  156.2466  130.6882  151.1605 LP  0  0  0  0  0  0  0  0  0  0  0  0  # atno 17371 bound_to 10713
  140.4271  134.1820  155.7166 LP  0  0  0  0  0  0  0  0  0  0  0  0  # atno 17394 bound_to 11000
  141.1815  133.8403  157.1240 LP  0  0  0  0  0  0  0  0  0  0  0  0  # atno 17395 bound_to 11000

$$$$
