AV-unprocessed.smi:564|AV-procd|sdf|2947|dock5
  -GOLD-   2262023443D 1   1.00000     0.00000
 Structure written by MMmdl.
 50 51  0  0  0  0  0  0  0  0  2 V2000
  153.0402  137.8463  156.0715 C   0  0  0  0  0  0  0  0  0  0  0  0
  152.1684  139.0690  156.1118 C   0  0  0  0  0  0  0  0  0  0  0  0
  152.5015  140.0712  156.9069 N   0  0  0  0  0  0  0  0  0  0  0  0
  151.5328  140.9910  156.7300 N   0  0  0  0  0  0  0  0  0  0  0  0
  151.5956  142.2303  157.4808 C   0  0  0  0  0  0  0  0  0  0  0  0
  150.5895  140.5736  155.8099 C   0  0  0  0  0  0  0  0  0  0  0  0
  149.4102  141.4117  155.4320 C   0  0  0  0  0  0  0  0  0  0  0  0
  150.9680  139.3271  155.3860 C   0  0  0  0  0  0  0  0  0  0  0  0
  150.2892  138.4235  154.3863 C   0  0  0  0  0  0  0  0  0  0  0  0
  149.7165  137.2091  155.1150 C   0  0  0  0  0  0  0  0  0  0  0  0
  149.9300  137.0513  156.3164 O   0  0  0  0  0  0  0  0  0  0  0  0
  149.0249  136.3358  154.3667 N   0  0  0  0  0  0  0  0  0  0  0  0
  148.5317  135.0415  154.8284 C   0  0  0  0  0  0  0  0  0  0  0  0
  147.0545  134.7979  154.4420 C   0  0  0  0  0  0  0  0  0  0  0  0
  146.8552  134.5976  152.9763 N   0  3  2  0  0  0  0  0  0  0  0  0
  145.4992  135.0484  152.5534 C   0  0  0  0  0  0  0  0  0  0  0  0
  145.3264  134.9993  151.0306 C   0  0  0  0  0  0  0  0  0  0  0  0
  145.5874  133.5870  150.5085 C   0  0  0  0  0  0  0  0  0  0  0  0
  146.9806  133.1326  150.9496 C   0  0  0  0  0  0  0  0  0  0  0  0
  147.1690  133.2179  152.4811 C   0  0  1  0  0  0  0  0  0  0  0  0
  148.6050  132.7662  152.8192 C   0  0  0  0  0  0  0  0  0  0  0  0
  153.0567  137.4044  155.0752 H   0  0  0  0  0  0  0  0  0  0  0  0
  152.6777  137.0874  156.7652 H   0  0  0  0  0  0  0  0  0  0  0  0
  154.0709  138.0802  156.3419 H   0  0  0  0  0  0  0  0  0  0  0  0
  150.5903  142.5603  157.7438 H   0  0  0  0  0  0  0  0  0  0  0  0
  152.0797  143.0003  156.8805 H   0  0  0  0  0  0  0  0  0  0  0  0
  152.1649  142.0884  158.4005 H   0  0  0  0  0  0  0  0  0  0  0  0
  148.9822  141.0868  154.4840 H   0  0  0  0  0  0  0  0  0  0  0  0
  149.6871  142.4603  155.3252 H   0  0  0  0  0  0  0  0  0  0  0  0
  148.6321  141.3439  156.1923 H   0  0  0  0  0  0  0  0  0  0  0  0
  149.4824  138.9430  153.8678 H   0  0  0  0  0  0  0  0  0  0  0  0
  150.9780  138.0864  153.6109 H   0  0  0  0  0  0  0  0  0  0  0  0
  148.8820  136.5590  153.3921 H   0  0  0  0  0  0  0  0  0  0  0  0
  149.1613  134.2413  154.4358 H   0  0  0  0  0  0  0  0  0  0  0  0
  148.6486  135.0089  155.9114 H   0  0  0  0  0  0  0  0  0  0  0  0
  146.7411  133.9186  154.9979 H   0  0  0  0  0  0  0  0  0  0  0  0
  146.4241  135.6128  154.8001 H   0  0  0  0  0  0  0  0  0  0  0  0
  144.7429  134.4257  153.0342 H   0  0  0  0  0  0  0  0  0  0  0  0
  145.3199  136.0709  152.8836 H   0  0  0  0  0  0  0  0  0  0  0  0
  144.3201  135.3182  150.7575 H   0  0  0  0  0  0  0  0  0  0  0  0
  146.0138  135.7018  150.5607 H   0  0  0  0  0  0  0  0  0  0  0  0
  144.8318  132.9004  150.8925 H   0  0  0  0  0  0  0  0  0  0  0  0
  145.5102  133.5657  149.4210 H   0  0  0  0  0  0  0  0  0  0  0  0
  147.1490  132.1108  150.6076 H   0  0  0  0  0  0  0  0  0  0  0  0
  147.7321  133.7470  150.4530 H   0  0  0  0  0  0  0  0  0  0  0  0
  146.4714  132.5231  152.9520 H   0  0  0  0  0  0  0  0  0  0  0  0
  148.8642  131.8541  152.2810 H   0  0  0  0  0  0  0  0  0  0  0  0
  148.7338  132.5355  153.8759 H   0  0  0  0  0  0  0  0  0  0  0  0
  149.3356  133.5267  152.5435 H   0  0  0  0  0  0  0  0  0  0  0  0
  147.5194  135.2072  152.5203 H   0  0  0  0  0  0  0  0  0  0  0  0
  1  2  1  0  0  0  0
  1 22  1  0  0  0  0
  1 23  1  0  0  0  0
  1 24  1  0  0  0  0
  2  8  1  0  0  0  0
  2  3  2  0  0  0  0
  3  4  1  0  0  0  0
  4  5  1  0  0  0  0
  4  6  1  0  0  0  0
  5 25  1  0  0  0  0
  5 26  1  0  0  0  0
  5 27  1  0  0  0  0
  6  7  1  0  0  0  0
  6  8  2  0  0  0  0
  7 28  1  0  0  0  0
  7 29  1  0  0  0  0
  7 30  1  0  0  0  0
  8  9  1  0  0  0  0
  9 10  1  0  0  0  0
  9 31  1  0  0  0  0
  9 32  1  0  0  0  0
 10 11  2  0  0  0  0
 10 12  1  0  0  0  0
 12 13  1  0  0  0  0
 12 33  1  0  0  0  0
 13 14  1  0  0  0  0
 13 34  1  0  0  0  0
 13 35  1  0  0  0  0
 14 15  1  0  0  0  0
 14 36  1  0  0  0  0
 14 37  1  0  0  0  0
 15 20  1  0  0  0  0
 15 16  1  0  0  0  0
 15 50  1  0  0  0  0
 16 17  1  0  0  0  0
 16 38  1  0  0  0  0
 16 39  1  0  0  0  0
 17 18  1  0  0  0  0
 17 40  1  0  0  0  0
 17 41  1  0  0  0  0
 18 19  1  0  0  0  0
 18 42  1  0  0  0  0
 18 43  1  0  0  0  0
 19 20  1  0  0  0  0
 19 44  1  0  0  0  0
 19 45  1  0  0  0  0
 20 21  1  0  0  0  0
 20 46  1  0  0  0  0
 21 47  1  0  0  0  0
 21 48  1  0  0  0  0
 21 49  1  0  0  0  0
M  CHG  1  15   1
M  END
> <s_m_source_file>
AV-unprocessed.smi

> <i_m_source_file_index>
564

> <i_lp_mmshare_version>
43012

> <i_f3d_flags>
0

> <s_epik_input>
W0NIM11jMW5uKFtDSDNdKWMoW0NIM10pYzFbQ0gyXUMoPU8pW05IXVtDSDJdW0NIMl1OMltDSDJdW0NIMl1bQ0gyXVtDSDJdW0NASF0yW0NIM10=

> <s_epik_cmdline>
J2VwaWtfcHl0aG9uJywgJy1waCcsICc3LjAnLCAnLXRuJywgJzgnLCAnLW1hJywgJzIwMCcsICctbWV0YWxfYmluZGluZycsICctaW1hZScsICc8aW5maWxlLm1hZT4nLCAnLW9tYWUnLCAnPG91dGZpbGUubWFlPic=

> <r_lp_tautomer_probability>
1

> <r_epik_Ionization_Penalty>
0.00456826

> <r_epik_Ionization_Penalty_Charging>
0.00240401

> <r_epik_Ionization_Penalty_Neutral>
0.00216425

> <r_epik_State_Penalty>
-0

> <r_epik_Charging_Adjusted_Penalty>
0.00240401

> <i_epik_Tot_Q>
1

> <i_epik_Tot_abs_Q>
1

> <r_epik_Metal_State_Penalty>
-0

> <b_epik_Metal_Only>
0

> <s_lp_Force_Field>
OPLS_2005

> <r_lp_Energy>
16.6365

> <b_lp_Chiralities_Consistent>
1

> <s_lp_Variant>
AV-unprocessed.smi:564-1

> <Gold.Version>
5.8.1

> <Gold.Id.Protein>
6NUR|6NUR_protein|mol2

> <Gold.PLP.Fitness>
44.9941

> <Gold.PLP.PLP>
-33.9529

> <Gold.PLP.part.hbond>
-2.9284

> <Gold.PLP.part.metal>
0.0000

> <Gold.PLP.part.buried>
-2.5598

> <Gold.PLP.part.nonpolar>
-28.6960

> <Gold.PLP.part.repulsive>
0.0176

> <Gold.PLP.ligand.clash>
0.0000

> <Gold.PLP.ligand.torsion>
0.4595

> <Gold.PLP.Chemscore.Hbond>
3.9760

> <Gold.PLP.Chemscore.CHOScore>
0.0000

> <Gold.PLP.Chemscore.Metal>
0.0000

> <Gold.Chemscore.Hbonds>
donor molecule, donor type, donor heavy atom, donor atom, acceptor molecule, acceptor atom, score
      L1  H    12    33       P1  7948  1.00
      L1  H    15    50       P1  7948  2.00
      P1  H  7997  8008       L1     3  1.00

> <Gold.PLP.Chemscore.Internal.Correction>
0.0323

> <Gold.Rescore>
     Score         DG    S(hbond)    S(metal)    S(lipo)     H(rot)  DE(clash)    DE(int)     intcor
     18.83     -20.53       2.65        0.00      88.32       1.61       0.47       1.24       ----

> <Gold.Chemscore.Fitness>
18.8285

> <Gold.Chemscore.DG>
-20.5340

> <Gold.Chemscore.ZeroCoef>
-5.4800

> <Gold.Chemscore.Hbond>
2.6505

> <Gold.Chemscore.Metal>
0.0000

> <Gold.Chemscore.Lipo>
88.3233

> <Gold.Chemscore.Internal_Hbond>
0.0000

> <Gold.Chemscore.DEClash>
0.4700

> <Gold.Chemscore.DEInternal>
1.2354

> <Gold.Chemscore.Rot>
1.6142

> <Gold.Chemscore.Internal.Correction>
   9.000000E+99

> <Gold.Chemscore.Hbonds>
donor molecule, donor type, donor heavy atom, donor atom, acceptor molecule, acceptor atom, score
      L1  H    12    33       P1  7948  0.92
      L1  H    15    50       P1  7948  1.00
      P1  H  7997  8008       L1     3  0.25

> <Gold.Chemscore.Hbond.Weighted>
-8.8526

> <Gold.Chemscore.Metal.Weighted>
-0.0000

> <Gold.Chemscore.Lipo.Weighted>
-10.3338

> <Gold.Chemscore.Internal_Hbond.Weighted>
0.0000

> <Gold.Chemscore.DEClash.Weighted>
0.4700

> <Gold.Chemscore.DEInternal.Weighted>
1.2354

> <Gold.Chemscore.Rot.Weighted>
4.1324

> <Gold.Chemscore.Internal.Correction.Weighted>
   9.000000E+99

> <Gold.Protein.RotatedTorsions>
[ 6907 6896 6895 6894 ] final   97.38 input  -60.11 | X-H torsion
[ 7974 7965 7964 7962 ] final  -87.38 input  175.53 | X-H torsion
[ 8008 7997 7996 7995 ] final  -58.56 input   59.86 | X-H torsion
[ 10167 10162 10161 10158 ] final  146.92 input  -65.29 | X-H torsion
[ 10718 10713 10712 10709 ] final   99.47 input   66.30 | X-H torsion
[ 10763 10752 10751 10750 ] final   24.81 input  -60.55 | X-H torsion
[ 11005 11000 10999 10996 ] final  150.35 input  -57.11 | X-H torsion

> <Gold.Protein.ActiveResidues>
 VAL166  LYS551  ARG553  GLY616  TRP617  ASP618  TYR619  PRO620  LYS621  CYS622 
 ASP623  PHE694  ASN695  SER759  ASP760  ASP761  ALA762  ILE779  LEU786  VAL792 
 PHE793  MET794  SER795  GLU796  ALA797  LYS798  CYS799  TRP800  GLU811  SER814 

> <Gold.Protein.RotatedAtoms>
  152.5424  134.0743  159.8207 H   0  0  0  0  0  0  0  0  0  0  0  0  # atno 6907 bound_to 6896
  151.0853  133.5350  159.2625 H   0  0  0  0  0  0  0  0  0  0  0  0  # atno 6908 bound_to 6896
  151.2162  135.0509  159.8985 H   0  0  0  0  0  0  0  0  0  0  0  0  # atno 6909 bound_to 6896
  145.4673  140.9560  143.1936 H   0  0  0  0  0  0  0  0  0  0  0  0  # atno 7974 bound_to 7965
  154.4314  140.1081  156.5976 H   0  0  0  0  0  0  0  0  0  0  0  0  # atno 8008 bound_to 7997
  155.5946  140.3492  155.4557 H   0  0  0  0  0  0  0  0  0  0  0  0  # atno 8009 bound_to 7997
  156.0220  140.1242  157.0337 H   0  0  0  0  0  0  0  0  0  0  0  0  # atno 8010 bound_to 7997
  139.4899  144.5794  151.6902 H   0  0  0  0  0  0  0  0  0  0  0  0  # atno 10167 bound_to 10162
  157.6875  131.0670  150.4953 H   0  0  0  0  0  0  0  0  0  0  0  0  # atno 10718 bound_to 10713
  153.0737  135.6597  154.0192 H   0  0  0  0  0  0  0  0  0  0  0  0  # atno 10763 bound_to 10752
  153.9831  135.2953  155.3420 H   0  0  0  0  0  0  0  0  0  0  0  0  # atno 10764 bound_to 10752
  154.7119  135.5201  153.8749 H   0  0  0  0  0  0  0  0  0  0  0  0  # atno 10765 bound_to 10752
  140.1124  134.8916  157.1955 H   0  0  0  0  0  0  0  0  0  0  0  0  # atno 11005 bound_to 11000
  144.7966  139.6222  143.7090 LP  0  0  0  0  0  0  0  0  0  0  0  0  # atno 17320 bound_to 7965
  146.2417  139.6014  142.9487 LP  0  0  0  0  0  0  0  0  0  0  0  0  # atno 17321 bound_to 7965
  140.5397  144.0599  150.6083 LP  0  0  0  0  0  0  0  0  0  0  0  0  # atno 17342 bound_to 10162
  140.3617  143.2904  152.0376 LP  0  0  0  0  0  0  0  0  0  0  0  0  # atno 17343 bound_to 10162
  156.5277  130.4177  149.6218 LP  0  0  0  0  0  0  0  0  0  0  0  0  # atno 17370 bound_to 10713
  156.3097  130.7222  151.2112 LP  0  0  0  0  0  0  0  0  0  0  0  0  # atno 17371 bound_to 10713
  140.3073  134.3063  155.7275 LP  0  0  0  0  0  0  0  0  0  0  0  0  # atno 17394 bound_to 11000
  141.2133  133.7629  156.9727 LP  0  0  0  0  0  0  0  0  0  0  0  0  # atno 17395 bound_to 11000

$$$$
