AV-unprocessed.smi:1455|AV-procd|sdf|5916|dock7
  -GOLD-   22720 6 03D 1   1.00000     0.00000
 Structure written by MMmdl.
 31 32  0  0  0  0  0  0  0  0  2 V2000
  152.7372  140.2943  157.8434 O   0  0  0  0  0  0  0  0  0  0  0  0
  151.8290  141.1128  157.7033 C   0  0  0  0  0  0  0  0  0  0  0  0
  150.6571  140.7775  156.7642 C   0  0  0  0  0  0  0  0  0  0  0  0
  150.7394  139.4529  156.1218 N   0  0  0  0  0  0  0  0  0  0  0  0
  150.9726  138.3424  156.9522 C   0  0  0  0  0  0  0  0  0  0  0  0
  151.0509  137.0912  156.4606 C   0  0  0  0  0  0  0  0  0  0  0  0
  150.8880  136.9026  155.0244 C   0  0  0  0  0  0  0  0  0  0  0  0
  150.9588  135.7677  154.5574 O   0  0  0  0  0  0  0  0  0  0  0  0
  150.6600  138.0111  154.2609 N   0  5  0  0  0  0  0  0  0  0  0  0
  150.5792  139.2774  154.7751 C   0  0  0  0  0  0  0  0  0  0  0  0
  150.3604  140.2621  154.0696 O   0  0  0  0  0  0  0  0  0  0  0  0
  151.8076  142.2918  158.3470 N   0  0  0  0  0  0  0  0  0  0  0  0
  152.8230  142.7681  159.2800 C   0  0  0  0  0  0  0  0  0  0  0  0
  152.9244  141.8579  160.5221 C   0  0  0  0  0  0  0  0  0  0  0  0
  152.8214  142.7816  161.7376 C   0  0  0  0  0  0  0  0  0  0  0  0
  151.9905  143.9632  161.2469 C   0  0  0  0  0  0  0  0  0  0  0  0
  152.4523  144.1669  159.8042 C   0  0  0  0  0  0  0  0  0  0  0  0
  149.7257  140.8723  157.3247 H   0  0  0  0  0  0  0  0  0  0  0  0
  150.6051  141.5552  156.0009 H   0  0  0  0  0  0  0  0  0  0  0  0
  151.0746  138.5686  158.0034 H   0  0  0  0  0  0  0  0  0  0  0  0
  151.2267  136.2482  157.1126 H   0  0  0  0  0  0  0  0  0  0  0  0
  151.0268  142.9075  158.1689 H   0  0  0  0  0  0  0  0  0  0  0  0
  153.7859  142.8256  158.7693 H   0  0  0  0  0  0  0  0  0  0  0  0
  152.0983  141.1452  160.5469 H   0  0  0  0  0  0  0  0  0  0  0  0
  153.8476  141.2777  160.5302 H   0  0  0  0  0  0  0  0  0  0  0  0
  152.3799  142.2879  162.6037 H   0  0  0  0  0  0  0  0  0  0  0  0
  153.8161  143.1268  162.0219 H   0  0  0  0  0  0  0  0  0  0  0  0
  150.9319  143.7003  161.2606 H   0  0  0  0  0  0  0  0  0  0  0  0
  152.1224  144.8548  161.8602 H   0  0  0  0  0  0  0  0  0  0  0  0
  153.3417  144.7984  159.8001 H   0  0  0  0  0  0  0  0  0  0  0  0
  151.6990  144.6725  159.1980 H   0  0  0  0  0  0  0  0  0  0  0  0
  1  2  2  0  0  0  0
  2  3  1  0  0  0  0
  2 12  1  0  0  0  0
  3  4  1  0  0  0  0
  3 18  1  0  0  0  0
  3 19  1  0  0  0  0
  4 10  1  0  0  0  0
  4  5  1  0  0  0  0
  5  6  2  0  0  0  0
  5 20  1  0  0  0  0
  6  7  1  0  0  0  0
  6 21  1  0  0  0  0
  7  8  2  0  0  0  0
  7  9  1  0  0  0  0
  9 10  1  0  0  0  0
 10 11  2  0  0  0  0
 12 13  1  0  0  0  0
 12 22  1  0  0  0  0
 13 17  1  0  0  0  0
 13 14  1  0  0  0  0
 13 23  1  0  0  0  0
 14 15  1  0  0  0  0
 14 24  1  0  0  0  0
 14 25  1  0  0  0  0
 15 16  1  0  0  0  0
 15 26  1  0  0  0  0
 15 27  1  0  0  0  0
 16 17  1  0  0  0  0
 16 28  1  0  0  0  0
 16 29  1  0  0  0  0
 17 30  1  0  0  0  0
 17 31  1  0  0  0  0
M  CHG  1   9  -1
M  END
> <s_m_source_file>
AV-unprocessed.smi

> <i_m_source_file_index>
1455

> <i_lp_mmshare_version>
43012

> <i_f3d_flags>
0

> <s_epik_input>
W0NIMl0xW0NIMl1bQ0gyXVtDSDJdW0NIXTFbTkhdQyg9TylbQ0gyXW4yW2NIXVtjSF1jKD1PKVtuSF1jMj1P

> <s_epik_cmdline>
J2VwaWtfcHl0aG9uJywgJy1waCcsICc3LjAnLCAnLXRuJywgJzgnLCAnLW1hJywgJzIwMCcsICctbWV0YWxfYmluZGluZycsICctaW1hZScsICc8aW5maWxlLm1hZT4nLCAnLW9tYWUnLCAnPG91dGZpbGUubWFlPic=

> <r_lp_tautomer_probability>
0.999537

> <r_epik_Ionization_Penalty>
3.09122

> <r_epik_Ionization_Penalty_Charging>
2.83991e-08

> <r_epik_Ionization_Penalty_Neutral>
3.09122

> <r_epik_State_Penalty>
3.09028

> <r_epik_Charging_Adjusted_Penalty>
3.09028

> <i_epik_Tot_Q>
-1

> <i_epik_Tot_abs_Q>
1

> <r_epik_Metal_State_Penalty>
0.460928

> <b_epik_Metal_Only>
1

> <s_lp_Force_Field>
OPLS_2005

> <r_lp_Energy>
25.8803

> <b_lp_Chiralities_Consistent>
1

> <s_lp_Variant>
AV-unprocessed.smi:1455-2

> <Gold.Version>
5.8.1

> <Gold.Id.Protein>
6NUR|6NUR_protein|mol2

> <Gold.PLP.Fitness>
42.6742

> <Gold.PLP.PLP>
-34.0718

> <Gold.PLP.part.hbond>
-2.7723

> <Gold.PLP.part.metal>
0.0000

> <Gold.PLP.part.buried>
-4.8105

> <Gold.PLP.part.nonpolar>
-26.6916

> <Gold.PLP.part.repulsive>
1.0176

> <Gold.PLP.ligand.clash>
0.0000

> <Gold.PLP.ligand.torsion>
0.0930

> <Gold.PLP.Chemscore.Hbond>
2.9280

> <Gold.PLP.Chemscore.CHOScore>
0.0000

> <Gold.PLP.Chemscore.Metal>
0.0000

> <Gold.Chemscore.Hbonds>
donor molecule, donor type, donor heavy atom, donor atom, acceptor molecule, acceptor atom, score
      P1  H  7989  7998       L1    11  0.94
      P1  H  7997  8008       L1     1  0.94
      P1  H 10752 10764       L1     8  0.95

> <Gold.PLP.Chemscore.Internal.Correction>
0.0045

> <Gold.Rescore>
     Score         DG    S(hbond)    S(metal)    S(lipo)     H(rot)  DE(clash)    DE(int)     intcor
     15.58     -17.74       2.44        0.00      72.16       1.69       0.07       2.09       ----

> <Gold.Chemscore.Fitness>
15.5846

> <Gold.Chemscore.DG>
-17.7432

> <Gold.Chemscore.ZeroCoef>
-5.4800

> <Gold.Chemscore.Hbond>
2.4373

> <Gold.Chemscore.Metal>
0.0000

> <Gold.Chemscore.Lipo>
72.1600

> <Gold.Chemscore.Internal_Hbond>
0.0000

> <Gold.Chemscore.DEClash>
0.0732

> <Gold.Chemscore.DEInternal>
2.0854

> <Gold.Chemscore.Rot>
1.6875

> <Gold.Chemscore.Internal.Correction>
   9.000000E+99

> <Gold.Chemscore.Hbonds>
donor molecule, donor type, donor heavy atom, donor atom, acceptor molecule, acceptor atom, score
      P1  H  7989  7998       L1    11  0.74
      P1  H  7997  8008       L1     1  0.89
      P1  H 10752 10764       L1     8  0.21

> <Gold.Chemscore.Hbond.Weighted>
-8.1405

> <Gold.Chemscore.Metal.Weighted>
-0.0000

> <Gold.Chemscore.Lipo.Weighted>
-8.4427

> <Gold.Chemscore.Internal_Hbond.Weighted>
0.0000

> <Gold.Chemscore.DEClash.Weighted>
0.0732

> <Gold.Chemscore.DEInternal.Weighted>
2.0854

> <Gold.Chemscore.Rot.Weighted>
4.3200

> <Gold.Chemscore.Internal.Correction.Weighted>
   9.000000E+99

> <Gold.Protein.RotatedTorsions>
[ 6907 6896 6895 6894 ] final -107.43 input  -60.11 | X-H torsion
[ 7974 7965 7964 7962 ] final  -69.75 input  175.53 | X-H torsion
[ 8008 7997 7996 7995 ] final  -73.25 input   59.86 | X-H torsion
[ 10167 10162 10161 10158 ] final  -70.75 input  -65.29 | X-H torsion
[ 10718 10713 10712 10709 ] final   89.26 input   66.30 | X-H torsion
[ 10763 10752 10751 10750 ] final  -60.95 input  -60.55 | X-H torsion
[ 11005 11000 10999 10996 ] final   93.47 input  -57.11 | X-H torsion

> <Gold.Protein.ActiveResidues>
 VAL166  LYS551  ARG553  GLY616  TRP617  ASP618  TYR619  PRO620  LYS621  CYS622 
 ASP623  PHE694  ASN695  SER759  ASP760  ASP761  ALA762  ILE779  LEU786  VAL792 
 PHE793  MET794  SER795  GLU796  ALA797  LYS798  CYS799  TRP800  GLU811  SER814 

> <Gold.Protein.RotatedAtoms>
  150.7443  133.9828  159.3581 H   0  0  0  0  0  0  0  0  0  0  0  0  # atno 6907 bound_to 6896
  151.7770  135.0769  160.0377 H   0  0  0  0  0  0  0  0  0  0  0  0  # atno 6908 bound_to 6896
  152.3300  133.5910  159.5839 H   0  0  0  0  0  0  0  0  0  0  0  0  # atno 6909 bound_to 6896
  145.6997  140.9121  143.0737 H   0  0  0  0  0  0  0  0  0  0  0  0  # atno 7974 bound_to 7965
  154.5232  140.0782  156.8210 H   0  0  0  0  0  0  0  0  0  0  0  0  # atno 8008 bound_to 7997
  155.3531  140.3414  155.4221 H   0  0  0  0  0  0  0  0  0  0  0  0  # atno 8009 bound_to 7997
  156.1703  140.1617  156.8445 H   0  0  0  0  0  0  0  0  0  0  0  0  # atno 8010 bound_to 7997
  140.5328  143.2320  151.7232 H   0  0  0  0  0  0  0  0  0  0  0  0  # atno 10167 bound_to 10162
  157.6954  131.0326  150.3399 H   0  0  0  0  0  0  0  0  0  0  0  0  # atno 10718 bound_to 10713
  154.2770  135.6279  153.5332 H   0  0  0  0  0  0  0  0  0  0  0  0  # atno 10763 bound_to 10752
  152.9871  135.5624  154.5537 H   0  0  0  0  0  0  0  0  0  0  0  0  # atno 10764 bound_to 10752
  154.5119  135.2877  155.1310 H   0  0  0  0  0  0  0  0  0  0  0  0  # atno 10765 bound_to 10752
  139.8809  134.8792  156.3723 H   0  0  0  0  0  0  0  0  0  0  0  0  # atno 11005 bound_to 11000
  144.6972  139.8932  143.7454 LP  0  0  0  0  0  0  0  0  0  0  0  0  # atno 17320 bound_to 7965
  146.0808  139.3796  143.0465 LP  0  0  0  0  0  0  0  0  0  0  0  0  # atno 17321 bound_to 7965
  139.4960  144.4089  152.0102 LP  0  0  0  0  0  0  0  0  0  0  0  0  # atno 17342 bound_to 10162
  140.3192  144.3448  150.6014 LP  0  0  0  0  0  0  0  0  0  0  0  0  # atno 17343 bound_to 10162
  156.3862  130.3889  149.7064 LP  0  0  0  0  0  0  0  0  0  0  0  0  # atno 17370 bound_to 10713
  156.4430  130.7870  151.2891 LP  0  0  0  0  0  0  0  0  0  0  0  0  # atno 17371 bound_to 10713
  140.9455  133.7485  156.0203 LP  0  0  0  0  0  0  0  0  0  0  0  0  # atno 17394 bound_to 11000
  140.8168  134.3336  157.5394 LP  0  0  0  0  0  0  0  0  0  0  0  0  # atno 17395 bound_to 11000

$$$$
