AV-unprocessed.smi:1708|AV-procd|sdf|6890|dock4
  -GOLD-   22720 8 93D 1   1.00000     0.00000
 Structure written by MMmdl.
 36 38  0  0  0  0  0  0  0  0  1 V2000
  153.8312  140.8125  160.8002 C   0  0  0  0  0  0  0  0  0  0  0  0
  152.9276  141.0422  159.6796 N   0  0  0  0  0  0  0  0  0  0  0  0
  152.2690  140.1040  158.9599 C   0  0  0  0  0  0  0  0  0  0  0  0
  152.3203  138.8874  159.1391 O   0  0  0  0  0  0  0  0  0  0  0  0
  151.5307  140.7396  158.0178 N   0  0  0  0  0  0  0  0  0  0  0  0
  150.6183  140.1228  157.0532 C   0  0  0  0  0  0  0  0  0  0  0  0
  150.6624  140.8133  155.6723 C   0  0  1  0  0  0  0  0  0  0  0  0
  151.7229  140.2520  154.9273 O   0  0  0  0  0  0  0  0  0  0  0  0
  149.3349  140.7438  154.9293 C   0  0  0  0  0  0  0  0  0  0  0  0
  148.8555  139.5126  154.4308 C   0  0  0  0  0  0  0  0  0  0  0  0
  147.6132  139.4501  153.7704 C   0  0  0  0  0  0  0  0  0  0  0  0
  146.8432  140.6173  153.6057 C   0  0  0  0  0  0  0  0  0  0  0  0
  147.3155  141.8473  154.1020 C   0  0  0  0  0  0  0  0  0  0  0  0
  146.5736  142.9693  153.9481 F   0  0  0  0  0  0  0  0  0  0  0  0
  148.5582  141.9106  154.7613 C   0  0  0  0  0  0  0  0  0  0  0  0
  151.7258  142.1228  158.1400 C   0  0  0  0  0  0  0  0  0  0  0  0
  151.1916  143.2004  157.4126 C   0  0  0  0  0  0  0  0  0  0  0  0
  151.5930  144.5015  157.7965 C   0  0  0  0  0  0  0  0  0  0  0  0
  152.4984  144.6954  158.8724 C   0  0  0  0  0  0  0  0  0  0  0  0
  153.0211  143.5923  159.5877 C   0  0  0  0  0  0  0  0  0  0  0  0
  152.6045  142.3119  159.1855 C   0  0  0  0  0  0  0  0  0  0  0  0
  153.7900  139.7813  161.1534 H   0  0  0  0  0  0  0  0  0  0  0  0
  153.5713  141.4607  161.6372 H   0  0  0  0  0  0  0  0  0  0  0  0
  154.8577  141.0297  160.5043 H   0  0  0  0  0  0  0  0  0  0  0  0
  150.8679  139.0658  156.9534 H   0  0  0  0  0  0  0  0  0  0  0  0
  149.6013  140.1528  157.4482 H   0  0  0  0  0  0  0  0  0  0  0  0
  150.9134  141.8647  155.8172 H   0  0  0  0  0  0  0  0  0  0  0  0
  152.5397  140.5463  155.3007 H   0  0  0  0  0  0  0  0  0  0  0  0
  149.4351  138.6106  154.5629 H   0  0  0  0  0  0  0  0  0  0  0  0
  147.2495  138.5055  153.3938 H   0  0  0  0  0  0  0  0  0  0  0  0
  145.8896  140.5683  153.1012 H   0  0  0  0  0  0  0  0  0  0  0  0
  148.9080  142.8571  155.1469 H   0  0  0  0  0  0  0  0  0  0  0  0
  150.5035  143.0461  156.5949 H   0  0  0  0  0  0  0  0  0  0  0  0
  151.2057  145.3578  157.2641 H   0  0  0  0  0  0  0  0  0  0  0  0
  152.7915  145.6972  159.1491 H   0  0  0  0  0  0  0  0  0  0  0  0
  153.7097  143.7318  160.4080 H   0  0  0  0  0  0  0  0  0  0  0  0
  1  2  1  0  0  0  0
  1 22  1  0  0  0  0
  1 23  1  0  0  0  0
  1 24  1  0  0  0  0
  2 21  1  0  0  0  0
  2  3  1  0  0  0  0
  3  4  2  0  0  0  0
  3  5  1  0  0  0  0
  5  6  1  0  0  0  0
  5 16  1  0  0  0  0
  6  7  1  0  0  0  0
  6 25  1  0  0  0  0
  6 26  1  0  0  0  0
  7  8  1  0  0  0  0
  7  9  1  0  0  0  0
  7 27  1  0  0  0  0
  8 28  1  0  0  0  0
  9 15  1  0  0  0  0
  9 10  2  0  0  0  0
 10 11  1  0  0  0  0
 10 29  1  0  0  0  0
 11 12  2  0  0  0  0
 11 30  1  0  0  0  0
 12 13  1  0  0  0  0
 12 31  1  0  0  0  0
 13 14  1  0  0  0  0
 13 15  2  0  0  0  0
 15 32  1  0  0  0  0
 16 21  2  0  0  0  0
 16 17  1  0  0  0  0
 17 18  2  0  0  0  0
 17 33  1  0  0  0  0
 18 19  1  0  0  0  0
 18 34  1  0  0  0  0
 19 20  2  0  0  0  0
 19 35  1  0  0  0  0
 20 21  1  0  0  0  0
 20 36  1  0  0  0  0
M  END
> <s_m_source_file>
AV-unprocessed.smi

> <i_m_source_file_index>
1708

> <i_lp_mmshare_version>
43012

> <i_f3d_flags>
0

> <s_epik_input>
W2NIXTFbY0hdW2NIXVtjSF1jKGMxMiluKFtDSDNdKWMoPU8pbjJbQ0gyXVtDQEhdKFtPSF0pYzNbY0hdW2NIXVtjSF1jKEYpW2NIXTM=

> <s_epik_cmdline>
J2VwaWtfcHl0aG9uJywgJy1waCcsICc3LjAnLCAnLXRuJywgJzgnLCAnLW1hJywgJzIwMCcsICctbWV0YWxfYmluZGluZycsICctaW1hZScsICc8aW5maWxlLm1hZT4nLCAnLW9tYWUnLCAnPG91dGZpbGUubWFlPic=

> <r_lp_tautomer_probability>
1

> <r_epik_Ionization_Penalty>
3.53466e-06

> <r_epik_Ionization_Penalty_Charging>
2.57375e-09

> <r_epik_Ionization_Penalty_Neutral>
3.53208e-06

> <r_epik_State_Penalty>
-0

> <r_epik_Charging_Adjusted_Penalty>
2.57375e-09

> <i_epik_Tot_Q>
0

> <i_epik_Tot_abs_Q>
0

> <r_epik_Metal_State_Penalty>
-0

> <b_epik_Metal_Only>
0

> <s_lp_Force_Field>
OPLS_2005

> <r_lp_Energy>
40.1168

> <b_lp_Chiralities_Consistent>
1

> <s_lp_Variant>
AV-unprocessed.smi:1708-2

> <Gold.Version>
5.8.1

> <Gold.Id.Protein>
6NUR|6NUR_protein|mol2

> <Gold.PLP.Fitness>
54.4095

> <Gold.PLP.PLP>
-53.7093

> <Gold.PLP.part.hbond>
-1.0000

> <Gold.PLP.part.metal>
0.0000

> <Gold.PLP.part.buried>
-5.1967

> <Gold.PLP.part.nonpolar>
-47.5554

> <Gold.PLP.part.repulsive>
0.0000

> <Gold.PLP.ligand.clash>
0.0000

> <Gold.PLP.ligand.torsion>
0.7646

> <Gold.PLP.Chemscore.Hbond>
0.7344

> <Gold.PLP.Chemscore.CHOScore>
0.0000

> <Gold.PLP.Chemscore.Metal>
0.0000

> <Gold.Chemscore.Hbonds>
donor molecule, donor type, donor heavy atom, donor atom, acceptor molecule, acceptor atom, score
      P1  H  7989  7998       L1     8  0.91

> <Gold.PLP.Chemscore.Internal.Correction>
0.0262

> <Gold.Rescore>
     Score         DG    S(hbond)    S(metal)    S(lipo)     H(rot)  DE(clash)    DE(int)     intcor
     15.07     -16.45       0.00        0.00     134.14       1.85       0.59       0.79       ----

> <Gold.Chemscore.Fitness>
15.0738

> <Gold.Chemscore.DG>
-16.4534

> <Gold.Chemscore.ZeroCoef>
-5.4800

> <Gold.Chemscore.Hbond>
0.0019

> <Gold.Chemscore.Metal>
0.0000

> <Gold.Chemscore.Lipo>
134.1364

> <Gold.Chemscore.Internal_Hbond>
0.0000

> <Gold.Chemscore.DEClash>
0.5863

> <Gold.Chemscore.DEInternal>
0.7934

> <Gold.Chemscore.Rot>
1.8465

> <Gold.Chemscore.Internal.Correction>
   9.000000E+99

> <Gold.Chemscore.Hbonds>
donor molecule, donor type, donor heavy atom, donor atom, acceptor molecule, acceptor atom, score
      P1  H  7989  7998       L1     8  0.28

> <Gold.Chemscore.Hbond.Weighted>
-0.0065

> <Gold.Chemscore.Metal.Weighted>
-0.0000

> <Gold.Chemscore.Lipo.Weighted>
-15.6940

> <Gold.Chemscore.Internal_Hbond.Weighted>
0.0000

> <Gold.Chemscore.DEClash.Weighted>
0.5863

> <Gold.Chemscore.DEInternal.Weighted>
0.7934

> <Gold.Chemscore.Rot.Weighted>
4.7270

> <Gold.Chemscore.Internal.Correction.Weighted>
   9.000000E+99

> <Gold.Protein.RotatedTorsions>
[ 6907 6896 6895 6894 ] final  -75.28 input  -60.11 | X-H torsion
[ 7974 7965 7964 7962 ] final -102.92 input  175.53 | X-H torsion
[ 8008 7997 7996 7995 ] final  -92.25 input   59.86 | X-H torsion
[ 10167 10162 10161 10158 ] final  126.64 input  -65.29 | X-H torsion
[ 10718 10713 10712 10709 ] final  -94.32 input   66.30 | X-H torsion
[ 10763 10752 10751 10750 ] final -167.64 input  -60.55 | X-H torsion
[ 11005 11000 10999 10996 ] final -102.34 input  -57.11 | X-H torsion

> <Gold.Protein.ActiveResidues>
 VAL166  LYS551  ARG553  GLY616  TRP617  ASP618  TYR619  PRO620  LYS621  CYS622 
 ASP623  PHE694  ASN695  SER759  ASP760  ASP761  ALA762  ILE779  LEU786  VAL792 
 PHE793  MET794  SER795  GLU796  ALA797  LYS798  CYS799  TRP800  GLU811  SER814 

> <Gold.Protein.RotatedAtoms>
  150.7064  134.4744  159.5440 H   0  0  0  0  0  0  0  0  0  0  0  0  # atno 6907 bound_to 6896
  152.2394  134.8241  160.0471 H   0  0  0  0  0  0  0  0  0  0  0  0  # atno 6908 bound_to 6896
  151.9028  133.3507  159.3873 H   0  0  0  0  0  0  0  0  0  0  0  0  # atno 6909 bound_to 6896
  145.2626  140.9274  143.3032 H   0  0  0  0  0  0  0  0  0  0  0  0  # atno 7974 bound_to 7965
  154.7208  140.0511  157.0638 H   0  0  0  0  0  0  0  0  0  0  0  0  # atno 8008 bound_to 7997
  155.0429  140.3170  155.4699 H   0  0  0  0  0  0  0  0  0  0  0  0  # atno 8009 bound_to 7997
  156.2816  140.2129  156.5554 H   0  0  0  0  0  0  0  0  0  0  0  0  # atno 8010 bound_to 7997
  139.5620  144.6888  151.4015 H   0  0  0  0  0  0  0  0  0  0  0  0  # atno 10167 bound_to 10162
  156.0025  130.5063  150.5910 H   0  0  0  0  0  0  0  0  0  0  0  0  # atno 10718 bound_to 10713
  154.6711  135.2939  154.9741 H   0  0  0  0  0  0  0  0  0  0  0  0  # atno 10763 bound_to 10752
  154.0768  135.6610  153.4836 H   0  0  0  0  0  0  0  0  0  0  0  0  # atno 10764 bound_to 10752
  153.0487  135.5188  154.7707 H   0  0  0  0  0  0  0  0  0  0  0  0  # atno 10765 bound_to 10752
  141.1193  133.8550  157.1347 H   0  0  0  0  0  0  0  0  0  0  0  0  # atno 11005 bound_to 11000
  144.9405  139.4194  143.6451 LP  0  0  0  0  0  0  0  0  0  0  0  0  # atno 17320 bound_to 7965
  146.3271  139.8363  142.8899 LP  0  0  0  0  0  0  0  0  0  0  0  0  # atno 17321 bound_to 7965
  140.6901  143.7881  150.7243 LP  0  0  0  0  0  0  0  0  0  0  0  0  # atno 17342 bound_to 10162
  140.1361  143.4482  152.2223 LP  0  0  0  0  0  0  0  0  0  0  0  0  # atno 17343 bound_to 10162
  157.3774  131.0775  151.1506 LP  0  0  0  0  0  0  0  0  0  0  0  0  # atno 17370 bound_to 10713
  157.2239  130.6494  149.5822 LP  0  0  0  0  0  0  0  0  0  0  0  0  # atno 17371 bound_to 10713
  140.0138  134.9976  157.0451 LP  0  0  0  0  0  0  0  0  0  0  0  0  # atno 17394 bound_to 11000
  140.4554  134.1539  155.7185 LP  0  0  0  0  0  0  0  0  0  0  0  0  # atno 17395 bound_to 11000

$$$$
