#       Name:                AV-unprocessed.smi:2840
#       Creating user name   scv26
#       Creation time:       Fri Mar 27 15:37:56 2020


#       File generated by GOLD software.
#

@<TRIPOS>MOLECULE
AV-unprocessed.smi:2840
    39    40     1
SMALL
NO_CHARGES


@<TRIPOS>ATOM
      1 ****        -1.4481  -0.4579  -2.3094 C.3            1 S1                 0.0000
      2 ****        -1.9060  -1.1857  -1.0329 C.3            1 S1                 0.0000
      3 ****        -3.4341  -1.3938  -1.0529 C.3            1 S1                 0.0000
      4 ****        -3.9303  -2.1269   0.2021 C.3            1 S1                 0.0000
      5 ****        -3.5121  -1.3805   1.4757 C.3            1 S1                 0.0000
      6 ****        -1.9904  -1.1818   1.5202 C.3            1 S1                 0.0000
      7 ****        -1.4711  -0.4544   0.2640 C.3            1 S1                 0.0000
      8 ****        -0.0140  -0.3605   0.3472 N.am           1 S1                 0.0000
      9 ****         0.7131   0.7597   0.2188 C.2            1 S1                 0.0000
     10 ****         0.2258   1.8690  -0.0008 O.2            1 S1                 0.0000
     11 ****         2.0249   0.5013   0.3605 N.am           1 S1                 0.0000
     12 ****         3.1141   1.4090   0.2760 C.ar           1 S1                 0.0000
     13 ****         4.3870   0.8378   0.5011 C.ar           1 S1                 0.0000
     14 ****         5.5335   1.6530   0.4360 C.ar           1 S1                 0.0000
     15 ****         5.3776   3.0205   0.1476 C.ar           1 S1                 0.0000
     16 ****         4.0752   3.5091  -0.0641 C.ar           1 S1                 0.0000
     17 ****         2.9751   2.7294  -0.0026 N.ar           1 S1                 0.0000
     18 ****        -1.8432   0.5579  -2.3469 H              1 S1                 0.0000
     19 ****        -1.7906  -0.9805  -3.2029 H              1 S1                 0.0000
     20 ****        -0.3619  -0.3949  -2.3713 H              1 S1                 0.0000
     21 ****        -1.4408  -2.1729  -1.0360 H              1 S1                 0.0000
     22 ****        -3.9358  -0.4280  -1.1293 H              1 S1                 0.0000
     23 ****        -3.7216  -1.9598  -1.9397 H              1 S1                 0.0000
     24 ****        -5.0155  -2.2275   0.1697 H              1 S1                 0.0000
     25 ****        -3.5254  -3.1395   0.2197 H              1 S1                 0.0000
     26 ****        -4.0102  -0.4109   1.5137 H              1 S1                 0.0000
     27 ****        -3.8411  -1.9332   2.3560 H              1 S1                 0.0000
     28 ****        -1.7229  -0.6177   2.4146 H              1 S1                 0.0000
     29 ****        -1.5042  -2.1541   1.6132 H              1 S1                 0.0000
     30 ****        -1.9110   0.5449   0.2570 H              1 S1                 0.0000
     31 ****         0.4801  -1.2231   0.5221 H              1 S1                 0.0000
     32 ****         2.2743  -0.4585   0.5474 H              1 S1                 0.0000
     33 ****         4.4886  -0.2151   0.7219 H              1 S1                 0.0000
     34 ****         6.5149   1.2350   0.6040 H              1 S1                 0.0000
     35 ****         6.2330   3.6773   0.0892 H              1 S1                 0.0000
     36 ****         3.9119   4.5526  -0.2896 H              1 S1                 0.0000
     37 ****        -0.7647   1.9706  -0.0933 LP             1 S1                 0.0000
     38 ****         0.8206   2.6683  -0.0866 LP             1 S1                 0.0000
     39 ****         2.0684   3.1204  -0.1605 LP             1 S1                 0.0000
@<TRIPOS>BOND
    1    1    2 1     
    2    1   18 1     
    3    1   19 1     
    4    1   20 1     
    5    2    7 1     
    6    2    3 1     
    7    2   21 1     
    8    3    4 1     
    9    3   22 1     
   10    3   23 1     
   11    4    5 1     
   12    4   24 1     
   13    4   25 1     
   14    5    6 1     
   15    5   26 1     
   16    5   27 1     
   17    6    7 1     
   18    6   28 1     
   19    6   29 1     
   20    7    8 1     
   21    7   30 1     
   22    8    9 am    
   23    8   31 1     
   24    9   10 2     
   25    9   11 am    
   26   11   12 1     
   27   11   32 1     
   28   12   17 ar    
   29   12   13 ar    
   30   13   14 ar    
   31   13   33 1     
   32   14   15 ar    
   33   14   34 1     
   34   15   16 ar    
   35   15   35 1     
   36   16   17 ar    
   37   16   36 1     
   38   10   37 1     
   39   10   38 1     
   40   17   39 1     
@<TRIPOS>SUBSTRUCTURE
      1 S1             1
@<TRIPOS>SET
LONE_PAIRS      STATIC     ATOMS    <user>   **** ""
3 37 38 39
DONOR_HYDROGENS      STATIC     ATOMS    <user>   **** ""
2 31 32
ATOM$BLUE        STATIC     ATOMS    COLORGROUP SYSTEM
3 37 38 39
ATOM$RED        STATIC     ATOMS    COLORGROUP SYSTEM
2 31 32
