AV-unprocessed.smi:2058|AV-procd|sdf|8344|dock8
  -GOLD-   2272011 13D 1   1.00000     0.00000
 Structure written by MMmdl.
 42 43  0  0  0  0  0  0  0  0  1 V2000
  149.7064  132.5823  154.8406 C   0  0  0  0  0  0  0  0  0  0  0  0
  148.5560  133.4150  154.2536 C   0  0  2  0  0  0  0  0  0  0  0  0
  147.9722  132.8287  152.9514 C   0  0  0  0  0  0  0  0  0  0  0  0
  147.8678  131.4207  153.0166 O   0  0  0  0  0  0  0  0  0  0  0  0
  148.9749  134.8017  154.0613 N   0  0  0  0  0  0  0  0  0  0  0  0
  149.4223  135.6213  155.0234 C   0  0  0  0  0  0  0  0  0  0  0  0
  149.5553  135.2784  156.1978 O   0  0  0  0  0  0  0  0  0  0  0  0
  149.7072  136.8377  154.5273 N   0  0  0  0  0  0  0  0  0  0  0  0
  150.1776  137.9936  155.2086 C   0  0  0  0  0  0  0  0  0  0  0  0
  150.4852  137.8696  156.5772 C   0  0  0  0  0  0  0  0  0  0  0  0
  150.9682  138.9890  157.2805 C   0  0  0  0  0  0  0  0  0  0  0  0
  151.1393  140.2134  156.5935 C   0  0  0  0  0  0  0  0  0  0  0  0
  151.6187  141.3509  157.2793 N   0  0  0  0  0  0  0  0  0  0  0  0
  152.0300  141.1199  158.6658 C   0  0  0  0  0  0  0  0  0  0  0  0
  152.9004  142.2765  159.1868 C   0  0  0  0  0  0  0  0  0  0  0  0
  152.1920  143.6263  159.0020 C   0  0  0  0  0  0  0  0  0  0  0  0
  151.7919  143.8121  157.5311 C   0  0  0  0  0  0  0  0  0  0  0  0
  150.9440  142.6287  157.0339 C   0  0  0  0  0  0  0  0  0  0  0  0
  150.8603  140.3285  155.2722 N   0  0  0  0  0  0  0  0  0  0  0  0
  150.3959  139.2533  154.6014 C   0  0  0  0  0  0  0  0  0  0  0  0
  149.3973  131.5493  155.0021 H   0  0  0  0  0  0  0  0  0  0  0  0
  150.0274  132.9832  155.8025 H   0  0  0  0  0  0  0  0  0  0  0  0
  150.5748  132.5712  154.1813 H   0  0  0  0  0  0  0  0  0  0  0  0
  147.7570  133.4101  154.9972 H   0  0  0  0  0  0  0  0  0  0  0  0
  146.9745  133.2328  152.7790 H   0  0  0  0  0  0  0  0  0  0  0  0
  148.5768  133.1069  152.0875 H   0  0  0  0  0  0  0  0  0  0  0  0
  148.0792  131.0652  152.1672 H   0  0  0  0  0  0  0  0  0  0  0  0
  148.8985  135.1686  153.1242 H   0  0  0  0  0  0  0  0  0  0  0  0
  149.6042  136.9405  153.5283 H   0  0  0  0  0  0  0  0  0  0  0  0
  150.3541  136.9266  157.0876 H   0  0  0  0  0  0  0  0  0  0  0  0
  151.2146  138.8933  158.3275 H   0  0  0  0  0  0  0  0  0  0  0  0
  151.1343  141.0247  159.2809 H   0  0  0  0  0  0  0  0  0  0  0  0
  152.5815  140.1872  158.7746 H   0  0  0  0  0  0  0  0  0  0  0  0
  153.1389  142.1197  160.2389 H   0  0  0  0  0  0  0  0  0  0  0  0
  153.8509  142.2866  158.6518 H   0  0  0  0  0  0  0  0  0  0  0  0
  151.3035  143.6660  159.6335 H   0  0  0  0  0  0  0  0  0  0  0  0
  152.8421  144.4408  159.3227 H   0  0  0  0  0  0  0  0  0  0  0  0
  151.2398  144.7438  157.4072 H   0  0  0  0  0  0  0  0  0  0  0  0
  152.6897  143.8999  156.9178 H   0  0  0  0  0  0  0  0  0  0  0  0
  150.7517  142.7542  155.9674 H   0  0  0  0  0  0  0  0  0  0  0  0
  149.9766  142.6249  157.5380 H   0  0  0  0  0  0  0  0  0  0  0  0
  150.2202  139.4259  153.5517 H   0  0  0  0  0  0  0  0  0  0  0  0
  1  2  1  0  0  0  0
  1 21  1  0  0  0  0
  1 22  1  0  0  0  0
  1 23  1  0  0  0  0
  2  3  1  0  0  0  0
  2  5  1  0  0  0  0
  2 24  1  0  0  0  0
  3  4  1  0  0  0  0
  3 25  1  0  0  0  0
  3 26  1  0  0  0  0
  4 27  1  0  0  0  0
  5  6  1  0  0  0  0
  5 28  1  0  0  0  0
  6  7  2  0  0  0  0
  6  8  1  0  0  0  0
  8  9  1  0  0  0  0
  8 29  1  0  0  0  0
  9 20  1  0  0  0  0
  9 10  2  0  0  0  0
 10 11  1  0  0  0  0
 10 30  1  0  0  0  0
 11 12  2  0  0  0  0
 11 31  1  0  0  0  0
 12 13  1  0  0  0  0
 12 19  1  0  0  0  0
 13 18  1  0  0  0  0
 13 14  1  0  0  0  0
 14 15  1  0  0  0  0
 14 32  1  0  0  0  0
 14 33  1  0  0  0  0
 15 16  1  0  0  0  0
 15 34  1  0  0  0  0
 15 35  1  0  0  0  0
 16 17  1  0  0  0  0
 16 36  1  0  0  0  0
 16 37  1  0  0  0  0
 17 18  1  0  0  0  0
 17 38  1  0  0  0  0
 17 39  1  0  0  0  0
 18 40  1  0  0  0  0
 18 41  1  0  0  0  0
 19 20  2  0  0  0  0
 20 42  1  0  0  0  0
M  END
> <s_m_source_file>
AV-unprocessed.smi

> <i_m_source_file_index>
2058

> <i_lp_mmshare_version>
43012

> <i_f3d_flags>
0

> <s_epik_input>
W09IXVtDSDJdW0NAQEhdKFtDSDNdKVtOSF1DKD1PKVtOSF1jMVtjSF1bY0hdYyhuW2NIXTEpTjJbQ0gyXVtDSDJdW0NIMl1bQ0gyXVtDSDJdMg==

> <s_epik_cmdline>
J2VwaWtfcHl0aG9uJywgJy1waCcsICc3LjAnLCAnLXRuJywgJzgnLCAnLW1hJywgJzIwMCcsICctbWV0YWxfYmluZGluZycsICctaW1hZScsICc8aW5maWxlLm1hZT4nLCAnLW9tYWUnLCAnPG91dGZpbGUubWFlPic=

> <r_lp_tautomer_probability>
1

> <r_epik_Ionization_Penalty>
0.104828

> <r_epik_Ionization_Penalty_Charging>
0

> <r_epik_Ionization_Penalty_Neutral>
0.104828

> <r_epik_State_Penalty>
0.0887547

> <r_epik_Charging_Adjusted_Penalty>
0.0887547

> <i_epik_Tot_Q>
0

> <i_epik_Tot_abs_Q>
0

> <r_epik_Metal_State_Penalty>
0.0759464

> <b_epik_Metal_Only>
0

> <s_lp_Force_Field>
OPLS_2005

> <r_lp_Energy>
20.4208

> <b_lp_Chiralities_Consistent>
1

> <s_lp_Variant>
AV-unprocessed.smi:2058-1

> <Gold.Version>
5.8.1

> <Gold.Id.Protein>
6NUR|6NUR_protein|mol2

> <Gold.PLP.Fitness>
48.1955

> <Gold.PLP.PLP>
-35.8834

> <Gold.PLP.part.hbond>
-4.0000

> <Gold.PLP.part.metal>
0.0000

> <Gold.PLP.part.buried>
-3.1417

> <Gold.PLP.part.nonpolar>
-28.9766

> <Gold.PLP.part.repulsive>
0.1280

> <Gold.PLP.ligand.clash>
0.0000

> <Gold.PLP.ligand.torsion>
0.3925

> <Gold.PLP.Chemscore.Hbond>
3.2420

> <Gold.PLP.Chemscore.CHOScore>
0.9716

> <Gold.PLP.Chemscore.Metal>
0.0000

> <Gold.Chemscore.Hbonds>
donor molecule, donor type, donor heavy atom, donor atom, acceptor molecule, acceptor atom, score
      L1  H     4    27       P1 10747  0.84
      L1  H     5    28       P1  7948  1.00
      L1  H     8    29       P1  7948  0.99
      P1  H  7989  7998       L1    19  0.25
      L1  C    20    42       P1  7957  0.99

> <Gold.PLP.Chemscore.Internal.Correction>
0.4563

> <Gold.Rescore>
     Score         DG    S(hbond)    S(metal)    S(lipo)     H(rot)  DE(clash)    DE(int)     intcor
     15.97     -18.73       2.43        0.00      88.55       2.05       0.28       2.48       ----

> <Gold.Chemscore.Fitness>
15.9741

> <Gold.Chemscore.DG>
-18.7321

> <Gold.Chemscore.ZeroCoef>
-5.4800

> <Gold.Chemscore.Hbond>
2.4334

> <Gold.Chemscore.Metal>
0.0000

> <Gold.Chemscore.Lipo>
88.5516

> <Gold.Chemscore.Internal_Hbond>
0.0000

> <Gold.Chemscore.DEClash>
0.2793

> <Gold.Chemscore.DEInternal>
2.4787

> <Gold.Chemscore.Rot>
2.0453

> <Gold.Chemscore.Internal.Correction>
   9.000000E+99

> <Gold.Chemscore.Hbonds>
donor molecule, donor type, donor heavy atom, donor atom, acceptor molecule, acceptor atom, score
      L1  H     4    27       P1 10747  0.82
      L1  H     5    28       P1  7948  0.39
      L1  H     8    29       P1  7948  0.69

> <Gold.Chemscore.Hbond.Weighted>
-8.1275

> <Gold.Chemscore.Metal.Weighted>
-0.0000

> <Gold.Chemscore.Lipo.Weighted>
-10.3605

> <Gold.Chemscore.Internal_Hbond.Weighted>
0.0000

> <Gold.Chemscore.DEClash.Weighted>
0.2793

> <Gold.Chemscore.DEInternal.Weighted>
2.4787

> <Gold.Chemscore.Rot.Weighted>
5.2360

> <Gold.Chemscore.Internal.Correction.Weighted>
   9.000000E+99

> <Gold.Protein.RotatedTorsions>
[ 6907 6896 6895 6894 ] final  125.53 input  -60.11 | X-H torsion
[ 7974 7965 7964 7962 ] final  -67.83 input  175.53 | X-H torsion
[ 8008 7997 7996 7995 ] final  162.84 input   59.86 | X-H torsion
[ 10167 10162 10161 10158 ] final -177.22 input  -65.29 | X-H torsion
[ 10718 10713 10712 10709 ] final -140.15 input   66.30 | X-H torsion
[ 10763 10752 10751 10750 ] final -160.88 input  -60.55 | X-H torsion
[ 11005 11000 10999 10996 ] final  -18.33 input  -57.11 | X-H torsion

> <Gold.Protein.ActiveResidues>
 VAL166  LYS551  ARG553  GLY616  TRP617  ASP618  TYR619  PRO620  LYS621  CYS622 
 ASP623  PHE694  ASN695  SER759  ASP760  ASP761  ALA762  ILE779  LEU786  VAL792 
 PHE793  MET794  SER795  GLU796  ALA797  LYS798  CYS799  TRP800  GLU811  SER814 

> <Gold.Protein.RotatedAtoms>
  152.3983  133.6780  159.6294 H   0  0  0  0  0  0  0  0  0  0  0  0  # atno 6907 bound_to 6896
  150.7879  133.8835  159.3301 H   0  0  0  0  0  0  0  0  0  0  0  0  # atno 6908 bound_to 6896
  151.6606  135.0991  160.0230 H   0  0  0  0  0  0  0  0  0  0  0  0  # atno 6909 bound_to 6896
  145.7242  140.9025  143.0614 H   0  0  0  0  0  0  0  0  0  0  0  0  # atno 7974 bound_to 7965
  156.2002  140.1739  156.7915 H   0  0  0  0  0  0  0  0  0  0  0  0  # atno 8008 bound_to 7997
  154.5581  140.0704  156.8807 H   0  0  0  0  0  0  0  0  0  0  0  0  # atno 8009 bound_to 7997
  155.2899  140.3354  155.4255 H   0  0  0  0  0  0  0  0  0  0  0  0  # atno 8010 bound_to 7997
  139.5491  144.2157  152.1043 H   0  0  0  0  0  0  0  0  0  0  0  0  # atno 10167 bound_to 10162
  156.3189  130.7523  151.1617 H   0  0  0  0  0  0  0  0  0  0  0  0  # atno 10718 bound_to 10713
  154.7352  135.3055  154.8824 H   0  0  0  0  0  0  0  0  0  0  0  0  # atno 10763 bound_to 10752
  153.9655  135.6748  153.4750 H   0  0  0  0  0  0  0  0  0  0  0  0  # atno 10764 bound_to 10752
  153.0955  135.4938  154.8693 H   0  0  0  0  0  0  0  0  0  0  0  0  # atno 10765 bound_to 10752
  140.8257  133.8034  155.9706 H   0  0  0  0  0  0  0  0  0  0  0  0  # atno 11005 bound_to 11000
  144.6909  139.9244  143.7469 LP  0  0  0  0  0  0  0  0  0  0  0  0  # atno 17320 bound_to 7965
  146.0597  139.3591  143.0589 LP  0  0  0  0  0  0  0  0  0  0  0  0  # atno 17321 bound_to 7965
  140.1649  144.4991  150.6612 LP  0  0  0  0  0  0  0  0  0  0  0  0  # atno 17342 bound_to 10162
  140.6748  143.2300  151.5534 LP  0  0  0  0  0  0  0  0  0  0  0  0  # atno 17343 bound_to 10162
  157.7407  131.0513  150.5144 LP  0  0  0  0  0  0  0  0  0  0  0  0  # atno 17370 bound_to 10713
  156.5294  130.4181  149.6209 LP  0  0  0  0  0  0  0  0  0  0  0  0  # atno 17371 bound_to 10713
  140.9052  134.2329  157.5019 LP  0  0  0  0  0  0  0  0  0  0  0  0  # atno 17394 bound_to 11000
  139.8706  134.9725  156.4774 LP  0  0  0  0  0  0  0  0  0  0  0  0  # atno 17395 bound_to 11000

$$$$
