#       Name:                AV-unprocessed.smi:1965
#       Creating user name   scv26
#       Creation time:       Fri Mar 27 10:11:27 2020


#       File generated by GOLD software.
#

@<TRIPOS>MOLECULE
AV-unprocessed.smi:1965
    40    42     1
SMALL
NO_CHARGES


@<TRIPOS>ATOM
      1 ****        -2.1596  -2.3449  -0.7591 O.2            1 S1                 0.0000
      2 ****        -0.9441  -2.3956  -0.9423 C.2            1 S1                 0.0000
      3 ****        -0.2371  -3.5552  -0.9494 N.pl3          1 S1                -1.0000
      4 ****         1.0937  -3.5921  -1.1462 C.2            1 S1                 0.0000
      5 ****         1.9816  -3.5828  -0.1452 N.2            1 S1                 0.0000
      6 ****         3.3077  -3.6276  -0.5793 C.2            1 S1                 0.0000
      7 ****         3.4318  -3.6730  -1.9424 C.2            1 S1                 0.0000
      8 ****         1.8778  -3.6672  -2.7259 S.3            1 S1                 0.0000
      9 ****        -0.2688  -1.2465  -1.1368 N.am           1 S1                 0.0000
     10 ****        -0.8474   0.0930  -1.1342 C.3            1 S1                 0.0000
     11 ****         0.0873   1.1540  -1.6997 C.3            1 S1                 0.0000
     12 ****        -0.5044   2.4590  -1.1574 C.3            1 S1                 0.0000
     13 ****        -1.2246   2.1180   0.0945 N.4            1 S1                 1.0000
     14 ****        -0.7918   2.9087   1.2778 C.3            1 S1                 0.0000
     15 ****        -1.2561   2.2458   2.5830 C.3            1 S1                 0.0000
     16 ****        -0.6359   0.8462   2.7542 C.3            1 S1                 0.0000
     17 ****        -0.2365   0.2095   1.4090 C.3            1 S1                 0.0000
     18 ****        -1.1890   0.6382   0.2651 C.3            1 S1                 0.0000
     19 ****         4.1019  -3.6235   0.1523 H              1 S1                 0.0000
     20 ****         4.3365  -3.7136  -2.5300 H              1 S1                 0.0000
     21 ****         0.7280  -1.3143  -1.2826 H              1 S1                 0.0000
     22 ****        -1.7535   0.0893  -1.7441 H              1 S1                 0.0000
     23 ****         1.0968   1.0151  -1.3094 H              1 S1                 0.0000
     24 ****         0.1425   1.1349  -2.7888 H              1 S1                 0.0000
     25 ****         0.2657   3.2188  -1.0177 H              1 S1                 0.0000
     26 ****        -1.2325   2.8611  -1.8624 H              1 S1                 0.0000
     27 ****         0.2957   3.0006   1.2926 H              1 S1                 0.0000
     28 ****        -1.1931   3.9192   1.1948 H              1 S1                 0.0000
     29 ****        -1.0072   2.8712   3.4408 H              1 S1                 0.0000
     30 ****        -2.3439   2.1637   2.5715 H              1 S1                 0.0000
     31 ****         0.2455   0.9022   3.3938 H              1 S1                 0.0000
     32 ****        -1.3471   0.2041   3.2750 H              1 S1                 0.0000
     33 ****         0.7834   0.5042   1.1579 H              1 S1                 0.0000
     34 ****        -0.2171  -0.8746   1.5230 H              1 S1                 0.0000
     35 ****        -2.1931   0.3066   0.5341 H              1 S1                 0.0000
     36 ****        -2.1947   2.3468  -0.0680 H              1 S1                 0.0000
     37 ****        -2.6775  -3.1863  -0.6050 LP             1 S1                 0.0000
     38 ****        -2.6296  -1.4622  -0.7642 LP             1 S1                 0.0000
     39 ****        -0.7247  -4.4158  -0.8025 LP             1 S1                 0.0000
     40 ****         1.7208  -3.5472   0.8196 LP             1 S1                 0.0000
@<TRIPOS>BOND
    1    1    2 2     
    2    2    3 1     
    3    2    9 am    
    4    3    4 1     
    5    4    8 1     
    6    4    5 2     
    7    5    6 1     
    8    6    7 2     
    9    6   19 1     
   10    7    8 1     
   11    7   20 1     
   12    9   10 1     
   13    9   21 1     
   14   10   18 1     
   15   10   11 1     
   16   10   22 1     
   17   11   12 1     
   18   11   23 1     
   19   11   24 1     
   20   12   13 1     
   21   12   25 1     
   22   12   26 1     
   23   13   18 1     
   24   13   14 1     
   25   13   36 1     
   26   14   15 1     
   27   14   27 1     
   28   14   28 1     
   29   15   16 1     
   30   15   29 1     
   31   15   30 1     
   32   16   17 1     
   33   16   31 1     
   34   16   32 1     
   35   17   18 1     
   36   17   33 1     
   37   17   34 1     
   38   18   35 1     
   39    1   37 1     
   40    1   38 1     
   41    3   39 1     
   42    5   40 1     
@<TRIPOS>SUBSTRUCTURE
      1 S1             1
@<TRIPOS>SET
LONE_PAIRS      STATIC     ATOMS    <user>   **** ""
4 37 38 39 40
DONOR_HYDROGENS      STATIC     ATOMS    <user>   **** ""
2 21 36
ATOM$BLUE        STATIC     ATOMS    COLORGROUP SYSTEM
4 37 38 39 40
ATOM$RED        STATIC     ATOMS    COLORGROUP SYSTEM
2 21 36
