AV-unprocessed.smi:3132|AV-procd|sdf|11932|dock5
  -GOLD-   2272017323D 1   1.00000     0.00000
 Structure written by MMmdl.
 34 35  0  0  0  0  0  0  0  0  2 V2000
  149.2692  138.8450  155.8255 C   0  0  0  0  0  0  0  0  0  0  0  0
  150.2267  140.0061  155.5259 C   0  0  1  0  0  0  0  0  0  0  0  0
  149.7435  140.8341  154.3151 C   0  0  0  0  0  0  0  0  0  0  0  0
  148.2945  141.0632  154.3182 N   0  0  0  0  0  0  0  0  0  0  0  0
  147.5925  141.9426  155.1028 C   0  0  0  0  0  0  0  0  0  0  0  0
  146.2754  141.8228  154.7416 C   0  0  0  0  0  0  0  0  0  0  0  0
  146.2283  140.8718  153.7576 N   0  3  0  0  0  0  0  0  0  0  0  0
  147.4566  140.4090  153.5036 C   0  0  0  0  0  0  0  0  0  0  0  0
  150.3448  140.8454  156.7178 N   0  0  0  0  0  0  0  0  0  0  0  0
  151.4371  140.9595  157.4905 C   0  0  0  0  0  0  0  0  0  0  0  0
  152.4779  140.3331  157.2862 O   0  0  0  0  0  0  0  0  0  0  0  0
  151.3467  141.9695  158.6392 C   0  0  1  0  0  0  0  0  0  0  0  0
  152.6748  142.2099  159.3817 C   0  0  0  0  0  0  0  0  0  0  0  0
  153.1018  143.5842  158.9065 C   0  0  0  0  0  0  0  0  0  0  0  0
  151.7573  144.2573  158.6700 C   0  0  0  0  0  0  0  0  0  0  0  0
  150.9757  143.2293  158.0800 O   0  0  0  0  0  0  0  0  0  0  0  0
  149.1791  138.1791  154.9668 H   0  0  0  0  0  0  0  0  0  0  0  0
  148.2699  139.2059  156.0721 H   0  0  0  0  0  0  0  0  0  0  0  0
  149.6253  138.2487  156.6664 H   0  0  0  0  0  0  0  0  0  0  0  0
  151.1971  139.5671  155.2871 H   0  0  0  0  0  0  0  0  0  0  0  0
  150.2285  141.8114  154.3032 H   0  0  0  0  0  0  0  0  0  0  0  0
  150.0062  140.3402  153.3784 H   0  0  0  0  0  0  0  0  0  0  0  0
  148.0711  142.5791  155.8330 H   0  0  0  0  0  0  0  0  0  0  0  0
  145.3920  142.3307  155.1003 H   0  0  0  0  0  0  0  0  0  0  0  0
  147.7208  139.6631  152.7753 H   0  0  0  0  0  0  0  0  0  0  0  0
  149.5393  141.4043  156.9612 H   0  0  0  0  0  0  0  0  0  0  0  0
  150.5825  141.6521  159.3508 H   0  0  0  0  0  0  0  0  0  0  0  0
  152.4938  142.2297  160.4573 H   0  0  0  0  0  0  0  0  0  0  0  0
  153.4381  141.4526  159.1967 H   0  0  0  0  0  0  0  0  0  0  0  0
  153.7250  144.1138  159.6278 H   0  0  0  0  0  0  0  0  0  0  0  0
  153.6526  143.5047  157.9680 H   0  0  0  0  0  0  0  0  0  0  0  0
  151.3042  144.5624  159.6146 H   0  0  0  0  0  0  0  0  0  0  0  0
  151.8288  145.1309  158.0216 H   0  0  0  0  0  0  0  0  0  0  0  0
  145.3871  140.5643  153.2858 H   0  0  0  0  0  0  0  0  0  0  0  0
  1  2  1  0  0  0  0
  1 17  1  0  0  0  0
  1 18  1  0  0  0  0
  1 19  1  0  0  0  0
  2  3  1  0  0  0  0
  2  9  1  0  0  0  0
  2 20  1  0  0  0  0
  3  4  1  0  0  0  0
  3 21  1  0  0  0  0
  3 22  1  0  0  0  0
  4  8  1  0  0  0  0
  4  5  1  0  0  0  0
  5  6  2  0  0  0  0
  5 23  1  0  0  0  0
  6  7  1  0  0  0  0
  6 24  1  0  0  0  0
  7  8  2  0  0  0  0
  7 34  1  0  0  0  0
  8 25  1  0  0  0  0
  9 10  1  0  0  0  0
  9 26  1  0  0  0  0
 10 11  2  0  0  0  0
 10 12  1  0  0  0  0
 12 16  1  0  0  0  0
 12 13  1  0  0  0  0
 12 27  1  0  0  0  0
 13 14  1  0  0  0  0
 13 28  1  0  0  0  0
 13 29  1  0  0  0  0
 14 15  1  0  0  0  0
 14 30  1  0  0  0  0
 14 31  1  0  0  0  0
 15 16  1  0  0  0  0
 15 32  1  0  0  0  0
 15 33  1  0  0  0  0
M  CHG  1   7   1
M  END
> <s_m_source_file>
AV-unprocessed.smi

> <i_m_source_file_index>
3132

> <i_lp_mmshare_version>
43012

> <i_f3d_flags>
0

> <s_epik_input>
W2NIXTFuW2NIXVtjSF1uMVtDSDJdW0NAQEhdKFtDSDNdKVtOSF1DKD1PKVtDQEBIXTJbQ0gyXVtDSDJdW0NIMl1PMg==

> <s_epik_cmdline>
J2VwaWtfcHl0aG9uJywgJy1waCcsICc3LjAnLCAnLXRuJywgJzgnLCAnLW1hJywgJzIwMCcsICctbWV0YWxfYmluZGluZycsICctaW1hZScsICc8aW5maWxlLm1hZT4nLCAnLW9tYWUnLCAnPG91dGZpbGUubWFlPic=

> <r_lp_tautomer_probability>
1

> <r_epik_Ionization_Penalty>
0.250802

> <r_epik_Ionization_Penalty_Charging>
0

> <r_epik_Ionization_Penalty_Neutral>
0.250802

> <r_epik_State_Penalty>
0.242139

> <r_epik_Charging_Adjusted_Penalty>
0.242139

> <i_epik_Tot_Q>
1

> <i_epik_Tot_abs_Q>
1

> <r_epik_Metal_State_Penalty>
0.533361

> <b_epik_Metal_Only>
0

> <s_lp_Force_Field>
OPLS_2005

> <r_lp_Energy>
20.1872

> <b_lp_Chiralities_Consistent>
1

> <s_lp_Variant>
AV-unprocessed.smi:3132-4

> <Gold.Version>
5.8.1

> <Gold.Id.Protein>
6NUR|6NUR_protein|mol2

> <Gold.PLP.Fitness>
43.2665

> <Gold.PLP.PLP>
-29.7642

> <Gold.PLP.part.hbond>
-2.0000

> <Gold.PLP.part.metal>
0.0000

> <Gold.PLP.part.buried>
1.4916

> <Gold.PLP.part.nonpolar>
-28.5823

> <Gold.PLP.part.repulsive>
0.1655

> <Gold.PLP.ligand.clash>
0.0000

> <Gold.PLP.ligand.torsion>
0.4929

> <Gold.PLP.Chemscore.Hbond>
2.9675

> <Gold.PLP.Chemscore.CHOScore>
1.8508

> <Gold.PLP.Chemscore.Metal>
0.0000

> <Gold.Chemscore.Hbonds>
donor molecule, donor type, donor heavy atom, donor atom, acceptor molecule, acceptor atom, score
      L1  H     7    34       P1 10175  2.00
      P1  H  7997  8010       L1    11  0.96
      L1  C     5    23       P1  8028  1.00
      L1  C     8    25       P1  7957  0.83

> <Gold.PLP.Chemscore.Internal.Correction>
0.0332

> <Gold.Rescore>
     Score         DG    S(hbond)    S(metal)    S(lipo)     H(rot)  DE(clash)    DE(int)     intcor
     14.29     -15.28       1.92        0.00      71.21       1.93       0.49       0.50       ----

> <Gold.Chemscore.Fitness>
14.2870

> <Gold.Chemscore.DG>
-15.2816

> <Gold.Chemscore.ZeroCoef>
-5.4800

> <Gold.Chemscore.Hbond>
1.9201

> <Gold.Chemscore.Metal>
0.0000

> <Gold.Chemscore.Lipo>
71.2090

> <Gold.Chemscore.Internal_Hbond>
0.0000

> <Gold.Chemscore.DEClash>
0.4899

> <Gold.Chemscore.DEInternal>
0.5047

> <Gold.Chemscore.Rot>
1.9308

> <Gold.Chemscore.Internal.Correction>
   9.000000E+99

> <Gold.Chemscore.Hbonds>
donor molecule, donor type, donor heavy atom, donor atom, acceptor molecule, acceptor atom, score
      L1  H     7    34       P1 10175  0.93
      P1  H  7997  8010       L1    11  0.88

> <Gold.Chemscore.Hbond.Weighted>
-6.4131

> <Gold.Chemscore.Metal.Weighted>
-0.0000

> <Gold.Chemscore.Lipo.Weighted>
-8.3314

> <Gold.Chemscore.Internal_Hbond.Weighted>
0.0000

> <Gold.Chemscore.DEClash.Weighted>
0.4899

> <Gold.Chemscore.DEInternal.Weighted>
0.5047

> <Gold.Chemscore.Rot.Weighted>
4.9429

> <Gold.Chemscore.Internal.Correction.Weighted>
   9.000000E+99

> <Gold.Protein.RotatedTorsions>
[ 6907 6896 6895 6894 ] final  177.88 input  -60.11 | X-H torsion
[ 7974 7965 7964 7962 ] final  -10.55 input  175.53 | X-H torsion
[ 8008 7997 7996 7995 ] final   59.22 input   59.86 | X-H torsion
[ 10167 10162 10161 10158 ] final  -78.88 input  -65.29 | X-H torsion
[ 10718 10713 10712 10709 ] final  103.65 input   66.30 | X-H torsion
[ 10763 10752 10751 10750 ] final  -20.56 input  -60.55 | X-H torsion
[ 11005 11000 10999 10996 ] final -118.59 input  -57.11 | X-H torsion

> <Gold.Protein.ActiveResidues>
 VAL166  LYS551  ARG553  GLY616  TRP617  ASP618  TYR619  PRO620  LYS621  CYS622 
 ASP623  PHE694  ASN695  SER759  ASP760  ASP761  ALA762  ILE779  LEU786  VAL792 
 PHE793  MET794  SER795  GLU796  ALA797  LYS798  CYS799  TRP800  GLU811  SER814 

> <Gold.Protein.RotatedAtoms>
  151.6968  133.3311  159.3256 H   0  0  0  0  0  0  0  0  0  0  0  0  # atno 6907 bound_to 6896
  150.7754  134.6650  159.6370 H   0  0  0  0  0  0  0  0  0  0  0  0  # atno 6908 bound_to 6896
  152.3794  134.6617  160.0200 H   0  0  0  0  0  0  0  0  0  0  0  0  # atno 6909 bound_to 6896
  146.2217  140.2781  142.8360 H   0  0  0  0  0  0  0  0  0  0  0  0  # atno 7974 bound_to 7965
  155.5627  140.3488  155.4495 H   0  0  0  0  0  0  0  0  0  0  0  0  # atno 8008 bound_to 7997
  156.0502  140.1316  157.0084 H   0  0  0  0  0  0  0  0  0  0  0  0  # atno 8009 bound_to 7997
  154.4431  140.1006  156.6350 H   0  0  0  0  0  0  0  0  0  0  0  0  # atno 8010 bound_to 7997
  140.4643  143.2444  151.8302 H   0  0  0  0  0  0  0  0  0  0  0  0  # atno 10167 bound_to 10162
  157.6766  131.0784  150.5587 H   0  0  0  0  0  0  0  0  0  0  0  0  # atno 10718 bound_to 10713
  153.6224  135.6992  153.5306 H   0  0  0  0  0  0  0  0  0  0  0  0  # atno 10763 bound_to 10752
  153.2927  135.4152  155.1181 H   0  0  0  0  0  0  0  0  0  0  0  0  # atno 10764 bound_to 10752
  154.8540  135.3629  154.5765 H   0  0  0  0  0  0  0  0  0  0  0  0  # atno 10765 bound_to 10752
  141.0275  134.0032  157.3193 H   0  0  0  0  0  0  0  0  0  0  0  0  # atno 11005 bound_to 11000
  144.9218  140.7876  143.5744 LP  0  0  0  0  0  0  0  0  0  0  0  0  # atno 17320 bound_to 7965
  145.2718  139.1952  143.4837 LP  0  0  0  0  0  0  0  0  0  0  0  0  # atno 17321 bound_to 7965
  139.4810  144.4970  151.9111 LP  0  0  0  0  0  0  0  0  0  0  0  0  # atno 17342 bound_to 10162
  140.4055  144.2437  150.5891 LP  0  0  0  0  0  0  0  0  0  0  0  0  # atno 17343 bound_to 10162
  156.5890  130.4324  149.5944 LP  0  0  0  0  0  0  0  0  0  0  0  0  # atno 17370 bound_to 10713
  156.2598  130.6956  151.1721 LP  0  0  0  0  0  0  0  0  0  0  0  0  # atno 17371 bound_to 10713
  139.9185  135.0199  156.7976 LP  0  0  0  0  0  0  0  0  0  0  0  0  # atno 17394 bound_to 11000
  140.6466  133.9770  155.7734 LP  0  0  0  0  0  0  0  0  0  0  0  0  # atno 17395 bound_to 11000

$$$$
