AV-unprocessed.smi:2569|AV-procd|sdf|10104|dock3
  -GOLD-   2272014123D 1   1.00000     0.00000
 Structure written by MMmdl.
 40 42  0  0  0  0  0  0  0  0  2 V2000
  153.9860  142.5224  163.3429 C   0  0  0  0  0  0  0  0  0  0  0  0
  153.3257  142.4940  161.9747 C   0  0  0  0  0  0  0  0  0  0  0  0
  152.4765  143.5637  161.6133 C   0  0  0  0  0  0  0  0  0  0  0  0
  151.8893  143.5106  160.3547 C   0  0  0  0  0  0  0  0  0  0  0  0
  151.0177  144.3948  159.7157 N   0  3  0  0  0  0  0  0  0  0  0  0
  150.7086  143.9146  158.4797 C   0  0  0  0  0  0  0  0  0  0  0  0
  151.3716  142.7372  158.3184 N   0  0  0  0  0  0  0  0  0  0  0  0
  151.3794  141.8184  157.1707 C   0  0  0  0  0  0  0  0  0  0  0  0
  150.3544  140.6773  157.3139 C   0  0  2  0  0  0  0  0  0  0  0  0
  150.7823  139.7616  158.3047 O   0  0  0  0  0  0  0  0  0  0  0  0
  150.1287  139.9387  155.9806 C   0  0  0  0  0  0  0  0  0  0  0  0
  151.3599  139.4053  155.4211 N   0  0  0  0  0  0  0  0  0  0  0  0
  152.4093  140.2202  155.1516 N   0  0  0  0  0  0  0  0  0  0  0  0
  153.3540  139.4660  154.6676 N   0  0  0  0  0  0  0  0  0  0  0  0
  152.9589  138.1427  154.6057 N   0  0  0  0  0  0  0  0  0  0  0  0
  151.7211  138.1603  155.0826 C   0  0  0  0  0  0  0  0  0  0  0  0
  150.8338  136.9685  155.2304 C   0  0  0  0  0  0  0  0  0  0  0  0
  152.1209  142.4434  159.4646 C   0  0  0  0  0  0  0  0  0  0  0  0
  152.9536  141.3799  159.8070 C   0  0  0  0  0  0  0  0  0  0  0  0
  153.5604  141.4153  161.0831 C   0  0  0  0  0  0  0  0  0  0  0  0
  154.4737  140.2687  161.4830 C   0  0  0  0  0  0  0  0  0  0  0  0
  153.6765  143.3963  163.9171 H   0  0  0  0  0  0  0  0  0  0  0  0
  155.0711  142.5564  163.2423 H   0  0  0  0  0  0  0  0  0  0  0  0
  153.7185  141.6359  163.9181 H   0  0  0  0  0  0  0  0  0  0  0  0
  152.2922  144.3877  162.2872 H   0  0  0  0  0  0  0  0  0  0  0  0
  150.0540  144.3825  157.7586 H   0  0  0  0  0  0  0  0  0  0  0  0
  151.1481  142.4122  156.2855 H   0  0  0  0  0  0  0  0  0  0  0  0
  152.3873  141.4311  157.0208 H   0  0  0  0  0  0  0  0  0  0  0  0
  149.4066  141.1007  157.6489 H   0  0  0  0  0  0  0  0  0  0  0  0
  151.6727  139.5072  158.1171 H   0  0  0  0  0  0  0  0  0  0  0  0
  149.4356  139.1087  156.1255 H   0  0  0  0  0  0  0  0  0  0  0  0
  149.6648  140.6013  155.2495 H   0  0  0  0  0  0  0  0  0  0  0  0
  151.3277  136.0766  154.8441 H   0  0  0  0  0  0  0  0  0  0  0  0
  149.9067  137.1176  154.6770 H   0  0  0  0  0  0  0  0  0  0  0  0
  150.5959  136.8057  156.2816 H   0  0  0  0  0  0  0  0  0  0  0  0
  153.1325  140.5558  159.1329 H   0  0  0  0  0  0  0  0  0  0  0  0
  154.5573  139.5277  160.6874 H   0  0  0  0  0  0  0  0  0  0  0  0
  154.0874  139.7635  162.3684 H   0  0  0  0  0  0  0  0  0  0  0  0
  155.4766  140.6357  161.7025 H   0  0  0  0  0  0  0  0  0  0  0  0
  150.6575  145.2619  160.0935 H   0  0  0  0  0  0  0  0  0  0  0  0
  1  2  1  0  0  0  0
  1 22  1  0  0  0  0
  1 23  1  0  0  0  0
  1 24  1  0  0  0  0
  2 20  1  0  0  0  0
  2  3  2  0  0  0  0
  3  4  1  0  0  0  0
  3 25  1  0  0  0  0
  4 18  2  0  0  0  0
  4  5  1  0  0  0  0
  5  6  2  0  0  0  0
  5 40  1  0  0  0  0
  6  7  1  0  0  0  0
  6 26  1  0  0  0  0
  7  8  1  0  0  0  0
  7 18  1  0  0  0  0
  8  9  1  0  0  0  0
  8 27  1  0  0  0  0
  8 28  1  0  0  0  0
  9 10  1  0  0  0  0
  9 11  1  0  0  0  0
  9 29  1  0  0  0  0
 10 30  1  0  0  0  0
 11 12  1  0  0  0  0
 11 31  1  0  0  0  0
 11 32  1  0  0  0  0
 12 16  1  0  0  0  0
 12 13  1  0  0  0  0
 13 14  2  0  0  0  0
 14 15  1  0  0  0  0
 15 16  2  0  0  0  0
 16 17  1  0  0  0  0
 17 33  1  0  0  0  0
 17 34  1  0  0  0  0
 17 35  1  0  0  0  0
 18 19  1  0  0  0  0
 19 20  2  0  0  0  0
 19 36  1  0  0  0  0
 20 21  1  0  0  0  0
 21 37  1  0  0  0  0
 21 38  1  0  0  0  0
 21 39  1  0  0  0  0
M  CHG  1   5   1
M  END
> <s_m_source_file>
AV-unprocessed.smi

> <i_m_source_file_index>
2569

> <i_lp_mmshare_version>
43012

> <i_f3d_flags>
0

> <s_epik_input>
W0NIM11jKFtjSF0xKWMoW0NIM10pW2NIXWMoYzEyKW4oW2NIXW4yKVtDSDJdW0NASF0oW09IXSlbQ0gyXW4zbm5uYzNbQ0gzXQ==

> <s_epik_cmdline>
J2VwaWtfcHl0aG9uJywgJy1waCcsICc3LjAnLCAnLXRuJywgJzgnLCAnLW1hJywgJzIwMCcsICctbWV0YWxfYmluZGluZycsICctaW1hZScsICc8aW5maWxlLm1hZT4nLCAnLW9tYWUnLCAnPG91dGZpbGUubWFlPic=

> <r_lp_tautomer_probability>
1

> <r_epik_Ionization_Penalty>
1.13338

> <r_epik_Ionization_Penalty_Charging>
1.13335

> <r_epik_Ionization_Penalty_Neutral>
3.02334e-05

> <r_epik_State_Penalty>
1.19324

> <r_epik_Charging_Adjusted_Penalty>
2.3266

> <i_epik_Tot_Q>
1

> <i_epik_Tot_abs_Q>
1

> <r_epik_Metal_State_Penalty>
1.27602

> <b_epik_Metal_Only>
0

> <s_lp_Force_Field>
OPLS_2005

> <r_lp_Energy>
15.9129

> <b_lp_Chiralities_Consistent>
1

> <s_lp_Variant>
AV-unprocessed.smi:2569-3

> <Gold.Version>
5.8.1

> <Gold.Id.Protein>
6NUR|6NUR_protein|mol2

> <Gold.PLP.Fitness>
53.8689

> <Gold.PLP.PLP>
-47.5412

> <Gold.PLP.part.hbond>
-4.6683

> <Gold.PLP.part.metal>
0.0000

> <Gold.PLP.part.buried>
-4.9298

> <Gold.PLP.part.nonpolar>
-37.6325

> <Gold.PLP.part.repulsive>
0.2044

> <Gold.PLP.ligand.clash>
0.0000

> <Gold.PLP.ligand.torsion>
0.4510

> <Gold.PLP.Chemscore.Hbond>
1.2864

> <Gold.PLP.Chemscore.CHOScore>
1.1207

> <Gold.PLP.Chemscore.Metal>
0.0000

> <Gold.Chemscore.Hbonds>
donor molecule, donor type, donor heavy atom, donor atom, acceptor molecule, acceptor atom, score
      P1  H  7989  7998       L1    13  0.40
      P1  H  7997  8008       L1    14  0.87
      L1  C     6    26       P1  8028  0.96
      L1  C     6    26       P1  8029  0.16

> <Gold.PLP.Chemscore.Internal.Correction>
0.0082

> <Gold.Rescore>
     Score         DG    S(hbond)    S(metal)    S(lipo)     H(rot)  DE(clash)    DE(int)     intcor
     13.66     -15.22       1.45        0.00      98.37       2.59       0.09       1.46       ----

> <Gold.Chemscore.Fitness>
13.6639

> <Gold.Chemscore.DG>
-15.2218

> <Gold.Chemscore.ZeroCoef>
-5.4800

> <Gold.Chemscore.Hbond>
1.4525

> <Gold.Chemscore.Metal>
0.0000

> <Gold.Chemscore.Lipo>
98.3680

> <Gold.Chemscore.Internal_Hbond>
0.0000

> <Gold.Chemscore.DEClash>
0.0948

> <Gold.Chemscore.DEInternal>
1.4631

> <Gold.Chemscore.Rot>
2.5854

> <Gold.Chemscore.Internal.Correction>
   9.000000E+99

> <Gold.Chemscore.Hbonds>
donor molecule, donor type, donor heavy atom, donor atom, acceptor molecule, acceptor atom, score
      P1  H  7989  7998       L1    13  0.01
      P1  H  7997  8008       L1    14  0.19

> <Gold.Chemscore.Hbond.Weighted>
-4.8514

> <Gold.Chemscore.Metal.Weighted>
-0.0000

> <Gold.Chemscore.Lipo.Weighted>
-11.5091

> <Gold.Chemscore.Internal_Hbond.Weighted>
0.0000

> <Gold.Chemscore.DEClash.Weighted>
0.0948

> <Gold.Chemscore.DEInternal.Weighted>
1.4631

> <Gold.Chemscore.Rot.Weighted>
6.6187

> <Gold.Chemscore.Internal.Correction.Weighted>
   9.000000E+99

> <Gold.Protein.RotatedTorsions>
[ 6907 6896 6895 6894 ] final   55.39 input  -60.11 | X-H torsion
[ 7974 7965 7964 7962 ] final  -75.57 input  175.53 | X-H torsion
[ 8008 7997 7996 7995 ] final   17.46 input   59.86 | X-H torsion
[ 10167 10162 10161 10158 ] final -123.11 input  -65.29 | X-H torsion
[ 10718 10713 10712 10709 ] final  -42.32 input   66.30 | X-H torsion
[ 10763 10752 10751 10750 ] final  159.46 input  -60.55 | X-H torsion
[ 11005 11000 10999 10996 ] final  -25.54 input  -57.11 | X-H torsion

> <Gold.Protein.ActiveResidues>
 VAL166  LYS551  ARG553  GLY616  TRP617  ASP618  TYR619  PRO620  LYS621  CYS622 
 ASP623  PHE694  ASN695  SER759  ASP760  ASP761  ALA762  ILE779  LEU786  VAL792 
 PHE793  MET794  SER795  GLU796  ALA797  LYS798  CYS799  TRP800  GLU811  SER814 

> <Gold.Protein.RotatedAtoms>
  152.3534  134.6974  160.0229 H   0  0  0  0  0  0  0  0  0  0  0  0  # atno 6907 bound_to 6896
  151.7320  133.3313  159.3351 H   0  0  0  0  0  0  0  0  0  0  0  0  # atno 6908 bound_to 6896
  150.7555  134.6288  159.6220 H   0  0  0  0  0  0  0  0  0  0  0  0  # atno 6909 bound_to 6896
  145.6243  140.9354  143.1121 H   0  0  0  0  0  0  0  0  0  0  0  0  # atno 7974 bound_to 7965
  154.8917  140.2988  155.5367 H   0  0  0  0  0  0  0  0  0  0  0  0  # atno 8008 bound_to 7997
  156.3021  140.2423  156.3868 H   0  0  0  0  0  0  0  0  0  0  0  0  # atno 8009 bound_to 7997
  154.8612  140.0405  157.1655 H   0  0  0  0  0  0  0  0  0  0  0  0  # atno 8010 bound_to 7997
  140.0070  143.5481  152.2279 H   0  0  0  0  0  0  0  0  0  0  0  0  # atno 10167 bound_to 10162
  156.2609  130.4197  149.8544 H   0  0  0  0  0  0  0  0  0  0  0  0  # atno 10718 bound_to 10713
  154.2321  135.2778  155.2886 H   0  0  0  0  0  0  0  0  0  0  0  0  # atno 10763 bound_to 10752
  154.5615  135.5645  153.7015 H   0  0  0  0  0  0  0  0  0  0  0  0  # atno 10764 bound_to 10752
  153.0018  135.6299  154.2463 H   0  0  0  0  0  0  0  0  0  0  0  0  # atno 10765 bound_to 10752
  140.8947  133.7564  156.0466 H   0  0  0  0  0  0  0  0  0  0  0  0  # atno 11005 bound_to 11000
  144.7218  139.8004  143.7379 LP  0  0  0  0  0  0  0  0  0  0  0  0  # atno 17320 bound_to 7965
  146.1406  139.4462  143.0111 LP  0  0  0  0  0  0  0  0  0  0  0  0  # atno 17321 bound_to 7965
  139.6231  144.7632  151.2696 LP  0  0  0  0  0  0  0  0  0  0  0  0  # atno 17342 bound_to 10162
  140.7396  143.6612  150.8163 LP  0  0  0  0  0  0  0  0  0  0  0  0  # atno 17343 bound_to 10162
  156.6059  130.8566  151.3443 LP  0  0  0  0  0  0  0  0  0  0  0  0  # atno 17370 bound_to 10713
  157.7250  130.9610  150.1596 LP  0  0  0  0  0  0  0  0  0  0  0  0  # atno 17371 bound_to 10713
  140.8303  134.3185  157.5351 LP  0  0  0  0  0  0  0  0  0  0  0  0  # atno 17394 bound_to 11000
  139.8734  134.9360  156.3647 LP  0  0  0  0  0  0  0  0  0  0  0  0  # atno 17395 bound_to 11000

$$$$
