AV-unprocessed.smi:2768|AV-procd|sdf|10653|dock6
  -GOLD-   2272015103D 1   1.00000     0.00000
 Structure written by MMmdl.
 34 35  0  0  0  0  0  0  0  0  2 V2000
  150.9932  136.8866  158.9525 O   0  0  0  0  0  0  0  0  0  0  0  0
  149.8558  137.3671  159.0153 C   0  0  0  0  0  0  0  0  0  0  0  0
  148.9718  137.3845  160.0547 N   0  5  0  0  0  0  0  0  0  0  0  0
  148.1962  136.2241  160.5020 C   0  0  1  0  0  0  0  0  0  0  0  0
  148.1413  136.1680  162.0500 C   0  0  0  0  0  0  0  0  0  0  0  0
  147.2366  135.0297  162.5867 C   0  0  0  0  0  0  0  0  0  0  0  0
  145.7976  135.1000  162.0332 C   0  0  0  0  0  0  0  0  0  0  0  0
  145.8314  135.1525  160.4893 C   0  0  0  0  0  0  0  0  0  0  0  0
  146.7493  136.2737  159.9312 C   0  0  1  0  0  0  0  0  0  0  0  0
  146.1466  137.5276  160.1958 O   0  0  0  0  0  0  0  0  0  0  0  0
  149.2921  138.0833  157.7693 C   0  0  0  0  0  0  0  0  0  0  0  0
  148.2178  137.4188  157.3341 F   0  0  0  0  0  0  0  0  0  0  0  0
  148.8887  139.3153  158.0980 F   0  0  0  0  0  0  0  0  0  0  0  0
  150.3435  138.1457  156.6622 C   0  0  0  0  0  0  0  0  0  0  0  0
  151.5678  138.8247  156.8598 C   0  0  0  0  0  0  0  0  0  0  0  0
  152.5089  138.8422  155.8129 C   0  0  0  0  0  0  0  0  0  0  0  0
  152.1957  138.1855  154.6079 C   0  0  0  0  0  0  0  0  0  0  0  0
  150.9509  137.5341  154.5059 C   0  0  0  0  0  0  0  0  0  0  0  0
  150.0427  137.5093  155.5040 N   0  0  0  0  0  0  0  0  0  0  0  0
  148.6398  135.2877  160.1591 H   0  0  0  0  0  0  0  0  0  0  0  0
  146.8001  136.1743  158.8460 H   0  0  0  0  0  0  0  0  0  0  0  0
  149.1488  136.0448  162.4489 H   0  0  0  0  0  0  0  0  0  0  0  0
  147.7779  137.1199  162.4403 H   0  0  0  0  0  0  0  0  0  0  0  0
  147.6720  134.0584  162.3427 H   0  0  0  0  0  0  0  0  0  0  0  0
  147.2065  135.0751  163.6756 H   0  0  0  0  0  0  0  0  0  0  0  0
  145.2168  134.2416  162.3715 H   0  0  0  0  0  0  0  0  0  0  0  0
  145.2981  135.9884  162.4211 H   0  0  0  0  0  0  0  0  0  0  0  0
  146.1663  134.1845  160.1116 H   0  0  0  0  0  0  0  0  0  0  0  0
  144.8182  135.2795  160.1060 H   0  0  0  0  0  0  0  0  0  0  0  0
  145.3750  137.5879  159.6520 H   0  0  0  0  0  0  0  0  0  0  0  0
  151.7866  139.3117  157.7987 H   0  0  0  0  0  0  0  0  0  0  0  0
  153.4551  139.3488  155.9328 H   0  0  0  0  0  0  0  0  0  0  0  0
  152.8928  138.1785  153.7832 H   0  0  0  0  0  0  0  0  0  0  0  0
  150.6772  137.0192  153.5969 H   0  0  0  0  0  0  0  0  0  0  0  0
  1  2  2  0  0  0  0
  2  3  1  0  0  0  0
  2 11  1  0  0  0  0
  3  4  1  0  0  0  0
  4 20  1  0  0  0  0
  4  9  1  0  0  0  0
  4  5  1  0  0  0  0
  5  6  1  0  0  0  0
  5 22  1  0  0  0  0
  5 23  1  0  0  0  0
  6  7  1  0  0  0  0
  6 24  1  0  0  0  0
  6 25  1  0  0  0  0
  7  8  1  0  0  0  0
  7 26  1  0  0  0  0
  7 27  1  0  0  0  0
  8  9  1  0  0  0  0
  8 28  1  0  0  0  0
  8 29  1  0  0  0  0
  9 21  1  0  0  0  0
  9 10  1  0  0  0  0
 10 30  1  0  0  0  0
 11 12  1  0  0  0  0
 11 13  1  0  0  0  0
 11 14  1  0  0  0  0
 14 19  1  0  0  0  0
 14 15  2  0  0  0  0
 15 16  1  0  0  0  0
 15 31  1  0  0  0  0
 16 17  2  0  0  0  0
 16 32  1  0  0  0  0
 17 18  1  0  0  0  0
 17 33  1  0  0  0  0
 18 19  2  0  0  0  0
 18 34  1  0  0  0  0
M  CHG  1   3  -1
M  END
> <s_m_source_file>
AV-unprocessed.smi

> <i_m_source_file_index>
2768

> <i_lp_mmshare_version>
43012

> <i_f3d_flags>
0

> <s_epik_input>
bjFbY0hdW2NIXVtjSF1bY0hdYzFDKEYpKEYpQyg9TylbTkhdW0NAQEhdMltDSDJdW0NIMl1bQ0gyXVtDSDJdW0NASF0yW09IXQ==

> <s_epik_cmdline>
J2VwaWtfcHl0aG9uJywgJy1waCcsICc3LjAnLCAnLXRuJywgJzgnLCAnLW1hJywgJzIwMCcsICctbWV0YWxfYmluZGluZycsICctaW1hZScsICc8aW5maWxlLm1hZT4nLCAnLW9tYWUnLCAnPG91dGZpbGUubWFlPic=

> <r_lp_tautomer_probability>
1

> <r_epik_Ionization_Penalty>
5.70553

> <r_epik_Ionization_Penalty_Charging>
5.70553

> <r_epik_Ionization_Penalty_Neutral>
5.5493e-06

> <r_epik_State_Penalty>
5.70549

> <r_epik_Charging_Adjusted_Penalty>
11.411

> <i_epik_Tot_Q>
-1

> <i_epik_Tot_abs_Q>
1

> <r_epik_Metal_State_Penalty>
1.6859

> <b_epik_Metal_Only>
1

> <s_lp_Force_Field>
OPLS_2005

> <r_lp_Energy>
27.4562

> <b_lp_Chiralities_Consistent>
1

> <s_lp_Variant>
AV-unprocessed.smi:2768-6

> <Gold.Version>
5.8.1

> <Gold.Id.Protein>
6NUR|6NUR_protein|mol2

> <Gold.PLP.Fitness>
37.2023

> <Gold.PLP.PLP>
-28.0891

> <Gold.PLP.part.hbond>
-3.7199

> <Gold.PLP.part.metal>
0.0000

> <Gold.PLP.part.buried>
-3.3404

> <Gold.PLP.part.nonpolar>
-22.1805

> <Gold.PLP.part.repulsive>
0.0827

> <Gold.PLP.ligand.clash>
0.0000

> <Gold.PLP.ligand.torsion>
1.0530

> <Gold.PLP.Chemscore.Hbond>
2.6598

> <Gold.PLP.Chemscore.CHOScore>
1.0731

> <Gold.PLP.Chemscore.Metal>
0.0000

> <Gold.Chemscore.Hbonds>
donor molecule, donor type, donor heavy atom, donor atom, acceptor molecule, acceptor atom, score
      P1  H  6896  6909       L1     1  1.00
      P1  H  6931  6943       L1     3  0.67
      P1  H  6934  6947       L1    10  1.00
      L1  C    18    34       P1  7948  0.41
      L1  C    18    34       P1  7949  0.68

> <Gold.PLP.Chemscore.Internal.Correction>
0.0207

> <Gold.Rescore>
     Score         DG    S(hbond)    S(metal)    S(lipo)     H(rot)  DE(clash)    DE(int)     intcor
     14.11     -16.72       2.34        0.00      71.83       1.95       0.36       2.25       ----

> <Gold.Chemscore.Fitness>
14.1114

> <Gold.Chemscore.DG>
-16.7172

> <Gold.Chemscore.ZeroCoef>
-5.4800

> <Gold.Chemscore.Hbond>
2.3432

> <Gold.Chemscore.Metal>
0.0000

> <Gold.Chemscore.Lipo>
71.8261

> <Gold.Chemscore.Internal_Hbond>
0.0000

> <Gold.Chemscore.DEClash>
0.3589

> <Gold.Chemscore.DEInternal>
2.2469

> <Gold.Chemscore.Rot>
1.9503

> <Gold.Chemscore.Internal.Correction>
   9.000000E+99

> <Gold.Chemscore.Hbonds>
donor molecule, donor type, donor heavy atom, donor atom, acceptor molecule, acceptor atom, score
      P1  H  6896  6909       L1     1  0.82
      P1  H  6931  6943       L1     3  0.05
      P1  H  6934  6947       L1    10  0.97

> <Gold.Chemscore.Hbond.Weighted>
-7.8263

> <Gold.Chemscore.Metal.Weighted>
-0.0000

> <Gold.Chemscore.Lipo.Weighted>
-8.4037

> <Gold.Chemscore.Internal_Hbond.Weighted>
0.0000

> <Gold.Chemscore.DEClash.Weighted>
0.3589

> <Gold.Chemscore.DEInternal.Weighted>
2.2469

> <Gold.Chemscore.Rot.Weighted>
4.9928

> <Gold.Chemscore.Internal.Correction.Weighted>
   9.000000E+99

> <Gold.Protein.RotatedTorsions>
[ 6907 6896 6895 6894 ] final   95.34 input  -60.11 | X-H torsion
[ 7974 7965 7964 7962 ] final   19.89 input  175.53 | X-H torsion
[ 8008 7997 7996 7995 ] final   74.81 input   59.86 | X-H torsion
[ 10167 10162 10161 10158 ] final    8.76 input  -65.29 | X-H torsion
[ 10718 10713 10712 10709 ] final  118.45 input   66.30 | X-H torsion
[ 10763 10752 10751 10750 ] final -144.57 input  -60.55 | X-H torsion
[ 11005 11000 10999 10996 ] final  121.74 input  -57.11 | X-H torsion

> <Gold.Protein.ActiveResidues>
 VAL166  LYS551  ARG553  GLY616  TRP617  ASP618  TYR619  PRO620  LYS621  CYS622 
 ASP623  PHE694  ASN695  SER759  ASP760  ASP761  ALA762  ILE779  LEU786  VAL792 
 PHE793  MET794  SER795  GLU796  ALA797  LYS798  CYS799  TRP800  GLU811  SER814 

> <Gold.Protein.RotatedAtoms>
  152.5444  134.1054  159.8335 H   0  0  0  0  0  0  0  0  0  0  0  0  # atno 6907 bound_to 6896
  151.1127  133.5154  159.2612 H   0  0  0  0  0  0  0  0  0  0  0  0  # atno 6908 bound_to 6896
  151.1866  135.0394  159.8869 H   0  0  0  0  0  0  0  0  0  0  0  0  # atno 6909 bound_to 6896
  146.2132  139.8248  142.8672 H   0  0  0  0  0  0  0  0  0  0  0  0  # atno 7974 bound_to 7965
  155.8038  140.3475  155.5418 H   0  0  0  0  0  0  0  0  0  0  0  0  # atno 8008 bound_to 7997
  155.8511  140.0956  157.1694 H   0  0  0  0  0  0  0  0  0  0  0  0  # atno 8009 bound_to 7997
  154.4008  140.1376  156.3832 H   0  0  0  0  0  0  0  0  0  0  0  0  # atno 8010 bound_to 7997
  140.6295  143.8026  150.7277 H   0  0  0  0  0  0  0  0  0  0  0  0  # atno 10167 bound_to 10162
  157.6029  131.1048  150.7758 H   0  0  0  0  0  0  0  0  0  0  0  0  # atno 10718 bound_to 10713
  154.8422  135.3437  154.6367 H   0  0  0  0  0  0  0  0  0  0  0  0  # atno 10763 bound_to 10752
  153.6977  135.6971  153.5076 H   0  0  0  0  0  0  0  0  0  0  0  0  # atno 10764 bound_to 10752
  153.2546  135.4342  155.0788 H   0  0  0  0  0  0  0  0  0  0  0  0  # atno 10765 bound_to 10752
  139.9238  134.9639  156.8003 H   0  0  0  0  0  0  0  0  0  0  0  0  # atno 11005 bound_to 11000
  145.3058  141.0207  143.3582 LP  0  0  0  0  0  0  0  0  0  0  0  0  # atno 17320 bound_to 7965
  144.8972  139.4697  143.6650 LP  0  0  0  0  0  0  0  0  0  0  0  0  # atno 17321 bound_to 7965
  140.1634  143.4256  152.2051 LP  0  0  0  0  0  0  0  0  0  0  0  0  # atno 17342 bound_to 10162
  139.5511  144.7338  151.4433 LP  0  0  0  0  0  0  0  0  0  0  0  0  # atno 17343 bound_to 10162
  156.8153  130.4966  149.5350 LP  0  0  0  0  0  0  0  0  0  0  0  0  # atno 17370 bound_to 10713
  156.1107  130.6038  151.0043 LP  0  0  0  0  0  0  0  0  0  0  0  0  # atno 17371 bound_to 10713
  140.6395  133.9832  155.7700 LP  0  0  0  0  0  0  0  0  0  0  0  0  # atno 17394 bound_to 11000
  141.0781  134.0104  157.3428 LP  0  0  0  0  0  0  0  0  0  0  0  0  # atno 17395 bound_to 11000

$$$$
