AV-unprocessed.smi:2706|AV-procd|sdf|10453|dock5
  -GOLD-   2272014493D 1   1.00000     0.00000
 Structure written by MMmdl.
 43 46  0  0  0  0  0  0  0  0  1 V2000
  151.6608  145.6364  159.9755 C   0  0  0  0  0  0  0  0  0  0  0  0
  152.0664  144.3225  159.4889 N   0  0  0  0  0  0  0  0  0  0  0  0
  151.8197  144.0969  158.0682 C   0  0  0  0  0  0  0  0  0  0  0  0
  152.6115  143.3637  160.3450 C   0  0  0  0  0  0  0  0  0  0  0  0
  152.7849  143.6219  161.6606 C   0  0  0  0  0  0  0  0  0  0  0  0
  153.3586  142.6156  162.5299 C   0  0  0  0  0  0  0  0  0  0  0  0
  153.7215  141.4078  162.0556 C   0  0  0  0  0  0  0  0  0  0  0  0
  153.5401  141.0748  160.6553 C   0  0  0  0  0  0  0  0  0  0  0  0
  153.9057  139.9067  160.2065 N   0  0  0  0  0  0  0  0  0  0  0  0
  153.6591  139.4755  158.9029 C   0  0  0  0  0  0  0  0  0  0  0  0
  154.5030  138.8847  158.2298 O   0  0  0  0  0  0  0  0  0  0  0  0
  152.3978  139.6404  158.4533 N   0  0  0  0  0  0  0  0  0  0  0  0
  151.9055  139.2477  157.1729 C   0  0  2  0  0  0  0  0  0  0  0  0
  151.3134  140.3443  156.3012 C   0  0  1  0  0  0  0  0  0  0  0  0
  150.9857  140.2240  154.8159 C   0  0  2  0  0  0  0  0  0  0  0  0
  149.5924  140.8455  154.5888 C   0  0  0  0  0  0  0  0  0  0  0  0
  148.6519  139.8109  155.2547 C   0  0  0  0  0  0  0  0  0  0  0  0
  149.6405  138.7432  155.7676 C   0  0  1  0  0  0  0  0  0  0  0  0
  150.6524  138.7439  154.6207 C   0  0  0  0  0  0  0  0  0  0  0  0
  150.4046  139.3416  156.9450 C   0  0  1  0  0  0  0  0  0  0  0  0
  152.9967  142.1077  159.8673 N   0  0  0  0  0  0  0  0  0  0  0  0
  150.7074  145.5658  160.4998 H   0  0  0  0  0  0  0  0  0  0  0  0
  151.5523  146.3580  159.1655 H   0  0  0  0  0  0  0  0  0  0  0  0
  152.4025  146.0372  160.6663 H   0  0  0  0  0  0  0  0  0  0  0  0
  152.7638  144.0344  157.5263 H   0  0  0  0  0  0  0  0  0  0  0  0
  151.2270  144.8952  157.6205 H   0  0  0  0  0  0  0  0  0  0  0  0
  151.2731  143.1653  157.9183 H   0  0  0  0  0  0  0  0  0  0  0  0
  152.5039  144.5701  162.0939 H   0  0  0  0  0  0  0  0  0  0  0  0
  153.5015  142.8395  163.5767 H   0  0  0  0  0  0  0  0  0  0  0  0
  154.1456  140.6990  162.7522 H   0  0  0  0  0  0  0  0  0  0  0  0
  151.7359  140.0833  159.0743 H   0  0  0  0  0  0  0  0  0  0  0  0
  152.4467  138.4499  156.6691 H   0  0  0  0  0  0  0  0  0  0  0  0
  151.3081  141.3554  156.7034 H   0  0  0  0  0  0  0  0  0  0  0  0
  151.7747  140.6175  154.1749 H   0  0  0  0  0  0  0  0  0  0  0  0
  149.5043  141.8364  155.0360 H   0  0  0  0  0  0  0  0  0  0  0  0
  149.3729  140.9373  153.5241 H   0  0  0  0  0  0  0  0  0  0  0  0
  148.0588  140.2458  156.0603 H   0  0  0  0  0  0  0  0  0  0  0  0
  147.9637  139.3875  154.5221 H   0  0  0  0  0  0  0  0  0  0  0  0
  149.1937  137.7763  156.0003 H   0  0  0  0  0  0  0  0  0  0  0  0
  150.2076  138.5227  153.6481 H   0  0  0  0  0  0  0  0  0  0  0  0
  151.4961  138.0700  154.7654 H   0  0  0  0  0  0  0  0  0  0  0  0
  149.7943  139.6748  157.7829 H   0  0  0  0  0  0  0  0  0  0  0  0
  152.8621  141.9665  158.8767 H   0  0  0  0  0  0  0  0  0  0  0  0
  1  2  1  0  0  0  0
  1 22  1  0  0  0  0
  1 23  1  0  0  0  0
  1 24  1  0  0  0  0
  2  3  1  0  0  0  0
  2  4  1  0  0  0  0
  3 25  1  0  0  0  0
  3 26  1  0  0  0  0
  3 27  1  0  0  0  0
  4 21  1  0  0  0  0
  4  5  2  0  0  0  0
  5  6  1  0  0  0  0
  5 28  1  0  0  0  0
  6  7  2  0  0  0  0
  6 29  1  0  0  0  0
  7  8  1  0  0  0  0
  7 30  1  0  0  0  0
  8  9  2  0  0  0  0
  8 21  1  0  0  0  0
  9 10  1  0  0  0  0
 10 11  2  0  0  0  0
 10 12  1  0  0  0  0
 12 13  1  0  0  0  0
 12 31  1  0  0  0  0
 13 20  1  0  0  0  0
 13 14  1  0  0  0  0
 13 32  1  0  0  0  0
 14 20  1  0  0  0  0
 14 15  1  0  0  0  0
 14 33  1  0  0  0  0
 15 19  1  0  0  0  0
 15 16  1  0  0  0  0
 15 34  1  0  0  0  0
 16 17  1  0  0  0  0
 16 35  1  0  0  0  0
 16 36  1  0  0  0  0
 17 18  1  0  0  0  0
 17 37  1  0  0  0  0
 17 38  1  0  0  0  0
 18 19  1  0  0  0  0
 18 20  1  0  0  0  0
 18 39  1  0  0  0  0
 19 40  1  0  0  0  0
 19 41  1  0  0  0  0
 20 42  1  0  0  0  0
 21 43  1  0  0  0  0
M  END
> <s_m_source_file>
AV-unprocessed.smi

> <i_m_source_file_index>
2706

> <i_lp_mmshare_version>
43012

> <i_f3d_flags>
0

> <s_epik_input>
W0NIM11OKFtDSDNdKWMxW2NIXVtjSF1bY0hdYyhuMSlbTkhdQyg9TylbTkhdW0NASF0yW0NAQEhdM1tDQEBIXShbQ0gyXTQpW0NIMl1bQ0gyXVtDQEBIXTRbQ0BIXTIz

> <s_epik_cmdline>
J2VwaWtfcHl0aG9uJywgJy1waCcsICc3LjAnLCAnLXRuJywgJzgnLCAnLW1hJywgJzIwMCcsICctbWV0YWxfYmluZGluZycsICctaW1hZScsICc8aW5maWxlLm1hZT4nLCAnLW9tYWUnLCAnPG91dGZpbGUubWFlPic=

> <r_lp_tautomer_probability>
0.999994

> <r_epik_Ionization_Penalty>
2.07242

> <r_epik_Ionization_Penalty_Charging>
2.07242

> <r_epik_Ionization_Penalty_Neutral>
9.73808e-07

> <r_epik_State_Penalty>
3.96009

> <r_epik_Charging_Adjusted_Penalty>
6.03251

> <i_epik_Tot_Q>
0

> <i_epik_Tot_abs_Q>
0

> <r_epik_Metal_State_Penalty>
3.98849

> <b_epik_Metal_Only>
1

> <s_lp_Force_Field>
OPLS_2005

> <r_lp_Energy>
89.4683

> <b_lp_Chiralities_Consistent>
1

> <s_lp_Variant>
AV-unprocessed.smi:2706-10

> <Gold.Version>
5.8.1

> <Gold.Id.Protein>
6NUR|6NUR_protein|mol2

> <Gold.PLP.Fitness>
47.1053

> <Gold.PLP.PLP>
-44.9198

> <Gold.PLP.part.hbond>
-0.9573

> <Gold.PLP.part.metal>
0.0000

> <Gold.PLP.part.buried>
-1.7166

> <Gold.PLP.part.nonpolar>
-41.5923

> <Gold.PLP.part.repulsive>
0.1585

> <Gold.PLP.ligand.clash>
0.0000

> <Gold.PLP.ligand.torsion>
0.4227

> <Gold.PLP.Chemscore.Hbond>
1.0000

> <Gold.PLP.Chemscore.CHOScore>
0.0000

> <Gold.PLP.Chemscore.Metal>
0.0000

> <Gold.Chemscore.Hbonds>
donor molecule, donor type, donor heavy atom, donor atom, acceptor molecule, acceptor atom, score
      P1  H  7997  8008       L1    11  1.00

> <Gold.PLP.Chemscore.Internal.Correction>
0.0308

> <Gold.Rescore>
     Score         DG    S(hbond)    S(metal)    S(lipo)     H(rot)  DE(clash)    DE(int)     intcor
     15.18     -18.25       0.94        0.00     104.29       1.00       1.42       1.65       ----

> <Gold.Chemscore.Fitness>
15.1754

> <Gold.Chemscore.DG>
-18.2492

> <Gold.Chemscore.ZeroCoef>
-5.4800

> <Gold.Chemscore.Hbond>
0.9363

> <Gold.Chemscore.Metal>
0.0000

> <Gold.Chemscore.Lipo>
104.2892

> <Gold.Chemscore.Internal_Hbond>
0.0000

> <Gold.Chemscore.DEClash>
1.4240

> <Gold.Chemscore.DEInternal>
1.6497

> <Gold.Chemscore.Rot>
1.0000

> <Gold.Chemscore.Internal.Correction>
   9.000000E+99

> <Gold.Chemscore.Hbonds>
donor molecule, donor type, donor heavy atom, donor atom, acceptor molecule, acceptor atom, score
      P1  H  7997  8008       L1    11  0.32

> <Gold.Chemscore.Hbond.Weighted>
-3.1273

> <Gold.Chemscore.Metal.Weighted>
-0.0000

> <Gold.Chemscore.Lipo.Weighted>
-12.2018

> <Gold.Chemscore.Internal_Hbond.Weighted>
0.0000

> <Gold.Chemscore.DEClash.Weighted>
1.4240

> <Gold.Chemscore.DEInternal.Weighted>
1.6497

> <Gold.Chemscore.Rot.Weighted>
2.5600

> <Gold.Chemscore.Internal.Correction.Weighted>
   9.000000E+99

> <Gold.Protein.RotatedTorsions>
[ 6907 6896 6895 6894 ] final   46.85 input  -60.11 | X-H torsion
[ 7974 7965 7964 7962 ] final   60.89 input  175.53 | X-H torsion
[ 8008 7997 7996 7995 ] final -113.75 input   59.86 | X-H torsion
[ 10167 10162 10161 10158 ] final   49.35 input  -65.29 | X-H torsion
[ 10718 10713 10712 10709 ] final  -58.71 input   66.30 | X-H torsion
[ 10763 10752 10751 10750 ] final   29.79 input  -60.55 | X-H torsion
[ 11005 11000 10999 10996 ] final  -48.17 input  -57.11 | X-H torsion

> <Gold.Protein.ActiveResidues>
 VAL166  LYS551  ARG553  GLY616  TRP617  ASP618  TYR619  PRO620  LYS621  CYS622 
 ASP623  PHE694  ASN695  SER759  ASP760  ASP761  ALA762  ILE779  LEU786  VAL792 
 PHE793  MET794  SER795  GLU796  ALA797  LYS798  CYS799  TRP800  GLU811  SER814 

> <Gold.Protein.RotatedAtoms>
  152.2612  134.8032  160.0430 H   0  0  0  0  0  0  0  0  0  0  0  0  # atno 6907 bound_to 6896
  151.8678  133.3464  159.3733 H   0  0  0  0  0  0  0  0  0  0  0  0  # atno 6908 bound_to 6896
  150.7117  134.5070  159.5633 H   0  0  0  0  0  0  0  0  0  0  0  0  # atno 6909 bound_to 6896
  145.8910  139.3511  143.0649 H   0  0  0  0  0  0  0  0  0  0  0  0  # atno 7974 bound_to 7965
  155.0256  140.0393  157.2454 H   0  0  0  0  0  0  0  0  0  0  0  0  # atno 8008 bound_to 7997
  154.7341  140.2736  155.6407 H   0  0  0  0  0  0  0  0  0  0  0  0  # atno 8009 bound_to 7997
  156.2848  140.2678  156.2049 H   0  0  0  0  0  0  0  0  0  0  0  0  # atno 8010 bound_to 7997
  140.2838  144.3126  150.6257 H   0  0  0  0  0  0  0  0  0  0  0  0  # atno 10167 bound_to 10162
  156.1115  130.4174  150.0614 H   0  0  0  0  0  0  0  0  0  0  0  0  # atno 10718 bound_to 10713
  153.0409  135.6480  154.0945 H   0  0  0  0  0  0  0  0  0  0  0  0  # atno 10763 bound_to 10752
  154.0651  135.2885  155.3319 H   0  0  0  0  0  0  0  0  0  0  0  0  # atno 10764 bound_to 10752
  154.6631  135.5384  153.8108 H   0  0  0  0  0  0  0  0  0  0  0  0  # atno 10765 bound_to 10752
  141.0684  133.6686  156.3402 H   0  0  0  0  0  0  0  0  0  0  0  0  # atno 11005 bound_to 11000
  145.8909  140.9304  143.0553 LP  0  0  0  0  0  0  0  0  0  0  0  0  # atno 17320 bound_to 7965
  144.6730  140.0904  143.7465 LP  0  0  0  0  0  0  0  0  0  0  0  0  # atno 17321 bound_to 7965
  140.5790  143.2174  151.7463 LP  0  0  0  0  0  0  0  0  0  0  0  0  # atno 17342 bound_to 10162
  139.4955  144.4108  152.0082 LP  0  0  0  0  0  0  0  0  0  0  0  0  # atno 17343 bound_to 10162
  156.8576  130.9480  151.3620 LP  0  0  0  0  0  0  0  0  0  0  0  0  # atno 17370 bound_to 10713
  157.6296  130.8719  149.9251 LP  0  0  0  0  0  0  0  0  0  0  0  0  # atno 17371 bound_to 10713
  140.5724  134.5827  157.5461 LP  0  0  0  0  0  0  0  0  0  0  0  0  # atno 17394 bound_to 11000
  139.9499  134.7635  156.0472 LP  0  0  0  0  0  0  0  0  0  0  0  0  # atno 17395 bound_to 11000

$$$$
