AV-unprocessed.smi:1191|AV-procd|sdf|4984|dock3
  -GOLD-   22720 3583D 1   1.00000     0.00000
 Structure written by MMmdl.
 47 48  0  0  0  0  0  0  0  0  2 V2000
  147.8780  141.0873  153.8590 C   0  0  0  0  0  0  0  0  0  0  0  0
  149.1203  140.5356  154.4941 C   0  0  0  0  0  0  0  0  0  0  0  0
  149.9182  141.1143  155.5201 C   0  0  0  0  0  0  0  0  0  0  0  0
  150.9178  140.2052  155.7239 C   0  0  0  0  0  0  0  0  0  0  0  0
  152.0701  140.2405  156.6732 C   0  0  0  0  0  0  0  0  0  0  0  0
  150.6924  139.1575  154.8477 N   0  0  0  0  0  0  0  0  0  0  0  0
  151.4615  137.9375  154.6544 C   0  0  0  0  0  0  0  0  0  0  0  0
  150.7299  136.7233  155.2303 C   0  0  0  0  0  0  0  0  0  0  0  0
  150.3962  136.7053  156.4152 O   0  0  0  0  0  0  0  0  0  0  0  0
  150.4715  135.7187  154.3791 N   0  0  0  0  0  0  0  0  0  0  0  0
  149.7537  134.4987  154.7269 C   0  0  0  0  0  0  0  0  0  0  0  0
  148.2339  134.7448  154.7973 C   0  0  0  0  0  0  0  0  0  0  0  0
  147.5901  134.7168  153.4596 N   0  3  1  0  0  0  0  0  0  0  0  0
  147.6173  133.3597  152.8553 C   0  0  0  0  0  0  0  0  0  0  0  0
  147.0789  133.3824  151.4161 C   0  0  0  0  0  0  0  0  0  0  0  0
  145.6633  133.9706  151.3689 C   0  0  0  0  0  0  0  0  0  0  0  0
  145.6428  135.3622  152.0232 C   0  0  1  0  0  0  0  0  0  0  0  0
  144.2312  135.9659  152.0129 C   0  0  0  0  0  0  0  0  0  0  0  0
  146.2165  135.2894  153.4528 C   0  0  0  0  0  0  0  0  0  0  0  0
  149.5887  139.3643  154.0970 N   0  0  0  0  0  0  0  0  0  0  0  0
  147.6694  142.0972  154.2126 H   0  0  0  0  0  0  0  0  0  0  0  0
  147.0112  140.4683  154.0918 H   0  0  0  0  0  0  0  0  0  0  0  0
  147.9770  141.1305  152.7740 H   0  0  0  0  0  0  0  0  0  0  0  0
  149.7769  142.0558  156.0299 H   0  0  0  0  0  0  0  0  0  0  0  0
  151.9963  141.0987  157.3411 H   0  0  0  0  0  0  0  0  0  0  0  0
  153.0147  140.3160  156.1344 H   0  0  0  0  0  0  0  0  0  0  0  0
  152.0983  139.3407  157.2876 H   0  0  0  0  0  0  0  0  0  0  0  0
  151.6559  137.8085  153.5889 H   0  0  0  0  0  0  0  0  0  0  0  0
  152.4322  138.0375  155.1425 H   0  0  0  0  0  0  0  0  0  0  0  0
  150.7859  135.8112  153.4237 H   0  0  0  0  0  0  0  0  0  0  0  0
  149.9947  133.7569  153.9668 H   0  0  0  0  0  0  0  0  0  0  0  0
  150.1227  134.1041  155.6754 H   0  0  0  0  0  0  0  0  0  0  0  0
  147.7896  133.9647  155.4173 H   0  0  0  0  0  0  0  0  0  0  0  0
  148.0167  135.6915  155.2946 H   0  0  0  0  0  0  0  0  0  0  0  0
  148.6392  132.9784  152.8464 H   0  0  0  0  0  0  0  0  0  0  0  0
  147.0285  132.6752  153.4680 H   0  0  0  0  0  0  0  0  0  0  0  0
  147.7437  133.9731  150.7844 H   0  0  0  0  0  0  0  0  0  0  0  0
  147.0763  132.3731  151.0035 H   0  0  0  0  0  0  0  0  0  0  0  0
  145.3218  134.0324  150.3349 H   0  0  0  0  0  0  0  0  0  0  0  0
  144.9718  133.3042  151.8866 H   0  0  0  0  0  0  0  0  0  0  0  0
  146.2846  136.0209  151.4358 H   0  0  0  0  0  0  0  0  0  0  0  0
  143.5333  135.3546  152.5860 H   0  0  0  0  0  0  0  0  0  0  0  0
  143.8460  136.0451  150.9960 H   0  0  0  0  0  0  0  0  0  0  0  0
  144.2284  136.9675  152.4437 H   0  0  0  0  0  0  0  0  0  0  0  0
  145.5685  134.6850  154.0901 H   0  0  0  0  0  0  0  0  0  0  0  0
  146.2264  136.2924  153.8774 H   0  0  0  0  0  0  0  0  0  0  0  0
  148.1562  135.3004  152.8601 H   0  0  0  0  0  0  0  0  0  0  0  0
  1  2  1  0  0  0  0
  1 21  1  0  0  0  0
  1 22  1  0  0  0  0
  1 23  1  0  0  0  0
  2 20  2  0  0  0  0
  2  3  1  0  0  0  0
  3  4  2  0  0  0  0
  3 24  1  0  0  0  0
  4  5  1  0  0  0  0
  4  6  1  0  0  0  0
  5 25  1  0  0  0  0
  5 26  1  0  0  0  0
  5 27  1  0  0  0  0
  6  7  1  0  0  0  0
  6 20  1  0  0  0  0
  7  8  1  0  0  0  0
  7 28  1  0  0  0  0
  7 29  1  0  0  0  0
  8  9  2  0  0  0  0
  8 10  1  0  0  0  0
 10 11  1  0  0  0  0
 10 30  1  0  0  0  0
 11 12  1  0  0  0  0
 11 31  1  0  0  0  0
 11 32  1  0  0  0  0
 12 13  1  0  0  0  0
 12 33  1  0  0  0  0
 12 34  1  0  0  0  0
 13 19  1  0  0  0  0
 13 14  1  0  0  0  0
 13 47  1  0  0  0  0
 14 15  1  0  0  0  0
 14 35  1  0  0  0  0
 14 36  1  0  0  0  0
 15 16  1  0  0  0  0
 15 37  1  0  0  0  0
 15 38  1  0  0  0  0
 16 17  1  0  0  0  0
 16 39  1  0  0  0  0
 16 40  1  0  0  0  0
 17 18  1  0  0  0  0
 17 19  1  0  0  0  0
 17 41  1  0  0  0  0
 18 42  1  0  0  0  0
 18 43  1  0  0  0  0
 18 44  1  0  0  0  0
 19 45  1  0  0  0  0
 19 46  1  0  0  0  0
M  CHG  1  13   1
M  END
> <s_m_source_file>
AV-unprocessed.smi

> <i_m_source_file_index>
1191

> <i_lp_mmshare_version>
43012

> <i_f3d_flags>
0

> <s_epik_input>
W0NIM11jMVtjSF1jKFtDSDNdKW4objEpW0NIMl1DKD1PKVtOSF1bQ0gyXVtDSDJdTjJbQ0gyXVtDSDJdW0NIMl1bQ0BASF0oW0NIM10pW0NIMl0y

> <s_epik_cmdline>
J2VwaWtfcHl0aG9uJywgJy1waCcsICc3LjAnLCAnLXRuJywgJzgnLCAnLW1hJywgJzIwMCcsICctbWV0YWxfYmluZGluZycsICctaW1hZScsICc8aW5maWxlLm1hZT4nLCAnLW9tYWUnLCAnPG91dGZpbGUubWFlPic=

> <r_lp_tautomer_probability>
1

> <r_epik_Ionization_Penalty>
0.00249932

> <r_epik_Ionization_Penalty_Charging>
0.00230623

> <r_epik_Ionization_Penalty_Neutral>
0.000193092

> <r_epik_State_Penalty>
-0

> <r_epik_Charging_Adjusted_Penalty>
0.00230623

> <i_epik_Tot_Q>
1

> <i_epik_Tot_abs_Q>
1

> <r_epik_Metal_State_Penalty>
-0

> <b_epik_Metal_Only>
0

> <s_lp_Force_Field>
OPLS_2005

> <r_lp_Energy>
14.3844

> <b_lp_Chiralities_Consistent>
1

> <s_lp_Variant>
AV-unprocessed.smi:1191-1

> <Gold.Version>
5.8.1

> <Gold.Id.Protein>
6NUR|6NUR_protein|mol2

> <Gold.PLP.Fitness>
44.4021

> <Gold.PLP.PLP>
-37.5924

> <Gold.PLP.part.hbond>
-3.0000

> <Gold.PLP.part.metal>
0.0000

> <Gold.PLP.part.buried>
-4.8279

> <Gold.PLP.part.nonpolar>
-31.9539

> <Gold.PLP.part.repulsive>
1.3701

> <Gold.PLP.ligand.clash>
0.0000

> <Gold.PLP.ligand.torsion>
0.4523

> <Gold.PLP.Chemscore.Hbond>
2.5500

> <Gold.PLP.Chemscore.CHOScore>
0.0000

> <Gold.PLP.Chemscore.Metal>
0.0000

> <Gold.Chemscore.Hbonds>
donor molecule, donor type, donor heavy atom, donor atom, acceptor molecule, acceptor atom, score
      L1  H    10    30       P1  7949  0.55
      L1  H    13    47       P1  7948  2.00

> <Gold.PLP.Chemscore.Internal.Correction>
0.0643

> <Gold.Rescore>
     Score         DG    S(hbond)    S(metal)    S(lipo)     H(rot)  DE(clash)    DE(int)     intcor
     13.02     -13.65       0.99        0.00      78.17       1.67       0.04       0.59       ----

> <Gold.Chemscore.Fitness>
13.0235

> <Gold.Chemscore.DG>
-13.6549

> <Gold.Chemscore.ZeroCoef>
-5.4800

> <Gold.Chemscore.Hbond>
0.9859

> <Gold.Chemscore.Metal>
0.0000

> <Gold.Chemscore.Lipo>
78.1719

> <Gold.Chemscore.Internal_Hbond>
0.0000

> <Gold.Chemscore.DEClash>
0.0450

> <Gold.Chemscore.DEInternal>
0.5865

> <Gold.Chemscore.Rot>
1.6657

> <Gold.Chemscore.Internal.Correction>
   9.000000E+99

> <Gold.Chemscore.Hbonds>
donor molecule, donor type, donor heavy atom, donor atom, acceptor molecule, acceptor atom, score
      L1  H    10    30       P1  7949  0.03
      L1  H    13    47       P1  7948  0.95

> <Gold.Chemscore.Hbond.Weighted>
-3.2929

> <Gold.Chemscore.Metal.Weighted>
-0.0000

> <Gold.Chemscore.Lipo.Weighted>
-9.1461

> <Gold.Chemscore.Internal_Hbond.Weighted>
0.0000

> <Gold.Chemscore.DEClash.Weighted>
0.0450

> <Gold.Chemscore.DEInternal.Weighted>
0.5865

> <Gold.Chemscore.Rot.Weighted>
4.2641

> <Gold.Chemscore.Internal.Correction.Weighted>
   9.000000E+99

> <Gold.Protein.RotatedTorsions>
[ 6907 6896 6895 6894 ] final   98.00 input  -60.11 | X-H torsion
[ 7974 7965 7964 7962 ] final -108.77 input  175.53 | X-H torsion
[ 8008 7997 7996 7995 ] final  116.80 input   59.86 | X-H torsion
[ 10167 10162 10161 10158 ] final  124.44 input  -65.29 | X-H torsion
[ 10718 10713 10712 10709 ] final   69.20 input   66.30 | X-H torsion
[ 10763 10752 10751 10750 ] final   37.77 input  -60.55 | X-H torsion
[ 11005 11000 10999 10996 ] final  110.06 input  -57.11 | X-H torsion

> <Gold.Protein.ActiveResidues>
 VAL166  LYS551  ARG553  GLY616  TRP617  ASP618  TYR619  PRO620  LYS621  CYS622 
 ASP623  PHE694  ASN695  SER759  ASP760  ASP761  ALA762  ILE779  LEU786  VAL792 
 PHE793  MET794  SER795  GLU796  ALA797  LYS798  CYS799  TRP800  GLU811  SER814 

> <Gold.Protein.RotatedAtoms>
  152.5416  134.0648  159.8167 H   0  0  0  0  0  0  0  0  0  0  0  0  # atno 6907 bound_to 6896
  151.0771  133.5412  159.2630 H   0  0  0  0  0  0  0  0  0  0  0  0  # atno 6908 bound_to 6896
  151.2254  135.0542  159.9020 H   0  0  0  0  0  0  0  0  0  0  0  0  # atno 6909 bound_to 6896
  145.1888  140.9005  143.3437 H   0  0  0  0  0  0  0  0  0  0  0  0  # atno 7974 bound_to 7965
  156.2459  140.2910  156.0579 H   0  0  0  0  0  0  0  0  0  0  0  0  # atno 8008 bound_to 7997
  155.1809  140.0404  157.2899 H   0  0  0  0  0  0  0  0  0  0  0  0  # atno 8009 bound_to 7997
  154.6261  140.2488  155.7497 H   0  0  0  0  0  0  0  0  0  0  0  0  # atno 8010 bound_to 7997
  139.5741  144.6954  151.3699 H   0  0  0  0  0  0  0  0  0  0  0  0  # atno 10167 bound_to 10162
  157.6332  130.9413  150.0481 H   0  0  0  0  0  0  0  0  0  0  0  0  # atno 10718 bound_to 10713
  153.0025  135.6268  154.2197 H   0  0  0  0  0  0  0  0  0  0  0  0  # atno 10763 bound_to 10752
  154.1940  135.2807  155.3014 H   0  0  0  0  0  0  0  0  0  0  0  0  # atno 10764 bound_to 10752
  154.5737  135.5669  153.7178 H   0  0  0  0  0  0  0  0  0  0  0  0  # atno 10765 bound_to 10752
  139.8874  134.9474  156.6221 H   0  0  0  0  0  0  0  0  0  0  0  0  # atno 11005 bound_to 11000
  145.0062  139.3552  143.6142 LP  0  0  0  0  0  0  0  0  0  0  0  0  # atno 17320 bound_to 7965
  146.3440  139.9306  142.8754 LP  0  0  0  0  0  0  0  0  0  0  0  0  # atno 17321 bound_to 7965
  140.7025  143.7597  150.7426 LP  0  0  0  0  0  0  0  0  0  0  0  0  # atno 17342 bound_to 10162
  140.1112  143.4698  152.2369 LP  0  0  0  0  0  0  0  0  0  0  0  0  # atno 17343 bound_to 10162
  156.1552  130.3643  149.9380 LP  0  0  0  0  0  0  0  0  0  0  0  0  # atno 17370 bound_to 10713
  156.7391  130.9072  151.3631 LP  0  0  0  0  0  0  0  0  0  0  0  0  # atno 17371 bound_to 10713
  140.7731  133.8722  155.8508 LP  0  0  0  0  0  0  0  0  0  0  0  0  # atno 17394 bound_to 11000
  140.9825  134.1387  157.4482 LP  0  0  0  0  0  0  0  0  0  0  0  0  # atno 17395 bound_to 11000

$$$$
