#       Name:                AV-unprocessed.smi:2955
#       Creating user name   scv26
#       Creation time:       Fri Mar 27 16:20:09 2020


#       File generated by GOLD software.
#

@<TRIPOS>MOLECULE
AV-unprocessed.smi:2955
    50    52     1
SMALL
NO_CHARGES


@<TRIPOS>ATOM
      1 ****        10.2896  -4.9324  -6.5210 C.3            1 S1                 0.0000
      2 ****        10.6566  -3.7894  -5.5971 C.ar           1 S1                 0.0000
      3 ****        11.9076  -3.7718  -4.9484 C.ar           1 S1                 0.0000
      4 ****        12.2402  -2.7052  -4.0934 C.ar           1 S1                 0.0000
      5 ****        11.3243  -1.6565  -3.8862 C.ar           1 S1                 0.0000
      6 ****        10.0680  -1.6587  -4.5261 C.ar           1 S1                 0.0000
      7 ****         9.2324  -0.5939  -4.2652 O.3            1 S1                 0.0000
      8 ****         7.9432  -0.5907  -4.8604 C.3            1 S1                 0.0000
      9 ****         7.1940   0.6608  -4.3901 C.3            1 S1                 0.0000
     10 ****         5.8218   0.7004  -4.9136 N.pl3          1 S1                 0.0000
     11 ****         4.6607   0.2031  -4.3947 C.2            1 S1                 0.0000
     12 ****         4.4899  -0.5261  -3.0934 C.3            1 S1                 0.0000
     13 ****         3.7286  -1.8445  -3.2947 C.3            1 S1                 0.0000
     14 ****         3.8011   0.2942  -2.1051 N.am           1 S1                 0.0000
     15 ****         4.3643   1.3201  -1.4550 C.2            1 S1                 0.0000
     16 ****         5.5280   1.6696  -1.6326 O.2            1 S1                 0.0000
     17 ****         3.6635   0.5218  -5.2696 N.pl3          1 S1                 1.0000
     18 ****         4.1927   1.2031  -6.3656 C.ar           1 S1                 0.0000
     19 ****         3.5774   1.7153  -7.5036 C.ar           1 S1                 0.0000
     20 ****         4.4141   2.3561  -8.4410 C.ar           1 S1                 0.0000
     21 ****         5.8037   2.4675  -8.2290 C.ar           1 S1                 0.0000
     22 ****         6.4157   1.9453  -7.0703 C.ar           1 S1                 0.0000
     23 ****         5.5806   1.3163  -6.1469 C.ar           1 S1                 0.0000
     24 ****         9.7413  -2.7373  -5.3872 C.ar           1 S1                 0.0000
     25 ****        11.0539  -5.7103  -6.5159 H              1 S1                 0.0000
     26 ****        10.1787  -4.5698  -7.5431 H              1 S1                 0.0000
     27 ****         9.3459  -5.3820  -6.2110 H              1 S1                 0.0000
     28 ****        12.6152  -4.5731  -5.1033 H              1 S1                 0.0000
     29 ****        13.1987  -2.6910  -3.5959 H              1 S1                 0.0000
     30 ****        11.5883  -0.8422  -3.2274 H              1 S1                 0.0000
     31 ****         8.0276  -0.5858  -5.9482 H              1 S1                 0.0000
     32 ****         7.3892  -1.4830  -4.5634 H              1 S1                 0.0000
     33 ****         7.1404   0.6832  -3.3019 H              1 S1                 0.0000
     34 ****         7.7198   1.5692  -4.6850 H              1 S1                 0.0000
     35 ****         5.4752  -0.7796  -2.7003 H              1 S1                 0.0000
     36 ****         4.2473  -2.4900  -4.0044 H              1 S1                 0.0000
     37 ****         2.7200  -1.6756  -3.6734 H              1 S1                 0.0000
     38 ****         3.6417  -2.3932  -2.3562 H              1 S1                 0.0000
     39 ****         2.8383   0.0681  -1.9008 H              1 S1                 0.0000
     40 ****         3.6620   1.7990  -0.7546 H              1 S1                 0.0000
     41 ****         2.5134   1.6296  -7.6688 H              1 S1                 0.0000
     42 ****         3.9818   2.7692  -9.3408 H              1 S1                 0.0000
     43 ****         6.4134   2.9640  -8.9701 H              1 S1                 0.0000
     44 ****         7.4813   2.0353  -6.9201 H              1 S1                 0.0000
     45 ****         8.7922  -2.7792  -5.8995 H              1 S1                 0.0000
     46 ****         2.6907   0.2842  -5.1248 H              1 S1                 0.0000
     47 ****         9.7024   0.2338  -4.5717 LP             1 S1                 0.0000
     48 ****         9.1016  -0.5555  -3.2745 LP             1 S1                 0.0000
     49 ****         6.1024   1.1803  -2.2888 LP             1 S1                 0.0000
     50 ****         5.9012   2.4435  -1.1210 LP             1 S1                 0.0000
@<TRIPOS>BOND
    1    1    2 1     
    2    1   25 1     
    3    1   26 1     
    4    1   27 1     
    5    2   24 ar    
    6    2    3 ar    
    7    3    4 ar    
    8    3   28 1     
    9    4    5 ar    
   10    4   29 1     
   11    5    6 ar    
   12    5   30 1     
   13    6    7 1     
   14    6   24 ar    
   15    7    8 1     
   16    8    9 1     
   17    8   31 1     
   18    8   32 1     
   19    9   10 1     
   20    9   33 1     
   21    9   34 1     
   22   10   23 1     
   23   10   11 1     
   24   11   12 1     
   25   11   17 2     
   26   12   13 1     
   27   12   14 1     
   28   12   35 1     
   29   13   36 1     
   30   13   37 1     
   31   13   38 1     
   32   14   15 am    
   33   14   39 1     
   34   15   16 2     
   35   15   40 1     
   36   17   18 1     
   37   17   46 1     
   38   18   23 ar    
   39   18   19 ar    
   40   19   20 ar    
   41   19   41 1     
   42   20   21 ar    
   43   20   42 1     
   44   21   22 ar    
   45   21   43 1     
   46   22   23 ar    
   47   22   44 1     
   48   24   45 1     
   49    7   47 1     
   50    7   48 1     
   51   16   49 1     
   52   16   50 1     
@<TRIPOS>SUBSTRUCTURE
      1 S1             1
@<TRIPOS>SET
LONE_PAIRS      STATIC     ATOMS    <user>   **** ""
4 47 48 49 50
DONOR_HYDROGENS      STATIC     ATOMS    <user>   **** ""
2 39 46
ATOM$BLUE        STATIC     ATOMS    COLORGROUP SYSTEM
4 47 48 49 50
ATOM$RED        STATIC     ATOMS    COLORGROUP SYSTEM
2 39 46
