AV-unprocessed.smi:1150|AV-procd|sdf|4894|dock9
  -GOLD-   22720 3473D 1   1.00000     0.00000
 Structure written by MMmdl.
 50 51  0  0  0  0  0  0  0  0  1 V2000
  147.3202  142.5692  157.1772 C   0  0  0  0  0  0  0  0  0  0  0  0
  148.0554  141.2231  157.0669 C   0  0  0  0  0  0  0  0  0  0  0  0
  149.3346  141.2637  156.1967 C   0  0  1  0  0  0  0  0  0  0  0  0
  150.2260  142.2952  156.7298 N   0  0  0  0  0  0  0  0  0  0  0  0
  151.0591  142.1627  157.7752 C   0  0  0  0  0  0  0  0  0  0  0  0
  151.1160  141.1576  158.4829 O   0  0  0  0  0  0  0  0  0  0  0  0
  151.9846  143.3465  158.0529 C   0  0  0  0  0  0  0  0  0  0  0  0
  152.0745  143.5702  159.5422 C   0  0  0  0  0  0  0  0  0  0  0  0
  151.5722  144.6820  160.2806 C   0  0  0  0  0  0  0  0  0  0  0  0
  150.8437  145.8889  159.7623 C   0  0  0  0  0  0  0  0  0  0  0  0
  151.7941  144.5675  161.5793 N   0  0  0  0  0  0  0  0  0  0  0  0
  152.4358  143.3903  161.7164 N   0  0  0  0  0  0  0  0  0  0  0  0
  152.8322  142.9488  163.0393 C   0  0  0  0  0  0  0  0  0  0  0  0
  152.6234  142.7606  160.5013 C   0  0  0  0  0  0  0  0  0  0  0  0
  153.3043  141.4345  160.3902 C   0  0  0  0  0  0  0  0  0  0  0  0
  150.0771  139.8984  156.1163 C   0  0  0  0  0  0  0  0  0  0  0  0
  151.3431  139.9701  155.2240 C   0  0  0  0  0  0  0  0  0  0  0  0
  152.0765  138.6224  155.1345 C   0  0  0  0  0  0  0  0  0  0  0  0
  151.1442  137.5145  154.6298 C   0  0  0  0  0  0  0  0  0  0  0  0
  149.8987  137.4098  155.5184 C   0  0  0  0  0  0  0  0  0  0  0  0
  149.1613  138.7557  155.6121 C   0  0  0  0  0  0  0  0  0  0  0  0
  146.3846  142.4534  157.7246 H   0  0  0  0  0  0  0  0  0  0  0  0
  147.0806  142.9681  156.1913 H   0  0  0  0  0  0  0  0  0  0  0  0
  147.9144  143.3151  157.7058 H   0  0  0  0  0  0  0  0  0  0  0  0
  148.3024  140.8696  158.0688 H   0  0  0  0  0  0  0  0  0  0  0  0
  147.3490  140.5041  156.6545 H   0  0  0  0  0  0  0  0  0  0  0  0
  149.0285  141.5345  155.1846 H   0  0  0  0  0  0  0  0  0  0  0  0
  150.2573  143.1660  156.2197 H   0  0  0  0  0  0  0  0  0  0  0  0
  152.9610  143.1470  157.6108 H   0  0  0  0  0  0  0  0  0  0  0  0
  151.5998  144.2298  157.5420 H   0  0  0  0  0  0  0  0  0  0  0  0
  149.7982  145.6535  159.5630 H   0  0  0  0  0  0  0  0  0  0  0  0
  151.2860  146.2459  158.8324 H   0  0  0  0  0  0  0  0  0  0  0  0
  150.8698  146.7132  160.4758 H   0  0  0  0  0  0  0  0  0  0  0  0
  152.5525  141.9047  163.1806 H   0  0  0  0  0  0  0  0  0  0  0  0
  152.3418  143.5482  163.8078 H   0  0  0  0  0  0  0  0  0  0  0  0
  153.9123  143.0470  163.1479 H   0  0  0  0  0  0  0  0  0  0  0  0
  153.3520  141.0962  159.3557 H   0  0  0  0  0  0  0  0  0  0  0  0
  152.7692  140.6760  160.9617 H   0  0  0  0  0  0  0  0  0  0  0  0
  154.3242  141.4903  160.7710 H   0  0  0  0  0  0  0  0  0  0  0  0
  150.4033  139.6387  157.1249 H   0  0  0  0  0  0  0  0  0  0  0  0
  151.0654  140.2997  154.2218 H   0  0  0  0  0  0  0  0  0  0  0  0
  152.0451  140.7114  155.6055 H   0  0  0  0  0  0  0  0  0  0  0  0
  152.9378  138.7120  154.4718 H   0  0  0  0  0  0  0  0  0  0  0  0
  152.4682  138.3530  156.1162 H   0  0  0  0  0  0  0  0  0  0  0  0
  150.8463  137.7247  153.6017 H   0  0  0  0  0  0  0  0  0  0  0  0
  151.6723  136.5607  154.6121 H   0  0  0  0  0  0  0  0  0  0  0  0
  149.2267  136.6459  155.1259 H   0  0  0  0  0  0  0  0  0  0  0  0
  150.1887  137.0818  156.5175 H   0  0  0  0  0  0  0  0  0  0  0  0
  148.3087  138.6216  156.2762 H   0  0  0  0  0  0  0  0  0  0  0  0
  148.7541  139.0156  154.6339 H   0  0  0  0  0  0  0  0  0  0  0  0
  1  2  1  0  0  0  0
  1 22  1  0  0  0  0
  1 23  1  0  0  0  0
  1 24  1  0  0  0  0
  2  3  1  0  0  0  0
  2 25  1  0  0  0  0
  2 26  1  0  0  0  0
  3  4  1  0  0  0  0
  3 16  1  0  0  0  0
  3 27  1  0  0  0  0
  4  5  1  0  0  0  0
  4 28  1  0  0  0  0
  5  6  2  0  0  0  0
  5  7  1  0  0  0  0
  7  8  1  0  0  0  0
  7 29  1  0  0  0  0
  7 30  1  0  0  0  0
  8 14  2  0  0  0  0
  8  9  1  0  0  0  0
  9 10  1  0  0  0  0
  9 11  2  0  0  0  0
 10 31  1  0  0  0  0
 10 32  1  0  0  0  0
 10 33  1  0  0  0  0
 11 12  1  0  0  0  0
 12 13  1  0  0  0  0
 12 14  1  0  0  0  0
 13 34  1  0  0  0  0
 13 35  1  0  0  0  0
 13 36  1  0  0  0  0
 14 15  1  0  0  0  0
 15 37  1  0  0  0  0
 15 38  1  0  0  0  0
 15 39  1  0  0  0  0
 16 21  1  0  0  0  0
 16 17  1  0  0  0  0
 16 40  1  0  0  0  0
 17 18  1  0  0  0  0
 17 41  1  0  0  0  0
 17 42  1  0  0  0  0
 18 19  1  0  0  0  0
 18 43  1  0  0  0  0
 18 44  1  0  0  0  0
 19 20  1  0  0  0  0
 19 45  1  0  0  0  0
 19 46  1  0  0  0  0
 20 21  1  0  0  0  0
 20 47  1  0  0  0  0
 20 48  1  0  0  0  0
 21 49  1  0  0  0  0
 21 50  1  0  0  0  0
M  END
> <s_m_source_file>
AV-unprocessed.smi

> <i_m_source_file_index>
1150

> <i_lp_mmshare_version>
43012

> <i_f3d_flags>
0

> <s_epik_input>
W0NIMl0xW0NIMl1bQ0gyXVtDSDJdW0NIMl1bQ0hdMVtDQEhdKFtDSDJdW0NIM10pW05IXUMoPU8pW0NIMl1jMmMoW0NIM10pbm4oW0NIM10pYzJbQ0gzXQ==

> <s_epik_cmdline>
J2VwaWtfcHl0aG9uJywgJy1waCcsICc3LjAnLCAnLXRuJywgJzgnLCAnLW1hJywgJzIwMCcsICctbWV0YWxfYmluZGluZycsICctaW1hZScsICc8aW5maWxlLm1hZT4nLCAnLW9tYWUnLCAnPG91dGZpbGUubWFlPic=

> <r_lp_tautomer_probability>
1

> <r_epik_Ionization_Penalty>
0.00328092

> <r_epik_Ionization_Penalty_Charging>
0

> <r_epik_Ionization_Penalty_Neutral>
0.00328092

> <r_epik_State_Penalty>
0.00231765

> <r_epik_Charging_Adjusted_Penalty>
0.00231765

> <i_epik_Tot_Q>
0

> <i_epik_Tot_abs_Q>
0

> <r_epik_Metal_State_Penalty>
-0

> <b_epik_Metal_Only>
0

> <s_lp_Force_Field>
OPLS_2005

> <r_lp_Energy>
7.94886

> <b_lp_Chiralities_Consistent>
1

> <s_lp_Variant>
AV-unprocessed.smi:1150-2

> <Gold.Version>
5.8.1

> <Gold.Id.Protein>
6NUR|6NUR_protein|mol2

> <Gold.PLP.Fitness>
47.4038

> <Gold.PLP.PLP>
-45.6485

> <Gold.PLP.part.hbond>
-1.0000

> <Gold.PLP.part.metal>
0.0000

> <Gold.PLP.part.buried>
-2.2706

> <Gold.PLP.part.nonpolar>
-42.7719

> <Gold.PLP.part.repulsive>
0.2142

> <Gold.PLP.ligand.clash>
0.0000

> <Gold.PLP.ligand.torsion>
0.5841

> <Gold.PLP.Chemscore.Hbond>
0.9600

> <Gold.PLP.Chemscore.CHOScore>
0.0000

> <Gold.PLP.Chemscore.Metal>
0.0000

> <Gold.Chemscore.Hbonds>
donor molecule, donor type, donor heavy atom, donor atom, acceptor molecule, acceptor atom, score
      L1  H     4    28       P1  8028  0.54

> <Gold.PLP.Chemscore.Internal.Correction>
0.0436

> <Gold.Rescore>
     Score         DG    S(hbond)    S(metal)    S(lipo)     H(rot)  DE(clash)    DE(int)     intcor
     14.62     -16.76       0.00        0.00     127.44       1.42       0.42       1.72       ----

> <Gold.Chemscore.Fitness>
14.6230

> <Gold.Chemscore.DG>
-16.7624

> <Gold.Chemscore.ZeroCoef>
-5.4800

> <Gold.Chemscore.Hbond>
0.0000

> <Gold.Chemscore.Metal>
0.0000

> <Gold.Chemscore.Lipo>
127.4442

> <Gold.Chemscore.Internal_Hbond>
0.0000

> <Gold.Chemscore.DEClash>
0.4193

> <Gold.Chemscore.DEInternal>
1.7201

> <Gold.Chemscore.Rot>
1.4174

> <Gold.Chemscore.Internal.Correction>
   9.000000E+99

> <Gold.Chemscore.Hbonds>
donor molecule, donor type, donor heavy atom, donor atom, acceptor molecule, acceptor atom, score
      L1  H     4    28       P1  8028  0.54

> <Gold.Chemscore.Hbond.Weighted>
-0.0000

> <Gold.Chemscore.Metal.Weighted>
-0.0000

> <Gold.Chemscore.Lipo.Weighted>
-14.9110

> <Gold.Chemscore.Internal_Hbond.Weighted>
0.0000

> <Gold.Chemscore.DEClash.Weighted>
0.4193

> <Gold.Chemscore.DEInternal.Weighted>
1.7201

> <Gold.Chemscore.Rot.Weighted>
3.6286

> <Gold.Chemscore.Internal.Correction.Weighted>
   9.000000E+99

> <Gold.Protein.RotatedTorsions>
[ 6907 6896 6895 6894 ] final -172.75 input  -60.11 | X-H torsion
[ 7974 7965 7964 7962 ] final   62.83 input  175.53 | X-H torsion
[ 8008 7997 7996 7995 ] final    8.84 input   59.86 | X-H torsion
[ 10167 10162 10161 10158 ] final  154.34 input  -65.29 | X-H torsion
[ 10718 10713 10712 10709 ] final  -42.86 input   66.30 | X-H torsion
[ 10763 10752 10751 10750 ] final  -98.54 input  -60.55 | X-H torsion
[ 11005 11000 10999 10996 ] final  -15.72 input  -57.11 | X-H torsion

> <Gold.Protein.ActiveResidues>
 VAL166  LYS551  ARG553  GLY616  TRP617  ASP618  TYR619  PRO620  LYS621  CYS622 
 ASP623  PHE694  ASN695  SER759  ASP760  ASP761  ALA762  ILE779  LEU786  VAL792 
 PHE793  MET794  SER795  GLU796  ALA797  LYS798  CYS799  TRP800  GLU811  SER814 

> <Gold.Protein.RotatedAtoms>
  151.5450  133.3426  159.2942 H   0  0  0  0  0  0  0  0  0  0  0  0  # atno 6907 bound_to 6896
  150.8513  134.7841  159.7022 H   0  0  0  0  0  0  0  0  0  0  0  0  # atno 6908 bound_to 6896
  152.4558  134.5302  159.9860 H   0  0  0  0  0  0  0  0  0  0  0  0  # atno 6909 bound_to 6896
  145.8688  139.3364  143.0775 H   0  0  0  0  0  0  0  0  0  0  0  0  # atno 7974 bound_to 7965
  154.7722  140.2804  155.6129 H   0  0  0  0  0  0  0  0  0  0  0  0  # atno 8008 bound_to 7997
  156.2935  140.2639  156.2454 H   0  0  0  0  0  0  0  0  0  0  0  0  # atno 8009 bound_to 7997
  154.9886  140.0374  157.2299 H   0  0  0  0  0  0  0  0  0  0  0  0  # atno 8010 bound_to 7997
  139.4823  144.5195  151.7898 H   0  0  0  0  0  0  0  0  0  0  0  0  # atno 10167 bound_to 10162
  156.2551  130.4191  149.8605 H   0  0  0  0  0  0  0  0  0  0  0  0  # atno 10718 bound_to 10713
  154.7422  135.5006  153.9143 H   0  0  0  0  0  0  0  0  0  0  0  0  # atno 10763 bound_to 10752
  153.1055  135.6696  153.9602 H   0  0  0  0  0  0  0  0  0  0  0  0  # atno 10764 bound_to 10752
  153.9376  135.3071  155.3423 H   0  0  0  0  0  0  0  0  0  0  0  0  # atno 10765 bound_to 10752
  140.7995  133.8225  155.9456 H   0  0  0  0  0  0  0  0  0  0  0  0  # atno 11005 bound_to 11000
  145.9161  140.9147  143.0429 LP  0  0  0  0  0  0  0  0  0  0  0  0  # atno 17320 bound_to 7965
  144.6726  140.1225  143.7449 LP  0  0  0  0  0  0  0  0  0  0  0  0  # atno 17321 bound_to 7965
  140.4708  144.1590  150.5917 LP  0  0  0  0  0  0  0  0  0  0  0  0  # atno 17342 bound_to 10162
  140.4385  143.2537  151.9504 LP  0  0  0  0  0  0  0  0  0  0  0  0  # atno 17343 bound_to 10162
  156.6140  130.8598  151.3460 LP  0  0  0  0  0  0  0  0  0  0  0  0  # atno 17370 bound_to 10713
  157.7229  130.9583  150.1514 LP  0  0  0  0  0  0  0  0  0  0  0  0  # atno 17371 bound_to 10713
  140.9309  134.2023  157.4864 LP  0  0  0  0  0  0  0  0  0  0  0  0  # atno 17394 bound_to 11000
  139.8723  134.9832  156.5189 LP  0  0  0  0  0  0  0  0  0  0  0  0  # atno 17395 bound_to 11000

$$$$
