#       Name:                AV-unprocessed.smi:907
#       Creating user name   scv26
#       Creation time:       Fri Mar 27 02:01:05 2020


#       File generated by GOLD software.
#

@<TRIPOS>MOLECULE
AV-unprocessed.smi:907
    56    59     1
SMALL
NO_CHARGES


@<TRIPOS>ATOM
      1 ****         1.3870   1.1230  -1.7718 O.2            1 S1                 0.0000
      2 ****         0.8940   0.0835  -1.3322 C.2            1 S1                 0.0000
      3 ****         1.6027  -1.0540  -1.2267 N.am           1 S1                 0.0000
      4 ****         3.0163  -1.1924  -1.5609 C.3            1 S1                 0.0000
      5 ****         3.2323  -1.3418  -3.0766 C.3            1 S1                 0.0000
      6 ****         4.7009  -1.4482  -3.4390 C.ar           1 S1                 0.0000
      7 ****         5.4358  -0.3410  -3.9158 C.ar           1 S1                 0.0000
      8 ****         6.8014  -0.5031  -4.2293 C.ar           1 S1                 0.0000
      9 ****         7.4035  -1.7670  -4.0581 C.ar           1 S1                 0.0000
     10 ****         6.6231  -2.8381  -3.5766 C.ar           1 S1                 0.0000
     11 ****         5.3175  -2.6429  -3.2876 N.pl3          1 S1                 1.0000
     12 ****        -0.4125  -0.0276  -0.9857 N.am           1 S1                 0.0000
     13 ****        -0.9893  -1.0578  -0.1118 C.3            1 S1                 0.0000
     14 ****        -1.2946  -0.4395   1.2665 C.3            1 S1                 0.0000
     15 ****        -2.1709   0.7629   1.1570 N.4            1 S1                 1.0000
     16 ****        -2.4717   1.3939   2.4747 C.3            1 S1                 0.0000
     17 ****        -3.5571   2.4977   2.4232 C.3            1 S1                 0.0000
     18 ****        -4.5182   2.0977   3.5584 C.3            1 S1                 0.0000
     19 ****        -5.3657   0.9026   3.0902 C.3            1 S1                 0.0000
     20 ****        -4.3416  -0.2459   3.0735 C.3            1 S1                 0.0000
     21 ****        -3.0429   0.4390   3.5533 C.3            1 S1                 0.0000
     22 ****        -3.5849   1.4404   4.5679 C.3            1 S1                 0.0000
     23 ****        -1.6563   1.7418   0.1567 C.3            1 S1                 0.0000
     24 ****        -1.3637   1.0660  -1.1941 C.3            1 S1                 0.0000
     25 ****         1.1294  -1.8792  -0.8881 H              1 S1                 0.0000
     26 ****         3.5716  -0.3335  -1.1799 H              1 S1                 0.0000
     27 ****         3.4047  -2.0678  -1.0396 H              1 S1                 0.0000
     28 ****         2.7100  -2.2257  -3.4449 H              1 S1                 0.0000
     29 ****         2.8035  -0.4901  -3.6066 H              1 S1                 0.0000
     30 ****         4.9612   0.6219  -4.0388 H              1 S1                 0.0000
     31 ****         7.3801   0.3326  -4.5953 H              1 S1                 0.0000
     32 ****         8.4483  -1.9117  -4.2916 H              1 S1                 0.0000
     33 ****         7.0009  -3.8371  -3.4147 H              1 S1                 0.0000
     34 ****        -1.9099  -1.4311  -0.5631 H              1 S1                 0.0000
     35 ****        -0.3527  -1.9331   0.0162 H              1 S1                 0.0000
     36 ****        -1.7682  -1.1990   1.8877 H              1 S1                 0.0000
     37 ****        -0.3623  -0.1610   1.7605 H              1 S1                 0.0000
     38 ****        -1.5453   1.8267   2.8578 H              1 S1                 0.0000
     39 ****        -3.1141   3.4768   2.6095 H              1 S1                 0.0000
     40 ****        -4.0852   2.5485   1.4705 H              1 S1                 0.0000
     41 ****        -5.1103   2.9272   3.9460 H              1 S1                 0.0000
     42 ****        -6.1667   0.6922   3.8004 H              1 S1                 0.0000
     43 ****        -5.8217   1.0707   2.1137 H              1 S1                 0.0000
     44 ****        -4.6417  -1.0309   3.7687 H              1 S1                 0.0000
     45 ****        -4.2447  -0.7009   2.0877 H              1 S1                 0.0000
     46 ****        -2.3081  -0.2528   3.9661 H              1 S1                 0.0000
     47 ****        -2.8251   2.1186   4.9607 H              1 S1                 0.0000
     48 ****        -4.1104   0.9718   5.4022 H              1 S1                 0.0000
     49 ****        -2.3743   2.5454  -0.0019 H              1 S1                 0.0000
     50 ****        -0.7462   2.2062   0.5404 H              1 S1                 0.0000
     51 ****        -1.0036   1.8035  -1.9131 H              1 S1                 0.0000
     52 ****        -2.2852   0.6664  -1.6207 H              1 S1                 0.0000
     53 ****        -3.0532   0.4298   0.7956 H              1 S1                 0.0000
     54 ****         4.7727  -3.4326  -2.9404 H              1 S1                 0.0000
     55 ****         2.3433   1.1384  -2.0638 LP             1 S1                 0.0000
     56 ****         0.8310   1.9516  -1.8367 LP             1 S1                 0.0000
@<TRIPOS>BOND
    1    1    2 2     
    2    2    3 am    
    3    2   12 am    
    4    3    4 1     
    5    3   25 1     
    6    4    5 1     
    7    4   26 1     
    8    4   27 1     
    9    5    6 1     
   10    5   28 1     
   11    5   29 1     
   12    6   11 ar    
   13    6    7 ar    
   14    7    8 ar    
   15    7   30 1     
   16    8    9 ar    
   17    8   31 1     
   18    9   10 ar    
   19    9   32 1     
   20   10   11 ar    
   21   10   33 1     
   22   11   54 1     
   23   12   24 1     
   24   12   13 1     
   25   13   14 1     
   26   13   34 1     
   27   13   35 1     
   28   14   15 1     
   29   14   36 1     
   30   14   37 1     
   31   15   16 1     
   32   15   23 1     
   33   15   53 1     
   34   16   21 1     
   35   16   17 1     
   36   16   38 1     
   37   17   18 1     
   38   17   39 1     
   39   17   40 1     
   40   18   22 1     
   41   18   19 1     
   42   18   41 1     
   43   19   20 1     
   44   19   42 1     
   45   19   43 1     
   46   20   21 1     
   47   20   44 1     
   48   20   45 1     
   49   21   22 1     
   50   21   46 1     
   51   22   47 1     
   52   22   48 1     
   53   23   24 1     
   54   23   49 1     
   55   23   50 1     
   56   24   51 1     
   57   24   52 1     
   58    1   55 1     
   59    1   56 1     
@<TRIPOS>SUBSTRUCTURE
      1 S1             1
@<TRIPOS>SET
LONE_PAIRS      STATIC     ATOMS    <user>   **** ""
2 55 56
DONOR_HYDROGENS      STATIC     ATOMS    <user>   **** ""
3 25 54 53
ATOM$BLUE        STATIC     ATOMS    COLORGROUP SYSTEM
2 55 56
ATOM$RED        STATIC     ATOMS    COLORGROUP SYSTEM
3 25 54 53
