AV-unprocessed.smi:2871|AV-procd|sdf|11030|dock2
  -GOLD-   2272015493D 1   1.00000     0.00000
 Structure written by MMmdl.
 38 40  0  0  0  0  0  0  0  0  1 V2000
  151.8712  144.3241  160.7212 C   0  0  0  0  0  0  0  0  0  0  0  0
  152.6392  143.2010  161.2482 N   0  0  0  0  0  0  0  0  0  0  0  0
  152.9829  143.1493  162.6637 C   0  0  0  0  0  0  0  0  0  0  0  0
  152.9602  142.1163  160.4025 C   0  0  0  0  0  0  0  0  0  0  0  0
  154.0057  141.2102  160.7055 C   0  0  0  0  0  0  0  0  0  0  0  0
  154.2323  140.1611  159.7863 C   0  0  0  0  0  0  0  0  0  0  0  0
  155.3224  139.1214  159.9988 C   0  0  0  0  0  0  0  0  0  0  0  0
  155.3308  138.2630  158.9786 F   0  0  0  0  0  0  0  0  0  0  0  0
  156.5283  139.6840  160.0866 F   0  0  0  0  0  0  0  0  0  0  0  0
  155.0874  138.4487  161.1255 F   0  0  0  0  0  0  0  0  0  0  0  0
  153.4842  140.0272  158.6682 N   0  0  0  0  0  0  0  0  0  0  0  0
  152.5244  140.9297  158.4697 C   0  0  0  0  0  0  0  0  0  0  0  0
  151.7763  140.7612  157.3192 N   0  0  0  0  0  0  0  0  0  0  0  0
  151.4546  139.4697  156.7246 C   0  0  2  0  0  0  0  0  0  0  0  0
  152.6937  138.6980  156.2535 C   0  0  0  0  0  0  0  0  0  0  0  0
  152.3638  138.4415  154.7779 C   0  0  1  0  0  0  0  0  0  0  0  0
  151.2083  137.4464  154.6034 C   0  0  0  0  0  0  0  0  0  0  0  0
  150.0035  138.2906  155.0183 C   0  0  0  0  0  0  0  0  0  0  0  0
  150.6673  139.6171  155.4117 C   0  0  2  0  0  0  0  0  0  0  0  0
  151.7141  139.6581  154.4550 O   0  0  0  0  0  0  0  0  0  0  0  0
  152.2305  141.9576  159.2721 N   0  0  0  0  0  0  0  0  0  0  0  0
  152.4106  144.8066  159.9053 H   0  0  0  0  0  0  0  0  0  0  0  0
  151.6862  145.0753  161.4889 H   0  0  0  0  0  0  0  0  0  0  0  0
  150.9054  143.9849  160.3450 H   0  0  0  0  0  0  0  0  0  0  0  0
  154.0629  143.0731  162.7932 H   0  0  0  0  0  0  0  0  0  0  0  0
  152.5112  142.2902  163.1416 H   0  0  0  0  0  0  0  0  0  0  0  0
  152.6487  144.0458  163.1860 H   0  0  0  0  0  0  0  0  0  0  0  0
  154.6103  141.3032  161.5948 H   0  0  0  0  0  0  0  0  0  0  0  0
  151.4953  141.5953  156.8247 H   0  0  0  0  0  0  0  0  0  0  0  0
  150.8745  138.8886  157.4429 H   0  0  0  0  0  0  0  0  0  0  0  0
  153.5993  139.3011  156.3356 H   0  0  0  0  0  0  0  0  0  0  0  0
  152.8512  137.7757  156.8134 H   0  0  0  0  0  0  0  0  0  0  0  0
  153.2360  138.2210  154.1622 H   0  0  0  0  0  0  0  0  0  0  0  0
  151.1161  137.1342  153.5625 H   0  0  0  0  0  0  0  0  0  0  0  0
  151.3344  136.5550  155.2189 H   0  0  0  0  0  0  0  0  0  0  0  0
  149.3285  138.4331  154.1737 H   0  0  0  0  0  0  0  0  0  0  0  0
  149.4360  137.8473  155.8374 H   0  0  0  0  0  0  0  0  0  0  0  0
  149.9882  140.4701  155.3821 H   0  0  0  0  0  0  0  0  0  0  0  0
  1  2  1  0  0  0  0
  1 22  1  0  0  0  0
  1 23  1  0  0  0  0
  1 24  1  0  0  0  0
  2  3  1  0  0  0  0
  2  4  1  0  0  0  0
  3 25  1  0  0  0  0
  3 26  1  0  0  0  0
  3 27  1  0  0  0  0
  4 21  1  0  0  0  0
  4  5  2  0  0  0  0
  5  6  1  0  0  0  0
  5 28  1  0  0  0  0
  6  7  1  0  0  0  0
  6 11  2  0  0  0  0
  7  8  1  0  0  0  0
  7  9  1  0  0  0  0
  7 10  1  0  0  0  0
 11 12  1  0  0  0  0
 12 13  1  0  0  0  0
 12 21  2  0  0  0  0
 13 14  1  0  0  0  0
 13 29  1  0  0  0  0
 14 19  1  0  0  0  0
 14 15  1  0  0  0  0
 14 30  1  0  0  0  0
 15 16  1  0  0  0  0
 15 31  1  0  0  0  0
 15 32  1  0  0  0  0
 16 20  1  0  0  0  0
 16 17  1  0  0  0  0
 16 33  1  0  0  0  0
 17 18  1  0  0  0  0
 17 34  1  0  0  0  0
 17 35  1  0  0  0  0
 18 19  1  0  0  0  0
 18 36  1  0  0  0  0
 18 37  1  0  0  0  0
 19 20  1  0  0  0  0
 19 38  1  0  0  0  0
M  END
> <s_m_source_file>
AV-unprocessed.smi

> <i_m_source_file_index>
2871

> <i_lp_mmshare_version>
43012

> <i_f3d_flags>
0

> <s_epik_input>
W0NIM11OKFtDSDNdKWMxW2NIXWMoQyhGKShGKUYpbmMobjEpW05IXVtDQEhdKFtDSDJdW0NAQEhdMjMpW0NAQEhdKE8zKVtDSDJdW0NIMl0y

> <s_epik_cmdline>
J2VwaWtfcHl0aG9uJywgJy1waCcsICc3LjAnLCAnLXRuJywgJzgnLCAnLW1hJywgJzIwMCcsICctbWV0YWxfYmluZGluZycsICctaW1hZScsICc8aW5maWxlLm1hZT4nLCAnLW9tYWUnLCAnPG91dGZpbGUubWFlPic=

> <r_lp_tautomer_probability>
1

> <r_epik_Ionization_Penalty>
0.00695968

> <r_epik_Ionization_Penalty_Charging>
0

> <r_epik_Ionization_Penalty_Neutral>
0.00695968

> <r_epik_State_Penalty>
0.0050343

> <r_epik_Charging_Adjusted_Penalty>
0.0050343

> <i_epik_Tot_Q>
0

> <i_epik_Tot_abs_Q>
0

> <r_epik_Metal_State_Penalty>
-0

> <b_epik_Metal_Only>
0

> <s_lp_Force_Field>
OPLS_2005

> <r_lp_Energy>
32.5714

> <b_lp_Chiralities_Consistent>
1

> <s_lp_Variant>
AV-unprocessed.smi:2871-1

> <Gold.Version>
5.8.1

> <Gold.Id.Protein>
6NUR|6NUR_protein|mol2

> <Gold.PLP.Fitness>
46.4733

> <Gold.PLP.PLP>
-41.3002

> <Gold.PLP.part.hbond>
-1.9142

> <Gold.PLP.part.metal>
0.0000

> <Gold.PLP.part.buried>
-4.1976

> <Gold.PLP.part.nonpolar>
-35.2681

> <Gold.PLP.part.repulsive>
0.1907

> <Gold.PLP.ligand.clash>
0.0000

> <Gold.PLP.ligand.torsion>
0.4377

> <Gold.PLP.Chemscore.Hbond>
2.0000

> <Gold.PLP.Chemscore.CHOScore>
0.0000

> <Gold.PLP.Chemscore.Metal>
0.0000

> <Gold.Chemscore.Hbonds>
donor molecule, donor type, donor heavy atom, donor atom, acceptor molecule, acceptor atom, score
      P1  H  7989  7998       L1    20  1.00
      P1  H  7997  8010       L1    11  1.00

> <Gold.PLP.Chemscore.Internal.Correction>
0.0484

> <Gold.Rescore>
     Score         DG    S(hbond)    S(metal)    S(lipo)     H(rot)  DE(clash)    DE(int)     intcor
     16.38     -18.12       1.58        0.00      84.81       1.00       0.12       1.62       ----

> <Gold.Chemscore.Fitness>
16.3771

> <Gold.Chemscore.DG>
-18.1200

> <Gold.Chemscore.ZeroCoef>
-5.4800

> <Gold.Chemscore.Hbond>
1.5799

> <Gold.Chemscore.Metal>
0.0000

> <Gold.Chemscore.Lipo>
84.8144

> <Gold.Chemscore.Internal_Hbond>
0.0000

> <Gold.Chemscore.DEClash>
0.1215

> <Gold.Chemscore.DEInternal>
1.6214

> <Gold.Chemscore.Rot>
1.0000

> <Gold.Chemscore.Internal.Correction>
   9.000000E+99

> <Gold.Chemscore.Hbonds>
donor molecule, donor type, donor heavy atom, donor atom, acceptor molecule, acceptor atom, score
      P1  H  7989  7998       L1    20  0.83
      P1  H  7997  8010       L1    11  0.33

> <Gold.Chemscore.Hbond.Weighted>
-5.2767

> <Gold.Chemscore.Metal.Weighted>
-0.0000

> <Gold.Chemscore.Lipo.Weighted>
-9.9233

> <Gold.Chemscore.Internal_Hbond.Weighted>
0.0000

> <Gold.Chemscore.DEClash.Weighted>
0.1215

> <Gold.Chemscore.DEInternal.Weighted>
1.6214

> <Gold.Chemscore.Rot.Weighted>
2.5600

> <Gold.Chemscore.Internal.Correction.Weighted>
   9.000000E+99

> <Gold.Protein.RotatedTorsions>
[ 6907 6896 6895 6894 ] final  153.89 input  -60.11 | X-H torsion
[ 7974 7965 7964 7962 ] final -154.93 input  175.53 | X-H torsion
[ 8008 7997 7996 7995 ] final   19.11 input   59.86 | X-H torsion
[ 10167 10162 10161 10158 ] final  171.55 input  -65.29 | X-H torsion
[ 10718 10713 10712 10709 ] final   22.03 input   66.30 | X-H torsion
[ 10763 10752 10751 10750 ] final -169.77 input  -60.55 | X-H torsion
[ 11005 11000 10999 10996 ] final -115.87 input  -57.11 | X-H torsion

> <Gold.Protein.ActiveResidues>
 VAL166  LYS551  ARG553  GLY616  TRP617  ASP618  TYR619  PRO620  LYS621  CYS622 
 ASP623  PHE694  ASN695  SER759  ASP760  ASP761  ALA762  ILE779  LEU786  VAL792 
 PHE793  MET794  SER795  GLU796  ALA797  LYS798  CYS799  TRP800  GLU811  SER814 

> <Gold.Protein.RotatedAtoms>
  152.0663  133.4085  159.4439 H   0  0  0  0  0  0  0  0  0  0  0  0  # atno 6907 bound_to 6896
  150.6864  134.3143  159.4769 H   0  0  0  0  0  0  0  0  0  0  0  0  # atno 6908 bound_to 6896
  152.0970  134.9368  160.0621 H   0  0  0  0  0  0  0  0  0  0  0  0  # atno 6909 bound_to 6896
  144.7665  140.4320  143.5938 H   0  0  0  0  0  0  0  0  0  0  0  0  # atno 7974 bound_to 7965
  154.9159  140.3020  155.5241 H   0  0  0  0  0  0  0  0  0  0  0  0  # atno 8008 bound_to 7997
  156.3012  140.2380  156.4140 H   0  0  0  0  0  0  0  0  0  0  0  0  # atno 8009 bound_to 7997
  154.8378  140.0415  157.1510 H   0  0  0  0  0  0  0  0  0  0  0  0  # atno 8010 bound_to 7997
  139.5050  144.3473  151.9958 H   0  0  0  0  0  0  0  0  0  0  0  0  # atno 10167 bound_to 10162
  157.1467  130.6656  149.5998 H   0  0  0  0  0  0  0  0  0  0  0  0  # atno 10718 bound_to 10713
  154.6487  135.2908  155.0014 H   0  0  0  0  0  0  0  0  0  0  0  0  # atno 10763 bound_to 10752
  154.1114  135.6562  153.4890 H   0  0  0  0  0  0  0  0  0  0  0  0  # atno 10764 bound_to 10752
  153.0365  135.5266  154.7386 H   0  0  0  0  0  0  0  0  0  0  0  0  # atno 10765 bound_to 10752
  141.0459  133.9763  157.2918 H   0  0  0  0  0  0  0  0  0  0  0  0  # atno 11005 bound_to 11000
  145.6454  139.1556  143.2892 LP  0  0  0  0  0  0  0  0  0  0  0  0  # atno 17320 bound_to 7965
  146.1776  140.6548  142.9204 LP  0  0  0  0  0  0  0  0  0  0  0  0  # atno 17321 bound_to 7965
  140.2910  144.3753  150.6088 LP  0  0  0  0  0  0  0  0  0  0  0  0  # atno 17342 bound_to 10162
  140.5946  143.2167  151.7188 LP  0  0  0  0  0  0  0  0  0  0  0  0  # atno 17343 bound_to 10162
  155.9778  130.4759  150.6617 LP  0  0  0  0  0  0  0  0  0  0  0  0  # atno 17370 bound_to 10713
  157.4258  131.0843  151.1087 LP  0  0  0  0  0  0  0  0  0  0  0  0  # atno 17371 bound_to 10713
  139.9311  135.0200  156.8404 LP  0  0  0  0  0  0  0  0  0  0  0  0  # atno 17394 bound_to 11000
  140.6147  134.0049  155.7592 LP  0  0  0  0  0  0  0  0  0  0  0  0  # atno 17395 bound_to 11000

$$$$
