AV-unprocessed.smi:470|AV-procd|sdf|2655|dock6
  -GOLD-   2262023 63D 1   1.00000     0.00000
 Structure written by MMmdl.
 33 34  0  0  0  0  0  0  0  0  1 V2000
  153.7926  136.1640  164.8573 N   0  0  0  0  0  0  0  0  0  0  0  0
  154.0063  134.9774  164.2820 C   0  0  0  0  0  0  0  0  0  0  0  0
  153.4850  133.9432  164.6938 O   0  0  0  0  0  0  0  0  0  0  0  0
  154.9421  134.9457  163.0723 C   0  0  0  0  0  0  0  0  0  0  0  0
  154.4482  135.8816  162.0082 C   0  0  0  0  0  0  0  0  0  0  0  0
  154.0432  135.5500  160.7379 C   0  0  0  0  0  0  0  0  0  0  0  0
  153.5306  136.9470  159.8293 S   0  0  0  0  0  0  0  0  0  0  0  0
  153.9244  137.9483  161.2178 C   0  0  0  0  0  0  0  0  0  0  0  0
  153.6945  139.3495  161.2225 N   0  0  0  0  0  0  0  0  0  0  0  0
  153.9096  140.2763  160.2661 C   0  0  0  0  0  0  0  0  0  0  0  0
  154.3934  139.9335  159.1884 O   0  0  0  0  0  0  0  0  0  0  0  0
  153.5791  141.7660  160.4958 C   0  0  1  0  0  0  0  0  0  0  0  0
  152.5659  142.3059  159.4567 C   0  0  0  0  0  0  0  0  0  0  0  0
  152.0781  143.6998  159.8113 C   0  0  0  0  0  0  0  0  0  0  0  0
  152.2149  144.2400  161.0347 C   0  0  0  0  0  0  0  0  0  0  0  0
  152.8672  143.5154  162.1992 C   0  0  0  0  0  0  0  0  0  0  0  0
  153.0444  142.0109  161.9219 C   0  0  0  0  0  0  0  0  0  0  0  0
  154.3655  137.2526  162.2704 N   0  0  0  0  0  0  0  0  0  0  0  0
  153.1752  136.2311  165.6533 H   0  0  0  0  0  0  0  0  0  0  0  0
  154.2419  136.9904  164.4899 H   0  0  0  0  0  0  0  0  0  0  0  0
  155.9527  135.2112  163.3867 H   0  0  0  0  0  0  0  0  0  0  0  0
  154.9984  133.9262  162.6893 H   0  0  0  0  0  0  0  0  0  0  0  0
  154.0061  134.5691  160.2877 H   0  0  0  0  0  0  0  0  0  0  0  0
  153.3293  139.7123  162.0911 H   0  0  0  0  0  0  0  0  0  0  0  0
  154.4827  142.3563  160.3511 H   0  0  0  0  0  0  0  0  0  0  0  0
  153.0297  142.3392  158.4704 H   0  0  0  0  0  0  0  0  0  0  0  0
  151.6885  141.6632  159.3745 H   0  0  0  0  0  0  0  0  0  0  0  0
  151.5884  144.2593  159.0278 H   0  0  0  0  0  0  0  0  0  0  0  0
  151.8584  145.2423  161.2220 H   0  0  0  0  0  0  0  0  0  0  0  0
  153.8365  143.9792  162.3854 H   0  0  0  0  0  0  0  0  0  0  0  0
  152.2665  143.6603  163.0973 H   0  0  0  0  0  0  0  0  0  0  0  0
  152.0826  141.5083  162.0375 H   0  0  0  0  0  0  0  0  0  0  0  0
  153.7047  141.5764  162.6733 H   0  0  0  0  0  0  0  0  0  0  0  0
  1  2  1  0  0  0  0
  1 19  1  0  0  0  0
  1 20  1  0  0  0  0
  2  3  2  0  0  0  0
  2  4  1  0  0  0  0
  4  5  1  0  0  0  0
  4 21  1  0  0  0  0
  4 22  1  0  0  0  0
  5 18  1  0  0  0  0
  5  6  2  0  0  0  0
  6  7  1  0  0  0  0
  6 23  1  0  0  0  0
  7  8  1  0  0  0  0
  8  9  1  0  0  0  0
  8 18  2  0  0  0  0
  9 10  1  0  0  0  0
  9 24  1  0  0  0  0
 10 11  2  0  0  0  0
 10 12  1  0  0  0  0
 12 17  1  0  0  0  0
 12 13  1  0  0  0  0
 12 25  1  0  0  0  0
 13 14  1  0  0  0  0
 13 26  1  0  0  0  0
 13 27  1  0  0  0  0
 14 15  2  0  0  0  0
 14 28  1  0  0  0  0
 15 16  1  0  0  0  0
 15 29  1  0  0  0  0
 16 17  1  0  0  0  0
 16 30  1  0  0  0  0
 16 31  1  0  0  0  0
 17 32  1  0  0  0  0
 17 33  1  0  0  0  0
M  END
> <s_m_source_file>
AV-unprocessed.smi

> <i_m_source_file_index>
470

> <i_lp_mmshare_version>
43012

> <i_f3d_flags>
0

> <s_epik_input>
W05IMl1DKD1PKVtDSDJdYzFbY0hdc2MobjEpW05IXUMoPU8pW0NAQEhdMltDSDJdW0NIXT1bQ0hdW0NIMl1bQ0gyXTI=

> <s_epik_cmdline>
J2VwaWtfcHl0aG9uJywgJy1waCcsICc3LjAnLCAnLXRuJywgJzgnLCAnLW1hJywgJzIwMCcsICctbWV0YWxfYmluZGluZycsICctaW1hZScsICc8aW5maWxlLm1hZT4nLCAnLW9tYWUnLCAnPG91dGZpbGUubWFlPic=

> <r_lp_tautomer_probability>
1

> <r_epik_Ionization_Penalty>
0.00025496

> <r_epik_Ionization_Penalty_Charging>
0

> <r_epik_Ionization_Penalty_Neutral>
0.00025496

> <r_epik_State_Penalty>
-0

> <r_epik_Charging_Adjusted_Penalty>
0

> <i_epik_Tot_Q>
0

> <i_epik_Tot_abs_Q>
0

> <r_epik_Metal_State_Penalty>
0.149391

> <b_epik_Metal_Only>
0

> <s_lp_Force_Field>
OPLS_2005

> <r_lp_Energy>
12.0987

> <b_lp_Chiralities_Consistent>
1

> <s_lp_Variant>
AV-unprocessed.smi:470-2

> <Gold.Version>
5.8.1

> <Gold.Id.Protein>
6NUR|6NUR_protein|mol2

> <Gold.PLP.Fitness>
40.6724

> <Gold.PLP.PLP>
-38.3462

> <Gold.PLP.part.hbond>
-2.0000

> <Gold.PLP.part.metal>
0.0000

> <Gold.PLP.part.buried>
-5.3899

> <Gold.PLP.part.nonpolar>
-30.2816

> <Gold.PLP.part.repulsive>
0.2482

> <Gold.PLP.ligand.clash>
0.0000

> <Gold.PLP.ligand.torsion>
0.3347

> <Gold.PLP.Chemscore.Hbond>
0.9920

> <Gold.PLP.Chemscore.CHOScore>
0.0000

> <Gold.PLP.Chemscore.Metal>
0.0000

> <Gold.Chemscore.Hbonds>
donor molecule, donor type, donor heavy atom, donor atom, acceptor molecule, acceptor atom, score
      P1  H  7997  8010       L1    11  1.00

> <Gold.PLP.Chemscore.Internal.Correction>
0.0196

> <Gold.Rescore>
     Score         DG    S(hbond)    S(metal)    S(lipo)     H(rot)  DE(clash)    DE(int)     intcor
     12.08     -13.67       0.95        0.00      84.48       1.90       0.15       1.45       ----

> <Gold.Chemscore.Fitness>
12.0777

> <Gold.Chemscore.DG>
-13.6739

> <Gold.Chemscore.ZeroCoef>
-5.4800

> <Gold.Chemscore.Hbond>
0.9478

> <Gold.Chemscore.Metal>
0.0000

> <Gold.Chemscore.Lipo>
84.4798

> <Gold.Chemscore.Internal_Hbond>
0.0000

> <Gold.Chemscore.DEClash>
0.1508

> <Gold.Chemscore.DEInternal>
1.4453

> <Gold.Chemscore.Rot>
1.8968

> <Gold.Chemscore.Internal.Correction>
   9.000000E+99

> <Gold.Chemscore.Hbonds>
donor molecule, donor type, donor heavy atom, donor atom, acceptor molecule, acceptor atom, score
      P1  H  7997  8010       L1    11  0.94

> <Gold.Chemscore.Hbond.Weighted>
-3.1655

> <Gold.Chemscore.Metal.Weighted>
-0.0000

> <Gold.Chemscore.Lipo.Weighted>
-9.8841

> <Gold.Chemscore.Internal_Hbond.Weighted>
0.0000

> <Gold.Chemscore.DEClash.Weighted>
0.1508

> <Gold.Chemscore.DEInternal.Weighted>
1.4453

> <Gold.Chemscore.Rot.Weighted>
4.8558

> <Gold.Chemscore.Internal.Correction.Weighted>
   9.000000E+99

> <Gold.Protein.RotatedTorsions>
[ 6907 6896 6895 6894 ] final  -74.11 input  -60.11 | X-H torsion
[ 7974 7965 7964 7962 ] final -176.88 input  175.53 | X-H torsion
[ 8008 7997 7996 7995 ] final   -0.98 input   59.86 | X-H torsion
[ 10167 10162 10161 10158 ] final  -67.10 input  -65.29 | X-H torsion
[ 10718 10713 10712 10709 ] final -124.26 input   66.30 | X-H torsion
[ 10763 10752 10751 10750 ] final  -88.53 input  -60.55 | X-H torsion
[ 11005 11000 10999 10996 ] final  -20.19 input  -57.11 | X-H torsion

> <Gold.Protein.ActiveResidues>
 VAL166  LYS551  ARG553  GLY616  TRP617  ASP618  TYR619  PRO620  LYS621  CYS622 
 ASP623  PHE694  ASN695  SER759  ASP760  ASP761  ALA762  ILE779  LEU786  VAL792 
 PHE793  MET794  SER795  GLU796  ALA797  LYS798  CYS799  TRP800  GLU811  SER814 

> <Gold.Protein.RotatedAtoms>
  150.7105  134.4918  159.5518 H   0  0  0  0  0  0  0  0  0  0  0  0  # atno 6907 bound_to 6896
  152.2534  134.8106  160.0451 H   0  0  0  0  0  0  0  0  0  0  0  0  # atno 6908 bound_to 6896
  151.8846  133.3467  159.3814 H   0  0  0  0  0  0  0  0  0  0  0  0  # atno 6909 bound_to 6896
  144.7127  140.1104  143.6411 H   0  0  0  0  0  0  0  0  0  0  0  0  # atno 7974 bound_to 7965
  154.6519  140.2571  155.7204 H   0  0  0  0  0  0  0  0  0  0  0  0  # atno 8008 bound_to 7997
  156.2579  140.2866  156.0878 H   0  0  0  0  0  0  0  0  0  0  0  0  # atno 8009 bound_to 7997
  155.1438  140.0381  157.2795 H   0  0  0  0  0  0  0  0  0  0  0  0  # atno 8010 bound_to 7997
  140.5608  143.2313  151.6732 H   0  0  0  0  0  0  0  0  0  0  0  0  # atno 10167 bound_to 10162
  156.1572  130.6576  150.9999 H   0  0  0  0  0  0  0  0  0  0  0  0  # atno 10718 bound_to 10713
  154.6455  135.5374  153.7840 H   0  0  0  0  0  0  0  0  0  0  0  0  # atno 10763 bound_to 10752
  153.0357  135.6470  154.1095 H   0  0  0  0  0  0  0  0  0  0  0  0  # atno 10764 bound_to 10752
  154.1016  135.2933  155.3230 H   0  0  0  0  0  0  0  0  0  0  0  0  # atno 10765 bound_to 10752
  140.8440  133.7905  155.9892 H   0  0  0  0  0  0  0  0  0  0  0  0  # atno 11005 bound_to 11000
  145.9460  139.2701  143.1240 LP  0  0  0  0  0  0  0  0  0  0  0  0  # atno 17320 bound_to 7965
  145.9374  140.9005  143.0325 LP  0  0  0  0  0  0  0  0  0  0  0  0  # atno 17321 bound_to 7965
  139.5069  144.3665  152.0511 LP  0  0  0  0  0  0  0  0  0  0  0  0  # atno 17342 bound_to 10162
  140.2792  144.3879  150.6125 LP  0  0  0  0  0  0  0  0  0  0  0  0  # atno 17343 bound_to 10162
  157.6704  131.0862  150.7625 LP  0  0  0  0  0  0  0  0  0  0  0  0  # atno 17370 bound_to 10713
  156.7690  130.4822  149.5422 LP  0  0  0  0  0  0  0  0  0  0  0  0  # atno 17371 bound_to 10713
  140.8864  134.2549  157.5118 LP  0  0  0  0  0  0  0  0  0  0  0  0  # atno 17394 bound_to 11000
  139.8703  134.9640  156.4480 LP  0  0  0  0  0  0  0  0  0  0  0  0  # atno 17395 bound_to 11000

$$$$
