#       Name:                AV-unprocessed.smi:796
#       Creating user name   scv26
#       Creation time:       Fri Mar 27 01:20:00 2020


#       File generated by GOLD software.
#

@<TRIPOS>MOLECULE
AV-unprocessed.smi:796
    54    55     1
SMALL
NO_CHARGES


@<TRIPOS>ATOM
      1 ****        -4.1244   1.2897   3.0641 C.3            1 S1                 0.0000
      2 ****        -4.7177   0.3727   1.9794 C.3            1 S1                 0.0000
      3 ****        -4.0800  -1.0410   1.8589 C.3            1 S1                 0.0000
      4 ****        -4.3795  -1.8505   3.1395 C.3            1 S1                 0.0000
      5 ****        -4.7001  -1.7696   0.6356 C.3            1 S1                 0.0000
      6 ****        -4.1566  -3.0622   0.4470 O.3            1 S1                 0.0000
      7 ****        -2.6178  -0.9527   1.7252 N.am           1 S1                 0.0000
      8 ****        -1.9015  -0.3641   0.7528 C.2            1 S1                 0.0000
      9 ****        -2.3965   0.2480  -0.1928 O.2            1 S1                 0.0000
     10 ****        -0.5845  -0.5197   0.9696 N.am           1 S1                 0.0000
     11 ****         0.5057  -0.1118   0.1541 C.ar           1 S1                 0.0000
     12 ****         0.4041   0.2015  -1.2211 C.ar           1 S1                 0.0000
     13 ****         1.5668   0.5700  -1.9246 C.ar           1 S1                 0.0000
     14 ****         2.8069   0.6081  -1.2445 C.ar           1 S1                 0.0000
     15 ****         3.9858   0.9663  -1.9347 N.3            1 S1                 0.0000
     16 ****         4.2506   0.2194  -3.1622 C.3            1 S1                 0.0000
     17 ****         5.3722   0.8946  -3.9701 C.3            1 S1                 0.0000
     18 ****         6.5301   1.0472  -3.1561 O.3            1 S1                 0.0000
     19 ****         6.2761   1.8726  -2.0243 C.3            1 S1                 0.0000
     20 ****         5.1895   1.2278  -1.1470 C.3            1 S1                 0.0000
     21 ****         2.8999   0.3045   0.0735 N.ar           1 S1                 0.0000
     22 ****         1.7836  -0.0490   0.7438 C.ar           1 S1                 0.0000
     23 ****        -4.6200   2.2605   3.0530 H              1 S1                 0.0000
     24 ****        -3.0608   1.4686   2.9079 H              1 S1                 0.0000
     25 ****        -4.2533   0.8740   4.0629 H              1 S1                 0.0000
     26 ****        -5.7876   0.2679   2.1630 H              1 S1                 0.0000
     27 ****        -4.6454   0.8919   1.0233 H              1 S1                 0.0000
     28 ****        -5.4529  -1.9365   3.3120 H              1 S1                 0.0000
     29 ****        -3.9393  -1.3910   4.0242 H              1 S1                 0.0000
     30 ****        -3.9773  -2.8624   3.0808 H              1 S1                 0.0000
     31 ****        -5.7777  -1.8732   0.7672 H              1 S1                 0.0000
     32 ****        -4.5614  -1.1997  -0.2831 H              1 S1                 0.0000
     33 ****        -4.5585  -3.4482  -0.3162 H              1 S1                 0.0000
     34 ****        -2.0930  -1.4188   2.4504 H              1 S1                 0.0000
     35 ****        -0.3292  -0.9659   1.8384 H              1 S1                 0.0000
     36 ****        -0.5323   0.1556  -1.7546 H              1 S1                 0.0000
     37 ****         1.4906   0.8256  -2.9708 H              1 S1                 0.0000
     38 ****         4.5421  -0.7978  -2.8981 H              1 S1                 0.0000
     39 ****         3.3632   0.1415  -3.7884 H              1 S1                 0.0000
     40 ****         5.6274   0.2859  -4.8376 H              1 S1                 0.0000
     41 ****         5.0484   1.8661  -4.3471 H              1 S1                 0.0000
     42 ****         7.1985   1.9878  -1.4548 H              1 S1                 0.0000
     43 ****         5.9742   2.8703  -2.3474 H              1 S1                 0.0000
     44 ****         4.9585   1.8914  -0.3127 H              1 S1                 0.0000
     45 ****         5.5568   0.2905  -0.7270 H              1 S1                 0.0000
     46 ****         1.9175  -0.2880   1.7888 H              1 S1                 0.0000
     47 ****        -4.3451  -3.6277   1.2499 LP             1 S1                 0.0000
     48 ****        -3.1682  -2.9958   0.3106 LP             1 S1                 0.0000
     49 ****        -3.3902   0.3299  -0.2702 LP             1 S1                 0.0000
     50 ****        -1.8052   0.6636  -0.8839 LP             1 S1                 0.0000
     51 ****         3.7198   1.8845  -2.2282 LP             1 S1                 0.0000
     52 ****         7.2575   1.4623  -3.7026 LP             1 S1                 0.0000
     53 ****         6.8242   0.1455  -2.8395 LP             1 S1                 0.0000
     54 ****         3.7826   0.3420   0.5419 LP             1 S1                 0.0000
@<TRIPOS>BOND
    1    1    2 1     
    2    1   23 1     
    3    1   24 1     
    4    1   25 1     
    5    2    3 1     
    6    2   26 1     
    7    2   27 1     
    8    3    4 1     
    9    3    5 1     
   10    3    7 1     
   11    4   28 1     
   12    4   29 1     
   13    4   30 1     
   14    5    6 1     
   15    5   31 1     
   16    5   32 1     
   17    6   33 1     
   18    7    8 am    
   19    7   34 1     
   20    8    9 2     
   21    8   10 am    
   22   10   11 1     
   23   10   35 1     
   24   11   22 ar    
   25   11   12 ar    
   26   12   13 ar    
   27   12   36 1     
   28   13   14 ar    
   29   13   37 1     
   30   14   15 1     
   31   14   21 ar    
   32   15   20 1     
   33   15   16 1     
   34   16   17 1     
   35   16   38 1     
   36   16   39 1     
   37   17   18 1     
   38   17   40 1     
   39   17   41 1     
   40   18   19 1     
   41   19   20 1     
   42   19   42 1     
   43   19   43 1     
   44   20   44 1     
   45   20   45 1     
   46   21   22 ar    
   47   22   46 1     
   48    6   47 1     
   49    6   48 1     
   50    9   49 1     
   51    9   50 1     
   52   15   51 1     
   53   18   52 1     
   54   18   53 1     
   55   21   54 1     
@<TRIPOS>SUBSTRUCTURE
      1 S1             1
@<TRIPOS>SET
LONE_PAIRS      STATIC     ATOMS    <user>   **** ""
8 47 48 49 50 51 52 53 54
DONOR_HYDROGENS      STATIC     ATOMS    <user>   **** ""
3 33 34 35
ATOM$BLUE        STATIC     ATOMS    COLORGROUP SYSTEM
8 47 48 49 50 51 52 53 54
ATOM$RED        STATIC     ATOMS    COLORGROUP SYSTEM
3 33 34 35
