AV-unprocessed.smi:230|AV-procd|sdf|1764|dock1
  -GOLD-   2262020293D 1   1.00000     0.00000
 Structure written by MMmdl.
 56 59  0  0  0  0  0  0  0  0  1 V2000
  147.1201  142.2081  154.0903 C   0  0  0  0  0  0  0  0  0  0  0  0
  147.2825  140.8605  154.8072 C   0  0  0  0  0  0  0  0  0  0  0  0
  148.6629  140.1850  154.5894 C   0  0  1  0  0  0  0  0  0  0  0  0
  149.8131  141.1302  155.0051 C   0  0  0  0  0  0  0  0  0  0  0  0
  151.0834  140.4987  154.8616 O   0  0  0  0  0  0  0  0  0  0  0  0
  151.2441  139.2769  155.5848 C   0  0  0  0  0  0  0  0  0  0  0  0
  152.6070  138.7175  155.1485 C   0  0  0  0  0  0  0  0  0  0  0  0
  151.2563  139.5208  157.1092 C   0  0  0  0  0  0  0  0  0  0  0  0
  150.1208  138.3101  155.1612 C   0  0  0  0  0  0  0  0  0  0  0  0
  148.8054  138.9220  155.3237 N   0  0  0  0  0  0  0  0  0  0  0  0
  147.8011  138.0322  155.1523 C   0  0  0  0  0  0  0  0  0  0  0  0
  147.4929  137.1493  156.1388 N   0  0  0  0  0  0  0  0  0  0  0  0
  146.5209  136.2515  155.9488 C   0  0  0  0  0  0  0  0  0  0  0  0
  145.7581  136.0617  154.8692 N   0  0  0  0  0  0  0  0  0  0  0  0
  146.0722  136.9453  153.8781 C   0  0  0  0  0  0  0  0  0  0  0  0
  147.0674  137.9591  153.9399 C   0  0  0  0  0  0  0  0  0  0  0  0
  147.1068  138.6664  152.7456 N   0  0  0  0  0  0  0  0  0  0  0  0
  146.1900  138.0954  152.0124 C   0  0  0  0  0  0  0  0  0  0  0  0
  145.5284  137.0455  152.6096 N   0  0  0  0  0  0  0  0  0  0  0  0
  144.4837  136.2248  152.0169 C   0  0  0  0  0  0  0  0  0  0  0  0
  144.8711  134.7318  151.8726 C   0  0  0  0  0  0  0  0  0  0  0  0
  145.0597  134.2094  153.1768 O   0  0  0  0  0  0  0  0  0  0  0  0
  143.7801  133.8977  151.1653 C   0  0  0  0  0  0  0  0  0  0  0  0
  144.2575  132.4698  150.8456 C   0  0  0  0  0  0  0  0  0  0  0  0
  145.4588  132.5123  150.0851 O   0  0  0  0  0  0  0  0  0  0  0  0
  146.5343  133.1215  150.7892 C   0  0  0  0  0  0  0  0  0  0  0  0
  146.1959  134.5912  151.0965 C   0  0  0  0  0  0  0  0  0  0  0  0
  146.1010  142.5794  154.1997 H   0  0  0  0  0  0  0  0  0  0  0  0
  147.3234  142.1120  153.0234 H   0  0  0  0  0  0  0  0  0  0  0  0
  147.7857  142.9693  154.4962 H   0  0  0  0  0  0  0  0  0  0  0  0
  147.0984  140.9908  155.8743 H   0  0  0  0  0  0  0  0  0  0  0  0
  146.4841  140.2158  154.4398 H   0  0  0  0  0  0  0  0  0  0  0  0
  148.7725  139.9595  153.5274 H   0  0  0  0  0  0  0  0  0  0  0  0
  149.8248  142.0172  154.3730 H   0  0  0  0  0  0  0  0  0  0  0  0
  149.6780  141.4857  156.0266 H   0  0  0  0  0  0  0  0  0  0  0  0
  152.8153  137.7598  155.6266 H   0  0  0  0  0  0  0  0  0  0  0  0
  153.4158  139.4011  155.4086 H   0  0  0  0  0  0  0  0  0  0  0  0
  152.6435  138.5635  154.0694 H   0  0  0  0  0  0  0  0  0  0  0  0
  151.4873  138.6014  157.6476 H   0  0  0  0  0  0  0  0  0  0  0  0
  150.2956  139.8725  157.4836 H   0  0  0  0  0  0  0  0  0  0  0  0
  152.0087  140.2609  157.3830 H   0  0  0  0  0  0  0  0  0  0  0  0
  150.2561  138.0319  154.1146 H   0  0  0  0  0  0  0  0  0  0  0  0
  150.1795  137.3894  155.7443 H   0  0  0  0  0  0  0  0  0  0  0  0
  146.3313  135.5858  156.7780 H   0  0  0  0  0  0  0  0  0  0  0  0
  145.9770  138.4179  151.0035 H   0  0  0  0  0  0  0  0  0  0  0  0
  143.5886  136.3212  152.6325 H   0  0  0  0  0  0  0  0  0  0  0  0
  144.2288  136.6473  151.0438 H   0  0  0  0  0  0  0  0  0  0  0  0
  144.6796  133.3447  153.2112 H   0  0  0  0  0  0  0  0  0  0  0  0
  142.8713  133.8521  151.7667 H   0  0  0  0  0  0  0  0  0  0  0  0
  143.5045  134.3875  150.2302 H   0  0  0  0  0  0  0  0  0  0  0  0
  144.4116  131.8927  151.7587 H   0  0  0  0  0  0  0  0  0  0  0  0
  143.4962  131.9454  150.2676 H   0  0  0  0  0  0  0  0  0  0  0  0
  146.7479  132.5655  151.7035 H   0  0  0  0  0  0  0  0  0  0  0  0
  147.4315  133.0682  150.1723 H   0  0  0  0  0  0  0  0  0  0  0  0
  146.1177  135.1301  150.1513 H   0  0  0  0  0  0  0  0  0  0  0  0
  147.0143  135.0576  151.6463 H   0  0  0  0  0  0  0  0  0  0  0  0
  1  2  1  0  0  0  0
  1 28  1  0  0  0  0
  1 29  1  0  0  0  0
  1 30  1  0  0  0  0
  2  3  1  0  0  0  0
  2 31  1  0  0  0  0
  2 32  1  0  0  0  0
  3 10  1  0  0  0  0
  3  4  1  0  0  0  0
  3 33  1  0  0  0  0
  4  5  1  0  0  0  0
  4 34  1  0  0  0  0
  4 35  1  0  0  0  0
  5  6  1  0  0  0  0
  6  7  1  0  0  0  0
  6  8  1  0  0  0  0
  6  9  1  0  0  0  0
  7 36  1  0  0  0  0
  7 37  1  0  0  0  0
  7 38  1  0  0  0  0
  8 39  1  0  0  0  0
  8 40  1  0  0  0  0
  8 41  1  0  0  0  0
  9 10  1  0  0  0  0
  9 42  1  0  0  0  0
  9 43  1  0  0  0  0
 10 11  1  0  0  0  0
 11 16  1  0  0  0  0
 11 12  2  0  0  0  0
 12 13  1  0  0  0  0
 13 14  2  0  0  0  0
 13 44  1  0  0  0  0
 14 15  1  0  0  0  0
 15 19  1  0  0  0  0
 15 16  2  0  0  0  0
 16 17  1  0  0  0  0
 17 18  2  0  0  0  0
 18 19  1  0  0  0  0
 18 45  1  0  0  0  0
 19 20  1  0  0  0  0
 20 21  1  0  0  0  0
 20 46  1  0  0  0  0
 20 47  1  0  0  0  0
 21 27  1  0  0  0  0
 21 22  1  0  0  0  0
 21 23  1  0  0  0  0
 22 48  1  0  0  0  0
 23 24  1  0  0  0  0
 23 49  1  0  0  0  0
 23 50  1  0  0  0  0
 24 25  1  0  0  0  0
 24 51  1  0  0  0  0
 24 52  1  0  0  0  0
 25 26  1  0  0  0  0
 26 27  1  0  0  0  0
 26 53  1  0  0  0  0
 26 54  1  0  0  0  0
 27 55  1  0  0  0  0
 27 56  1  0  0  0  0
M  END
> <s_m_source_file>
AV-unprocessed.smi

> <i_m_source_file_index>
230

> <i_lp_mmshare_version>
43012

> <i_f3d_flags>
0

> <s_epik_input>
W0NIM11DMShbQ0gzXSlPW0NIMl1bQ0BASF0oW0NIMl1bQ0gzXSlOKFtDSDJdMSljKG5bY0hdbjIpYyhjMjMpbltjSF1uM1tDSDJdQzQoW09IXSlbQ0gyXVtDSDJdT1tDSDJdW0NIMl00

> <s_epik_cmdline>
J2VwaWtfcHl0aG9uJywgJy1waCcsICc3LjAnLCAnLXRuJywgJzgnLCAnLW1hJywgJzIwMCcsICctbWV0YWxfYmluZGluZycsICctaW1hZScsICc8aW5maWxlLm1hZT4nLCAnLW9tYWUnLCAnPG91dGZpbGUubWFlPic=

> <r_lp_tautomer_probability>
1

> <r_epik_Ionization_Penalty>
0.000120535

> <r_epik_Ionization_Penalty_Charging>
0

> <r_epik_Ionization_Penalty_Neutral>
0.000120535

> <r_epik_State_Penalty>
-0

> <r_epik_Charging_Adjusted_Penalty>
0

> <i_epik_Tot_Q>
0

> <i_epik_Tot_abs_Q>
0

> <r_epik_Metal_State_Penalty>
-0

> <b_epik_Metal_Only>
0

> <s_lp_Force_Field>
OPLS_2005

> <r_lp_Energy>
34.4524

> <b_lp_Chiralities_Consistent>
1

> <s_lp_Variant>
AV-unprocessed.smi:230-2

> <Gold.Version>
5.8.1

> <Gold.Id.Protein>
6NUR|6NUR_protein|mol2

> <Gold.PLP.Fitness>
42.5839

> <Gold.PLP.PLP>
-37.6652

> <Gold.PLP.part.hbond>
-0.7872

> <Gold.PLP.part.metal>
0.0000

> <Gold.PLP.part.buried>
-4.5377

> <Gold.PLP.part.nonpolar>
-32.9702

> <Gold.PLP.part.repulsive>
0.6087

> <Gold.PLP.ligand.clash>
0.0000

> <Gold.PLP.ligand.torsion>
0.6507

> <Gold.PLP.Chemscore.Hbond>
1.0000

> <Gold.PLP.Chemscore.CHOScore>
1.0000

> <Gold.PLP.Chemscore.Metal>
0.0000

> <Gold.Chemscore.Hbonds>
donor molecule, donor type, donor heavy atom, donor atom, acceptor molecule, acceptor atom, score
      P1  H  7989  7998       L1     5  0.96
      L1  C    18    45       P1 10171  1.00

> <Gold.PLP.Chemscore.Internal.Correction>
0.2201

> <Gold.Rescore>
     Score         DG    S(hbond)    S(metal)    S(lipo)     H(rot)  DE(clash)    DE(int)     intcor
     10.50     -12.81       0.85        0.00      86.90       2.21       0.32       1.99       ----

> <Gold.Chemscore.Fitness>
10.5022

> <Gold.Chemscore.DG>
-12.8145

> <Gold.Chemscore.ZeroCoef>
-5.4800

> <Gold.Chemscore.Hbond>
0.8464

> <Gold.Chemscore.Metal>
0.0000

> <Gold.Chemscore.Lipo>
86.8974

> <Gold.Chemscore.Internal_Hbond>
0.0000

> <Gold.Chemscore.DEClash>
0.3236

> <Gold.Chemscore.DEInternal>
1.9887

> <Gold.Chemscore.Rot>
2.2107

> <Gold.Chemscore.Internal.Correction>
   9.000000E+99

> <Gold.Chemscore.Hbonds>
donor molecule, donor type, donor heavy atom, donor atom, acceptor molecule, acceptor atom, score
      P1  H  7989  7998       L1     5  0.56

> <Gold.Chemscore.Hbond.Weighted>
-2.8270

> <Gold.Chemscore.Metal.Weighted>
-0.0000

> <Gold.Chemscore.Lipo.Weighted>
-10.1670

> <Gold.Chemscore.Internal_Hbond.Weighted>
0.0000

> <Gold.Chemscore.DEClash.Weighted>
0.3236

> <Gold.Chemscore.DEInternal.Weighted>
1.9887

> <Gold.Chemscore.Rot.Weighted>
5.6595

> <Gold.Chemscore.Internal.Correction.Weighted>
   9.000000E+99

> <Gold.Protein.RotatedTorsions>
[ 6907 6896 6895 6894 ] final   80.92 input  -60.11 | X-H torsion
[ 7974 7965 7964 7962 ] final -161.81 input  175.53 | X-H torsion
[ 8008 7997 7996 7995 ] final    9.54 input   59.86 | X-H torsion
[ 10167 10162 10161 10158 ] final  163.28 input  -65.29 | X-H torsion
[ 10718 10713 10712 10709 ] final -129.04 input   66.30 | X-H torsion
[ 10763 10752 10751 10750 ] final -147.48 input  -60.55 | X-H torsion
[ 11005 11000 10999 10996 ] final  146.01 input  -57.11 | X-H torsion

> <Gold.Protein.ActiveResidues>
 VAL166  LYS551  ARG553  GLY616  TRP617  ASP618  TYR619  PRO620  LYS621  CYS622 
 ASP623  PHE694  ASN695  SER759  ASP760  ASP761  ALA762  ILE779  LEU786  VAL792 
 PHE793  MET794  SER795  GLU796  ALA797  LYS798  CYS799  TRP800  GLU811  SER814 

> <Gold.Protein.RotatedAtoms>
  152.5251  134.3283  159.9173 H   0  0  0  0  0  0  0  0  0  0  0  0  # atno 6907 bound_to 6896
  151.3232  133.4025  159.2664 H   0  0  0  0  0  0  0  0  0  0  0  0  # atno 6908 bound_to 6896
  150.9941  134.9287  159.7974 H   0  0  0  0  0  0  0  0  0  0  0  0  # atno 6909 bound_to 6896
  144.7378  140.3343  143.6147 H   0  0  0  0  0  0  0  0  0  0  0  0  # atno 7974 bound_to 7965
  154.7814  140.2819  155.6061 H   0  0  0  0  0  0  0  0  0  0  0  0  # atno 8008 bound_to 7997
  156.2950  140.2622  156.2568 H   0  0  0  0  0  0  0  0  0  0  0  0  # atno 8009 bound_to 7997
  154.9780  140.0375  157.2254 H   0  0  0  0  0  0  0  0  0  0  0  0  # atno 8010 bound_to 7997
  139.4872  144.4353  151.9020 H   0  0  0  0  0  0  0  0  0  0  0  0  # atno 10167 bound_to 10162
  156.2008  130.6856  151.0537 H   0  0  0  0  0  0  0  0  0  0  0  0  # atno 10718 bound_to 10713
  154.8283  135.3359  154.6825 H   0  0  0  0  0  0  0  0  0  0  0  0  # atno 10763 bound_to 10752
  153.7448  135.6943  153.4963 H   0  0  0  0  0  0  0  0  0  0  0  0  # atno 10764 bound_to 10752
  153.2218  135.4446  155.0448 H   0  0  0  0  0  0  0  0  0  0  0  0  # atno 10765 bound_to 10752
  140.0758  134.9125  157.1420 H   0  0  0  0  0  0  0  0  0  0  0  0  # atno 11005 bound_to 11000
  145.7440  139.1773  143.2360 LP  0  0  0  0  0  0  0  0  0  0  0  0  # atno 17320 bound_to 7965
  146.1112  140.7425  142.9502 LP  0  0  0  0  0  0  0  0  0  0  0  0  # atno 17321 bound_to 7965
  140.3802  144.2746  150.5909 LP  0  0  0  0  0  0  0  0  0  0  0  0  # atno 17342 bound_to 10162
  140.5240  143.2259  151.8344 LP  0  0  0  0  0  0  0  0  0  0  0  0  # atno 17343 bound_to 10162
  157.6985  131.0785  150.6896 LP  0  0  0  0  0  0  0  0  0  0  0  0  # atno 17370 bound_to 10713
  156.6953  130.4607  149.5588 LP  0  0  0  0  0  0  0  0  0  0  0  0  # atno 17371 bound_to 10713
  140.3560  134.2547  155.7192 LP  0  0  0  0  0  0  0  0  0  0  0  0  # atno 17394 bound_to 11000
  141.2029  133.7926  157.0368 LP  0  0  0  0  0  0  0  0  0  0  0  0  # atno 17395 bound_to 11000

$$$$
