AV-unprocessed.smi:193|AV-procd|sdf|1512|dock3
  -GOLD-   2262019343D 1   1.00000     0.00000
 Structure written by MMmdl.
 61 65  0  0  0  0  0  0  0  0  1 V2000
  151.5579  137.6194  158.6357 C   0  0  0  0  0  0  0  0  0  0  0  0
  150.7393  138.9138  158.5064 C   0  0  2  0  0  0  0  0  0  0  0  0
  149.7143  138.7610  157.3618 C   0  0  0  0  0  0  0  0  0  0  0  0
  148.6066  139.7185  157.4072 N   0  0  0  0  0  0  0  0  0  0  0  0
  147.3600  139.2532  157.1246 C   0  0  0  0  0  0  0  0  0  0  0  0
  146.2862  139.8261  157.7320 N   0  0  0  0  0  0  0  0  0  0  0  0
  145.0500  139.3839  157.4863 C   0  0  0  0  0  0  0  0  0  0  0  0
  144.6635  138.3969  156.6772 N   0  0  0  0  0  0  0  0  0  0  0  0
  145.7309  137.8211  156.0548 C   0  0  0  0  0  0  0  0  0  0  0  0
  147.0992  138.1819  156.2195 C   0  0  0  0  0  0  0  0  0  0  0  0
  147.8952  137.3742  155.4142 N   0  0  0  0  0  0  0  0  0  0  0  0
  147.0502  136.5762  154.8218 C   0  0  0  0  0  0  0  0  0  0  0  0
  145.7269  136.7830  155.1388 N   0  0  0  0  0  0  0  0  0  0  0  0
  144.5831  136.0433  154.6249 C   0  0  0  0  0  0  0  0  0  0  0  0
  144.2834  136.2972  153.1220 C   0  0  0  0  0  0  0  0  0  0  0  0
  144.0036  137.6764  152.9676 O   0  0  0  0  0  0  0  0  0  0  0  0
  145.5031  135.9771  152.2350 C   0  0  0  0  0  0  0  0  0  0  0  0
  145.7050  134.4596  152.0724 C   0  0  0  0  0  0  0  0  0  0  0  0
  144.5216  133.8627  151.5531 O   0  0  0  0  0  0  0  0  0  0  0  0
  143.3958  134.0188  152.4100 C   0  0  0  0  0  0  0  0  0  0  0  0
  143.0691  135.5132  152.5793 C   0  0  0  0  0  0  0  0  0  0  0  0
  148.7431  141.0113  158.0785 C   0  0  0  0  0  0  0  0  0  0  0  0
  150.0340  141.7490  157.6975 C   0  0  0  0  0  0  0  0  0  0  0  0
  151.1159  141.4012  158.6137 N   0  0  0  0  0  0  0  0  0  0  0  0
  152.1619  142.4049  158.4885 C   0  0  2  0  0  0  0  0  0  0  0  0
  152.7537  142.9592  159.7647 C   0  0  0  0  0  0  0  0  0  0  0  0
  151.8350  143.8168  158.9270 C   0  0  1  0  0  0  0  0  0  0  0  0
  152.3771  145.0067  158.1656 C   0  0  0  0  0  0  0  0  0  0  0  0
  151.6970  140.1034  158.2739 C   0  0  0  0  0  0  0  0  0  0  0  0
  152.1110  137.4072  157.7202 H   0  0  0  0  0  0  0  0  0  0  0  0
  150.9141  136.7640  158.8419 H   0  0  0  0  0  0  0  0  0  0  0  0
  152.2778  137.6869  159.4518 H   0  0  0  0  0  0  0  0  0  0  0  0
  150.2145  139.0442  159.4542 H   0  0  0  0  0  0  0  0  0  0  0  0
  150.2119  138.8351  156.3944 H   0  0  0  0  0  0  0  0  0  0  0  0
  149.3029  137.7524  157.4179 H   0  0  0  0  0  0  0  0  0  0  0  0
  144.2576  139.8936  158.0146 H   0  0  0  0  0  0  0  0  0  0  0  0
  147.3710  135.8133  154.1272 H   0  0  0  0  0  0  0  0  0  0  0  0
  144.7698  134.9817  154.7930 H   0  0  0  0  0  0  0  0  0  0  0  0
  143.7187  136.2917  155.2401 H   0  0  0  0  0  0  0  0  0  0  0  0
  143.7215  137.8265  152.0783 H   0  0  0  0  0  0  0  0  0  0  0  0
  145.3587  136.4093  151.2433 H   0  0  0  0  0  0  0  0  0  0  0  0
  146.4057  136.4371  152.6390 H   0  0  0  0  0  0  0  0  0  0  0  0
  146.5244  134.2666  151.3800 H   0  0  0  0  0  0  0  0  0  0  0  0
  145.9782  133.9902  153.0181 H   0  0  0  0  0  0  0  0  0  0  0  0
  142.5450  133.5005  151.9676 H   0  0  0  0  0  0  0  0  0  0  0  0
  143.5893  133.5406  153.3701 H   0  0  0  0  0  0  0  0  0  0  0  0
  142.1936  135.6421  153.2155 H   0  0  0  0  0  0  0  0  0  0  0  0
  142.7875  135.9096  151.6024 H   0  0  0  0  0  0  0  0  0  0  0  0
  147.9127  141.6500  157.7747 H   0  0  0  0  0  0  0  0  0  0  0  0
  148.6562  140.8905  159.1592 H   0  0  0  0  0  0  0  0  0  0  0  0
  150.3098  141.5918  156.6532 H   0  0  0  0  0  0  0  0  0  0  0  0
  149.8353  142.8162  157.8063 H   0  0  0  0  0  0  0  0  0  0  0  0
  152.8577  142.3243  157.6546 H   0  0  0  0  0  0  0  0  0  0  0  0
  152.3658  142.5881  160.7115 H   0  0  0  0  0  0  0  0  0  0  0  0
  153.8157  143.1961  159.7596 H   0  0  0  0  0  0  0  0  0  0  0  0
  150.8375  143.9782  159.3322 H   0  0  0  0  0  0  0  0  0  0  0  0
  153.3764  144.7993  157.7821 H   0  0  0  0  0  0  0  0  0  0  0  0
  152.4289  145.8773  158.8194 H   0  0  0  0  0  0  0  0  0  0  0  0
  151.7239  145.2408  157.3249 H   0  0  0  0  0  0  0  0  0  0  0  0
  152.5717  139.9660  158.9113 H   0  0  0  0  0  0  0  0  0  0  0  0
  152.0662  140.1048  157.2470 H   0  0  0  0  0  0  0  0  0  0  0  0
  1  2  1  0  0  0  0
  1 30  1  0  0  0  0
  1 31  1  0  0  0  0
  1 32  1  0  0  0  0
  2 29  1  0  0  0  0
  2  3  1  0  0  0  0
  2 33  1  0  0  0  0
  3  4  1  0  0  0  0
  3 34  1  0  0  0  0
  3 35  1  0  0  0  0
  4  5  1  0  0  0  0
  4 22  1  0  0  0  0
  5 10  1  0  0  0  0
  5  6  2  0  0  0  0
  6  7  1  0  0  0  0
  7  8  2  0  0  0  0
  7 36  1  0  0  0  0
  8  9  1  0  0  0  0
  9 13  1  0  0  0  0
  9 10  2  0  0  0  0
 10 11  1  0  0  0  0
 11 12  2  0  0  0  0
 12 13  1  0  0  0  0
 12 37  1  0  0  0  0
 13 14  1  0  0  0  0
 14 15  1  0  0  0  0
 14 38  1  0  0  0  0
 14 39  1  0  0  0  0
 15 21  1  0  0  0  0
 15 16  1  0  0  0  0
 15 17  1  0  0  0  0
 16 40  1  0  0  0  0
 17 18  1  0  0  0  0
 17 41  1  0  0  0  0
 17 42  1  0  0  0  0
 18 19  1  0  0  0  0
 18 43  1  0  0  0  0
 18 44  1  0  0  0  0
 19 20  1  0  0  0  0
 20 21  1  0  0  0  0
 20 45  1  0  0  0  0
 20 46  1  0  0  0  0
 21 47  1  0  0  0  0
 21 48  1  0  0  0  0
 22 23  1  0  0  0  0
 22 49  1  0  0  0  0
 22 50  1  0  0  0  0
 23 24  1  0  0  0  0
 23 51  1  0  0  0  0
 23 52  1  0  0  0  0
 24 25  1  0  0  0  0
 24 29  1  0  0  0  0
 25 27  1  0  0  0  0
 25 26  1  0  0  0  0
 25 53  1  0  0  0  0
 26 27  1  0  0  0  0
 26 54  1  0  0  0  0
 26 55  1  0  0  0  0
 27 28  1  0  0  0  0
 27 56  1  0  0  0  0
 28 57  1  0  0  0  0
 28 58  1  0  0  0  0
 28 59  1  0  0  0  0
 29 60  1  0  0  0  0
 29 61  1  0  0  0  0
M  END
> <s_m_source_file>
AV-unprocessed.smi

> <i_m_source_file_index>
193

> <i_lp_mmshare_version>
43012

> <i_f3d_flags>
0

> <s_epik_input>
W0NIM11bQ0BASF0xW0NIMl1bQ0BIXTFOKFtDSDJdMilbQ0gyXVtDSDJdTihbQ0gyXVtDQEhdMltDSDNdKWMobltjSF1uMyljKGMzNCluW2NIXW40W0NIMl1DNShbT0hdKVtDSDJdW0NIMl1PW0NIMl1bQ0gyXTU=

> <s_epik_cmdline>
J2VwaWtfcHl0aG9uJywgJy1waCcsICc3LjAnLCAnLXRuJywgJzgnLCAnLW1hJywgJzIwMCcsICctbWV0YWxfYmluZGluZycsICctaW1hZScsICc8aW5maWxlLm1hZT4nLCAnLW9tYWUnLCAnPG91dGZpbGUubWFlPic=

> <r_lp_tautomer_probability>
1

> <r_epik_Ionization_Penalty>
1.45227

> <r_epik_Ionization_Penalty_Charging>
0

> <r_epik_Ionization_Penalty_Neutral>
1.45227

> <r_epik_State_Penalty>
2.02377

> <r_epik_Charging_Adjusted_Penalty>
2.02377

> <i_epik_Tot_Q>
0

> <i_epik_Tot_abs_Q>
0

> <r_epik_Metal_State_Penalty>
2.01937

> <b_epik_Metal_Only>
0

> <s_lp_Force_Field>
OPLS_2005

> <r_lp_Energy>
48.8748

> <b_lp_Chiralities_Consistent>
1

> <s_lp_Variant>
AV-unprocessed.smi:193-17

> <Gold.Version>
5.8.1

> <Gold.Id.Protein>
6NUR|6NUR_protein|mol2

> <Gold.PLP.Fitness>
41.2352

> <Gold.PLP.PLP>
-35.9645

> <Gold.PLP.part.hbond>
-1.8448

> <Gold.PLP.part.metal>
0.0000

> <Gold.PLP.part.buried>
-7.2536

> <Gold.PLP.part.nonpolar>
-27.2389

> <Gold.PLP.part.repulsive>
0.2419

> <Gold.PLP.ligand.clash>
0.0000

> <Gold.PLP.ligand.torsion>
0.9964

> <Gold.PLP.Chemscore.Hbond>
1.0000

> <Gold.PLP.Chemscore.CHOScore>
1.0000

> <Gold.PLP.Chemscore.Metal>
0.0000

> <Gold.Chemscore.Hbonds>
donor molecule, donor type, donor heavy atom, donor atom, acceptor molecule, acceptor atom, score
      L1  H    16    40       P1 10171  0.11
      L1  C    12    37       P1  7948  0.32

> <Gold.PLP.Chemscore.Internal.Correction>
1.2634

> <Gold.Rescore>
     Score         DG    S(hbond)    S(metal)    S(lipo)     H(rot)  DE(clash)    DE(int)     intcor
     13.41     -15.45       1.00        0.00      98.42       1.91       0.12       1.92       ----

> <Gold.Chemscore.Fitness>
13.4071

> <Gold.Chemscore.DG>
-15.4531

> <Gold.Chemscore.ZeroCoef>
-5.4800

> <Gold.Chemscore.Hbond>
0.9998

> <Gold.Chemscore.Metal>
0.0000

> <Gold.Chemscore.Lipo>
98.4191

> <Gold.Chemscore.Internal_Hbond>
0.0000

> <Gold.Chemscore.DEClash>
0.1237

> <Gold.Chemscore.DEInternal>
1.9224

> <Gold.Chemscore.Rot>
1.9068

> <Gold.Chemscore.Internal.Correction>
   9.000000E+99

> <Gold.Chemscore.Hbonds>
donor molecule, donor type, donor heavy atom, donor atom, acceptor molecule, acceptor atom, score
      L1  H    16    40       P1 10171  0.14

> <Gold.Chemscore.Hbond.Weighted>
-3.3395

> <Gold.Chemscore.Metal.Weighted>
-0.0000

> <Gold.Chemscore.Lipo.Weighted>
-11.5150

> <Gold.Chemscore.Internal_Hbond.Weighted>
0.0000

> <Gold.Chemscore.DEClash.Weighted>
0.1237

> <Gold.Chemscore.DEInternal.Weighted>
1.9224

> <Gold.Chemscore.Rot.Weighted>
4.8814

> <Gold.Chemscore.Internal.Correction.Weighted>
   9.000000E+99

> <Gold.Protein.RotatedTorsions>
[ 6907 6896 6895 6894 ] final -171.41 input  -60.11 | X-H torsion
[ 7974 7965 7964 7962 ] final   73.48 input  175.53 | X-H torsion
[ 8008 7997 7996 7995 ] final  106.94 input   59.86 | X-H torsion
[ 10167 10162 10161 10158 ] final   96.25 input  -65.29 | X-H torsion
[ 10718 10713 10712 10709 ] final -175.33 input   66.30 | X-H torsion
[ 10763 10752 10751 10750 ] final  130.57 input  -60.55 | X-H torsion
[ 11005 11000 10999 10996 ] final  -15.46 input  -57.11 | X-H torsion

> <Gold.Protein.ActiveResidues>
 VAL166  LYS551  ARG553  GLY616  TRP617  ASP618  TYR619  PRO620  LYS621  CYS622 
 ASP623  PHE694  ASN695  SER759  ASP760  ASP761  ALA762  ILE779  LEU786  VAL792 
 PHE793  MET794  SER795  GLU796  ALA797  LYS798  CYS799  TRP800  GLU811  SER814 

> <Gold.Protein.RotatedAtoms>
  151.5234  133.3462  159.2905 H   0  0  0  0  0  0  0  0  0  0  0  0  # atno 6907 bound_to 6896
  150.8638  134.7999  159.7114 H   0  0  0  0  0  0  0  0  0  0  0  0  # atno 6908 bound_to 6896
  152.4649  134.5107  159.9804 H   0  0  0  0  0  0  0  0  0  0  0  0  # atno 6909 bound_to 6896
  145.7403  139.2718  143.1490 H   0  0  0  0  0  0  0  0  0  0  0  0  # atno 7974 bound_to 7965
  156.1784  140.3104  155.9103 H   0  0  0  0  0  0  0  0  0  0  0  0  # atno 8008 bound_to 7997
  155.3437  140.0467  157.3062 H   0  0  0  0  0  0  0  0  0  0  0  0  # atno 8009 bound_to 7997
  154.5316  140.2232  155.8805 H   0  0  0  0  0  0  0  0  0  0  0  0  # atno 8010 bound_to 7997
  139.7912  144.6851  150.9889 H   0  0  0  0  0  0  0  0  0  0  0  0  # atno 10167 bound_to 10162
  156.7983  130.9543  151.3119 H   0  0  0  0  0  0  0  0  0  0  0  0  # atno 10718 bound_to 10713
  153.7602  135.3197  155.3336 H   0  0  0  0  0  0  0  0  0  0  0  0  # atno 10763 bound_to 10752
  154.8233  135.4588  154.0845 H   0  0  0  0  0  0  0  0  0  0  0  0  # atno 10764 bound_to 10752
  153.2074  135.6931  153.8239 H   0  0  0  0  0  0  0  0  0  0  0  0  # atno 10765 bound_to 10752
  140.7968  133.8245  155.9432 H   0  0  0  0  0  0  0  0  0  0  0  0  # atno 11005 bound_to 11000
  146.0454  140.8123  142.9808 LP  0  0  0  0  0  0  0  0  0  0  0  0  # atno 17320 bound_to 7965
  144.6872  140.2973  143.7269 LP  0  0  0  0  0  0  0  0  0  0  0  0  # atno 17321 bound_to 7965
  140.7820  143.4379  151.0596 LP  0  0  0  0  0  0  0  0  0  0  0  0  # atno 17342 bound_to 10162
  139.8055  143.8024  152.3167 LP  0  0  0  0  0  0  0  0  0  0  0  0  # atno 17343 bound_to 10162
  157.6566  130.8930  149.9742 LP  0  0  0  0  0  0  0  0  0  0  0  0  # atno 17370 bound_to 10713
  156.1117  130.3649  150.0038 LP  0  0  0  0  0  0  0  0  0  0  0  0  # atno 17371 bound_to 10713
  140.9334  134.1992  157.4848 LP  0  0  0  0  0  0  0  0  0  0  0  0  # atno 17394 bound_to 11000
  139.8725  134.9842  156.5231 LP  0  0  0  0  0  0  0  0  0  0  0  0  # atno 17395 bound_to 11000

$$$$
