AV-unprocessed.smi:2969|AV-procd|sdf|11330|dock4
  -GOLD-   2272016243D 1   1.00000     0.00000
 Structure written by MMmdl.
 39 39  0  0  0  0  0  0  0  0  2 V2000
  149.1595  140.4297  154.3928 C   0  0  0  0  0  0  0  0  0  0  0  0
  148.0260  140.3520  155.4241 C   0  0  0  0  0  0  0  0  0  0  0  0
  148.4479  140.7160  156.8636 C   0  0  0  0  0  0  0  0  0  0  0  0
  149.1298  139.6038  157.5649 N   0  0  0  0  0  0  0  0  0  0  0  0
  148.3526  138.5072  158.0271 C   0  0  0  0  0  0  0  0  0  0  0  0
  146.9842  138.5067  157.7985 N   0  0  0  0  0  0  0  0  0  0  0  0
  148.9498  137.4831  158.6924 C   0  0  0  0  0  0  0  0  0  0  0  0
  148.2330  136.3675  159.1614 N   0  0  0  0  0  0  0  0  0  0  0  0
  148.0826  135.2424  158.2242 C   0  0  0  0  0  0  0  0  0  0  0  0
  149.3702  134.9613  157.4226 C   0  0  0  0  0  0  0  0  0  0  0  0
  149.1744  133.9368  156.4581 O   0  0  0  0  0  0  0  0  0  0  0  0
  150.2785  133.7441  155.5874 C   0  0  0  0  0  0  0  0  0  0  0  0
  147.7963  136.2666  160.4462 C   0  0  0  0  0  0  0  0  0  0  0  0
  147.9337  137.1933  161.2482 O   0  0  0  0  0  0  0  0  0  0  0  0
  147.1238  134.9703  160.9475 C   0  0  0  0  0  0  0  0  0  0  0  0
  145.9802  134.7605  160.2970 F   0  0  0  0  0  0  0  0  0  0  0  0
  147.9394  133.9294  160.7807 F   0  0  0  0  0  0  0  0  0  0  0  0
  146.8512  135.0822  162.2489 F   0  0  0  0  0  0  0  0  0  0  0  0
  150.4040  137.5126  158.8837 C   0  0  0  0  0  0  0  0  0  0  0  0
  150.9704  136.5791  159.4527 O   0  0  0  0  0  0  0  0  0  0  0  0
  151.0814  138.5926  158.4138 N   0  5  0  0  0  0  0  0  0  0  0  0
  150.4839  139.6349  157.7686 C   0  0  0  0  0  0  0  0  0  0  0  0
  151.1342  140.6020  157.3702 O   0  0  0  0  0  0  0  0  0  0  0  0
  148.8160  140.0945  153.4143 H   0  0  0  0  0  0  0  0  0  0  0  0
  150.0008  139.8006  154.6845 H   0  0  0  0  0  0  0  0  0  0  0  0
  149.5254  141.4503  154.2792 H   0  0  0  0  0  0  0  0  0  0  0  0
  147.2059  140.9926  155.0997 H   0  0  0  0  0  0  0  0  0  0  0  0
  147.6274  139.3371  155.4263 H   0  0  0  0  0  0  0  0  0  0  0  0
  149.0975  141.5913  156.8419 H   0  0  0  0  0  0  0  0  0  0  0  0
  147.5733  141.0696  157.4111 H   0  0  0  0  0  0  0  0  0  0  0  0
  146.5223  139.2621  157.3131 H   0  0  0  0  0  0  0  0  0  0  0  0
  146.4001  137.7349  158.0868 H   0  0  0  0  0  0  0  0  0  0  0  0
  147.8062  134.3389  158.7707 H   0  0  0  0  0  0  0  0  0  0  0  0
  147.2426  135.4438  157.5585 H   0  0  0  0  0  0  0  0  0  0  0  0
  149.7608  135.8625  156.9481 H   0  0  0  0  0  0  0  0  0  0  0  0
  150.1463  134.6116  158.1022 H   0  0  0  0  0  0  0  0  0  0  0  0
  150.0662  132.9156  154.9119 H   0  0  0  0  0  0  0  0  0  0  0  0
  151.1824  133.4961  156.1450 H   0  0  0  0  0  0  0  0  0  0  0  0
  150.4756  134.6248  154.9765 H   0  0  0  0  0  0  0  0  0  0  0  0
  1  2  1  0  0  0  0
  1 24  1  0  0  0  0
  1 25  1  0  0  0  0
  1 26  1  0  0  0  0
  2  3  1  0  0  0  0
  2 27  1  0  0  0  0
  2 28  1  0  0  0  0
  3  4  1  0  0  0  0
  3 29  1  0  0  0  0
  3 30  1  0  0  0  0
  4 22  1  0  0  0  0
  4  5  1  0  0  0  0
  5  6  1  0  0  0  0
  5  7  2  0  0  0  0
  6 31  1  0  0  0  0
  6 32  1  0  0  0  0
  7  8  1  0  0  0  0
  7 19  1  0  0  0  0
  8  9  1  0  0  0  0
  8 13  1  0  0  0  0
  9 10  1  0  0  0  0
  9 33  1  0  0  0  0
  9 34  1  0  0  0  0
 10 11  1  0  0  0  0
 10 35  1  0  0  0  0
 10 36  1  0  0  0  0
 11 12  1  0  0  0  0
 12 37  1  0  0  0  0
 12 38  1  0  0  0  0
 12 39  1  0  0  0  0
 13 14  2  0  0  0  0
 13 15  1  0  0  0  0
 15 16  1  0  0  0  0
 15 17  1  0  0  0  0
 15 18  1  0  0  0  0
 19 20  2  0  0  0  0
 19 21  1  0  0  0  0
 21 22  1  0  0  0  0
 22 23  2  0  0  0  0
M  CHG  1  21  -1
M  END
> <s_m_source_file>
AV-unprocessed.smi

> <i_m_source_file_index>
2969

> <i_lp_mmshare_version>
43012

> <i_f3d_flags>
0

> <s_epik_input>
W0NIM11bQ0gyXVtDSDJdbjFjKFtOSDJdKWMoYyg9TylbbkhdYzE9TylOKEMoPU8pQyhGKShGKUYpW0NIMl1bQ0gyXU9bQ0gzXQ==

> <s_epik_cmdline>
J2VwaWtfcHl0aG9uJywgJy1waCcsICc3LjAnLCAnLXRuJywgJzgnLCAnLW1hJywgJzIwMCcsICctbWV0YWxfYmluZGluZycsICctaW1hZScsICc8aW5maWxlLm1hZT4nLCAnLW9tYWUnLCAnPG91dGZpbGUubWFlPic=

> <r_lp_tautomer_probability>
1

> <r_epik_Ionization_Penalty>
4.29138

> <r_epik_Ionization_Penalty_Charging>
0.0262752

> <r_epik_Ionization_Penalty_Neutral>
4.26511

> <r_epik_State_Penalty>
4.26466

> <r_epik_Charging_Adjusted_Penalty>
4.29094

> <i_epik_Tot_Q>
-1

> <i_epik_Tot_abs_Q>
1

> <r_epik_Metal_State_Penalty>
0.502851

> <b_epik_Metal_Only>
1

> <s_epik_Chemistry_Notes>
This compound has an imine and may undergo hydrolysis.

> <s_lp_Force_Field>
OPLS_2005

> <r_lp_Energy>
42.256

> <b_lp_Chiralities_Consistent>
1

> <s_lp_Variant>
AV-unprocessed.smi:2969-2

> <Gold.Version>
5.8.1

> <Gold.Id.Protein>
6NUR|6NUR_protein|mol2

> <Gold.PLP.Fitness>
31.8018

> <Gold.PLP.PLP>
-26.2867

> <Gold.PLP.part.hbond>
-3.0000

> <Gold.PLP.part.metal>
0.0000

> <Gold.PLP.part.buried>
-4.4400

> <Gold.PLP.part.nonpolar>
-18.9538

> <Gold.PLP.part.repulsive>
0.0767

> <Gold.PLP.ligand.clash>
4.2844

> <Gold.PLP.ligand.torsion>
2.0291

> <Gold.PLP.Chemscore.Hbond>
2.7360

> <Gold.PLP.Chemscore.CHOScore>
0.0000

> <Gold.PLP.Chemscore.Metal>
0.0000

> <Gold.Chemscore.Hbonds>
donor molecule, donor type, donor heavy atom, donor atom, acceptor molecule, acceptor atom, score
      P1  H  6896  6909       L1    20  1.00
      P1  H  6931  6943       L1    14  1.00
      P1  H  6934  6947       L1    14  0.72

> <Gold.PLP.Chemscore.Internal.Correction>
5.6496

> <Gold.Rescore>
     Score         DG    S(hbond)    S(metal)    S(lipo)     H(rot)  DE(clash)    DE(int)     intcor
      8.44     -12.84       2.78        0.00      32.59       2.24       0.00       4.40       ----

> <Gold.Chemscore.Fitness>
8.4392

> <Gold.Chemscore.DG>
-12.8402

> <Gold.Chemscore.ZeroCoef>
-5.4800

> <Gold.Chemscore.Hbond>
2.7762

> <Gold.Chemscore.Metal>
0.0000

> <Gold.Chemscore.Lipo>
32.5947

> <Gold.Chemscore.Internal_Hbond>
0.0000

> <Gold.Chemscore.DEClash>
0.0009

> <Gold.Chemscore.DEInternal>
4.4001

> <Gold.Chemscore.Rot>
2.2366

> <Gold.Chemscore.Internal.Correction>
   9.000000E+99

> <Gold.Chemscore.Hbonds>
donor molecule, donor type, donor heavy atom, donor atom, acceptor molecule, acceptor atom, score
      P1  H  6896  6909       L1    20  0.96
      P1  H  6931  6943       L1    14  0.95
      P1  H  6934  6947       L1    14  0.69

> <Gold.Chemscore.Hbond.Weighted>
-9.2724

> <Gold.Chemscore.Metal.Weighted>
-0.0000

> <Gold.Chemscore.Lipo.Weighted>
-3.8136

> <Gold.Chemscore.Internal_Hbond.Weighted>
0.0000

> <Gold.Chemscore.DEClash.Weighted>
0.0009

> <Gold.Chemscore.DEInternal.Weighted>
4.4001

> <Gold.Chemscore.Rot.Weighted>
5.7257

> <Gold.Chemscore.Internal.Correction.Weighted>
   9.000000E+99

> <Gold.Protein.RotatedTorsions>
[ 6907 6896 6895 6894 ] final   91.45 input  -60.11 | X-H torsion
[ 7974 7965 7964 7962 ] final  -75.70 input  175.53 | X-H torsion
[ 8008 7997 7996 7995 ] final   79.30 input   59.86 | X-H torsion
[ 10167 10162 10161 10158 ] final   54.64 input  -65.29 | X-H torsion
[ 10718 10713 10712 10709 ] final  116.79 input   66.30 | X-H torsion
[ 10763 10752 10751 10750 ] final  -40.88 input  -60.55 | X-H torsion
[ 11005 11000 10999 10996 ] final   91.40 input  -57.11 | X-H torsion

> <Gold.Protein.ActiveResidues>
 VAL166  LYS551  ARG553  GLY616  TRP617  ASP618  TYR619  PRO620  LYS621  CYS622 
 ASP623  PHE694  ASN695  SER759  ASP760  ASP761  ALA762  ILE779  LEU786  VAL792 
 PHE793  MET794  SER795  GLU796  ALA797  LYS798  CYS799  TRP800  GLU811  SER814 

> <Gold.Protein.RotatedAtoms>
  152.5450  134.1655  159.8575 H   0  0  0  0  0  0  0  0  0  0  0  0  # atno 6907 bound_to 6896
  151.1670  133.4801  159.2601 H   0  0  0  0  0  0  0  0  0  0  0  0  # atno 6908 bound_to 6896
  151.1314  135.0143  159.8639 H   0  0  0  0  0  0  0  0  0  0  0  0  # atno 6909 bound_to 6896
  145.6226  140.9359  143.1130 H   0  0  0  0  0  0  0  0  0  0  0  0  # atno 7974 bound_to 7965
  155.8678  140.3450  155.5800 H   0  0  0  0  0  0  0  0  0  0  0  0  # atno 8008 bound_to 7997
  155.7861  140.0865  157.2053 H   0  0  0  0  0  0  0  0  0  0  0  0  # atno 8009 bound_to 7997
  154.4015  140.1492  156.3096 H   0  0  0  0  0  0  0  0  0  0  0  0  # atno 8010 bound_to 7997
  140.2280  144.3718  150.6425 H   0  0  0  0  0  0  0  0  0  0  0  0  # atno 10167 bound_to 10162
  157.6138  131.1029  150.7523 H   0  0  0  0  0  0  0  0  0  0  0  0  # atno 10718 bound_to 10713
  153.9533  135.6748  153.4744 H   0  0  0  0  0  0  0  0  0  0  0  0  # atno 10763 bound_to 10752
  153.0874  135.4892  154.8620 H   0  0  0  0  0  0  0  0  0  0  0  0  # atno 10764 bound_to 10752
  154.7313  135.3139  154.8845 H   0  0  0  0  0  0  0  0  0  0  0  0  # atno 10765 bound_to 10752
  139.8839  134.8672  156.3423 H   0  0  0  0  0  0  0  0  0  0  0  0  # atno 11005 bound_to 11000
  144.7225  139.7983  143.7377 LP  0  0  0  0  0  0  0  0  0  0  0  0  # atno 17320 bound_to 7965
  146.1419  139.4478  143.0103 LP  0  0  0  0  0  0  0  0  0  0  0  0  # atno 17321 bound_to 7965
  140.6206  143.2176  151.6701 LP  0  0  0  0  0  0  0  0  0  0  0  0  # atno 17342 bound_to 10162
  139.5120  144.3490  152.0670 LP  0  0  0  0  0  0  0  0  0  0  0  0  # atno 17343 bound_to 10162
  156.7895  130.4885  149.5387 LP  0  0  0  0  0  0  0  0  0  0  0  0  # atno 17370 bound_to 10713
  156.1251  130.6138  151.0252 LP  0  0  0  0  0  0  0  0  0  0  0  0  # atno 17371 bound_to 10713
  140.9650  133.7364  156.0454 LP  0  0  0  0  0  0  0  0  0  0  0  0  # atno 17394 bound_to 11000
  140.7942  134.3583  157.5457 LP  0  0  0  0  0  0  0  0  0  0  0  0  # atno 17395 bound_to 11000

$$$$
