AV-unprocessed.smi:1|AV-procd|sdf|15|dock2
  -GOLD-   2262015113D 1   1.00000     0.00000
 Structure written by MMmdl.
 57 62  0  0  0  0  0  0  0  0  1 V2000
  152.5747  140.4167  156.6352 O   0  0  0  0  0  0  0  0  0  0  0  0
  151.9306  140.4590  157.6870 C   0  0  0  0  0  0  0  0  0  0  0  0
  151.1843  139.4566  158.2924 N   0  0  0  0  0  0  0  0  0  0  0  0
  150.9454  138.3486  157.6590 C   0  0  0  0  0  0  0  0  0  0  0  0
  151.3092  137.8871  156.3872 N   0  0  0  0  0  0  0  0  0  0  0  0
  150.9791  136.6376  155.8399 C   0  0  0  0  0  0  0  0  0  0  0  0
  150.2751  135.7194  156.4461 N   0  0  0  0  0  0  0  0  0  0  0  0
  149.8846  136.1290  157.7140 C   0  0  0  0  0  0  0  0  0  0  0  0
  150.1441  137.3203  158.3568 C   0  0  0  0  0  0  0  0  0  0  0  0
  149.5706  137.3350  159.6242 N   0  0  0  0  0  0  0  0  0  0  0  0
  148.9876  136.1411  159.6937 C   0  0  0  0  0  0  0  0  0  0  0  0
  149.1271  135.3678  158.6015 N   0  0  0  0  0  0  0  0  0  0  0  0
  148.5877  133.9892  158.4179 C   0  0  2  0  0  0  0  0  0  0  0  0
  149.6427  133.1314  158.1234 O   0  0  0  0  0  0  0  0  0  0  0  0
  149.2115  132.1054  157.2311 C   0  0  2  0  0  0  0  0  0  0  0  0
  150.1881  132.0692  156.0491 C   0  0  0  0  0  0  0  0  0  0  0  0
  149.7737  131.0765  155.1250 O   0  0  0  0  0  0  0  0  0  0  0  0
  149.0027  131.4141  154.0733 C   0  0  0  0  0  0  0  0  0  0  0  0
  148.5982  132.5598  153.8640 O   0  0  0  0  0  0  0  0  0  0  0  0
  148.6935  130.2560  153.1856 C   0  0  0  0  0  0  0  0  0  0  0  0
  149.5605  129.1383  153.1770 C   0  0  0  0  0  0  0  0  0  0  0  0
  149.2923  128.0285  152.3524 C   0  0  0  0  0  0  0  0  0  0  0  0
  148.1544  128.0232  151.5249 C   0  0  0  0  0  0  0  0  0  0  0  0
  147.2850  129.1296  151.5229 C   0  0  0  0  0  0  0  0  0  0  0  0
  147.5513  130.2402  152.3475 C   0  0  0  0  0  0  0  0  0  0  0  0
  147.7753  132.4603  156.8198 C   0  0  1  0  0  0  0  0  0  0  0  0
  146.8498  131.6813  157.5591 O   0  0  0  0  0  0  0  0  0  0  0  0
  145.5959  132.6708  158.0488 S   0  0  0  0  0  0  0  0  0  0  0  0
  144.4529  132.4469  157.1506 O   0  0  0  0  0  0  0  0  0  0  0  0
  145.4833  132.5812  159.5126 O   0  0  0  0  0  0  0  0  0  0  0  0
  146.2824  134.1450  157.6630 O   0  0  0  0  0  0  0  0  0  0  0  0
  147.6165  133.9228  157.2412 C   0  0  1  0  0  0  0  0  0  0  0  0
  151.9364  141.7368  158.4606 C   0  0  0  0  0  0  0  0  0  0  0  0
  152.3770  141.7497  159.8009 C   0  0  0  0  0  0  0  0  0  0  0  0
  152.3721  142.9523  160.5344 C   0  0  0  0  0  0  0  0  0  0  0  0
  151.9253  144.1439  159.9310 C   0  0  0  0  0  0  0  0  0  0  0  0
  151.4833  144.1334  158.5937 C   0  0  0  0  0  0  0  0  0  0  0  0
  151.4872  142.9314  157.8591 C   0  0  0  0  0  0  0  0  0  0  0  0
  151.3662  136.4782  154.8325 H   0  0  0  0  0  0  0  0  0  0  0  0
  148.4417  135.8184  160.5681 H   0  0  0  0  0  0  0  0  0  0  0  0
  148.1396  133.7119  159.3733 H   0  0  0  0  0  0  0  0  0  0  0  0
  149.2387  131.1505  157.7583 H   0  0  0  0  0  0  0  0  0  0  0  0
  150.2406  133.0457  155.5655 H   0  0  0  0  0  0  0  0  0  0  0  0
  151.1898  131.8255  156.4058 H   0  0  0  0  0  0  0  0  0  0  0  0
  150.4398  129.1192  153.8046 H   0  0  0  0  0  0  0  0  0  0  0  0
  149.9606  127.1800  152.3556 H   0  0  0  0  0  0  0  0  0  0  0  0
  147.9492  127.1719  150.8927 H   0  0  0  0  0  0  0  0  0  0  0  0
  146.4112  129.1271  150.8880 H   0  0  0  0  0  0  0  0  0  0  0  0
  146.8638  131.0731  152.3211 H   0  0  0  0  0  0  0  0  0  0  0  0
  147.5835  132.3147  155.7560 H   0  0  0  0  0  0  0  0  0  0  0  0
  147.9204  134.6005  156.4431 H   0  0  0  0  0  0  0  0  0  0  0  0
  152.7196  140.8391  160.2712 H   0  0  0  0  0  0  0  0  0  0  0  0
  152.7090  142.9603  161.5604 H   0  0  0  0  0  0  0  0  0  0  0  0
  151.9206  145.0655  160.4941 H   0  0  0  0  0  0  0  0  0  0  0  0
  151.1402  145.0472  158.1316 H   0  0  0  0  0  0  0  0  0  0  0  0
  151.1436  142.9304  156.8348 H   0  0  0  0  0  0  0  0  0  0  0  0
  151.8621  138.5095  155.8150 H   0  0  0  0  0  0  0  0  0  0  0  0
  1  2  2  0  0  0  0
  2  3  1  0  0  0  0
  2 33  1  0  0  0  0
  3  4  2  0  0  0  0
  4  9  1  0  0  0  0
  4  5  1  0  0  0  0
  5  6  1  0  0  0  0
  5 57  1  0  0  0  0
  6  7  2  0  0  0  0
  6 39  1  0  0  0  0
  7  8  1  0  0  0  0
  8 12  1  0  0  0  0
  8  9  2  0  0  0  0
  9 10  1  0  0  0  0
 10 11  2  0  0  0  0
 11 12  1  0  0  0  0
 11 40  1  0  0  0  0
 12 13  1  0  0  0  0
 13 32  1  0  0  0  0
 13 14  1  0  0  0  0
 13 41  1  0  0  0  0
 14 15  1  0  0  0  0
 15 16  1  0  0  0  0
 15 26  1  0  0  0  0
 15 42  1  0  0  0  0
 16 17  1  0  0  0  0
 16 43  1  0  0  0  0
 16 44  1  0  0  0  0
 17 18  1  0  0  0  0
 18 19  2  0  0  0  0
 18 20  1  0  0  0  0
 20 25  1  0  0  0  0
 20 21  2  0  0  0  0
 21 22  1  0  0  0  0
 21 45  1  0  0  0  0
 22 23  2  0  0  0  0
 22 46  1  0  0  0  0
 23 24  1  0  0  0  0
 23 47  1  0  0  0  0
 24 25  2  0  0  0  0
 24 48  1  0  0  0  0
 25 49  1  0  0  0  0
 26 32  1  0  0  0  0
 26 27  1  0  0  0  0
 26 50  1  0  0  0  0
 27 28  1  0  0  0  0
 28 29  2  0  0  0  0
 28 30  2  0  0  0  0
 28 31  1  0  0  0  0
 31 32  1  0  0  0  0
 32 51  1  0  0  0  0
 33 38  1  0  0  0  0
 33 34  2  0  0  0  0
 34 35  1  0  0  0  0
 34 52  1  0  0  0  0
 35 36  2  0  0  0  0
 35 53  1  0  0  0  0
 36 37  1  0  0  0  0
 36 54  1  0  0  0  0
 37 38  2  0  0  0  0
 37 55  1  0  0  0  0
 38 56  1  0  0  0  0
M  END
> <s_m_source_file>
AV-unprocessed.smi

> <i_m_source_file_index>
1

> <i_lp_mmshare_version>
43012

> <i_f3d_flags>
0

> <s_epik_input>
W2NIXTFbY0hdW2NIXVtjSF1bY0hdYzFDKD1PKVtOSF1jKG5bY0hdbjIpYyhjMjMpbltjSF1uM1tDQEBIXShbQ0BIXShbQ0BIXTQ1KU9TKE81KSg9Tyk9TylPW0NASF00W0NIMl1PQyg9TyljNltjSF1bY0hdW2NIXVtjSF1bY0hdNg==

> <s_epik_cmdline>
J2VwaWtfcHl0aG9uJywgJy1waCcsICc3LjAnLCAnLXRuJywgJzgnLCAnLW1hJywgJzIwMCcsICctbWV0YWxfYmluZGluZycsICctaW1hZScsICc8aW5maWxlLm1hZT4nLCAnLW9tYWUnLCAnPG91dGZpbGUubWFlPic=

> <r_epik_Ionization_Penalty>
0.122545

> <r_epik_Ionization_Penalty_Charging>
0.122545

> <r_epik_Ionization_Penalty_Neutral>
7.8935e-16

> <r_epik_State_Penalty>
2.69178

> <r_epik_Charging_Adjusted_Penalty>
2.81433

> <i_epik_Tot_Q>
0

> <i_epik_Tot_abs_Q>
0

> <r_epik_Metal_State_Penalty>
3.02665

> <b_epik_Metal_Only>
0

> <s_epik_Chemistry_Notes>
This compound has an ester and may undergo hydrolysis at high or low pH. This compound contains an acetal/aminal-like group ( X-CH(R)-Y where X, Y are N, S, or O) that may be acid/base labile, releasing an aldehyde.

> <s_lp_Force_Field>
OPLS_2005

> <r_lp_Energy>
60.8199

> <b_lp_Chiralities_Consistent>
1

> <s_lp_Variant>
AV-unprocessed.smi:1-15

> <Gold.Version>
5.8.1

> <Gold.Id.Protein>
6NUR|6NUR_protein|mol2

> <Gold.PLP.Fitness>
51.3088

> <Gold.PLP.PLP>
-48.1952

> <Gold.PLP.part.hbond>
-3.0000

> <Gold.PLP.part.metal>
0.0000

> <Gold.PLP.part.buried>
-3.0347

> <Gold.PLP.part.nonpolar>
-41.8493

> <Gold.PLP.part.repulsive>
0.2521

> <Gold.PLP.ligand.clash>
0.0000

> <Gold.PLP.ligand.torsion>
1.5757

> <Gold.PLP.Chemscore.Hbond>
2.0371

> <Gold.PLP.Chemscore.CHOScore>
0.0000

> <Gold.PLP.Chemscore.Metal>
0.0000

> <Gold.Chemscore.Hbonds>
donor molecule, donor type, donor heavy atom, donor atom, acceptor molecule, acceptor atom, score
      P1  H  6896  6908       L1    14  1.00
      P1  H  7997  8009       L1     1  0.94

> <Gold.PLP.Chemscore.Internal.Correction>
0.1536

> <Gold.Rescore>
     Score         DG    S(hbond)    S(metal)    S(lipo)     H(rot)  DE(clash)    DE(int)     intcor
     18.48     -20.10       1.92        0.00     116.94       2.13       0.01       1.61       ----

> <Gold.Chemscore.Fitness>
18.4761

> <Gold.Chemscore.DG>
-20.0975

> <Gold.Chemscore.ZeroCoef>
-5.4800

> <Gold.Chemscore.Hbond>
1.9151

> <Gold.Chemscore.Metal>
0.0000

> <Gold.Chemscore.Lipo>
116.9433

> <Gold.Chemscore.Internal_Hbond>
0.0000

> <Gold.Chemscore.DEClash>
0.0116

> <Gold.Chemscore.DEInternal>
1.6098

> <Gold.Chemscore.Rot>
2.1333

> <Gold.Chemscore.Internal.Correction>
   9.000000E+99

> <Gold.Chemscore.Hbonds>
donor molecule, donor type, donor heavy atom, donor atom, acceptor molecule, acceptor atom, score
      P1  H  6896  6908       L1    14  0.26
      P1  H  7997  8009       L1     1  0.92

> <Gold.Chemscore.Hbond.Weighted>
-6.3965

> <Gold.Chemscore.Metal.Weighted>
-0.0000

> <Gold.Chemscore.Lipo.Weighted>
-13.6824

> <Gold.Chemscore.Internal_Hbond.Weighted>
0.0000

> <Gold.Chemscore.DEClash.Weighted>
0.0116

> <Gold.Chemscore.DEInternal.Weighted>
1.6098

> <Gold.Chemscore.Rot.Weighted>
5.4614

> <Gold.Chemscore.Internal.Correction.Weighted>
   9.000000E+99

> <Gold.Protein.RotatedTorsions>
[ 6907 6896 6895 6894 ] final  115.50 input  -60.11 | X-H torsion
[ 7974 7965 7964 7962 ] final  114.43 input  175.53 | X-H torsion
[ 8008 7997 7996 7995 ] final -171.10 input   59.86 | X-H torsion
[ 10167 10162 10161 10158 ] final  -13.74 input  -65.29 | X-H torsion
[ 10718 10713 10712 10709 ] final  -35.52 input   66.30 | X-H torsion
[ 10763 10752 10751 10750 ] final  151.55 input  -60.55 | X-H torsion
[ 11005 11000 10999 10996 ] final  -78.42 input  -57.11 | X-H torsion

> <Gold.Protein.ActiveResidues>
 VAL166  LYS551  ARG553  GLY616  TRP617  ASP618  TYR619  PRO620  LYS621  CYS622 
 ASP623  PHE694  ASN695  SER759  ASP760  ASP761  ALA762  ILE779  LEU786  VAL792 
 PHE793  MET794  SER795  GLU796  ALA797  LYS798  CYS799  TRP800  GLU811  SER814 

> <Gold.Protein.RotatedAtoms>
  152.4738  133.8090  159.6992 H   0  0  0  0  0  0  0  0  0  0  0  0  # atno 6907 bound_to 6896
  150.8742  133.7453  159.2958 H   0  0  0  0  0  0  0  0  0  0  0  0  # atno 6908 bound_to 6896
  151.4978  135.1064  159.9873 H   0  0  0  0  0  0  0  0  0  0  0  0  # atno 6909 bound_to 6896
  145.2045  139.2936  143.4301 H   0  0  0  0  0  0  0  0  0  0  0  0  # atno 7974 bound_to 7965
  155.9271  140.1084  157.1161 H   0  0  0  0  0  0  0  0  0  0  0  0  # atno 8008 bound_to 7997
  154.4064  140.1244  156.4820 H   0  0  0  0  0  0  0  0  0  0  0  0  # atno 8009 bound_to 7997
  155.7125  140.3471  155.4982 H   0  0  0  0  0  0  0  0  0  0  0  0  # atno 8010 bound_to 7997
  140.7188  143.5394  150.9427 H   0  0  0  0  0  0  0  0  0  0  0  0  # atno 10167 bound_to 10162
  156.3377  130.4289  149.7815 H   0  0  0  0  0  0  0  0  0  0  0  0  # atno 10718 bound_to 10713
  154.1055  135.2842  155.3242 H   0  0  0  0  0  0  0  0  0  0  0  0  # atno 10763 bound_to 10752
  154.6526  135.5363  153.7923 H   0  0  0  0  0  0  0  0  0  0  0  0  # atno 10764 bound_to 10752
  153.0364  135.6514  154.1217 H   0  0  0  0  0  0  0  0  0  0  0  0  # atno 10765 bound_to 10752
  141.1664  133.7063  156.7970 H   0  0  0  0  0  0  0  0  0  0  0  0  # atno 11005 bound_to 11000
  146.3411  140.2300  142.8593 LP  0  0  0  0  0  0  0  0  0  0  0  0  # atno 17320 bound_to 7965
  144.9916  140.8552  143.5336 LP  0  0  0  0  0  0  0  0  0  0  0  0  # atno 17321 bound_to 7965
  139.9116  143.6713  152.3114 LP  0  0  0  0  0  0  0  0  0  0  0  0  # atno 17342 bound_to 10162
  139.7098  144.7622  151.1131 LP  0  0  0  0  0  0  0  0  0  0  0  0  # atno 17343 bound_to 10162
  156.5063  130.8152  151.3152 LP  0  0  0  0  0  0  0  0  0  0  0  0  # atno 17370 bound_to 10713
  157.7441  130.9928  150.2650 LP  0  0  0  0  0  0  0  0  0  0  0  0  # atno 17371 bound_to 10713
  140.2284  134.8704  157.3451 LP  0  0  0  0  0  0  0  0  0  0  0  0  # atno 17394 bound_to 11000
  140.1916  134.4365  155.7712 LP  0  0  0  0  0  0  0  0  0  0  0  0  # atno 17395 bound_to 11000

$$$$
