#       Name:                AV-unprocessed.smi:212
#       Creating user name   scv26
#       Creation time:       Thu Mar 26 19:54:32 2020


#       File generated by GOLD software.
#

@<TRIPOS>MOLECULE
AV-unprocessed.smi:212
    75    78     1
SMALL
NO_CHARGES


@<TRIPOS>ATOM
      1 ****        -1.9462  -1.8645  -1.9410 C.3            1 S1                 0.0000
      2 ****        -2.4163  -0.4070  -1.7700 C.3            1 S1                 0.0000
      3 ****        -2.2884   0.4093  -3.0725 C.3            1 S1                 0.0000
      4 ****        -2.8137   1.7862  -2.8881 N.4            1 S1                 1.0000
      5 ****        -2.8316   2.5810  -4.1449 C.3            1 S1                 0.0000
      6 ****        -4.2199   3.1962  -4.4384 C.3            1 S1                 0.0000
      7 ****        -4.1728   4.0104  -5.7421 C.3            1 S1                 0.0000
      8 ****        -5.3279   2.1295  -4.5165 C.3            1 S1                 0.0000
      9 ****        -4.5496   4.1060  -3.4076 O.3            1 S1                 0.0000
     10 ****        -2.1608   2.4928  -1.7557 C.3            1 S1                 0.0000
     11 ****        -2.2417   1.6682  -0.4547 C.3            1 S1                 0.0000
     12 ****        -1.7878   0.2926  -0.6446 N.3            1 S1                 0.0000
     13 ****        -0.4660   0.0898  -0.4319 C.ar           1 S1                 0.0000
     14 ****         0.4569   0.6801  -1.2348 N.ar           1 S1                 0.0000
     15 ****         1.7594   0.4646  -1.0254 C.ar           1 S1                 0.0000
     16 ****         2.3411  -0.2909  -0.0909 N.ar           1 S1                 0.0000
     17 ****         1.4141  -0.8850   0.7144 C.ar           1 S1                 0.0000
     18 ****         0.0019  -0.7474   0.6141 C.ar           1 S1                 0.0000
     19 ****        -0.6238  -1.4979   1.6007 N.2            1 S1                 0.0000
     20 ****         0.3646  -2.0502   2.2506 C.2            1 S1                 0.0000
     21 ****         1.6222  -1.7323   1.7886 N.pl3          1 S1                 0.0000
     22 ****         2.8859  -2.2124   2.3214 C.3            1 S1                 0.0000
     23 ****         3.2319  -1.6203   3.7109 C.3            1 S1                 0.0000
     24 ****         3.3089  -0.0726   3.6513 C.3            1 S1                 0.0000
     25 ****         3.2045   0.5092   4.9336 O.3            1 S1                 0.0000
     26 ****         4.5415  -2.2523   4.2595 C.3            1 S1                 0.0000
     27 ****         4.5212  -3.7678   4.3801 C.3            1 S1                 0.0000
     28 ****         5.6858  -4.0390   5.3255 C.3            1 S1                 0.0000
     29 ****         5.7484  -2.9123   6.1908 O.3            1 S1                 0.0000
     30 ****         4.9029  -1.8763   5.7015 C.3            1 S1                 0.0000
     31 ****        -2.5266  -2.3706  -2.7126 H              1 S1                 0.0000
     32 ****        -2.0710  -2.4291  -1.0164 H              1 S1                 0.0000
     33 ****        -0.8968  -1.9236  -2.2322 H              1 S1                 0.0000
     34 ****        -3.4780  -0.4558  -1.5237 H              1 S1                 0.0000
     35 ****        -1.2496   0.4537  -3.4028 H              1 S1                 0.0000
     36 ****        -2.8515  -0.0853  -3.8651 H              1 S1                 0.0000
     37 ****        -2.0675   3.3595  -4.1094 H              1 S1                 0.0000
     38 ****        -2.5538   1.9448  -4.9870 H              1 S1                 0.0000
     39 ****        -3.9243   3.3766  -6.5939 H              1 S1                 0.0000
     40 ****        -3.4233   4.8012  -5.6921 H              1 S1                 0.0000
     41 ****        -5.1332   4.4819  -5.9544 H              1 S1                 0.0000
     42 ****        -5.1134   1.3968  -5.2954 H              1 S1                 0.0000
     43 ****        -6.2950   2.5786  -4.7464 H              1 S1                 0.0000
     44 ****        -5.4388   1.5881  -3.5767 H              1 S1                 0.0000
     45 ****        -5.3735   4.5183  -3.6211 H              1 S1                 0.0000
     46 ****        -1.1207   2.6975  -2.0111 H              1 S1                 0.0000
     47 ****        -2.6352   3.4616  -1.5992 H              1 S1                 0.0000
     48 ****        -1.6663   2.1526   0.3356 H              1 S1                 0.0000
     49 ****        -3.2746   1.6359  -0.1060 H              1 S1                 0.0000
     50 ****         2.4318   0.9678  -1.7045 H              1 S1                 0.0000
     51 ****         0.2034  -2.7083   3.0923 H              1 S1                 0.0000
     52 ****         2.8151  -3.2986   2.3680 H              1 S1                 0.0000
     53 ****         3.6795  -1.9854   1.6085 H              1 S1                 0.0000
     54 ****         2.4168  -1.8900   4.3847 H              1 S1                 0.0000
     55 ****         4.2359   0.2508   3.1767 H              1 S1                 0.0000
     56 ****         2.4948   0.3481   3.0629 H              1 S1                 0.0000
     57 ****         3.2537   1.4487   4.8428 H              1 S1                 0.0000
     58 ****         5.3742  -1.9739   3.6114 H              1 S1                 0.0000
     59 ****         3.5861  -4.1016   4.8328 H              1 S1                 0.0000
     60 ****         4.6421  -4.2808   3.4256 H              1 S1                 0.0000
     61 ****         5.5619  -4.9664   5.8848 H              1 S1                 0.0000
     62 ****         6.6215  -4.1007   4.7686 H              1 S1                 0.0000
     63 ****         5.4009  -0.9088   5.7690 H              1 S1                 0.0000
     64 ****         4.0103  -1.8427   6.3279 H              1 S1                 0.0000
     65 ****        -3.7822   1.6730  -2.6249 H              1 S1                 0.0000
     66 ****        -3.8349   4.8012  -3.3306 LP             1 S1                 0.0000
     67 ****        -4.6329   3.6161  -2.5398 LP             1 S1                 0.0000
     68 ****        -2.1692  -0.2142   0.1285 LP             1 S1                 0.0000
     69 ****         0.1622   1.2755  -1.9822 LP             1 S1                 0.0000
     70 ****         3.3297  -0.4065   0.0062 LP             1 S1                 0.0000
     71 ****        -1.6041  -1.5932   1.7733 LP             1 S1                 0.0000
     72 ****         3.9539   0.1868   5.5120 LP             1 S1                 0.0000
     73 ****         2.3306   0.2560   5.3484 LP             1 S1                 0.0000
     74 ****         6.6903  -2.5790   6.2332 LP             1 S1                 0.0000
     75 ****         5.4482  -3.1805   7.1062 LP             1 S1                 0.0000
@<TRIPOS>BOND
    1    1    2 1     
    2    1   31 1     
    3    1   32 1     
    4    1   33 1     
    5    2   12 1     
    6    2    3 1     
    7    2   34 1     
    8    3    4 1     
    9    3   35 1     
   10    3   36 1     
   11    4    5 1     
   12    4   10 1     
   13    4   65 1     
   14    5    6 1     
   15    5   37 1     
   16    5   38 1     
   17    6    7 1     
   18    6    8 1     
   19    6    9 1     
   20    7   39 1     
   21    7   40 1     
   22    7   41 1     
   23    8   42 1     
   24    8   43 1     
   25    8   44 1     
   26    9   45 1     
   27   10   11 1     
   28   10   46 1     
   29   10   47 1     
   30   11   12 1     
   31   11   48 1     
   32   11   49 1     
   33   12   13 1     
   34   13   18 ar    
   35   13   14 ar    
   36   14   15 ar    
   37   15   16 ar    
   38   15   50 1     
   39   16   17 ar    
   40   17   21 1     
   41   17   18 ar    
   42   18   19 1     
   43   19   20 2     
   44   20   21 1     
   45   20   51 1     
   46   21   22 1     
   47   22   23 1     
   48   22   52 1     
   49   22   53 1     
   50   23   24 1     
   51   23   26 1     
   52   23   54 1     
   53   24   25 1     
   54   24   55 1     
   55   24   56 1     
   56   25   57 1     
   57   26   30 1     
   58   26   27 1     
   59   26   58 1     
   60   27   28 1     
   61   27   59 1     
   62   27   60 1     
   63   28   29 1     
   64   28   61 1     
   65   28   62 1     
   66   29   30 1     
   67   30   63 1     
   68   30   64 1     
   69    9   66 1     
   70    9   67 1     
   71   12   68 1     
   72   14   69 1     
   73   16   70 1     
   74   19   71 1     
   75   25   72 1     
   76   25   73 1     
   77   29   74 1     
   78   29   75 1     
@<TRIPOS>SUBSTRUCTURE
      1 S1             1
@<TRIPOS>SET
LONE_PAIRS      STATIC     ATOMS    <user>   **** ""
10 66 67 68 69 70 71 72 73 74 75
DONOR_HYDROGENS      STATIC     ATOMS    <user>   **** ""
3 65 45 57
ATOM$BLUE        STATIC     ATOMS    COLORGROUP SYSTEM
10 66 67 68 69 70 71 72 73 74 75
ATOM$RED        STATIC     ATOMS    COLORGROUP SYSTEM
3 65 45 57
