AV-unprocessed.smi:3085|AV-procd|sdf|11750|dock2
  -GOLD-   2272017143D 1   1.00000     0.00000
 Structure written by MMmdl.
 28 29  0  0  0  0  0  0  0  0  2 V2000
  152.1144  144.6154  158.0049 C   0  0  0  0  0  0  0  0  0  0  0  0
  151.3710  143.3764  158.5157 C   0  0  0  0  0  0  0  0  0  0  0  0
  151.0541  142.4083  157.4237 C   0  0  0  0  0  0  0  0  0  0  0  0
  151.6375  141.2264  157.2551 N   0  0  0  0  0  0  0  0  0  0  0  0
  150.9907  140.7924  156.1310 C   0  0  0  0  0  0  0  0  0  0  0  0
  151.3258  139.4900  155.4719 C   0  0  2  0  0  0  0  0  0  0  0  0
  150.3304  139.1307  154.3526 C   0  0  0  0  0  0  0  0  0  0  0  0
  150.6545  137.8009  153.8011 N   0  3  0  0  0  0  0  0  0  0  0  0
  150.7018  136.7733  154.8603 C   0  0  0  0  0  0  0  0  0  0  0  0
  151.6733  137.2038  155.9742 C   0  0  0  0  0  0  0  0  0  0  0  0
  151.2943  138.4804  156.4794 O   0  0  0  0  0  0  0  0  0  0  0  0
  150.0983  141.6363  155.6115 N   0  0  0  0  0  0  0  0  0  0  0  0
  150.1522  142.6714  156.4760 N   0  0  0  0  0  0  0  0  0  0  0  0
  149.5877  143.5036  156.3779 H   0  0  0  0  0  0  0  0  0  0  0  0
  152.3329  145.3025  158.8224 H   0  0  0  0  0  0  0  0  0  0  0  0
  151.5194  145.1540  157.2665 H   0  0  0  0  0  0  0  0  0  0  0  0
  153.0612  144.3418  157.5380 H   0  0  0  0  0  0  0  0  0  0  0  0
  151.9729  142.8677  159.2695 H   0  0  0  0  0  0  0  0  0  0  0  0
  150.4446  143.6757  159.0078 H   0  0  0  0  0  0  0  0  0  0  0  0
  152.3370  139.5585  155.0659 H   0  0  0  0  0  0  0  0  0  0  0  0
  149.3100  139.1170  154.7387 H   0  0  0  0  0  0  0  0  0  0  0  0
  150.3634  139.8719  153.5537 H   0  0  0  0  0  0  0  0  0  0  0  0
  149.9618  137.5438  153.1122 H   0  0  0  0  0  0  0  0  0  0  0  0
  149.6999  136.6319  155.2681 H   0  0  0  0  0  0  0  0  0  0  0  0
  151.0105  135.8215  154.4276 H   0  0  0  0  0  0  0  0  0  0  0  0
  151.6550  136.4804  156.7896 H   0  0  0  0  0  0  0  0  0  0  0  0
  152.6989  137.2384  155.6031 H   0  0  0  0  0  0  0  0  0  0  0  0
  151.5602  137.8481  153.3561 H   0  0  0  0  0  0  0  0  0  0  0  0
  1  2  1  0  0  0  0
  1 15  1  0  0  0  0
  1 16  1  0  0  0  0
  1 17  1  0  0  0  0
  2  3  1  0  0  0  0
  2 18  1  0  0  0  0
  2 19  1  0  0  0  0
  3 13  1  0  0  0  0
  3  4  2  0  0  0  0
  4  5  1  0  0  0  0
  5  6  1  0  0  0  0
  5 12  2  0  0  0  0
  6 11  1  0  0  0  0
  6  7  1  0  0  0  0
  6 20  1  0  0  0  0
  7  8  1  0  0  0  0
  7 21  1  0  0  0  0
  7 22  1  0  0  0  0
  8  9  1  0  0  0  0
  8 23  1  0  0  0  0
  8 28  1  0  0  0  0
  9 10  1  0  0  0  0
  9 24  1  0  0  0  0
  9 25  1  0  0  0  0
 10 11  1  0  0  0  0
 10 26  1  0  0  0  0
 10 27  1  0  0  0  0
 12 13  1  0  0  0  0
 13 14  1  0  0  0  0
M  CHG  1   8   1
M  END
> <s_m_source_file>
AV-unprocessed.smi

> <i_m_source_file_index>
3085

> <i_lp_mmshare_version>
43012

> <i_f3d_flags>
0

> <s_epik_input>
W0NIM11bQ0gyXWMxbmMobltuSF0xKVtDQEBIXTJbQ0gyXVtOSF1bQ0gyXVtDSDJdTzI=

> <s_epik_cmdline>
J2VwaWtfcHl0aG9uJywgJy1waCcsICc3LjAnLCAnLXRuJywgJzgnLCAnLW1hJywgJzIwMCcsICctbWV0YWxfYmluZGluZycsICctaW1hZScsICc8aW5maWxlLm1hZT4nLCAnLW9tYWUnLCAnPG91dGZpbGUubWFlPic=

> <r_lp_tautomer_probability>
0.948284

> <r_epik_Ionization_Penalty>
0.107151

> <r_epik_Ionization_Penalty_Charging>
0.100865

> <r_epik_Ionization_Penalty_Neutral>
0.00628602

> <r_epik_State_Penalty>
0.429695

> <r_epik_Charging_Adjusted_Penalty>
0.530559

> <i_epik_Tot_Q>
1

> <i_epik_Tot_abs_Q>
1

> <r_epik_Metal_State_Penalty>
0.651827

> <b_epik_Metal_Only>
0

> <s_lp_Force_Field>
OPLS_2005

> <r_lp_Energy>
10.1089

> <b_lp_Chiralities_Consistent>
1

> <s_lp_Variant>
AV-unprocessed.smi:3085-1

> <Gold.Version>
5.8.1

> <Gold.Id.Protein>
6NUR|6NUR_protein|mol2

> <Gold.PLP.Fitness>
34.2424

> <Gold.PLP.PLP>
-25.8366

> <Gold.PLP.part.hbond>
-3.0000

> <Gold.PLP.part.metal>
0.0000

> <Gold.PLP.part.buried>
-4.0377

> <Gold.PLP.part.nonpolar>
-19.9284

> <Gold.PLP.part.repulsive>
0.2752

> <Gold.PLP.ligand.clash>
0.0000

> <Gold.PLP.ligand.torsion>
0.3065

> <Gold.PLP.Chemscore.Hbond>
3.0000

> <Gold.PLP.Chemscore.CHOScore>
0.0000

> <Gold.PLP.Chemscore.Metal>
0.0000

> <Gold.Chemscore.Hbonds>
donor molecule, donor type, donor heavy atom, donor atom, acceptor molecule, acceptor atom, score
      L1  H     8    23       P1  7948  2.00
      L1  H    13    14       P1  8028  1.00

> <Gold.PLP.Chemscore.Internal.Correction>
0.0188

> <Gold.Rescore>
     Score         DG    S(hbond)    S(metal)    S(lipo)     H(rot)  DE(clash)    DE(int)     intcor
     13.66     -13.86       1.76        0.00      49.94       1.30       0.00       0.20       ----

> <Gold.Chemscore.Fitness>
13.6555

> <Gold.Chemscore.DG>
-13.8621

> <Gold.Chemscore.ZeroCoef>
-5.4800

> <Gold.Chemscore.Hbond>
1.7575

> <Gold.Chemscore.Metal>
0.0000

> <Gold.Chemscore.Lipo>
49.9391

> <Gold.Chemscore.Internal_Hbond>
0.0000

> <Gold.Chemscore.DEClash>
0.0038

> <Gold.Chemscore.DEInternal>
0.2028

> <Gold.Chemscore.Rot>
1.3011

> <Gold.Chemscore.Internal.Correction>
   9.000000E+99

> <Gold.Chemscore.Hbonds>
donor molecule, donor type, donor heavy atom, donor atom, acceptor molecule, acceptor atom, score
      L1  H     8    23       P1  7948  0.27
      L1  H    13    14       P1  8028  0.97

> <Gold.Chemscore.Hbond.Weighted>
-5.8700

> <Gold.Chemscore.Metal.Weighted>
-0.0000

> <Gold.Chemscore.Lipo.Weighted>
-5.8429

> <Gold.Chemscore.Internal_Hbond.Weighted>
0.0000

> <Gold.Chemscore.DEClash.Weighted>
0.0038

> <Gold.Chemscore.DEInternal.Weighted>
0.2028

> <Gold.Chemscore.Rot.Weighted>
3.3308

> <Gold.Chemscore.Internal.Correction.Weighted>
   9.000000E+99

> <Gold.Protein.RotatedTorsions>
[ 6907 6896 6895 6894 ] final   42.70 input  -60.11 | X-H torsion
[ 7974 7965 7964 7962 ] final -136.30 input  175.53 | X-H torsion
[ 8008 7997 7996 7995 ] final  168.93 input   59.86 | X-H torsion
[ 10167 10162 10161 10158 ] final  -36.61 input  -65.29 | X-H torsion
[ 10718 10713 10712 10709 ] final -112.70 input   66.30 | X-H torsion
[ 10763 10752 10751 10750 ] final   50.25 input  -60.55 | X-H torsion
[ 11005 11000 10999 10996 ] final -127.74 input  -57.11 | X-H torsion

> <Gold.Protein.ActiveResidues>
 VAL166  LYS551  ARG553  GLY616  TRP617  ASP618  TYR619  PRO620  LYS621  CYS622 
 ASP623  PHE694  ASN695  SER759  ASP760  ASP761  ALA762  ILE779  LEU786  VAL792 
 PHE793  MET794  SER795  GLU796  ALA797  LYS798  CYS799  TRP800  GLU811  SER814 

> <Gold.Protein.RotatedAtoms>
  152.2112  134.8500  160.0496 H   0  0  0  0  0  0  0  0  0  0  0  0  # atno 6907 bound_to 6896
  151.9318  133.3608  159.3941 H   0  0  0  0  0  0  0  0  0  0  0  0  # atno 6908 bound_to 6896
  150.6977  134.4455  159.5356 H   0  0  0  0  0  0  0  0  0  0  0  0  # atno 6909 bound_to 6896
  144.8939  140.6680  143.5128 H   0  0  0  0  0  0  0  0  0  0  0  0  # atno 7974 bound_to 7965
  156.1503  140.1577  156.8780 H   0  0  0  0  0  0  0  0  0  0  0  0  # atno 8008 bound_to 7997
  154.5065  140.0811  156.7942 H   0  0  0  0  0  0  0  0  0  0  0  0  # atno 8009 bound_to 7997
  155.3908  140.3410  155.4253 H   0  0  0  0  0  0  0  0  0  0  0  0  # atno 8010 bound_to 7997
  140.7138  143.3397  151.2385 H   0  0  0  0  0  0  0  0  0  0  0  0  # atno 10167 bound_to 10162
  156.0721  130.5934  150.8543 H   0  0  0  0  0  0  0  0  0  0  0  0  # atno 10718 bound_to 10713
  152.9785  135.5885  154.4222 H   0  0  0  0  0  0  0  0  0  0  0  0  # atno 10763 bound_to 10752
  154.3845  135.2767  155.2193 H   0  0  0  0  0  0  0  0  0  0  0  0  # atno 10764 bound_to 10752
  154.4092  135.6085  153.5997 H   0  0  0  0  0  0  0  0  0  0  0  0  # atno 10765 bound_to 10752
  140.9574  134.0983  157.4002 H   0  0  0  0  0  0  0  0  0  0  0  0  # atno 11005 bound_to 11000
  145.3734  139.1653  143.4319 LP  0  0  0  0  0  0  0  0  0  0  0  0  # atno 17320 bound_to 7965
  146.3070  140.3808  142.8684 LP  0  0  0  0  0  0  0  0  0  0  0  0  # atno 17321 bound_to 7965
  139.6901  143.9707  152.2855 LP  0  0  0  0  0  0  0  0  0  0  0  0  # atno 17342 bound_to 10162
  139.9365  144.6708  150.8309 LP  0  0  0  0  0  0  0  0  0  0  0  0  # atno 17343 bound_to 10162
  157.5798  131.0946  150.9289 LP  0  0  0  0  0  0  0  0  0  0  0  0  # atno 17370 bound_to 10713
  156.9487  130.5412  149.5282 LP  0  0  0  0  0  0  0  0  0  0  0  0  # atno 17371 bound_to 10713
  139.8867  135.0083  156.6513 LP  0  0  0  0  0  0  0  0  0  0  0  0  # atno 17394 bound_to 11000
  140.7516  133.8892  155.8351 LP  0  0  0  0  0  0  0  0  0  0  0  0  # atno 17395 bound_to 11000

$$$$
