AV-unprocessed.smi:1607|AV-procd|sdf|6466|dock10
  -GOLD-   22720 7123D 1   1.00000     0.00000
 Structure written by MMmdl.
 39 40  0  0  0  0  0  0  0  0  2 V2000
  146.0888  132.1412  151.9323 C   0  0  0  0  0  0  0  0  0  0  0  0
  146.1478  133.6620  151.7301 C   0  0  1  0  0  0  0  0  0  0  0  0
  144.9886  134.1560  150.8487 C   0  0  0  0  0  0  0  0  0  0  0  0
  145.0579  135.6792  150.6854 C   0  0  0  0  0  0  0  0  0  0  0  0
  145.0893  136.3780  152.0536 C   0  0  0  0  0  0  0  0  0  0  0  0
  146.2199  135.8852  152.8825 N   0  3  1  0  0  0  0  0  0  0  0  0
  146.3510  136.6403  154.1545 C   0  0  0  0  0  0  0  0  0  0  0  0
  147.6192  136.2600  154.9363 C   0  0  0  0  0  0  0  0  0  0  0  0
  148.7847  136.9277  154.3735 N   0  0  0  0  0  0  0  0  0  0  0  0
  149.3917  137.9877  154.9297 C   0  0  0  0  0  0  0  0  0  0  0  0
  149.0006  138.5178  155.9688 O   0  0  0  0  0  0  0  0  0  0  0  0
  150.6207  138.5434  154.2050 C   0  0  0  0  0  0  0  0  0  0  0  0
  151.7847  138.5861  155.0721 N   0  0  0  0  0  0  0  0  0  0  0  0
  151.9802  139.1875  156.2472 C   0  0  0  0  0  0  0  0  0  0  0  0
  153.2059  138.9821  156.7043 N   0  0  0  0  0  0  0  0  0  0  0  0
  153.7788  138.1902  155.7233 N   0  0  0  0  0  0  0  0  0  0  0  0
  152.9398  137.9499  154.7534 N   0  0  0  0  0  0  0  0  0  0  0  0
  146.1515  134.4114  153.0780 C   0  0  0  0  0  0  0  0  0  0  0  0
  145.1744  131.8437  152.4468 H   0  0  0  0  0  0  0  0  0  0  0  0
  146.9338  131.7900  152.5253 H   0  0  0  0  0  0  0  0  0  0  0  0
  146.1180  131.6168  150.9766 H   0  0  0  0  0  0  0  0  0  0  0  0
  147.0834  133.8883  151.2163 H   0  0  0  0  0  0  0  0  0  0  0  0
  145.0253  133.6762  149.8699 H   0  0  0  0  0  0  0  0  0  0  0  0
  144.0338  133.8780  151.2974 H   0  0  0  0  0  0  0  0  0  0  0  0
  145.9484  135.9477  150.1153 H   0  0  0  0  0  0  0  0  0  0  0  0
  144.2028  136.0306  150.1070 H   0  0  0  0  0  0  0  0  0  0  0  0
  145.1840  137.4537  151.8999 H   0  0  0  0  0  0  0  0  0  0  0  0
  144.1493  136.2141  152.5830 H   0  0  0  0  0  0  0  0  0  0  0  0
  146.4024  137.7076  153.9330 H   0  0  0  0  0  0  0  0  0  0  0  0
  145.4579  136.4954  154.7647 H   0  0  0  0  0  0  0  0  0  0  0  0
  147.5390  136.5431  155.9857 H   0  0  0  0  0  0  0  0  0  0  0  0
  147.7619  135.1784  154.9031 H   0  0  0  0  0  0  0  0  0  0  0  0
  149.1629  136.5545  153.5146 H   0  0  0  0  0  0  0  0  0  0  0  0
  150.8464  137.9215  153.3378 H   0  0  0  0  0  0  0  0  0  0  0  0
  150.4185  139.5503  153.8367 H   0  0  0  0  0  0  0  0  0  0  0  0
  151.2336  139.7751  156.7607 H   0  0  0  0  0  0  0  0  0  0  0  0
  145.2564  134.1627  153.6508 H   0  0  0  0  0  0  0  0  0  0  0  0
  147.0034  134.0719  153.6660 H   0  0  0  0  0  0  0  0  0  0  0  0
  147.0582  136.0734  152.3513 H   0  0  0  0  0  0  0  0  0  0  0  0
  1  2  1  0  0  0  0
  1 19  1  0  0  0  0
  1 20  1  0  0  0  0
  1 21  1  0  0  0  0
  2 18  1  0  0  0  0
  2  3  1  0  0  0  0
  2 22  1  0  0  0  0
  3  4  1  0  0  0  0
  3 23  1  0  0  0  0
  3 24  1  0  0  0  0
  4  5  1  0  0  0  0
  4 25  1  0  0  0  0
  4 26  1  0  0  0  0
  5  6  1  0  0  0  0
  5 27  1  0  0  0  0
  5 28  1  0  0  0  0
  6  7  1  0  0  0  0
  6 18  1  0  0  0  0
  6 39  1  0  0  0  0
  7  8  1  0  0  0  0
  7 29  1  0  0  0  0
  7 30  1  0  0  0  0
  8  9  1  0  0  0  0
  8 31  1  0  0  0  0
  8 32  1  0  0  0  0
  9 10  1  0  0  0  0
  9 33  1  0  0  0  0
 10 11  2  0  0  0  0
 10 12  1  0  0  0  0
 12 13  1  0  0  0  0
 12 34  1  0  0  0  0
 12 35  1  0  0  0  0
 13 17  1  0  0  0  0
 13 14  1  0  0  0  0
 14 15  2  0  0  0  0
 14 36  1  0  0  0  0
 15 16  1  0  0  0  0
 16 17  2  0  0  0  0
 18 37  1  0  0  0  0
 18 38  1  0  0  0  0
M  CHG  1   6   1
M  END
> <s_m_source_file>
AV-unprocessed.smi

> <i_m_source_file_index>
1607

> <i_lp_mmshare_version>
43012

> <i_f3d_flags>
0

> <s_epik_input>
W0NIM11bQ0BASF0xW0NIMl1bQ0gyXVtDSDJdTihbQ0gyXTEpW0NIMl1bQ0gyXVtOSF1DKD1PKVtDSDJdbjJbY0hdbm5uMg==

> <s_epik_cmdline>
J2VwaWtfcHl0aG9uJywgJy1waCcsICc3LjAnLCAnLXRuJywgJzgnLCAnLW1hJywgJzIwMCcsICctbWV0YWxfYmluZGluZycsICctaW1hZScsICc8aW5maWxlLm1hZT4nLCAnLW9tYWUnLCAnPG91dGZpbGUubWFlPic=

> <r_lp_tautomer_probability>
1

> <r_epik_Ionization_Penalty>
0.00268321

> <r_epik_Ionization_Penalty_Charging>
0.00267875

> <r_epik_Ionization_Penalty_Neutral>
4.46125e-06

> <r_epik_State_Penalty>
0.00186642

> <r_epik_Charging_Adjusted_Penalty>
0.00454517

> <i_epik_Tot_Q>
1

> <i_epik_Tot_abs_Q>
1

> <r_epik_Metal_State_Penalty>
-0

> <b_epik_Metal_Only>
0

> <s_lp_Force_Field>
OPLS_2005

> <r_lp_Energy>
19.4205

> <b_lp_Chiralities_Consistent>
1

> <s_lp_Variant>
AV-unprocessed.smi:1607-4

> <Gold.Version>
5.8.1

> <Gold.Id.Protein>
6NUR|6NUR_protein|mol2

> <Gold.PLP.Fitness>
41.9253

> <Gold.PLP.PLP>
-29.8968

> <Gold.PLP.part.hbond>
-5.5911

> <Gold.PLP.part.metal>
0.0000

> <Gold.PLP.part.buried>
-5.5988

> <Gold.PLP.part.nonpolar>
-19.7521

> <Gold.PLP.part.repulsive>
0.0722

> <Gold.PLP.ligand.clash>
0.0000

> <Gold.PLP.ligand.torsion>
0.2263

> <Gold.PLP.Chemscore.Hbond>
4.1464

> <Gold.PLP.Chemscore.CHOScore>
0.0000

> <Gold.PLP.Chemscore.Metal>
0.0000

> <Gold.Chemscore.Hbonds>
donor molecule, donor type, donor heavy atom, donor atom, acceptor molecule, acceptor atom, score
      L1  H     6    39       P1  7948  2.00
      L1  H     9    33       P1  7948  1.00
      P1  H  7997  8008       L1    15  0.45
      P1  H 10752 10763       L1    17  0.10

> <Gold.PLP.Chemscore.Internal.Correction>
0.0418

> <Gold.Rescore>
     Score         DG    S(hbond)    S(metal)    S(lipo)     H(rot)  DE(clash)    DE(int)     intcor
     12.74     -13.20       2.78        0.00      45.45       2.69       0.06       0.40       ----

> <Gold.Chemscore.Fitness>
12.7371

> <Gold.Chemscore.DG>
-13.2030

> <Gold.Chemscore.ZeroCoef>
-5.4800

> <Gold.Chemscore.Hbond>
2.7844

> <Gold.Chemscore.Metal>
0.0000

> <Gold.Chemscore.Lipo>
45.4482

> <Gold.Chemscore.Internal_Hbond>
0.0000

> <Gold.Chemscore.DEClash>
0.0619

> <Gold.Chemscore.DEInternal>
0.4039

> <Gold.Chemscore.Rot>
2.6932

> <Gold.Chemscore.Internal.Correction>
   9.000000E+99

> <Gold.Chemscore.Hbonds>
donor molecule, donor type, donor heavy atom, donor atom, acceptor molecule, acceptor atom, score
      L1  H     6    39       P1  7948  0.99
      L1  H     9    33       P1  7948  0.92
      P1  H  7997  8008       L1    15  0.02
      P1  H 10752 10763       L1    17  0.06

> <Gold.Chemscore.Hbond.Weighted>
-9.3000

> <Gold.Chemscore.Metal.Weighted>
-0.0000

> <Gold.Chemscore.Lipo.Weighted>
-5.3174

> <Gold.Chemscore.Internal_Hbond.Weighted>
0.0000

> <Gold.Chemscore.DEClash.Weighted>
0.0619

> <Gold.Chemscore.DEInternal.Weighted>
0.4039

> <Gold.Chemscore.Rot.Weighted>
6.8945

> <Gold.Chemscore.Internal.Correction.Weighted>
   9.000000E+99

> <Gold.Protein.RotatedTorsions>
[ 6907 6896 6895 6894 ] final   92.85 input  -60.11 | X-H torsion
[ 7974 7965 7964 7962 ] final -128.78 input  175.53 | X-H torsion
[ 8008 7997 7996 7995 ] final  -49.71 input   59.86 | X-H torsion
[ 10167 10162 10161 10158 ] final  -81.68 input  -65.29 | X-H torsion
[ 10718 10713 10712 10709 ] final  145.72 input   66.30 | X-H torsion
[ 10763 10752 10751 10750 ] final   42.58 input  -60.55 | X-H torsion
[ 11005 11000 10999 10996 ] final  101.72 input  -57.11 | X-H torsion

> <Gold.Protein.ActiveResidues>
 VAL166  LYS551  ARG553  GLY616  TRP617  ASP618  TYR619  PRO620  LYS621  CYS622 
 ASP623  PHE694  ASN695  SER759  ASP760  ASP761  ALA762  ILE779  LEU786  VAL792 
 PHE793  MET794  SER795  GLU796  ALA797  LYS798  CYS799  TRP800  GLU811  SER814 

> <Gold.Protein.RotatedAtoms>
  152.5453  134.1438  159.8489 H   0  0  0  0  0  0  0  0  0  0  0  0  # atno 6907 bound_to 6896
  151.1471  133.4925  159.2603 H   0  0  0  0  0  0  0  0  0  0  0  0  # atno 6908 bound_to 6896
  151.1511  135.0238  159.8723 H   0  0  0  0  0  0  0  0  0  0  0  0  # atno 6909 bound_to 6896
  144.9637  140.7473  143.4713 H   0  0  0  0  0  0  0  0  0  0  0  0  # atno 7974 bound_to 7965
  154.4049  140.1290  156.4547 H   0  0  0  0  0  0  0  0  0  0  0  0  # atno 8008 bound_to 7997
  155.7331  140.3491  155.5049 H   0  0  0  0  0  0  0  0  0  0  0  0  # atno 8009 bound_to 7997
  155.9108  140.1035  157.1271 H   0  0  0  0  0  0  0  0  0  0  0  0  # atno 8010 bound_to 7997
  140.4390  143.2521  151.8653 H   0  0  0  0  0  0  0  0  0  0  0  0  # atno 10167 bound_to 10162
  157.3419  131.0937  151.1075 H   0  0  0  0  0  0  0  0  0  0  0  0  # atno 10718 bound_to 10713
  152.9880  135.6127  154.2972 H   0  0  0  0  0  0  0  0  0  0  0  0  # atno 10763 bound_to 10752
  154.2694  135.2780  155.2746 H   0  0  0  0  0  0  0  0  0  0  0  0  # atno 10764 bound_to 10752
  154.5135  135.5834  153.6681 H   0  0  0  0  0  0  0  0  0  0  0  0  # atno 10765 bound_to 10752
  139.8774  134.9194  156.4949 H   0  0  0  0  0  0  0  0  0  0  0  0  # atno 11005 bound_to 11000
  145.2662  139.1973  143.4866 LP  0  0  0  0  0  0  0  0  0  0  0  0  # atno 17320 bound_to 7965
  146.3361  140.2600  142.8601 LP  0  0  0  0  0  0  0  0  0  0  0  0  # atno 17321 bound_to 7965
  139.4788  144.5251  151.8747 LP  0  0  0  0  0  0  0  0  0  0  0  0  # atno 17342 bound_to 10162
  140.4341  144.2076  150.5889 LP  0  0  0  0  0  0  0  0  0  0  0  0  # atno 17343 bound_to 10162
  157.2283  130.6513  149.5839 LP  0  0  0  0  0  0  0  0  0  0  0  0  # atno 17370 bound_to 10713
  155.9709  130.4607  150.6081 LP  0  0  0  0  0  0  0  0  0  0  0  0  # atno 17371 bound_to 10713
  140.8632  133.8044  155.9286 LP  0  0  0  0  0  0  0  0  0  0  0  0  # atno 17394 bound_to 11000
  140.9028  134.2357  157.5031 LP  0  0  0  0  0  0  0  0  0  0  0  0  # atno 17395 bound_to 11000

$$$$
