AV-unprocessed.smi:2079|AV-procd|sdf|8483|dock3
  -GOLD-   2272011183D 1   1.00000     0.00000
 Structure written by MMmdl.
 41 42  0  0  0  0  0  0  0  0  3 V2000
  149.1023  133.7439  154.4101 C   0  0  0  0  0  0  0  0  0  0  0  0
  149.9621  134.7971  155.0215 C   0  0  0  0  0  0  0  0  0  0  0  0
  149.9206  136.1623  154.9875 C   0  0  0  0  0  0  0  0  0  0  0  0
  151.0330  136.5377  155.7868 C   0  0  0  0  0  0  0  0  0  0  0  0
  151.3424  137.9068  155.9997 N   0  0  0  0  0  0  0  0  0  0  0  0
  152.3741  138.4407  156.6778 C   0  0  0  0  0  0  0  0  0  0  0  0
  153.1904  137.7109  157.2528 O   0  0  0  0  0  0  0  0  0  0  0  0
  152.3829  139.8011  156.6183 N   0  5  0  0  0  0  0  0  0  0  0  0
  151.5580  140.6871  157.4438 C   0  0  0  0  0  0  0  0  0  0  0  0
  150.9649  141.8373  156.5992 C   0  0  0  0  0  0  0  0  0  0  0  0
  150.7511  143.0802  157.4001 N   0  3  2  0  0  0  0  0  0  0  0  0
  152.0489  143.7362  157.7354 C   0  0  0  0  0  0  0  0  0  0  0  0
  151.8527  145.0921  158.4225 C   0  0  0  0  0  0  0  0  0  0  0  0
  151.0277  144.9180  159.6965 C   0  0  0  0  0  0  0  0  0  0  0  0
  149.6899  144.2653  159.3419 C   0  0  0  0  0  0  0  0  0  0  0  0
  149.8605  142.9208  158.5970 C   0  0  1  0  0  0  0  0  0  0  0  0
  148.4499  142.4024  158.2383 C   0  0  0  0  0  0  0  0  0  0  0  0
  151.6973  135.4942  156.2612 N   0  0  0  0  0  0  0  0  0  0  0  0
  151.0132  134.3738  155.7752 O   0  0  0  0  0  0  0  0  0  0  0  0
  149.0186  133.8916  153.3334 H   0  0  0  0  0  0  0  0  0  0  0  0
  148.0987  133.7720  154.8346 H   0  0  0  0  0  0  0  0  0  0  0  0
  149.5142  132.7493  154.5829 H   0  0  0  0  0  0  0  0  0  0  0  0
  149.2068  136.7900  154.4753 H   0  0  0  0  0  0  0  0  0  0  0  0
  150.7063  138.5674  155.5783 H   0  0  0  0  0  0  0  0  0  0  0  0
  150.7339  140.1336  157.8932 H   0  0  0  0  0  0  0  0  0  0  0  0
  152.1108  141.1078  158.2847 H   0  0  0  0  0  0  0  0  0  0  0  0
  151.5994  142.0058  155.7321 H   0  0  0  0  0  0  0  0  0  0  0  0
  150.0160  141.5104  156.1713 H   0  0  0  0  0  0  0  0  0  0  0  0
  152.6320  143.0773  158.3810 H   0  0  0  0  0  0  0  0  0  0  0  0
  152.6347  143.8839  156.8273 H   0  0  0  0  0  0  0  0  0  0  0  0
  152.8208  145.5331  158.6616 H   0  0  0  0  0  0  0  0  0  0  0  0
  151.3527  145.7840  157.7430 H   0  0  0  0  0  0  0  0  0  0  0  0
  151.5685  144.2988  160.4133 H   0  0  0  0  0  0  0  0  0  0  0  0
  150.8619  145.8840  160.1744 H   0  0  0  0  0  0  0  0  0  0  0  0
  149.1100  144.1160  160.2536 H   0  0  0  0  0  0  0  0  0  0  0  0
  149.1128  144.9544  158.7230 H   0  0  0  0  0  0  0  0  0  0  0  0
  150.3340  142.2062  159.2722 H   0  0  0  0  0  0  0  0  0  0  0  0
  147.8137  142.3757  159.1233 H   0  0  0  0  0  0  0  0  0  0  0  0
  148.4472  141.3922  157.8338 H   0  0  0  0  0  0  0  0  0  0  0  0
  147.9623  143.0529  157.5119 H   0  0  0  0  0  0  0  0  0  0  0  0
  150.2614  143.7111  156.7800 H   0  0  0  0  0  0  0  0  0  0  0  0
  1  2  1  0  0  0  0
  1 20  1  0  0  0  0
  1 21  1  0  0  0  0
  1 22  1  0  0  0  0
  2 19  1  0  0  0  0
  2  3  2  0  0  0  0
  3  4  1  0  0  0  0
  3 23  1  0  0  0  0
  4  5  1  0  0  0  0
  4 18  2  0  0  0  0
  5  6  1  0  0  0  0
  5 24  1  0  0  0  0
  6  7  2  0  0  0  0
  6  8  1  0  0  0  0
  8  9  1  0  0  0  0
  9 10  1  0  0  0  0
  9 25  1  0  0  0  0
  9 26  1  0  0  0  0
 10 11  1  0  0  0  0
 10 27  1  0  0  0  0
 10 28  1  0  0  0  0
 11 16  1  0  0  0  0
 11 12  1  0  0  0  0
 11 41  1  0  0  0  0
 12 13  1  0  0  0  0
 12 29  1  0  0  0  0
 12 30  1  0  0  0  0
 13 14  1  0  0  0  0
 13 31  1  0  0  0  0
 13 32  1  0  0  0  0
 14 15  1  0  0  0  0
 14 33  1  0  0  0  0
 14 34  1  0  0  0  0
 15 16  1  0  0  0  0
 15 35  1  0  0  0  0
 15 36  1  0  0  0  0
 16 17  1  0  0  0  0
 16 37  1  0  0  0  0
 17 38  1  0  0  0  0
 17 39  1  0  0  0  0
 17 40  1  0  0  0  0
 18 19  1  0  0  0  0
M  CHG  1   8  -1
M  CHG  1  11   1
M  END
> <s_m_source_file>
AV-unprocessed.smi

> <i_m_source_file_index>
2079

> <i_lp_mmshare_version>
43012

> <i_f3d_flags>
0

> <s_epik_input>
W0NIM11jMVtjSF1jKG5vMSlbTkhdQyg9TylbTkhdW0NIMl1bQ0gyXU4yW0NIMl1bQ0gyXVtDSDJdW0NIMl1bQ0BIXTJbQ0gzXQ==

> <s_epik_cmdline>
J2VwaWtfcHl0aG9uJywgJy1waCcsICc3LjAnLCAnLXRuJywgJzgnLCAnLW1hJywgJzIwMCcsICctbWV0YWxfYmluZGluZycsICctaW1hZScsICc8aW5maWxlLm1hZT4nLCAnLW9tYWUnLCAnPG91dGZpbGUubWFlPic=

> <r_epik_Ionization_Penalty>
6.7666

> <r_epik_Ionization_Penalty_Charging>
6.7666

> <r_epik_Ionization_Penalty_Neutral>
5.77131e-06

> <r_epik_State_Penalty>
6.79217

> <r_epik_Charging_Adjusted_Penalty>
13.5588

> <i_epik_Tot_Q>
0

> <i_epik_Tot_abs_Q>
2

> <r_epik_Metal_State_Penalty>
2.72569

> <b_epik_Metal_Only>
1

> <s_lp_Force_Field>
OPLS_2005

> <r_lp_Energy>
12.5834

> <b_lp_Chiralities_Consistent>
1

> <s_lp_Variant>
AV-unprocessed.smi:2079-9

> <Gold.Version>
5.8.1

> <Gold.Id.Protein>
6NUR|6NUR_protein|mol2

> <Gold.PLP.Fitness>
43.9301

> <Gold.PLP.PLP>
-30.9269

> <Gold.PLP.part.hbond>
-3.2052

> <Gold.PLP.part.metal>
0.0000

> <Gold.PLP.part.buried>
-5.1772

> <Gold.PLP.part.nonpolar>
-23.0526

> <Gold.PLP.part.repulsive>
0.1050

> <Gold.PLP.ligand.clash>
0.0000

> <Gold.PLP.ligand.torsion>
1.0639

> <Gold.PLP.Chemscore.Hbond>
5.0000

> <Gold.PLP.Chemscore.CHOScore>
0.0000

> <Gold.PLP.Chemscore.Metal>
0.0000

> <Gold.Chemscore.Hbonds>
donor molecule, donor type, donor heavy atom, donor atom, acceptor molecule, acceptor atom, score
      L1  H    11    41       P1  8028  2.00
      P1  H  7997  8008       L1     8  1.90
      P1  H 10752 10764       L1    18  1.00

> <Gold.PLP.Chemscore.Internal.Correction>
0.1310

> <Gold.Rescore>
     Score         DG    S(hbond)    S(metal)    S(lipo)     H(rot)  DE(clash)    DE(int)     intcor
     14.10     -16.47       1.79        0.00      76.70       1.54       0.06       2.32       ----

> <Gold.Chemscore.Fitness>
14.0974

> <Gold.Chemscore.DG>
-16.4735

> <Gold.Chemscore.ZeroCoef>
-5.4800

> <Gold.Chemscore.Hbond>
1.7856

> <Gold.Chemscore.Metal>
0.0000

> <Gold.Chemscore.Lipo>
76.7021

> <Gold.Chemscore.Internal_Hbond>
0.0000

> <Gold.Chemscore.DEClash>
0.0605

> <Gold.Chemscore.DEInternal>
2.3157

> <Gold.Chemscore.Rot>
1.5409

> <Gold.Chemscore.Internal.Correction>
   9.000000E+99

> <Gold.Chemscore.Hbonds>
donor molecule, donor type, donor heavy atom, donor atom, acceptor molecule, acceptor atom, score
      L1  H    11    41       P1  8028  0.93
      P1  H  7997  8008       L1     8  0.20
      P1  H 10752 10764       L1    18  0.11

> <Gold.Chemscore.Hbond.Weighted>
-5.9640

> <Gold.Chemscore.Metal.Weighted>
-0.0000

> <Gold.Chemscore.Lipo.Weighted>
-8.9741

> <Gold.Chemscore.Internal_Hbond.Weighted>
0.0000

> <Gold.Chemscore.DEClash.Weighted>
0.0605

> <Gold.Chemscore.DEInternal.Weighted>
2.3157

> <Gold.Chemscore.Rot.Weighted>
3.9446

> <Gold.Chemscore.Internal.Correction.Weighted>
   9.000000E+99

> <Gold.Protein.RotatedTorsions>
[ 6907 6896 6895 6894 ] final -151.22 input  -60.11 | X-H torsion
[ 7974 7965 7964 7962 ] final   73.30 input  175.53 | X-H torsion
[ 8008 7997 7996 7995 ] final  -54.84 input   59.86 | X-H torsion
[ 10167 10162 10161 10158 ] final   78.05 input  -65.29 | X-H torsion
[ 10718 10713 10712 10709 ] final  -60.16 input   66.30 | X-H torsion
[ 10763 10752 10751 10750 ] final  -18.99 input  -60.55 | X-H torsion
[ 11005 11000 10999 10996 ] final  162.91 input  -57.11 | X-H torsion

> <Gold.Protein.ActiveResidues>
 VAL166  LYS551  ARG553  GLY616  TRP617  ASP618  TYR619  PRO620  LYS621  CYS622 
 ASP623  PHE694  ASN695  SER759  ASP760  ASP761  ALA762  ILE779  LEU786  VAL792 
 PHE793  MET794  SER795  GLU796  ALA797  LYS798  CYS799  TRP800  GLU811  SER814 

> <Gold.Protein.RotatedAtoms>
  151.2100  133.4561  159.2597 H   0  0  0  0  0  0  0  0  0  0  0  0  # atno 6907 bound_to 6896
  151.0986  134.9959  159.8448 H   0  0  0  0  0  0  0  0  0  0  0  0  # atno 6908 bound_to 6896
  152.5441  134.2028  159.8772 H   0  0  0  0  0  0  0  0  0  0  0  0  # atno 6909 bound_to 6896
  145.7426  139.2727  143.1477 H   0  0  0  0  0  0  0  0  0  0  0  0  # atno 7974 bound_to 7965
  154.4175  140.1167  156.5381 H   0  0  0  0  0  0  0  0  0  0  0  0  # atno 8008 bound_to 7997
  155.6537  140.3496  155.4738 H   0  0  0  0  0  0  0  0  0  0  0  0  # atno 8009 bound_to 7997
  155.9771  140.1153  157.0750 H   0  0  0  0  0  0  0  0  0  0  0  0  # atno 8010 bound_to 7997
  139.9750  144.5867  150.7951 H   0  0  0  0  0  0  0  0  0  0  0  0  # atno 10167 bound_to 10162
  156.1010  130.4186  150.0815 H   0  0  0  0  0  0  0  0  0  0  0  0  # atno 10718 bound_to 10713
  153.5978  135.7000  153.5397 H   0  0  0  0  0  0  0  0  0  0  0  0  # atno 10763 bound_to 10752
  153.3123  135.4097  155.1346 H   0  0  0  0  0  0  0  0  0  0  0  0  # atno 10764 bound_to 10752
  154.8588  135.3675  154.5512 H   0  0  0  0  0  0  0  0  0  0  0  0  # atno 10765 bound_to 10752
  140.2304  134.8128  157.3312 H   0  0  0  0  0  0  0  0  0  0  0  0  # atno 11005 bound_to 11000
  146.0433  140.8143  142.9818 LP  0  0  0  0  0  0  0  0  0  0  0  0  # atno 17320 bound_to 7965
  144.6867  140.2943  143.7273 LP  0  0  0  0  0  0  0  0  0  0  0  0  # atno 17321 bound_to 7965
  140.7509  143.2963  151.3196 LP  0  0  0  0  0  0  0  0  0  0  0  0  # atno 17342 bound_to 10162
  139.6452  144.0464  152.2585 LP  0  0  0  0  0  0  0  0  0  0  0  0  # atno 17343 bound_to 10162
  156.8802  130.9554  151.3600 LP  0  0  0  0  0  0  0  0  0  0  0  0  # atno 17370 bound_to 10713
  157.6180  130.8633  149.9061 LP  0  0  0  0  0  0  0  0  0  0  0  0  # atno 17371 bound_to 10713
  140.1756  134.4554  155.7804 LP  0  0  0  0  0  0  0  0  0  0  0  0  # atno 17394 bound_to 11000
  141.2218  133.6961  156.7781 LP  0  0  0  0  0  0  0  0  0  0  0  0  # atno 17395 bound_to 11000

$$$$
