AV-unprocessed.smi:1597|AV-procd|sdf|6420|dock9
  -GOLD-   22720 7 53D 1   1.00000     0.00000
 Structure written by MMmdl.
 53 54  0  0  0  0  0  0  0  0  2 V2000
  147.1444  134.2672  154.4944 C   0  0  0  0  0  0  0  0  0  0  0  0
  147.5311  133.9354  153.0967 N   0  3  0  0  0  0  0  0  0  0  0  0
  148.8666  133.2750  153.0852 C   0  0  0  0  0  0  0  0  0  0  0  0
  146.4569  133.2834  152.2520 C   0  0  0  0  0  0  0  0  0  0  0  0
  145.8798  132.0693  153.0547 C   0  0  0  0  0  0  0  0  0  0  0  0
  146.8788  131.0413  153.3387 N   0  0  0  0  0  0  0  0  0  0  0  0
  146.7550  129.7160  153.1612 C   0  0  0  0  0  0  0  0  0  0  0  0
  145.7401  129.1953  152.7028 O   0  0  0  0  0  0  0  0  0  0  0  0
  147.9353  128.8232  153.5819 C   0  0  0  0  0  0  0  0  0  0  0  0
  148.1748  127.6738  152.6943 N   0  0  0  0  0  0  0  0  0  0  0  0
  148.1221  127.8511  151.3234 C   0  0  0  0  0  0  0  0  0  0  0  0
  148.3001  126.8496  150.4349 C   0  0  0  0  0  0  0  0  0  0  0  0
  148.5632  125.4894  150.8868 C   0  0  0  0  0  0  0  0  0  0  0  0
  148.7364  124.5418  150.1193 O   0  0  0  0  0  0  0  0  0  0  0  0
  148.6079  125.3332  152.2908 N   0  0  0  0  0  0  0  0  0  0  0  0
  148.8706  123.9965  152.7820 C   0  0  0  0  0  0  0  0  0  0  0  0
  148.4289  126.3866  153.2177 C   0  0  0  0  0  0  0  0  0  0  0  0
  148.4776  126.2114  154.4369 O   0  0  0  0  0  0  0  0  0  0  0  0
  145.3071  134.3154  151.9913 C   0  0  0  0  0  0  0  0  0  0  0  0
  144.5919  134.3318  150.6264 C   0  0  0  0  0  0  0  0  0  0  0  0
  144.0828  132.9846  150.0997 C   0  0  0  0  0  0  0  0  0  0  0  0
  145.1417  132.2457  149.2732 C   0  0  0  0  0  0  0  0  0  0  0  0
  146.3242  131.7062  150.0850 C   0  0  0  0  0  0  0  0  0  0  0  0
  147.0987  132.7569  150.9170 C   0  0  0  0  0  0  0  0  0  0  0  0
  146.8122  133.3843  155.0407 H   0  0  0  0  0  0  0  0  0  0  0  0
  146.3573  135.0185  154.5397 H   0  0  0  0  0  0  0  0  0  0  0  0
  147.9906  134.6908  155.0363 H   0  0  0  0  0  0  0  0  0  0  0  0
  148.8707  132.3488  153.6595 H   0  0  0  0  0  0  0  0  0  0  0  0
  149.6059  133.9358  153.5389 H   0  0  0  0  0  0  0  0  0  0  0  0
  149.2354  133.0514  152.0876 H   0  0  0  0  0  0  0  0  0  0  0  0
  145.3833  132.3710  153.9754 H   0  0  0  0  0  0  0  0  0  0  0  0
  145.0837  131.5845  152.4942 H   0  0  0  0  0  0  0  0  0  0  0  0
  147.7566  131.3708  153.7149 H   0  0  0  0  0  0  0  0  0  0  0  0
  148.8324  129.4431  153.6190 H   0  0  0  0  0  0  0  0  0  0  0  0
  147.7747  128.4890  154.6080 H   0  0  0  0  0  0  0  0  0  0  0  0
  147.9244  128.8416  150.9399 H   0  0  0  0  0  0  0  0  0  0  0  0
  148.2461  127.0566  149.3761 H   0  0  0  0  0  0  0  0  0  0  0  0
  148.7628  123.9428  153.8647 H   0  0  0  0  0  0  0  0  0  0  0  0
  149.8909  123.7440  152.4889 H   0  0  0  0  0  0  0  0  0  0  0  0
  148.1453  123.3261  152.3172 H   0  0  0  0  0  0  0  0  0  0  0  0
  144.5544  134.2190  152.7749 H   0  0  0  0  0  0  0  0  0  0  0  0
  145.6848  135.3305  152.1048 H   0  0  0  0  0  0  0  0  0  0  0  0
  143.7372  135.0029  150.7197 H   0  0  0  0  0  0  0  0  0  0  0  0
  145.2334  134.8008  149.8793 H   0  0  0  0  0  0  0  0  0  0  0  0
  143.6881  132.3629  150.9023 H   0  0  0  0  0  0  0  0  0  0  0  0
  143.2361  133.1810  149.4410 H   0  0  0  0  0  0  0  0  0  0  0  0
  144.6659  131.4089  148.7608 H   0  0  0  0  0  0  0  0  0  0  0  0
  145.5111  132.9011  148.4835 H   0  0  0  0  0  0  0  0  0  0  0  0
  146.0035  130.8609  150.6908 H   0  0  0  0  0  0  0  0  0  0  0  0
  147.0258  131.2709  149.3725 H   0  0  0  0  0  0  0  0  0  0  0  0
  147.3519  133.5912  150.2617 H   0  0  0  0  0  0  0  0  0  0  0  0
  148.0520  132.2865  151.1635 H   0  0  0  0  0  0  0  0  0  0  0  0
  147.6860  134.8308  152.6550 H   0  0  0  0  0  0  0  0  0  0  0  0
  1  2  1  0  0  0  0
  1 25  1  0  0  0  0
  1 26  1  0  0  0  0
  1 27  1  0  0  0  0
  2  3  1  0  0  0  0
  2  4  1  0  0  0  0
  2 53  1  0  0  0  0
  3 28  1  0  0  0  0
  3 29  1  0  0  0  0
  3 30  1  0  0  0  0
  4 24  1  0  0  0  0
  4  5  1  0  0  0  0
  4 19  1  0  0  0  0
  5  6  1  0  0  0  0
  5 31  1  0  0  0  0
  5 32  1  0  0  0  0
  6  7  1  0  0  0  0
  6 33  1  0  0  0  0
  7  8  2  0  0  0  0
  7  9  1  0  0  0  0
  9 10  1  0  0  0  0
  9 34  1  0  0  0  0
  9 35  1  0  0  0  0
 10 17  1  0  0  0  0
 10 11  1  0  0  0  0
 11 12  2  0  0  0  0
 11 36  1  0  0  0  0
 12 13  1  0  0  0  0
 12 37  1  0  0  0  0
 13 14  2  0  0  0  0
 13 15  1  0  0  0  0
 15 16  1  0  0  0  0
 15 17  1  0  0  0  0
 16 38  1  0  0  0  0
 16 39  1  0  0  0  0
 16 40  1  0  0  0  0
 17 18  2  0  0  0  0
 19 20  1  0  0  0  0
 19 41  1  0  0  0  0
 19 42  1  0  0  0  0
 20 21  1  0  0  0  0
 20 43  1  0  0  0  0
 20 44  1  0  0  0  0
 21 22  1  0  0  0  0
 21 45  1  0  0  0  0
 21 46  1  0  0  0  0
 22 23  1  0  0  0  0
 22 47  1  0  0  0  0
 22 48  1  0  0  0  0
 23 24  1  0  0  0  0
 23 49  1  0  0  0  0
 23 50  1  0  0  0  0
 24 51  1  0  0  0  0
 24 52  1  0  0  0  0
M  CHG  1   2   1
M  END
> <s_m_source_file>
AV-unprocessed.smi

> <i_m_source_file_index>
1597

> <i_lp_mmshare_version>
43012

> <i_f3d_flags>
0

> <s_epik_input>
W0NIMl0xW0NIMl1bQ0gyXVtDSDJdW0NIMl1bQ0gyXUMxKE4oW0NIM10pW0NIM10pW0NIMl1bTkhdQyg9TylbQ0gyXW4yW2NIXVtjSF1jKD1PKW4oW0NIM10pYzI9Tw==

> <s_epik_cmdline>
J2VwaWtfcHl0aG9uJywgJy1waCcsICc3LjAnLCAnLXRuJywgJzgnLCAnLW1hJywgJzIwMCcsICctbWV0YWxfYmluZGluZycsICctaW1hZScsICc8aW5maWxlLm1hZT4nLCAnLW9tYWUnLCAnPG91dGZpbGUubWFlPic=

> <r_lp_tautomer_probability>
1

> <r_epik_Ionization_Penalty>
0.00225783

> <r_epik_Ionization_Penalty_Charging>
0.00225776

> <r_epik_Ionization_Penalty_Neutral>
7.38919e-08

> <r_epik_State_Penalty>
0.00155497

> <r_epik_Charging_Adjusted_Penalty>
0.00381272

> <i_epik_Tot_Q>
1

> <i_epik_Tot_abs_Q>
1

> <r_epik_Metal_State_Penalty>
-0

> <b_epik_Metal_Only>
0

> <s_lp_Force_Field>
OPLS_2005

> <r_lp_Energy>
50.4542

> <b_lp_Chiralities_Consistent>
1

> <s_lp_Variant>
AV-unprocessed.smi:1597-1

> <Gold.Version>
5.8.1

> <Gold.Id.Protein>
6NUR|6NUR_protein|mol2

> <Gold.PLP.Fitness>
44.8011

> <Gold.PLP.PLP>
-37.5963

> <Gold.PLP.part.hbond>
-1.0000

> <Gold.PLP.part.metal>
0.0000

> <Gold.PLP.part.buried>
0.2501

> <Gold.PLP.part.nonpolar>
-36.5183

> <Gold.PLP.part.repulsive>
0.2074

> <Gold.PLP.ligand.clash>
0.0000

> <Gold.PLP.ligand.torsion>
0.9507

> <Gold.PLP.Chemscore.Hbond>
2.0000

> <Gold.PLP.Chemscore.CHOScore>
0.9933

> <Gold.PLP.Chemscore.Metal>
0.0000

> <Gold.Chemscore.Hbonds>
donor molecule, donor type, donor heavy atom, donor atom, acceptor molecule, acceptor atom, score
      L1  H     2    53       P1  7948  1.98
      L1  C    11    36       P1 10747  1.00

> <Gold.PLP.Chemscore.Internal.Correction>
0.1262

> <Gold.Rescore>
     Score         DG    S(hbond)    S(metal)    S(lipo)     H(rot)  DE(clash)    DE(int)     intcor
     10.26     -14.89       0.78        0.00     102.41       2.02       3.78       0.86       ----

> <Gold.Chemscore.Fitness>
10.2570

> <Gold.Chemscore.DG>
-14.8941

> <Gold.Chemscore.ZeroCoef>
-5.4800

> <Gold.Chemscore.Hbond>
0.7821

> <Gold.Chemscore.Metal>
0.0000

> <Gold.Chemscore.Lipo>
102.4125

> <Gold.Chemscore.Internal_Hbond>
0.0000

> <Gold.Chemscore.DEClash>
3.7768

> <Gold.Chemscore.DEInternal>
0.8603

> <Gold.Chemscore.Rot>
2.0236

> <Gold.Chemscore.Internal.Correction>
   9.000000E+99

> <Gold.Chemscore.Hbonds>
donor molecule, donor type, donor heavy atom, donor atom, acceptor molecule, acceptor atom, score
      L1  H     2    53       P1  7948  0.84

> <Gold.Chemscore.Hbond.Weighted>
-2.6121

> <Gold.Chemscore.Metal.Weighted>
-0.0000

> <Gold.Chemscore.Lipo.Weighted>
-11.9823

> <Gold.Chemscore.Internal_Hbond.Weighted>
0.0000

> <Gold.Chemscore.DEClash.Weighted>
3.7768

> <Gold.Chemscore.DEInternal.Weighted>
0.8603

> <Gold.Chemscore.Rot.Weighted>
5.1803

> <Gold.Chemscore.Internal.Correction.Weighted>
   9.000000E+99

> <Gold.Protein.RotatedTorsions>
[ 6907 6896 6895 6894 ] final   44.47 input  -60.11 | X-H torsion
[ 7974 7965 7964 7962 ] final   65.43 input  175.53 | X-H torsion
[ 8008 7997 7996 7995 ] final  171.02 input   59.86 | X-H torsion
[ 10167 10162 10161 10158 ] final -146.93 input  -65.29 | X-H torsion
[ 10718 10713 10712 10709 ] final  132.01 input   66.30 | X-H torsion
[ 10763 10752 10751 10750 ] final  145.71 input  -60.55 | X-H torsion
[ 11005 11000 10999 10996 ] final   60.53 input  -57.11 | X-H torsion

> <Gold.Protein.ActiveResidues>
 VAL166  LYS551  ARG553  GLY616  TRP617  ASP618  TYR619  PRO620  LYS621  CYS622 
 ASP623  PHE694  ASN695  SER759  ASP760  ASP761  ALA762  ILE779  LEU786  VAL792 
 PHE793  MET794  SER795  GLU796  ALA797  LYS798  CYS799  TRP800  GLU811  SER814 

> <Gold.Protein.RotatedAtoms>
  152.2329  134.8304  160.0470 H   0  0  0  0  0  0  0  0  0  0  0  0  # atno 6907 bound_to 6896
  151.9047  133.3541  159.3851 H   0  0  0  0  0  0  0  0  0  0  0  0  # atno 6908 bound_to 6896
  150.7031  134.4718  159.5473 H   0  0  0  0  0  0  0  0  0  0  0  0  # atno 6909 bound_to 6896
  145.8385  139.3181  143.0945 H   0  0  0  0  0  0  0  0  0  0  0  0  # atno 7974 bound_to 7965
  156.1311  140.1523  156.9064 H   0  0  0  0  0  0  0  0  0  0  0  0  # atno 8008 bound_to 7997
  154.4909  140.0851  156.7633 H   0  0  0  0  0  0  0  0  0  0  0  0  # atno 8009 bound_to 7997
  155.4255  140.3425  155.4277 H   0  0  0  0  0  0  0  0  0  0  0  0  # atno 8010 bound_to 7997
  139.7668  143.8296  152.2617 H   0  0  0  0  0  0  0  0  0  0  0  0  # atno 10167 bound_to 10162
  157.4913  131.1090  150.9553 H   0  0  0  0  0  0  0  0  0  0  0  0  # atno 10718 bound_to 10713
  154.0098  135.2915  155.3393 H   0  0  0  0  0  0  0  0  0  0  0  0  # atno 10763 bound_to 10752
  154.7110  135.5149  153.8669 H   0  0  0  0  0  0  0  0  0  0  0  0  # atno 10764 bound_to 10752
  153.0728  135.6653  154.0331 H   0  0  0  0  0  0  0  0  0  0  0  0  # atno 10765 bound_to 10752
  140.0225  134.6132  155.9619 H   0  0  0  0  0  0  0  0  0  0  0  0  # atno 11005 bound_to 11000
  145.9491  140.8922  143.0268 LP  0  0  0  0  0  0  0  0  0  0  0  0  # atno 17320 bound_to 7965
  144.6735  140.1655  143.7419 LP  0  0  0  0  0  0  0  0  0  0  0  0  # atno 17321 bound_to 7965
  139.8318  144.7250  150.9440 LP  0  0  0  0  0  0  0  0  0  0  0  0  # atno 17342 bound_to 10162
  140.7811  143.4062  151.1066 LP  0  0  0  0  0  0  0  0  0  0  0  0  # atno 17343 bound_to 10162
  157.0254  130.5690  149.5336 LP  0  0  0  0  0  0  0  0  0  0  0  0  # atno 17370 bound_to 10713
  156.0175  130.5269  150.8178 LP  0  0  0  0  0  0  0  0  0  0  0  0  # atno 17371 bound_to 10713
  141.1782  133.6543  156.4914 LP  0  0  0  0  0  0  0  0  0  0  0  0  # atno 17394 bound_to 11000
  140.4363  134.7056  157.4968 LP  0  0  0  0  0  0  0  0  0  0  0  0  # atno 17395 bound_to 11000

$$$$
