AV-unprocessed.smi:169|AV-procd|sdf|1400|dock7
  -GOLD-   2262019153D 1   1.00000     0.00000
 Structure written by MMmdl.
 56 60  0  0  0  0  0  0  0  0  2 V2000
  152.6161  143.2299  161.4843 C   0  0  0  0  0  0  0  0  0  0  0  0
  152.2940  143.6325  160.0341 C   0  0  0  0  0  0  0  0  0  0  0  0
  151.7953  142.5144  159.1920 N   0  3  2  0  0  0  0  0  0  0  0  0
  152.7360  141.3407  159.1289 C   0  0  0  0  0  0  0  0  0  0  0  0
  152.0355  139.9449  158.9995 C   0  0  0  0  0  0  0  0  0  0  0  0
  150.9761  139.6925  157.8754 C   0  0  2  0  0  0  0  0  0  0  0  0
  151.4851  139.6507  156.3974 C   0  0  0  0  0  0  0  0  0  0  0  0
  151.0835  141.0363  155.7915 C   0  0  0  0  0  0  0  0  0  0  0  0
  150.6622  141.7920  157.0596 C   0  0  3  0  0  0  0  0  0  0  0  0
  151.2355  142.9780  157.8702 C   0  0  0  0  0  0  0  0  0  0  0  0
  150.0160  140.7876  157.8913 N   0  0  0  0  0  0  0  0  0  0  0  0
  148.6959  140.5719  157.6319 C   0  0  0  0  0  0  0  0  0  0  0  0
  147.7482  141.0444  158.4849 N   0  0  0  0  0  0  0  0  0  0  0  0
  146.4516  140.8266  158.2511 C   0  0  0  0  0  0  0  0  0  0  0  0
  145.8872  140.1754  157.2340 N   0  0  0  0  0  0  0  0  0  0  0  0
  146.8256  139.7119  156.3611 C   0  0  0  0  0  0  0  0  0  0  0  0
  148.2369  139.8625  156.4834 C   0  0  0  0  0  0  0  0  0  0  0  0
  148.8662  139.2586  155.4014 N   0  0  0  0  0  0  0  0  0  0  0  0
  147.8871  138.7739  154.6879 C   0  0  0  0  0  0  0  0  0  0  0  0
  146.6251  139.0120  155.1827 N   0  0  0  0  0  0  0  0  0  0  0  0
  145.3624  138.5837  154.5964 C   0  0  0  0  0  0  0  0  0  0  0  0
  145.4968  137.8865  153.2246 C   0  0  0  0  0  0  0  0  0  0  0  0
  146.1269  138.8375  152.1938 C   0  0  0  0  0  0  0  0  0  0  0  0
  146.0459  138.3007  150.8893 O   0  0  0  0  0  0  0  0  0  0  0  0
  146.0933  136.4710  153.2541 C   0  0  0  0  0  0  0  0  0  0  0  0
  144.8041  135.8539  153.0580 O   0  0  0  0  0  0  0  0  0  0  0  0
  144.2378  137.1456  152.7535 C   0  0  0  0  0  0  0  0  0  0  0  0
  152.9572  144.0966  162.0510 H   0  0  0  0  0  0  0  0  0  0  0  0
  153.4067  142.4821  161.5358 H   0  0  0  0  0  0  0  0  0  0  0  0
  151.7416  142.8319  161.9989 H   0  0  0  0  0  0  0  0  0  0  0  0
  151.5457  144.4259  160.0372 H   0  0  0  0  0  0  0  0  0  0  0  0
  153.1811  144.0616  159.5665 H   0  0  0  0  0  0  0  0  0  0  0  0
  153.4657  141.4875  158.3309 H   0  0  0  0  0  0  0  0  0  0  0  0
  153.3228  141.3123  160.0482 H   0  0  0  0  0  0  0  0  0  0  0  0
  152.8059  139.1768  158.9262 H   0  0  0  0  0  0  0  0  0  0  0  0
  151.5375  139.7529  159.9507 H   0  0  0  0  0  0  0  0  0  0  0  0
  150.5126  138.7335  158.1069 H   0  0  0  0  0  0  0  0  0  0  0  0
  152.5622  139.4851  156.3567 H   0  0  0  0  0  0  0  0  0  0  0  0
  151.0063  138.8450  155.8398 H   0  0  0  0  0  0  0  0  0  0  0  0
  151.8760  141.5071  155.2012 H   0  0  0  0  0  0  0  0  0  0  0  0
  150.2215  140.9167  155.1338 H   0  0  0  0  0  0  0  0  0  0  0  0
  151.7294  141.6551  157.1148 H   0  0  0  0  0  0  0  0  0  0  0  0
  150.4279  143.6769  158.0862 H   0  0  0  0  0  0  0  0  0  0  0  0
  151.9690  143.5509  157.2950 H   0  0  0  0  0  0  0  0  0  0  0  0
  145.7685  141.2322  158.9831 H   0  0  0  0  0  0  0  0  0  0  0  0
  148.0634  138.2230  153.7757 H   0  0  0  0  0  0  0  0  0  0  0  0
  144.8804  137.9152  155.3111 H   0  0  0  0  0  0  0  0  0  0  0  0
  144.7050  139.4509  154.5269 H   0  0  0  0  0  0  0  0  0  0  0  0
  145.6580  139.8209  152.2101 H   0  0  0  0  0  0  0  0  0  0  0  0
  147.1812  139.0037  152.4168 H   0  0  0  0  0  0  0  0  0  0  0  0
  145.1544  138.3791  150.5855 H   0  0  0  0  0  0  0  0  0  0  0  0
  146.7724  136.2576  152.4270 H   0  0  0  0  0  0  0  0  0  0  0  0
  146.5443  136.1862  154.2034 H   0  0  0  0  0  0  0  0  0  0  0  0
  143.3478  137.3623  153.3457 H   0  0  0  0  0  0  0  0  0  0  0  0
  144.0299  137.2550  151.6879 H   0  0  0  0  0  0  0  0  0  0  0  0
  150.9946  142.1618  159.6970 H   0  0  0  0  0  0  0  0  0  0  0  0
  1  2  1  0  0  0  0
  1 28  1  0  0  0  0
  1 29  1  0  0  0  0
  1 30  1  0  0  0  0
  2  3  1  0  0  0  0
  2 31  1  0  0  0  0
  2 32  1  0  0  0  0
  3 10  1  0  0  0  0
  3  4  1  0  0  0  0
  3 56  1  0  0  0  0
  4  5  1  0  0  0  0
  4 33  1  0  0  0  0
  4 34  1  0  0  0  0
  5  6  1  0  0  0  0
  5 35  1  0  0  0  0
  5 36  1  0  0  0  0
  6 11  1  0  0  0  0
  6  7  1  0  0  0  0
  6 37  1  0  0  0  0
  7  8  1  0  0  0  0
  7 38  1  0  0  0  0
  7 39  1  0  0  0  0
  8  9  1  0  0  0  0
  8 40  1  0  0  0  0
  8 41  1  0  0  0  0
  9 10  1  0  0  0  0
  9 11  1  0  0  0  0
  9 42  1  0  0  0  0
 10 43  1  0  0  0  0
 10 44  1  0  0  0  0
 11 12  1  0  0  0  0
 12 17  1  0  0  0  0
 12 13  2  0  0  0  0
 13 14  1  0  0  0  0
 14 15  2  0  0  0  0
 14 45  1  0  0  0  0
 15 16  1  0  0  0  0
 16 20  1  0  0  0  0
 16 17  2  0  0  0  0
 17 18  1  0  0  0  0
 18 19  2  0  0  0  0
 19 20  1  0  0  0  0
 19 46  1  0  0  0  0
 20 21  1  0  0  0  0
 21 22  1  0  0  0  0
 21 47  1  0  0  0  0
 21 48  1  0  0  0  0
 22 27  1  0  0  0  0
 22 23  1  0  0  0  0
 22 25  1  0  0  0  0
 23 24  1  0  0  0  0
 23 49  1  0  0  0  0
 23 50  1  0  0  0  0
 24 51  1  0  0  0  0
 25 26  1  0  0  0  0
 25 52  1  0  0  0  0
 25 53  1  0  0  0  0
 26 27  1  0  0  0  0
 27 54  1  0  0  0  0
 27 55  1  0  0  0  0
M  CHG  1   3   1
M  END
> <s_m_source_file>
AV-unprocessed.smi

> <i_m_source_file_index>
169

> <i_lp_mmshare_version>
43012

> <i_f3d_flags>
0

> <s_epik_input>
W0NASF0xMltDSDJdW0NIMl1OKFtDSDJdW0NIM10pW0NIMl1bQ0BIXShbQ0gyXVtDSDJdMSlOMmMobltjSF1uMyljKGMzNCluW2NIXW40W0NIMl1DNShbQ0gyXVtPSF0pW0NIMl1PW0NIMl01

> <s_epik_cmdline>
J2VwaWtfcHl0aG9uJywgJy1waCcsICc3LjAnLCAnLXRuJywgJzgnLCAnLW1hJywgJzIwMCcsICctbWV0YWxfYmluZGluZycsICctaW1hZScsICc8aW5maWxlLm1hZT4nLCAnLW9tYWUnLCAnPG91dGZpbGUubWFlPic=

> <r_lp_tautomer_probability>
1

> <r_epik_Ionization_Penalty>
0.00274162

> <r_epik_Ionization_Penalty_Charging>
0.00243722

> <r_epik_Ionization_Penalty_Neutral>
0.000304399

> <r_epik_State_Penalty>
-0

> <r_epik_Charging_Adjusted_Penalty>
0.00243722

> <i_epik_Tot_Q>
1

> <i_epik_Tot_abs_Q>
1

> <r_epik_Metal_State_Penalty>
-0

> <b_epik_Metal_Only>
0

> <s_lp_Force_Field>
OPLS_2005

> <r_lp_Energy>
131.332

> <b_lp_Chiralities_Consistent>
1

> <s_lp_Variant>
AV-unprocessed.smi:169-3

> <Gold.Version>
5.8.1

> <Gold.Id.Protein>
6NUR|6NUR_protein|mol2

> <Gold.PLP.Fitness>
44.5503

> <Gold.PLP.PLP>
-37.3003

> <Gold.PLP.part.hbond>
-3.5102

> <Gold.PLP.part.metal>
0.0000

> <Gold.PLP.part.buried>
-4.3030

> <Gold.PLP.part.nonpolar>
-29.6641

> <Gold.PLP.part.repulsive>
0.2559

> <Gold.PLP.ligand.clash>
0.0000

> <Gold.PLP.ligand.torsion>
0.5280

> <Gold.PLP.Chemscore.Hbond>
2.0000

> <Gold.PLP.Chemscore.CHOScore>
0.6257

> <Gold.PLP.Chemscore.Metal>
0.0000

> <Gold.Chemscore.Hbonds>
donor molecule, donor type, donor heavy atom, donor atom, acceptor molecule, acceptor atom, score
      L1  H    24    51       P1 10171  0.93
      P1  H  7954  7966       L1    24  0.14
      L1  C    19    46       P1  7948  0.10

> <Gold.PLP.Chemscore.Internal.Correction>
0.4290

> <Gold.Rescore>
     Score         DG    S(hbond)    S(metal)    S(lipo)     H(rot)  DE(clash)    DE(int)     intcor
     12.80     -16.00       1.87        0.00      93.98       2.62       0.05       3.15       ----

> <Gold.Chemscore.Fitness>
12.7994

> <Gold.Chemscore.DG>
-15.9969

> <Gold.Chemscore.ZeroCoef>
-5.4800

> <Gold.Chemscore.Hbond>
1.8658

> <Gold.Chemscore.Metal>
0.0000

> <Gold.Chemscore.Lipo>
93.9761

> <Gold.Chemscore.Internal_Hbond>
0.0000

> <Gold.Chemscore.DEClash>
0.0460

> <Gold.Chemscore.DEInternal>
3.1514

> <Gold.Chemscore.Rot>
2.6212

> <Gold.Chemscore.Internal.Correction>
   9.000000E+99

> <Gold.Chemscore.Hbonds>
donor molecule, donor type, donor heavy atom, donor atom, acceptor molecule, acceptor atom, score
      L1  H    24    51       P1 10171  0.89
      P1  H  7954  7966       L1    24  0.13

> <Gold.Chemscore.Hbond.Weighted>
-6.2319

> <Gold.Chemscore.Metal.Weighted>
-0.0000

> <Gold.Chemscore.Lipo.Weighted>
-10.9952

> <Gold.Chemscore.Internal_Hbond.Weighted>
0.0000

> <Gold.Chemscore.DEClash.Weighted>
0.0460

> <Gold.Chemscore.DEInternal.Weighted>
3.1514

> <Gold.Chemscore.Rot.Weighted>
6.7102

> <Gold.Chemscore.Internal.Correction.Weighted>
   9.000000E+99

> <Gold.Protein.RotatedTorsions>
[ 6907 6896 6895 6894 ] final   38.17 input  -60.11 | X-H torsion
[ 7974 7965 7964 7962 ] final  -85.74 input  175.53 | X-H torsion
[ 8008 7997 7996 7995 ] final -178.38 input   59.86 | X-H torsion
[ 10167 10162 10161 10158 ] final  139.57 input  -65.29 | X-H torsion
[ 10718 10713 10712 10709 ] final   99.02 input   66.30 | X-H torsion
[ 10763 10752 10751 10750 ] final -120.64 input  -60.55 | X-H torsion
[ 11005 11000 10999 10996 ] final   59.52 input  -57.11 | X-H torsion

> <Gold.Protein.ActiveResidues>
 VAL166  LYS551  ARG553  GLY616  TRP617  ASP618  TYR619  PRO620  LYS621  CYS622 
 ASP623  PHE694  ASN695  SER759  ASP760  ASP761  ALA762  ILE779  LEU786  VAL792 
 PHE793  MET794  SER795  GLU796  ALA797  LYS798  CYS799  TRP800  GLU811  SER814 

> <Gold.Protein.RotatedAtoms>
  152.1529  134.8974  160.0546 H   0  0  0  0  0  0  0  0  0  0  0  0  # atno 6907 bound_to 6896
  151.9999  133.3816  159.4186 H   0  0  0  0  0  0  0  0  0  0  0  0  # atno 6908 bound_to 6896
  150.6878  134.3768  159.5060 H   0  0  0  0  0  0  0  0  0  0  0  0  # atno 6909 bound_to 6896
  145.4892  140.9553  143.1821 H   0  0  0  0  0  0  0  0  0  0  0  0  # atno 7974 bound_to 7965
  156.0181  140.1255  157.0385 H   0  0  0  0  0  0  0  0  0  0  0  0  # atno 8008 bound_to 7997
  154.4301  140.1074  156.5995 H   0  0  0  0  0  0  0  0  0  0  0  0  # atno 8009 bound_to 7997
  155.5983  140.3470  155.4588 H   0  0  0  0  0  0  0  0  0  0  0  0  # atno 8010 bound_to 7997
  139.5075  144.6287  151.5872 H   0  0  0  0  0  0  0  0  0  0  0  0  # atno 10167 bound_to 10162
  157.6884  131.0657  150.4885 H   0  0  0  0  0  0  0  0  0  0  0  0  # atno 10718 bound_to 10713
  154.8649  135.4196  154.2492 H   0  0  0  0  0  0  0  0  0  0  0  0  # atno 10763 bound_to 10752
  153.3442  135.6995  153.6848 H   0  0  0  0  0  0  0  0  0  0  0  0  # atno 10764 bound_to 10752
  153.5814  135.3572  155.2849 H   0  0  0  0  0  0  0  0  0  0  0  0  # atno 10765 bound_to 10752
  140.0298  134.6029  155.9523 H   0  0  0  0  0  0  0  0  0  0  0  0  # atno 11005 bound_to 11000
  144.7844  139.6458  143.7140 LP  0  0  0  0  0  0  0  0  0  0  0  0  # atno 17320 bound_to 7965
  146.2294  139.5785  142.9565 LP  0  0  0  0  0  0  0  0  0  0  0  0  # atno 17321 bound_to 7965
  140.6012  143.9606  150.6388 LP  0  0  0  0  0  0  0  0  0  0  0  0  # atno 17342 bound_to 10162
  140.2818  143.3384  152.1144 LP  0  0  0  0  0  0  0  0  0  0  0  0  # atno 17343 bound_to 10162
  156.5213  130.4162  149.6249 LP  0  0  0  0  0  0  0  0  0  0  0  0  # atno 17370 bound_to 10713
  156.3152  130.7250  151.2151 LP  0  0  0  0  0  0  0  0  0  0  0  0  # atno 17371 bound_to 10713
  141.1824  133.6549  156.5075 LP  0  0  0  0  0  0  0  0  0  0  0  0  # atno 17394 bound_to 11000
  140.4245  134.7157  157.4908 LP  0  0  0  0  0  0  0  0  0  0  0  0  # atno 17395 bound_to 11000

$$$$
