AV-unprocessed.smi:37|AV-procd|sdf|325|dock3
  -GOLD-   2262016153D 1   1.00000     0.00000
 Structure written by MMmdl.
 43 44  0  0  0  0  0  0  0  0  2 V2000
  146.0614  141.5741  155.6853 C   0  0  0  0  0  0  0  0  0  0  0  0
  146.5937  141.5584  154.2459 C   0  0  0  0  0  0  0  0  0  0  0  0
  148.0855  141.2425  154.2044 C   0  0  0  0  0  0  0  0  0  0  0  0
  148.8808  141.9852  153.6286 O   0  0  0  0  0  0  0  0  0  0  0  0
  148.3836  140.0863  154.8267 O   0  0  0  0  0  0  0  0  0  0  0  0
  149.6920  139.5353  154.7500 C   0  0  0  0  0  0  0  0  0  0  0  0
  150.6882  140.4578  155.4707 C   0  0  2  0  0  0  0  0  0  0  0  0
  151.9208  139.7560  155.6140 O   0  0  0  0  0  0  0  0  0  0  0  0
  152.3089  139.7526  156.9509 C   0  0  2  0  0  0  0  0  0  0  0  0
  153.1018  138.5037  157.2804 N   0  0  0  0  0  0  0  0  0  0  0  0
  153.1787  138.1129  158.6050 C   0  0  0  0  0  0  0  0  0  0  0  0
  153.8765  137.0212  158.9784 C   0  0  0  0  0  0  0  0  0  0  0  0
  153.9230  136.6674  160.2743 F   0  0  0  0  0  0  0  0  0  0  0  0
  154.5766  136.2315  157.9682 C   0  0  0  0  0  0  0  0  0  0  0  0
  155.1999  135.2281  158.3116 O   0  0  0  0  0  0  0  0  0  0  0  0
  154.5069  136.6506  156.6722 N   0  5  0  0  0  0  0  0  0  0  0  0
  153.8092  137.7601  156.2895 C   0  0  0  0  0  0  0  0  0  0  0  0
  153.7707  138.1472  155.1222 O   0  0  0  0  0  0  0  0  0  0  0  0
  151.0651  140.0061  157.8169 C   0  0  2  0  0  0  0  0  0  0  0  0
  149.9927  138.3909  158.2924 Br  0  0  0  0  0  0  0  0  0  0  0  0
  150.2395  140.8735  156.8839 C   0  0  1  0  0  0  0  0  0  0  0  0
  150.5495  142.2497  157.0733 O   0  0  0  0  0  0  0  0  0  0  0  0
  150.4626  142.8085  158.2950 C   0  0  0  0  0  0  0  0  0  0  0  0
  149.9267  142.3097  159.2845 O   0  0  0  0  0  0  0  0  0  0  0  0
  151.1101  144.1898  158.3559 C   0  0  0  0  0  0  0  0  0  0  0  0
  150.9681  144.8358  159.7405 C   0  0  0  0  0  0  0  0  0  0  0  0
  144.9938  141.7923  155.6983 H   0  0  0  0  0  0  0  0  0  0  0  0
  146.5613  142.3321  156.2897 H   0  0  0  0  0  0  0  0  0  0  0  0
  146.2077  140.6088  156.1714 H   0  0  0  0  0  0  0  0  0  0  0  0
  146.0559  140.8152  153.6566 H   0  0  0  0  0  0  0  0  0  0  0  0
  146.4221  142.5253  153.7720 H   0  0  0  0  0  0  0  0  0  0  0  0
  149.7445  138.5185  155.1409 H   0  0  0  0  0  0  0  0  0  0  0  0
  149.9596  139.4725  153.6950 H   0  0  0  0  0  0  0  0  0  0  0  0
  150.8673  141.3359  154.8480 H   0  0  0  0  0  0  0  0  0  0  0  0
  153.0205  140.5736  157.0534 H   0  0  0  0  0  0  0  0  0  0  0  0
  152.6639  138.6875  159.3609 H   0  0  0  0  0  0  0  0  0  0  0  0
  151.3396  140.5026  158.7479 H   0  0  0  0  0  0  0  0  0  0  0  0
  149.1737  140.7044  157.0324 H   0  0  0  0  0  0  0  0  0  0  0  0
  152.1635  144.0973  158.0914 H   0  0  0  0  0  0  0  0  0  0  0  0
  150.6498  144.8279  157.6008 H   0  0  0  0  0  0  0  0  0  0  0  0
  151.4041  145.8348  159.7437 H   0  0  0  0  0  0  0  0  0  0  0  0
  151.4765  144.2522  160.5088 H   0  0  0  0  0  0  0  0  0  0  0  0
  149.9206  144.9317  160.0276 H   0  0  0  0  0  0  0  0  0  0  0  0
  1  2  1  0  0  0  0
  1 27  1  0  0  0  0
  1 28  1  0  0  0  0
  1 29  1  0  0  0  0
  2  3  1  0  0  0  0
  2 30  1  0  0  0  0
  2 31  1  0  0  0  0
  3  4  2  0  0  0  0
  3  5  1  0  0  0  0
  5  6  1  0  0  0  0
  6  7  1  0  0  0  0
  6 32  1  0  0  0  0
  6 33  1  0  0  0  0
  7 21  1  0  0  0  0
  7  8  1  0  0  0  0
  7 34  1  0  0  0  0
  8  9  1  0  0  0  0
  9 10  1  0  0  0  0
  9 19  1  0  0  0  0
  9 35  1  0  0  0  0
 10 17  1  0  0  0  0
 10 11  1  0  0  0  0
 11 12  2  0  0  0  0
 11 36  1  0  0  0  0
 12 13  1  0  0  0  0
 12 14  1  0  0  0  0
 14 15  2  0  0  0  0
 14 16  1  0  0  0  0
 16 17  1  0  0  0  0
 17 18  2  0  0  0  0
 19 20  1  0  0  0  0
 19 21  1  0  0  0  0
 19 37  1  0  0  0  0
 21 22  1  0  0  0  0
 21 38  1  0  0  0  0
 22 23  1  0  0  0  0
 23 24  2  0  0  0  0
 23 25  1  0  0  0  0
 25 26  1  0  0  0  0
 25 39  1  0  0  0  0
 25 40  1  0  0  0  0
 26 41  1  0  0  0  0
 26 42  1  0  0  0  0
 26 43  1  0  0  0  0
M  CHG  1  16  -1
M  END
> <s_m_source_file>
AV-unprocessed.smi

> <i_m_source_file_index>
37

> <i_lp_mmshare_version>
43012

> <i_f3d_flags>
0

> <s_epik_input>
W0NIM11bQ0gyXUMoPU8pT1tDSDJdW0NAQEhdMU9bQ0BASF0objJbY0hdYyhGKWMoPU8pW25IXWMyPU8pW0NAQEhdKEJyKVtDQEhdMU9DKD1PKVtDSDJdW0NIM10=

> <s_epik_cmdline>
J2VwaWtfcHl0aG9uJywgJy1waCcsICc3LjAnLCAnLXRuJywgJzgnLCAnLW1hJywgJzIwMCcsICctbWV0YWxfYmluZGluZycsICctaW1hZScsICc8aW5maWxlLm1hZT4nLCAnLW9tYWUnLCAnPG91dGZpbGUubWFlPic=

> <r_epik_Ionization_Penalty>
1.08158

> <r_epik_Ionization_Penalty_Charging>
9.05154e-09

> <r_epik_Ionization_Penalty_Neutral>
1.08158

> <r_epik_State_Penalty>
1.13706

> <r_epik_Charging_Adjusted_Penalty>
1.13706

> <i_epik_Tot_Q>
-1

> <i_epik_Tot_abs_Q>
1

> <r_epik_Metal_State_Penalty>
0.00343535

> <b_epik_Metal_Only>
0

> <s_epik_Chemistry_Notes>
This compound has an ester and may undergo hydrolysis at high or low pH. This compound contains an acetal/aminal-like group ( X-CH(R)-Y where X, Y are N, S, or O) that may be acid/base labile, releasing an aldehyde.

> <s_lp_Force_Field>
OPLS_2005

> <r_lp_Energy>
32.7064

> <b_lp_Chiralities_Consistent>
1

> <s_lp_Variant>
AV-unprocessed.smi:37-23

> <Gold.Version>
5.8.1

> <Gold.Id.Protein>
6NUR|6NUR_protein|mol2

> <Gold.PLP.Fitness>
43.0122

> <Gold.PLP.PLP>
-37.5396

> <Gold.PLP.part.hbond>
-3.3312

> <Gold.PLP.part.metal>
0.0000

> <Gold.PLP.part.buried>
-2.1881

> <Gold.PLP.part.nonpolar>
-31.4450

> <Gold.PLP.part.repulsive>
0.4590

> <Gold.PLP.ligand.clash>
0.0000

> <Gold.PLP.ligand.torsion>
1.0081

> <Gold.PLP.Chemscore.Hbond>
2.4320

> <Gold.PLP.Chemscore.CHOScore>
0.0000

> <Gold.PLP.Chemscore.Metal>
0.0000

> <Gold.Chemscore.Hbonds>
donor molecule, donor type, donor heavy atom, donor atom, acceptor molecule, acceptor atom, score
      P1  H  7997  8010       L1    18  0.05
      P1  H  8011  8017       L1     4  0.50
      P1  H 10752 10765       L1    16  1.63

> <Gold.PLP.Chemscore.Internal.Correction>
0.1927

> <Gold.Rescore>
     Score         DG    S(hbond)    S(metal)    S(lipo)     H(rot)  DE(clash)    DE(int)     intcor
      2.94      -7.80       0.83        0.00      67.64       3.27       1.39       3.47       ----

> <Gold.Chemscore.Fitness>
2.9393

> <Gold.Chemscore.DG>
-7.8000

> <Gold.Chemscore.ZeroCoef>
-5.4800

> <Gold.Chemscore.Hbond>
0.8293

> <Gold.Chemscore.Metal>
0.0000

> <Gold.Chemscore.Lipo>
67.6383

> <Gold.Chemscore.Internal_Hbond>
0.0000

> <Gold.Chemscore.DEClash>
1.3870

> <Gold.Chemscore.DEInternal>
3.4737

> <Gold.Chemscore.Rot>
3.2669

> <Gold.Chemscore.Internal.Correction>
   9.000000E+99

> <Gold.Chemscore.Hbonds>
donor molecule, donor type, donor heavy atom, donor atom, acceptor molecule, acceptor atom, score
      P1  H  7997  8010       L1    18  0.01
      P1  H  8011  8017       L1     4  0.48
      P1  H 10752 10765       L1    16  0.30

> <Gold.Chemscore.Hbond.Weighted>
-2.7697

> <Gold.Chemscore.Metal.Weighted>
-0.0000

> <Gold.Chemscore.Lipo.Weighted>
-7.9137

> <Gold.Chemscore.Internal_Hbond.Weighted>
0.0000

> <Gold.Chemscore.DEClash.Weighted>
1.3870

> <Gold.Chemscore.DEInternal.Weighted>
3.4737

> <Gold.Chemscore.Rot.Weighted>
8.3634

> <Gold.Chemscore.Internal.Correction.Weighted>
   9.000000E+99

> <Gold.Protein.RotatedTorsions>
[ 6907 6896 6895 6894 ] final  -41.09 input  -60.11 | X-H torsion
[ 7974 7965 7964 7962 ] final   -7.82 input  175.53 | X-H torsion
[ 8008 7997 7996 7995 ] final  134.77 input   59.86 | X-H torsion
[ 10167 10162 10161 10158 ] final   92.47 input  -65.29 | X-H torsion
[ 10718 10713 10712 10709 ] final  -77.07 input   66.30 | X-H torsion
[ 10763 10752 10751 10750 ] final  -98.17 input  -60.55 | X-H torsion
[ 11005 11000 10999 10996 ] final   57.13 input  -57.11 | X-H torsion

> <Gold.Protein.ActiveResidues>
 VAL166  LYS551  ARG553  GLY616  TRP617  ASP618  TYR619  PRO620  LYS621  CYS622 
 ASP623  PHE694  ASN695  SER759  ASP760  ASP761  ALA762  ILE779  LEU786  VAL792 
 PHE793  MET794  SER795  GLU796  ALA797  LYS798  CYS799  TRP800  GLU811  SER814 

> <Gold.Protein.RotatedAtoms>
  150.9708  134.9081  159.7786 H   0  0  0  0  0  0  0  0  0  0  0  0  # atno 6907 bound_to 6896
  152.5189  134.3544  159.9272 H   0  0  0  0  0  0  0  0  0  0  0  0  # atno 6908 bound_to 6896
  151.3553  133.3869  159.2719 H   0  0  0  0  0  0  0  0  0  0  0  0  # atno 6909 bound_to 6896
  146.2297  140.2377  142.8342 H   0  0  0  0  0  0  0  0  0  0  0  0  # atno 7974 bound_to 7965
  156.3000  140.2488  156.3471 H   0  0  0  0  0  0  0  0  0  0  0  0  # atno 8008 bound_to 7997
  154.9000  140.0406  157.1907 H   0  0  0  0  0  0  0  0  0  0  0  0  # atno 8009 bound_to 7997
  154.8510  140.2906  155.5602 H   0  0  0  0  0  0  0  0  0  0  0  0  # atno 8010 bound_to 7997
  139.8274  144.6703  150.9442 H   0  0  0  0  0  0  0  0  0  0  0  0  # atno 10167 bound_to 10162
  156.0156  130.4482  150.3290 H   0  0  0  0  0  0  0  0  0  0  0  0  # atno 10718 bound_to 10713
  154.7391  135.5019  153.9092 H   0  0  0  0  0  0  0  0  0  0  0  0  # atno 10763 bound_to 10752
  153.1025  135.6689  153.9655 H   0  0  0  0  0  0  0  0  0  0  0  0  # atno 10764 bound_to 10752
  153.9437  135.3065  155.3421 H   0  0  0  0  0  0  0  0  0  0  0  0  # atno 10765 bound_to 10752
  140.0476  134.5783  155.9303 H   0  0  0  0  0  0  0  0  0  0  0  0  # atno 11005 bound_to 11000
  144.9509  140.8177  143.5573 LP  0  0  0  0  0  0  0  0  0  0  0  0  # atno 17320 bound_to 7965
  145.2338  139.2103  143.5029 LP  0  0  0  0  0  0  0  0  0  0  0  0  # atno 17321 bound_to 7965
  140.7809  143.4033  151.1112 LP  0  0  0  0  0  0  0  0  0  0  0  0  # atno 17342 bound_to 10162
  139.7690  143.8523  152.3116 LP  0  0  0  0  0  0  0  0  0  0  0  0  # atno 17343 bound_to 10162
  157.1388  131.0291  151.2937 LP  0  0  0  0  0  0  0  0  0  0  0  0  # atno 17370 bound_to 10713
  157.4489  130.7587  149.7134 LP  0  0  0  0  0  0  0  0  0  0  0  0  # atno 17371 bound_to 10713
  141.1914  133.6572  156.5457 LP  0  0  0  0  0  0  0  0  0  0  0  0  # atno 17394 bound_to 11000
  140.3969  134.7391  157.4756 LP  0  0  0  0  0  0  0  0  0  0  0  0  # atno 17395 bound_to 11000

$$$$
