#       Name:                AV-unprocessed.smi:3030
#       Creating user name   scv26
#       Creation time:       Fri Mar 27 16:48:16 2020


#       File generated by GOLD software.
#

@<TRIPOS>MOLECULE
AV-unprocessed.smi:3030
    56    57     1
SMALL
NO_CHARGES


@<TRIPOS>ATOM
      1 ****        -4.2732   4.2619   2.0602 C.3            1 S1                 0.0000
      2 ****        -4.0483   4.2500   0.5441 C.3            1 S1                 0.0000
      3 ****        -4.1600   2.9073  -0.0066 N.pl3          1 S1                 0.0000
      4 ****        -5.3713   2.4222  -0.4893 C.2            1 S1                 0.0000
      5 ****        -5.5305   1.2037  -1.0413 C.2            1 S1                 0.0000
      6 ****        -4.3641   0.3051  -1.1600 C.2            1 S1                 0.0000
      7 ****        -4.4753  -0.8200  -1.6469 O.2            1 S1                 0.0000
      8 ****        -3.0658   0.8323  -0.6638 C.2            1 S1                 0.0000
      9 ****        -1.9599  -0.0256  -0.7689 N.am           1 S1                 0.0000
     10 ****        -0.6511   0.2688  -0.6701 C.2            1 S1                 0.0000
     11 ****        -0.1776   1.3955  -0.5243 O.2            1 S1                 0.0000
     12 ****         0.0933  -0.8429  -0.7623 N.am           1 S1                 0.0000
     13 ****         1.5542  -0.9122  -0.7241 C.3            1 S1                 0.0000
     14 ****         2.0250  -1.6791  -1.9766 C.3            1 S1                 0.0000
     15 ****         3.5507  -1.8721  -2.0079 C.3            1 S1                 0.0000
     16 ****         3.9957  -2.6376  -3.2621 C.3            1 S1                 0.0000
     17 ****         4.0166  -2.5782  -0.7250 C.3            1 S1                 0.0000
     18 ****         3.5845  -1.8003   0.5259 C.3            1 S1                 0.0000
     19 ****         2.0515  -1.5947   0.5826 C.3            1 S1                 0.0000
     20 ****         1.5805  -0.8879   1.8895 C.3            1 S1                 0.0000
     21 ****         2.1786   0.5164   2.0958 C.3            1 S1                 0.0000
     22 ****         1.7994  -1.7585   3.1387 C.3            1 S1                 0.0000
     23 ****        -3.0471   2.0770  -0.1233 C.2            1 S1                 0.0000
     24 ****        -4.1839   5.2732   2.4571 H              1 S1                 0.0000
     25 ****        -3.5408   3.6367   2.5720 H              1 S1                 0.0000
     26 ****        -5.2668   3.8913   2.3140 H              1 S1                 0.0000
     27 ****        -4.7725   4.9044   0.0577 H              1 S1                 0.0000
     28 ****        -3.0638   4.6579   0.3120 H              1 S1                 0.0000
     29 ****        -6.1999   3.1072  -0.3818 H              1 S1                 0.0000
     30 ****        -6.4925   0.8681  -1.3998 H              1 S1                 0.0000
     31 ****        -2.1924  -0.9879  -0.9670 H              1 S1                 0.0000
     32 ****        -0.3917  -1.7206  -0.8789 H              1 S1                 0.0000
     33 ****         1.9804   0.0903  -0.7814 H              1 S1                 0.0000
     34 ****         1.5373  -2.6547  -2.0134 H              1 S1                 0.0000
     35 ****         1.7068  -1.1442  -2.8727 H              1 S1                 0.0000
     36 ****         4.0167  -0.8861  -2.0409 H              1 S1                 0.0000
     37 ****         3.5559  -3.6349  -3.2949 H              1 S1                 0.0000
     38 ****         5.0799  -2.7510  -3.2895 H              1 S1                 0.0000
     39 ****         3.6975  -2.1122  -4.1696 H              1 S1                 0.0000
     40 ****         3.6086  -3.5892  -0.6871 H              1 S1                 0.0000
     41 ****         5.1019  -2.6838  -0.7311 H              1 S1                 0.0000
     42 ****         3.9328  -2.3385   1.4066 H              1 S1                 0.0000
     43 ****         4.0941  -0.8366   0.5317 H              1 S1                 0.0000
     44 ****         1.6048  -2.5906   0.5953 H              1 S1                 0.0000
     45 ****         0.5006  -0.7588   1.8239 H              1 S1                 0.0000
     46 ****         3.2577   0.4804   2.2434 H              1 S1                 0.0000
     47 ****         1.7484   0.9936   2.9767 H              1 S1                 0.0000
     48 ****         1.9783   1.1717   1.2493 H              1 S1                 0.0000
     49 ****         2.8574  -1.8867   3.3665 H              1 S1                 0.0000
     50 ****         1.3597  -2.7482   3.0128 H              1 S1                 0.0000
     51 ****         1.3329  -1.3050   4.0137 H              1 S1                 0.0000
     52 ****        -2.1548   2.5210   0.2897 H              1 S1                 0.0000
     53 ****        -5.3662  -1.1391  -1.9700 LP             1 S1                 0.0000
     54 ****        -3.6747  -1.4148  -1.7193 LP             1 S1                 0.0000
     55 ****        -0.7834   2.1893  -0.4697 LP             1 S1                 0.0000
     56 ****         0.8129   1.5172  -0.4604 LP             1 S1                 0.0000
@<TRIPOS>BOND
    1    1    2 1     
    2    1   24 1     
    3    1   25 1     
    4    1   26 1     
    5    2    3 1     
    6    2   27 1     
    7    2   28 1     
    8    3   23 1     
    9    3    4 1     
   10    4    5 2     
   11    4   29 1     
   12    5    6 1     
   13    5   30 1     
   14    6    7 2     
   15    6    8 1     
   16    8    9 1     
   17    8   23 2     
   18    9   10 am    
   19    9   31 1     
   20   10   11 2     
   21   10   12 am    
   22   12   13 1     
   23   12   32 1     
   24   13   19 1     
   25   13   14 1     
   26   13   33 1     
   27   14   15 1     
   28   14   34 1     
   29   14   35 1     
   30   15   16 1     
   31   15   17 1     
   32   15   36 1     
   33   16   37 1     
   34   16   38 1     
   35   16   39 1     
   36   17   18 1     
   37   17   40 1     
   38   17   41 1     
   39   18   19 1     
   40   18   42 1     
   41   18   43 1     
   42   19   20 1     
   43   19   44 1     
   44   20   21 1     
   45   20   22 1     
   46   20   45 1     
   47   21   46 1     
   48   21   47 1     
   49   21   48 1     
   50   22   49 1     
   51   22   50 1     
   52   22   51 1     
   53   23   52 1     
   54    7   53 1     
   55    7   54 1     
   56   11   55 1     
   57   11   56 1     
@<TRIPOS>SUBSTRUCTURE
      1 S1             1
@<TRIPOS>SET
LONE_PAIRS      STATIC     ATOMS    <user>   **** ""
4 53 54 55 56
DONOR_HYDROGENS      STATIC     ATOMS    <user>   **** ""
2 31 32
ATOM$BLUE        STATIC     ATOMS    COLORGROUP SYSTEM
4 53 54 55 56
ATOM$RED        STATIC     ATOMS    COLORGROUP SYSTEM
2 31 32
