#       Name:                AV-unprocessed.smi:2835
#       Creating user name   scv26
#       Creation time:       Fri Mar 27 15:36:41 2020


#       File generated by GOLD software.
#

@<TRIPOS>MOLECULE
AV-unprocessed.smi:2835
    41    42     1
SMALL
NO_CHARGES


@<TRIPOS>ATOM
      1 ****         0.7559   2.1277  -1.6928 O.2            1 S1                 0.0000
      2 ****         1.1858   1.4848  -0.7368 C.2            1 S1                 0.0000
      3 ****         2.6484   1.7048  -0.3146 C.3            1 S1                 0.0000
      4 ****         3.0483   0.9507   0.8656 N.pl3          1 S1                 0.0000
      5 ****         3.5296  -0.3404   0.9355 C.2            1 S1                 0.0000
      6 ****         3.7462  -0.6228   2.2537 C.2            1 S1                 0.0000
      7 ****         3.3644   0.5736   2.9227 C.2            1 S1                 0.0000
      8 ****         2.9520   1.5149   2.0894 N.2            1 S1                 0.0000
      9 ****         0.4631   0.5927  -0.0289 N.am           1 S1                 0.0000
     10 ****        -0.9312   0.1341  -0.1283 C.3            1 S1                 0.0000
     11 ****        -1.5610   0.4813   1.2456 C.2            1 S1                 0.0000
     12 ****        -2.1889   1.5588   1.3496 O.co2          1 S1                 0.0000
     13 ****        -1.3694  -0.3145   2.1927 O.co2          1 S1                -1.0000
     14 ****        -1.7483   0.7644  -1.3014 C.3            1 S1                 0.0000
     15 ****        -3.1477   0.1406  -1.4713 C.3            1 S1                 0.0000
     16 ****        -3.0570  -1.3792  -1.6692 C.3            1 S1                 0.0000
     17 ****        -2.2767  -2.0429  -0.5254 C.3            1 S1                 0.0000
     18 ****        -0.8842  -1.4048  -0.3522 C.3            1 S1                 0.0000
     19 ****         3.3018   1.4230  -1.1409 H              1 S1                 0.0000
     20 ****         2.8119   2.7675  -0.1299 H              1 S1                 0.0000
     21 ****         3.6690  -0.9453   0.0514 H              1 S1                 0.0000
     22 ****         4.1168  -1.5448   2.6763 H              1 S1                 0.0000
     23 ****         3.3750   0.7845   3.9819 H              1 S1                 0.0000
     24 ****         0.9615   0.1714   0.7417 H              1 S1                 0.0000
     25 ****        -1.8453   1.8445  -1.1816 H              1 S1                 0.0000
     26 ****        -1.2128   0.6128  -2.2392 H              1 S1                 0.0000
     27 ****        -3.7701   0.3628  -0.6039 H              1 S1                 0.0000
     28 ****        -3.6491   0.5928  -2.3272 H              1 S1                 0.0000
     29 ****        -4.0578  -1.8069  -1.7352 H              1 S1                 0.0000
     30 ****        -2.5649  -1.5941  -2.6185 H              1 S1                 0.0000
     31 ****        -2.8449  -1.9630   0.4018 H              1 S1                 0.0000
     32 ****        -2.1698  -3.1095  -0.7245 H              1 S1                 0.0000
     33 ****        -0.2955  -1.6138  -1.2468 H              1 S1                 0.0000
     34 ****        -0.3546  -1.9043   0.4606 H              1 S1                 0.0000
     35 ****         1.3530   2.7713  -2.1716 LP             1 S1                 0.0000
     36 ****        -0.1908   2.0069  -1.9915 LP             1 S1                 0.0000
     37 ****         2.6390   2.4375   2.3149 LP             1 S1                 0.0000
     38 ****        -2.5743   1.8297   2.2317 LP             1 S1                 0.0000
     39 ****        -2.3053   2.1488   0.5506 LP             1 S1                 0.0000
     40 ****        -1.7280  -0.1048   3.1023 LP             1 S1                 0.0000
     41 ****        -0.8578  -1.1600   2.0397 LP             1 S1                 0.0000
@<TRIPOS>BOND
    1    1    2 2     
    2    2    3 1     
    3    2    9 am    
    4    3    4 1     
    5    3   19 1     
    6    3   20 1     
    7    4    8 1     
    8    4    5 1     
    9    5    6 2     
   10    5   21 1     
   11    6    7 1     
   12    6   22 1     
   13    7    8 2     
   14    7   23 1     
   15    9   10 1     
   16    9   24 1     
   17   10   18 1     
   18   10   11 1     
   19   10   14 1     
   20   11   12 ar    
   21   11   13 ar    
   22   14   15 1     
   23   14   25 1     
   24   14   26 1     
   25   15   16 1     
   26   15   27 1     
   27   15   28 1     
   28   16   17 1     
   29   16   29 1     
   30   16   30 1     
   31   17   18 1     
   32   17   31 1     
   33   17   32 1     
   34   18   33 1     
   35   18   34 1     
   36    1   35 1     
   37    1   36 1     
   38    8   37 1     
   39   12   38 1     
   40   12   39 1     
   41   13   40 1     
   42   13   41 1     
@<TRIPOS>SUBSTRUCTURE
      1 S1             1
@<TRIPOS>SET
LONE_PAIRS      STATIC     ATOMS    <user>   **** ""
7 35 36 37 38 39 40 41
DONOR_HYDROGENS      STATIC     ATOMS    <user>   **** ""
1 24
ATOM$BLUE        STATIC     ATOMS    COLORGROUP SYSTEM
7 35 36 37 38 39 40 41
ATOM$RED        STATIC     ATOMS    COLORGROUP SYSTEM
1 24
