AV-unprocessed.smi:212|AV-procd|sdf|1618|dock6
  -GOLD-   2262019543D 1   1.00000     0.00000
 Structure written by MMmdl.
 65 68  0  0  0  0  0  0  0  0  2 V2000
  145.0792  135.0723  155.9683 C   0  0  0  0  0  0  0  0  0  0  0  0
  146.2809  135.6933  155.2363 C   0  0  1  0  0  0  0  0  0  0  0  0
  146.7069  134.8627  154.0075 C   0  0  0  0  0  0  0  0  0  0  0  0
  145.7298  134.9941  152.8955 N   0  3  2  0  0  0  0  0  0  0  0  0
  146.0226  134.1027  151.7429 C   0  0  0  0  0  0  0  0  0  0  0  0
  144.7887  133.8991  150.8344 C   0  0  0  0  0  0  0  0  0  0  0  0
  144.9895  132.6701  149.9322 C   0  0  0  0  0  0  0  0  0  0  0  0
  143.4767  133.7667  151.6294 C   0  0  0  0  0  0  0  0  0  0  0  0
  144.6776  135.0202  149.9792 O   0  0  0  0  0  0  0  0  0  0  0  0
  145.5095  136.4090  152.5052 C   0  0  0  0  0  0  0  0  0  0  0  0
  145.0894  137.2558  153.7209 C   0  0  0  0  0  0  0  0  0  0  0  0
  146.0163  137.0793  154.8405 N   0  0  0  0  0  0  0  0  0  0  0  0
  147.0593  137.9413  154.9671 C   0  0  0  0  0  0  0  0  0  0  0  0
  147.4173  138.7324  153.9207 N   0  0  0  0  0  0  0  0  0  0  0  0
  148.4521  139.5704  154.0300 C   0  0  0  0  0  0  0  0  0  0  0  0
  149.2510  139.7762  155.0781 N   0  0  0  0  0  0  0  0  0  0  0  0
  148.8903  138.9959  156.1361 C   0  0  0  0  0  0  0  0  0  0  0  0
  147.8192  138.0589  156.1652 C   0  0  0  0  0  0  0  0  0  0  0  0
  147.7546  137.4536  157.4147 N   0  0  0  0  0  0  0  0  0  0  0  0
  148.7358  137.9952  158.0833 C   0  0  0  0  0  0  0  0  0  0  0  0
  149.4598  138.9439  157.3965 N   0  0  0  0  0  0  0  0  0  0  0  0
  150.6019  139.6919  157.8897 C   0  0  0  0  0  0  0  0  0  0  0  0
  150.2926  141.1524  158.3255 C   0  0  2  0  0  0  0  0  0  0  0  0
  149.3346  141.8112  157.3083 C   0  0  0  0  0  0  0  0  0  0  0  0
  149.9642  142.0034  156.0584 O   0  0  0  0  0  0  0  0  0  0  0  0
  151.5193  142.0809  158.5673 C   0  0  2  0  0  0  0  0  0  0  0  0
  152.4831  141.6856  159.6705 C   0  0  0  0  0  0  0  0  0  0  0  0
  153.3136  142.9579  159.8389 C   0  0  0  0  0  0  0  0  0  0  0  0
  152.5028  144.0371  159.3766 O   0  0  0  0  0  0  0  0  0  0  0  0
  151.2509  143.5466  158.9114 C   0  0  0  0  0  0  0  0  0  0  0  0
  145.3127  134.0646  156.3130 H   0  0  0  0  0  0  0  0  0  0  0  0
  144.1985  135.0045  155.3295 H   0  0  0  0  0  0  0  0  0  0  0  0
  144.8108  135.6633  156.8445 H   0  0  0  0  0  0  0  0  0  0  0  0
  147.1156  135.6634  155.9363 H   0  0  0  0  0  0  0  0  0  0  0  0
  147.6842  135.2005  153.6587 H   0  0  0  0  0  0  0  0  0  0  0  0
  146.8215  133.8150  154.2874 H   0  0  0  0  0  0  0  0  0  0  0  0
  146.8404  134.5162  151.1500 H   0  0  0  0  0  0  0  0  0  0  0  0
  146.3861  133.1367  152.0979 H   0  0  0  0  0  0  0  0  0  0  0  0
  145.0827  131.7584  150.5232 H   0  0  0  0  0  0  0  0  0  0  0  0
  145.8919  132.7622  149.3264 H   0  0  0  0  0  0  0  0  0  0  0  0
  144.1493  132.5336  149.2501 H   0  0  0  0  0  0  0  0  0  0  0  0
  143.5226  132.9300  152.3272 H   0  0  0  0  0  0  0  0  0  0  0  0
  142.6277  133.5949  150.9669 H   0  0  0  0  0  0  0  0  0  0  0  0
  143.2571  134.6662  152.2053 H   0  0  0  0  0  0  0  0  0  0  0  0
  145.0247  134.7881  149.1310 H   0  0  0  0  0  0  0  0  0  0  0  0
  146.4232  136.8063  152.0612 H   0  0  0  0  0  0  0  0  0  0  0  0
  144.7343  136.4632  151.7397 H   0  0  0  0  0  0  0  0  0  0  0  0
  145.0036  138.3075  153.4448 H   0  0  0  0  0  0  0  0  0  0  0  0
  144.0943  136.9558  154.0495 H   0  0  0  0  0  0  0  0  0  0  0  0
  148.6720  140.1608  153.1527 H   0  0  0  0  0  0  0  0  0  0  0  0
  148.9533  137.7200  159.1051 H   0  0  0  0  0  0  0  0  0  0  0  0
  151.0563  139.1373  158.7109 H   0  0  0  0  0  0  0  0  0  0  0  0
  151.3427  139.6911  157.0899 H   0  0  0  0  0  0  0  0  0  0  0  0
  149.7524  141.1113  159.2722 H   0  0  0  0  0  0  0  0  0  0  0  0
  148.4594  141.1843  157.1357 H   0  0  0  0  0  0  0  0  0  0  0  0
  148.9724  142.7697  157.6815 H   0  0  0  0  0  0  0  0  0  0  0  0
  149.6458  142.8096  155.6818 H   0  0  0  0  0  0  0  0  0  0  0  0
  152.0927  142.1105  157.6391 H   0  0  0  0  0  0  0  0  0  0  0  0
  151.9565  141.4755  160.6002 H   0  0  0  0  0  0  0  0  0  0  0  0
  153.0903  140.8157  159.4193 H   0  0  0  0  0  0  0  0  0  0  0  0
  153.6202  143.1112  160.8738 H   0  0  0  0  0  0  0  0  0  0  0  0
  154.2127  142.9144  159.2235 H   0  0  0  0  0  0  0  0  0  0  0  0
  150.8933  144.1193  158.0555 H   0  0  0  0  0  0  0  0  0  0  0  0
  150.5341  143.6672  159.7186 H   0  0  0  0  0  0  0  0  0  0  0  0
  144.8440  134.6751  153.2619 H   0  0  0  0  0  0  0  0  0  0  0  0
  1  2  1  0  0  0  0
  1 31  1  0  0  0  0
  1 32  1  0  0  0  0
  1 33  1  0  0  0  0
  2 12  1  0  0  0  0
  2  3  1  0  0  0  0
  2 34  1  0  0  0  0
  3  4  1  0  0  0  0
  3 35  1  0  0  0  0
  3 36  1  0  0  0  0
  4  5  1  0  0  0  0
  4 10  1  0  0  0  0
  4 65  1  0  0  0  0
  5  6  1  0  0  0  0
  5 37  1  0  0  0  0
  5 38  1  0  0  0  0
  6  7  1  0  0  0  0
  6  8  1  0  0  0  0
  6  9  1  0  0  0  0
  7 39  1  0  0  0  0
  7 40  1  0  0  0  0
  7 41  1  0  0  0  0
  8 42  1  0  0  0  0
  8 43  1  0  0  0  0
  8 44  1  0  0  0  0
  9 45  1  0  0  0  0
 10 11  1  0  0  0  0
 10 46  1  0  0  0  0
 10 47  1  0  0  0  0
 11 12  1  0  0  0  0
 11 48  1  0  0  0  0
 11 49  1  0  0  0  0
 12 13  1  0  0  0  0
 13 18  1  0  0  0  0
 13 14  2  0  0  0  0
 14 15  1  0  0  0  0
 15 16  2  0  0  0  0
 15 50  1  0  0  0  0
 16 17  1  0  0  0  0
 17 21  1  0  0  0  0
 17 18  2  0  0  0  0
 18 19  1  0  0  0  0
 19 20  2  0  0  0  0
 20 21  1  0  0  0  0
 20 51  1  0  0  0  0
 21 22  1  0  0  0  0
 22 23  1  0  0  0  0
 22 52  1  0  0  0  0
 22 53  1  0  0  0  0
 23 24  1  0  0  0  0
 23 26  1  0  0  0  0
 23 54  1  0  0  0  0
 24 25  1  0  0  0  0
 24 55  1  0  0  0  0
 24 56  1  0  0  0  0
 25 57  1  0  0  0  0
 26 30  1  0  0  0  0
 26 27  1  0  0  0  0
 26 58  1  0  0  0  0
 27 28  1  0  0  0  0
 27 59  1  0  0  0  0
 27 60  1  0  0  0  0
 28 29  1  0  0  0  0
 28 61  1  0  0  0  0
 28 62  1  0  0  0  0
 29 30  1  0  0  0  0
 30 63  1  0  0  0  0
 30 64  1  0  0  0  0
M  CHG  1   4   1
M  END
> <s_m_source_file>
AV-unprocessed.smi

> <i_m_source_file_index>
212

> <i_lp_mmshare_version>
43012

> <i_f3d_flags>
0

> <s_epik_input>
W0NIM11bQ0BASF0xW0NIMl1OKFtDSDJdQyhbQ0gzXSkoW0NIM10pW09IXSlbQ0gyXVtDSDJdTjFjKG5bY0hdbjIpYyhjMjMpbltjSF1uM1tDSDJdW0NASF0oW0NIMl1bT0hdKVtDQEBIXTRbQ0gyXVtDSDJdT1tDSDJdNA==

> <s_epik_cmdline>
J2VwaWtfcHl0aG9uJywgJy1waCcsICc3LjAnLCAnLXRuJywgJzgnLCAnLW1hJywgJzIwMCcsICctbWV0YWxfYmluZGluZycsICctaW1hZScsICc8aW5maWxlLm1hZT4nLCAnLW9tYWUnLCAnPG91dGZpbGUubWFlPic=

> <r_lp_tautomer_probability>
1

> <r_epik_Ionization_Penalty>
0.00182193

> <r_epik_Ionization_Penalty_Charging>
0.00173996

> <r_epik_Ionization_Penalty_Neutral>
8.19718e-05

> <r_epik_State_Penalty>
-0

> <r_epik_Charging_Adjusted_Penalty>
0.00173996

> <i_epik_Tot_Q>
1

> <i_epik_Tot_abs_Q>
1

> <r_epik_Metal_State_Penalty>
-0

> <b_epik_Metal_Only>
0

> <s_lp_Force_Field>
OPLS_2005

> <r_lp_Energy>
59.4292

> <b_lp_Chiralities_Consistent>
1

> <s_lp_Variant>
AV-unprocessed.smi:212-2

> <Gold.Version>
5.8.1

> <Gold.Id.Protein>
6NUR|6NUR_protein|mol2

> <Gold.PLP.Fitness>
42.5858

> <Gold.PLP.PLP>
-35.0426

> <Gold.PLP.part.hbond>
-2.0000

> <Gold.PLP.part.metal>
0.0000

> <Gold.PLP.part.buried>
-7.2260

> <Gold.PLP.part.nonpolar>
-26.6508

> <Gold.PLP.part.repulsive>
0.2587

> <Gold.PLP.ligand.clash>
0.0000

> <Gold.PLP.ligand.torsion>
1.3222

> <Gold.PLP.Chemscore.Hbond>
2.0000

> <Gold.PLP.Chemscore.CHOScore>
1.0000

> <Gold.PLP.Chemscore.Metal>
0.0000

> <Gold.Chemscore.Hbonds>
donor molecule, donor type, donor heavy atom, donor atom, acceptor molecule, acceptor atom, score
      L1  H     9    45       P1  7921  1.00
      L1  H    25    57       P1  8028  0.94
      L1  C    15    50       P1  7957  1.00

> <Gold.PLP.Chemscore.Internal.Correction>
1.1876

> <Gold.Rescore>
     Score         DG    S(hbond)    S(metal)    S(lipo)     H(rot)  DE(clash)    DE(int)     intcor
     11.77     -13.51       1.98        0.00      86.60       3.40       0.00       1.74       ----

> <Gold.Chemscore.Fitness>
11.7683

> <Gold.Chemscore.DG>
-13.5078

> <Gold.Chemscore.ZeroCoef>
-5.4800

> <Gold.Chemscore.Hbond>
1.9750

> <Gold.Chemscore.Metal>
0.0000

> <Gold.Chemscore.Lipo>
86.5961

> <Gold.Chemscore.Internal_Hbond>
0.0000

> <Gold.Chemscore.DEClash>
0.0034

> <Gold.Chemscore.DEInternal>
1.7361

> <Gold.Chemscore.Rot>
3.3986

> <Gold.Chemscore.Internal.Correction>
   9.000000E+99

> <Gold.Chemscore.Hbonds>
donor molecule, donor type, donor heavy atom, donor atom, acceptor molecule, acceptor atom, score
      L1  H     9    45       P1  7921  0.99
      L1  H    25    57       P1  8028  0.89

> <Gold.Chemscore.Hbond.Weighted>
-6.5966

> <Gold.Chemscore.Metal.Weighted>
-0.0000

> <Gold.Chemscore.Lipo.Weighted>
-10.1317

> <Gold.Chemscore.Internal_Hbond.Weighted>
0.0000

> <Gold.Chemscore.DEClash.Weighted>
0.0034

> <Gold.Chemscore.DEInternal.Weighted>
1.7361

> <Gold.Chemscore.Rot.Weighted>
8.7005

> <Gold.Chemscore.Internal.Correction.Weighted>
   9.000000E+99

> <Gold.Protein.RotatedTorsions>
[ 6907 6896 6895 6894 ] final -136.31 input  -60.11 | X-H torsion
[ 7974 7965 7964 7962 ] final   91.03 input  175.53 | X-H torsion
[ 8008 7997 7996 7995 ] final   39.28 input   59.86 | X-H torsion
[ 10167 10162 10161 10158 ] final  -88.83 input  -65.29 | X-H torsion
[ 10718 10713 10712 10709 ] final -172.58 input   66.30 | X-H torsion
[ 10763 10752 10751 10750 ] final   -4.27 input  -60.55 | X-H torsion
[ 11005 11000 10999 10996 ] final   61.42 input  -57.11 | X-H torsion

> <Gold.Protein.ActiveResidues>
 VAL166  LYS551  ARG553  GLY616  TRP617  ASP618  TYR619  PRO620  LYS621  CYS622 
 ASP623  PHE694  ASN695  SER759  ASP760  ASP761  ALA762  ILE779  LEU786  VAL792 
 PHE793  MET794  SER795  GLU796  ALA797  LYS798  CYS799  TRP800  GLU811  SER814 

> <Gold.Protein.RotatedAtoms>
  151.0086  133.5987  159.2685 H   0  0  0  0  0  0  0  0  0  0  0  0  # atno 6907 bound_to 6896
  151.3147  135.0802  159.9294 H   0  0  0  0  0  0  0  0  0  0  0  0  # atno 6908 bound_to 6896
  152.5293  133.9744  159.7831 H   0  0  0  0  0  0  0  0  0  0  0  0  # atno 6909 bound_to 6896
  145.5110  139.2277  143.2724 H   0  0  0  0  0  0  0  0  0  0  0  0  # atno 7974 bound_to 7965
  155.2341  140.3340  155.4300 H   0  0  0  0  0  0  0  0  0  0  0  0  # atno 8008 bound_to 7997
  156.2283  140.1839  156.7353 H   0  0  0  0  0  0  0  0  0  0  0  0  # atno 8009 bound_to 7997
  154.5935  140.0634  156.9256 H   0  0  0  0  0  0  0  0  0  0  0  0  # atno 8010 bound_to 7997
  140.3708  143.2795  151.9503 H   0  0  0  0  0  0  0  0  0  0  0  0  # atno 10167 bound_to 10162
  156.7576  130.9401  151.3117 H   0  0  0  0  0  0  0  0  0  0  0  0  # atno 10718 bound_to 10713
  153.3825  135.6999  153.6554 H   0  0  0  0  0  0  0  0  0  0  0  0  # atno 10763 bound_to 10752
  153.5160  135.3622  155.2610 H   0  0  0  0  0  0  0  0  0  0  0  0  # atno 10764 bound_to 10752
  154.8694  135.4146  154.3126 H   0  0  0  0  0  0  0  0  0  0  0  0  # atno 10765 bound_to 10752
  140.0162  134.6221  155.9706 H   0  0  0  0  0  0  0  0  0  0  0  0  # atno 11005 bound_to 11000
  146.2166  140.5917  142.9036 LP  0  0  0  0  0  0  0  0  0  0  0  0  # atno 17320 bound_to 7965
  144.7727  140.5673  143.6659 LP  0  0  0  0  0  0  0  0  0  0  0  0  # atno 17321 bound_to 7965
  139.4804  144.5909  151.7774 LP  0  0  0  0  0  0  0  0  0  0  0  0  # atno 17342 bound_to 10162
  140.5035  144.1133  150.5977 LP  0  0  0  0  0  0  0  0  0  0  0  0  # atno 17343 bound_to 10162
  157.6749  130.9085  150.0127 LP  0  0  0  0  0  0  0  0  0  0  0  0  # atno 17370 bound_to 10713
  156.1360  130.3642  149.9656 LP  0  0  0  0  0  0  0  0  0  0  0  0  # atno 17371 bound_to 10713
  141.1744  133.6539  156.4773 LP  0  0  0  0  0  0  0  0  0  0  0  0  # atno 17394 bound_to 11000
  140.4466  134.6966  157.5019 LP  0  0  0  0  0  0  0  0  0  0  0  0  # atno 17395 bound_to 11000

$$$$
