AV-unprocessed.smi:2547|AV-procd|sdf|10001|dock1
  -GOLD-   2272014 53D 1   1.00000     0.00000
 Structure written by MMmdl.
 44 45  0  0  0  0  0  0  0  0  2 V2000
  146.3467  138.0759  152.4040 C   0  0  0  0  0  0  0  0  0  0  0  0
  146.9549  139.1213  153.2547 N   0  3  2  0  0  0  0  0  0  0  0  0
  147.1872  140.3869  152.5151 C   0  0  0  0  0  0  0  0  0  0  0  0
  147.6997  141.4903  153.4556 C   0  0  0  0  0  0  0  0  0  0  0  0
  148.9771  141.0442  154.1921 C   0  0  1  0  0  0  0  0  0  0  0  0
  149.4061  142.0563  155.1533 N   0  0  0  0  0  0  0  0  0  0  0  0
  150.2660  141.8453  156.1608 C   0  0  0  0  0  0  0  0  0  0  0  0
  150.7983  140.7562  156.3785 O   0  0  0  0  0  0  0  0  0  0  0  0
  150.4629  142.9666  156.8768 N   0  0  0  0  0  0  0  0  0  0  0  0
  151.2807  143.1399  158.0253 C   0  0  0  0  0  0  0  0  0  0  0  0
  151.3694  144.4629  158.5061 C   0  0  0  0  0  0  0  0  0  0  0  0
  152.1550  144.7289  159.6418 C   0  0  0  0  0  0  0  0  0  0  0  0
  152.8307  143.6664  160.2680 C   0  0  0  0  0  0  0  0  0  0  0  0
  152.6984  142.3616  159.7350 C   0  0  0  0  0  0  0  0  0  0  0  0
  153.3500  141.2531  160.3218 N   0  0  0  0  0  0  0  0  0  0  0  0
  153.3638  139.9692  159.6275 C   0  0  0  0  0  0  0  0  0  0  0  0
  154.0798  141.4100  161.5739 C   0  0  0  0  0  0  0  0  0  0  0  0
  151.9366  142.1255  158.6392 N   0  0  0  0  0  0  0  0  0  0  0  0
  148.7168  139.7124  154.9153 C   0  0  0  0  0  0  0  0  0  0  0  0
  148.1813  138.6473  153.9433 C   0  0  0  0  0  0  0  0  0  0  0  0
  147.0188  137.7898  151.5937 H   0  0  0  0  0  0  0  0  0  0  0  0
  145.4133  138.4304  151.9654 H   0  0  0  0  0  0  0  0  0  0  0  0
  146.1199  137.1857  152.9915 H   0  0  0  0  0  0  0  0  0  0  0  0
  147.9050  140.2154  151.7112 H   0  0  0  0  0  0  0  0  0  0  0  0
  146.2578  140.7122  152.0463 H   0  0  0  0  0  0  0  0  0  0  0  0
  147.8903  142.3982  152.8820 H   0  0  0  0  0  0  0  0  0  0  0  0
  146.9220  141.7402  154.1789 H   0  0  0  0  0  0  0  0  0  0  0  0
  149.7734  140.8865  153.4617 H   0  0  0  0  0  0  0  0  0  0  0  0
  149.0147  142.9811  155.0485 H   0  0  0  0  0  0  0  0  0  0  0  0
  149.9679  143.7904  156.5694 H   0  0  0  0  0  0  0  0  0  0  0  0
  150.8437  145.2686  158.0144 H   0  0  0  0  0  0  0  0  0  0  0  0
  152.2368  145.7341  160.0280 H   0  0  0  0  0  0  0  0  0  0  0  0
  153.4306  143.8718  161.1419 H   0  0  0  0  0  0  0  0  0  0  0  0
  152.3483  139.6421  159.4012 H   0  0  0  0  0  0  0  0  0  0  0  0
  153.8328  139.1943  160.2341 H   0  0  0  0  0  0  0  0  0  0  0  0
  153.9192  140.0467  158.6923 H   0  0  0  0  0  0  0  0  0  0  0  0
  153.3996  141.6774  162.3831 H   0  0  0  0  0  0  0  0  0  0  0  0
  154.8386  142.1880  161.4813 H   0  0  0  0  0  0  0  0  0  0  0  0
  154.5855  140.4865  161.8555 H   0  0  0  0  0  0  0  0  0  0  0  0
  149.6349  139.3547  155.3832 H   0  0  0  0  0  0  0  0  0  0  0  0
  147.9963  139.8610  155.7214 H   0  0  0  0  0  0  0  0  0  0  0  0
  147.9613  137.7313  154.4930 H   0  0  0  0  0  0  0  0  0  0  0  0
  148.9431  138.3980  153.2027 H   0  0  0  0  0  0  0  0  0  0  0  0
  146.2805  139.3301  153.9772 H   0  0  0  0  0  0  0  0  0  0  0  0
  1  2  1  0  0  0  0
  1 21  1  0  0  0  0
  1 22  1  0  0  0  0
  1 23  1  0  0  0  0
  2 20  1  0  0  0  0
  2  3  1  0  0  0  0
  2 44  1  0  0  0  0
  3  4  1  0  0  0  0
  3 24  1  0  0  0  0
  3 25  1  0  0  0  0
  4  5  1  0  0  0  0
  4 26  1  0  0  0  0
  4 27  1  0  0  0  0
  5  6  1  0  0  0  0
  5 19  1  0  0  0  0
  5 28  1  0  0  0  0
  6  7  1  0  0  0  0
  6 29  1  0  0  0  0
  7  8  2  0  0  0  0
  7  9  1  0  0  0  0
  9 10  1  0  0  0  0
  9 30  1  0  0  0  0
 10 18  1  0  0  0  0
 10 11  2  0  0  0  0
 11 12  1  0  0  0  0
 11 31  1  0  0  0  0
 12 13  2  0  0  0  0
 12 32  1  0  0  0  0
 13 14  1  0  0  0  0
 13 33  1  0  0  0  0
 14 15  1  0  0  0  0
 14 18  2  0  0  0  0
 15 16  1  0  0  0  0
 15 17  1  0  0  0  0
 16 34  1  0  0  0  0
 16 35  1  0  0  0  0
 16 36  1  0  0  0  0
 17 37  1  0  0  0  0
 17 38  1  0  0  0  0
 17 39  1  0  0  0  0
 19 20  1  0  0  0  0
 19 40  1  0  0  0  0
 19 41  1  0  0  0  0
 20 42  1  0  0  0  0
 20 43  1  0  0  0  0
M  CHG  1   2   1
M  END
> <s_m_source_file>
AV-unprocessed.smi

> <i_m_source_file_index>
2547

> <i_lp_mmshare_version>
43012

> <i_f3d_flags>
0

> <s_epik_input>
W0NIM11OMVtDSDJdW0NIMl1bQ0hdKFtDSDJdW0NIMl0xKVtOSF1DKD1PKVtOSF1jMltjSF1bY0hdW2NIXWMobjIpTihbQ0gzXSlbQ0gzXQ==

> <s_epik_cmdline>
J2VwaWtfcHl0aG9uJywgJy1waCcsICc3LjAnLCAnLXRuJywgJzgnLCAnLW1hJywgJzIwMCcsICctbWV0YWxfYmluZGluZycsICctaW1hZScsICc8aW5maWxlLm1hZT4nLCAnLW9tYWUnLCAnPG91dGZpbGUubWFlPic=

> <r_lp_tautomer_probability>
1

> <r_epik_Ionization_Penalty>
0.0212039

> <r_epik_Ionization_Penalty_Charging>
0.00366825

> <r_epik_Ionization_Penalty_Neutral>
0.0175357

> <r_epik_State_Penalty>
0.0137702

> <r_epik_Charging_Adjusted_Penalty>
0.0174385

> <i_epik_Tot_Q>
1

> <i_epik_Tot_abs_Q>
1

> <r_epik_Metal_State_Penalty>
0.0148742

> <b_epik_Metal_Only>
0

> <s_lp_Force_Field>
OPLS_2005

> <r_lp_Energy>
17.9869

> <b_lp_Chiralities_Consistent>
1

> <s_lp_Variant>
AV-unprocessed.smi:2547-1

> <Gold.Version>
5.8.1

> <Gold.Id.Protein>
6NUR|6NUR_protein|mol2

> <Gold.PLP.Fitness>
49.2892

> <Gold.PLP.PLP>
-43.8270

> <Gold.PLP.part.hbond>
-2.0000

> <Gold.PLP.part.metal>
0.0000

> <Gold.PLP.part.buried>
-4.6391

> <Gold.PLP.part.nonpolar>
-38.2478

> <Gold.PLP.part.repulsive>
0.2518

> <Gold.PLP.ligand.clash>
0.0000

> <Gold.PLP.ligand.torsion>
0.2742

> <Gold.PLP.Chemscore.Hbond>
2.0000

> <Gold.PLP.Chemscore.CHOScore>
0.0000

> <Gold.PLP.Chemscore.Metal>
0.0000

> <Gold.Chemscore.Hbonds>
donor molecule, donor type, donor heavy atom, donor atom, acceptor molecule, acceptor atom, score
      L1  H     6    29       P1  8028  0.99
      L1  H     9    30       P1  8028  1.00

> <Gold.PLP.Chemscore.Internal.Correction>
0.0105

> <Gold.Rescore>
     Score         DG    S(hbond)    S(metal)    S(lipo)     H(rot)  DE(clash)    DE(int)     intcor
     17.21     -20.25       1.96        0.00      92.34       1.00       0.25       2.79       ----

> <Gold.Chemscore.Fitness>
17.2132

> <Gold.Chemscore.DG>
-20.2542

> <Gold.Chemscore.ZeroCoef>
-5.4800

> <Gold.Chemscore.Hbond>
1.9551

> <Gold.Chemscore.Metal>
0.0000

> <Gold.Chemscore.Lipo>
92.3430

> <Gold.Chemscore.Internal_Hbond>
0.0000

> <Gold.Chemscore.DEClash>
0.2523

> <Gold.Chemscore.DEInternal>
2.7887

> <Gold.Chemscore.Rot>
1.0000

> <Gold.Chemscore.Internal.Correction>
   9.000000E+99

> <Gold.Chemscore.Hbonds>
donor molecule, donor type, donor heavy atom, donor atom, acceptor molecule, acceptor atom, score
      L1  H     6    29       P1  8028  0.94
      L1  H     9    30       P1  8028  0.99

> <Gold.Chemscore.Hbond.Weighted>
-6.5301

> <Gold.Chemscore.Metal.Weighted>
-0.0000

> <Gold.Chemscore.Lipo.Weighted>
-10.8041

> <Gold.Chemscore.Internal_Hbond.Weighted>
0.0000

> <Gold.Chemscore.DEClash.Weighted>
0.2523

> <Gold.Chemscore.DEInternal.Weighted>
2.7887

> <Gold.Chemscore.Rot.Weighted>
2.5600

> <Gold.Chemscore.Internal.Correction.Weighted>
   9.000000E+99

> <Gold.Protein.RotatedTorsions>
[ 6907 6896 6895 6894 ] final -148.86 input  -60.11 | X-H torsion
[ 7974 7965 7964 7962 ] final -124.11 input  175.53 | X-H torsion
[ 8008 7997 7996 7995 ] final  -39.29 input   59.86 | X-H torsion
[ 10167 10162 10161 10158 ] final  161.64 input  -65.29 | X-H torsion
[ 10718 10713 10712 10709 ] final   -5.12 input   66.30 | X-H torsion
[ 10763 10752 10751 10750 ] final -132.83 input  -60.55 | X-H torsion
[ 11005 11000 10999 10996 ] final -157.27 input  -57.11 | X-H torsion

> <Gold.Protein.ActiveResidues>
 VAL166  LYS551  ARG553  GLY616  TRP617  ASP618  TYR619  PRO620  LYS621  CYS622 
 ASP623  PHE694  ASN695  SER759  ASP760  ASP761  ALA762  ILE779  LEU786  VAL792 
 PHE793  MET794  SER795  GLU796  ALA797  LYS798  CYS799  TRP800  GLU811  SER814 

> <Gold.Protein.RotatedAtoms>
  151.1758  133.4755  159.2593 H   0  0  0  0  0  0  0  0  0  0  0  0  # atno 6907 bound_to 6896
  151.1309  135.0129  159.8592 H   0  0  0  0  0  0  0  0  0  0  0  0  # atno 6908 bound_to 6896
  152.5460  134.1661  159.8631 H   0  0  0  0  0  0  0  0  0  0  0  0  # atno 6909 bound_to 6896
  145.0115  140.7910  143.4435 H   0  0  0  0  0  0  0  0  0  0  0  0  # atno 7974 bound_to 7965
  154.4025  140.1555  156.2839 H   0  0  0  0  0  0  0  0  0  0  0  0  # atno 8008 bound_to 7997
  155.8845  140.3442  155.5889 H   0  0  0  0  0  0  0  0  0  0  0  0  # atno 8009 bound_to 7997
  155.7629  140.0820  157.2137 H   0  0  0  0  0  0  0  0  0  0  0  0  # atno 8010 bound_to 7997
  139.4851  144.4517  151.8822 H   0  0  0  0  0  0  0  0  0  0  0  0  # atno 10167 bound_to 10162
  156.7513  130.5240  149.5803 H   0  0  0  0  0  0  0  0  0  0  0  0  # atno 10718 bound_to 10713
  154.8739  135.3785  154.4473 H   0  0  0  0  0  0  0  0  0  0  0  0  # atno 10763 bound_to 10752
  153.5153  135.7029  153.5765 H   0  0  0  0  0  0  0  0  0  0  0  0  # atno 10764 bound_to 10752
  153.4036  135.3942  155.1970 H   0  0  0  0  0  0  0  0  0  0  0  0  # atno 10765 bound_to 10752
  140.6664  134.4294  157.5233 H   0  0  0  0  0  0  0  0  0  0  0  0  # atno 11005 bound_to 11000
  145.2017  139.2249  143.5189 LP  0  0  0  0  0  0  0  0  0  0  0  0  # atno 17320 bound_to 7965
  146.3470  140.1835  142.8589 LP  0  0  0  0  0  0  0  0  0  0  0  0  # atno 17321 bound_to 7965
  140.3974  144.2538  150.5895 LP  0  0  0  0  0  0  0  0  0  0  0  0  # atno 17342 bound_to 10162
  140.5089  143.2296  151.8565 LP  0  0  0  0  0  0  0  0  0  0  0  0  # atno 17343 bound_to 10162
  156.1399  130.6237  151.0453 LP  0  0  0  0  0  0  0  0  0  0  0  0  # atno 17370 bound_to 10713
  157.6776  131.0846  150.7455 LP  0  0  0  0  0  0  0  0  0  0  0  0  # atno 17371 bound_to 10713
  139.8996  134.8588  156.1954 LP  0  0  0  0  0  0  0  0  0  0  0  0  # atno 17394 bound_to 11000
  141.0426  133.6930  156.1625 LP  0  0  0  0  0  0  0  0  0  0  0  0  # atno 17395 bound_to 11000

$$$$
