AV-unprocessed.smi:2081|AV-procd|sdf|8488|dock5
  -GOLD-   2272011193D 1   1.00000     0.00000
 Structure written by MMmdl.
 45 46  0  0  0  0  0  0  0  0  1 V2000
  149.4342  133.5399  153.9426 C   0  0  0  0  0  0  0  0  0  0  0  0
  149.1412  133.6235  155.3848 N   0  0  0  0  0  0  0  0  0  0  0  0
  149.1302  134.9820  155.9672 C   0  0  0  0  0  0  0  0  0  0  0  0
  150.2934  135.8997  155.5852 C   0  0  0  0  0  0  0  0  0  0  0  0
  151.4453  135.6040  155.9025 O   0  0  0  0  0  0  0  0  0  0  0  0
  149.9732  137.0034  154.8931 N   0  0  0  0  0  0  0  0  0  0  0  0
  150.9321  137.9775  154.3841 C   0  0  0  0  0  0  0  0  0  0  0  0
  151.2272  139.1116  155.3542 C   0  0  0  0  0  0  0  0  0  0  0  0
  150.5555  140.3493  155.2778 C   0  0  0  0  0  0  0  0  0  0  0  0
  150.8738  141.3587  156.2057 C   0  0  0  0  0  0  0  0  0  0  0  0
  151.8528  141.1039  157.1957 C   0  0  0  0  0  0  0  0  0  0  0  0
  152.1902  142.1012  158.1373 N   0  0  0  0  0  0  0  0  0  0  0  0
  152.2639  141.7171  159.5460 C   0  0  0  0  0  0  0  0  0  0  0  0
  152.9226  142.8338  160.3728 C   0  0  0  0  0  0  0  0  0  0  0  0
  152.2184  144.0549  160.1740 O   0  0  0  0  0  0  0  0  0  0  0  0
  152.2546  144.4699  158.8126 C   0  0  0  0  0  0  0  0  0  0  0  0
  151.5774  143.4105  157.9254 C   0  0  0  0  0  0  0  0  0  0  0  0
  152.4942  139.9110  157.2657 N   0  0  0  0  0  0  0  0  0  0  0  0
  152.1856  138.9466  156.3734 C   0  0  0  0  0  0  0  0  0  0  0  0
  149.6988  132.3268  156.3933 S   0  0  0  0  0  0  0  0  0  0  0  0
  150.5828  131.2359  155.2046 C   0  0  0  0  0  0  0  0  0  0  0  0
  150.6812  132.8779  157.3392 O   0  0  0  0  0  0  0  0  0  0  0  0
  148.5204  131.6056  156.8980 O   0  0  0  0  0  0  0  0  0  0  0  0
  150.4389  133.9117  153.7404 H   0  0  0  0  0  0  0  0  0  0  0  0
  148.7216  134.1174  153.3547 H   0  0  0  0  0  0  0  0  0  0  0  0
  149.3743  132.5091  153.5951 H   0  0  0  0  0  0  0  0  0  0  0  0
  148.2079  135.4876  155.6810 H   0  0  0  0  0  0  0  0  0  0  0  0
  149.1005  134.8924  157.0537 H   0  0  0  0  0  0  0  0  0  0  0  0
  148.9990  137.1650  154.6818 H   0  0  0  0  0  0  0  0  0  0  0  0
  151.8665  137.4570  154.1738 H   0  0  0  0  0  0  0  0  0  0  0  0
  150.5816  138.3797  153.4320 H   0  0  0  0  0  0  0  0  0  0  0  0
  149.8093  140.5311  154.5183 H   0  0  0  0  0  0  0  0  0  0  0  0
  150.3767  142.3146  156.1367 H   0  0  0  0  0  0  0  0  0  0  0  0
  151.2580  141.5199  159.9195 H   0  0  0  0  0  0  0  0  0  0  0  0
  152.8409  140.7982  159.6584 H   0  0  0  0  0  0  0  0  0  0  0  0
  152.9009  142.5787  161.4323 H   0  0  0  0  0  0  0  0  0  0  0  0
  153.9710  142.9560  160.0959 H   0  0  0  0  0  0  0  0  0  0  0  0
  151.7363  145.4242  158.7190 H   0  0  0  0  0  0  0  0  0  0  0  0
  153.2866  144.6365  158.4992 H   0  0  0  0  0  0  0  0  0  0  0  0
  151.6446  143.7268  156.8857 H   0  0  0  0  0  0  0  0  0  0  0  0
  150.5159  143.3445  158.1676 H   0  0  0  0  0  0  0  0  0  0  0  0
  152.7254  138.0169  156.4762 H   0  0  0  0  0  0  0  0  0  0  0  0
  150.9754  130.3688  155.7356 H   0  0  0  0  0  0  0  0  0  0  0  0
  151.4081  131.7811  154.7480 H   0  0  0  0  0  0  0  0  0  0  0  0
  149.8930  130.9013  154.4303 H   0  0  0  0  0  0  0  0  0  0  0  0
  1  2  1  0  0  0  0
  1 24  1  0  0  0  0
  1 25  1  0  0  0  0
  1 26  1  0  0  0  0
  2  3  1  0  0  0  0
  2 20  1  0  0  0  0
  3  4  1  0  0  0  0
  3 27  1  0  0  0  0
  3 28  1  0  0  0  0
  4  5  2  0  0  0  0
  4  6  1  0  0  0  0
  6  7  1  0  0  0  0
  6 29  1  0  0  0  0
  7  8  1  0  0  0  0
  7 30  1  0  0  0  0
  7 31  1  0  0  0  0
  8 19  1  0  0  0  0
  8  9  2  0  0  0  0
  9 10  1  0  0  0  0
  9 32  1  0  0  0  0
 10 11  2  0  0  0  0
 10 33  1  0  0  0  0
 11 12  1  0  0  0  0
 11 18  1  0  0  0  0
 12 17  1  0  0  0  0
 12 13  1  0  0  0  0
 13 14  1  0  0  0  0
 13 34  1  0  0  0  0
 13 35  1  0  0  0  0
 14 15  1  0  0  0  0
 14 36  1  0  0  0  0
 14 37  1  0  0  0  0
 15 16  1  0  0  0  0
 16 17  1  0  0  0  0
 16 38  1  0  0  0  0
 16 39  1  0  0  0  0
 17 40  1  0  0  0  0
 17 41  1  0  0  0  0
 18 19  2  0  0  0  0
 19 42  1  0  0  0  0
 20 21  1  0  0  0  0
 20 22  2  0  0  0  0
 20 23  2  0  0  0  0
 21 43  1  0  0  0  0
 21 44  1  0  0  0  0
 21 45  1  0  0  0  0
M  END
> <s_m_source_file>
AV-unprocessed.smi

> <i_m_source_file_index>
2081

> <i_lp_mmshare_version>
43012

> <i_f3d_flags>
0

> <s_epik_input>
W0NIM11TKD1PKSg9TylOKFtDSDNdKVtDSDJdQyg9TylbTkhdW0NIMl1jMVtjSF1bY0hdYyhuW2NIXTEpTjJbQ0gyXVtDSDJdT1tDSDJdW0NIMl0y

> <s_epik_cmdline>
J2VwaWtfcHl0aG9uJywgJy1waCcsICc3LjAnLCAnLXRuJywgJzgnLCAnLW1hJywgJzIwMCcsICctbWV0YWxfYmluZGluZycsICctaW1hZScsICc8aW5maWxlLm1hZT4nLCAnLW9tYWUnLCAnPG91dGZpbGUubWFlPic=

> <r_lp_tautomer_probability>
1

> <r_epik_Ionization_Penalty>
0.00477463

> <r_epik_Ionization_Penalty_Charging>
0

> <r_epik_Ionization_Penalty_Neutral>
0.00477463

> <r_epik_State_Penalty>
0.00345982

> <r_epik_Charging_Adjusted_Penalty>
0.00345982

> <i_epik_Tot_Q>
0

> <i_epik_Tot_abs_Q>
0

> <r_epik_Metal_State_Penalty>
-0

> <b_epik_Metal_Only>
0

> <s_lp_Force_Field>
OPLS_2005

> <r_lp_Energy>
5.64261

> <b_lp_Chiralities_Consistent>
1

> <s_lp_Variant>
AV-unprocessed.smi:2081-1

> <Gold.Version>
5.8.1

> <Gold.Id.Protein>
6NUR|6NUR_protein|mol2

> <Gold.PLP.Fitness>
49.3640

> <Gold.PLP.PLP>
-41.9930

> <Gold.PLP.part.hbond>
-3.1922

> <Gold.PLP.part.metal>
0.0000

> <Gold.PLP.part.buried>
-4.4399

> <Gold.PLP.part.nonpolar>
-34.3596

> <Gold.PLP.part.repulsive>
0.1255

> <Gold.PLP.ligand.clash>
0.0000

> <Gold.PLP.ligand.torsion>
2.1426

> <Gold.PLP.Chemscore.Hbond>
2.9760

> <Gold.PLP.Chemscore.CHOScore>
0.0000

> <Gold.PLP.Chemscore.Metal>
0.0000

> <Gold.Chemscore.Hbonds>
donor molecule, donor type, donor heavy atom, donor atom, acceptor molecule, acceptor atom, score
      P1  H  6896  6908       L1    22  0.99
      P1  H  7997  8009       L1    18  0.89
      P1  H 10752 10763       L1     5  1.00

> <Gold.PLP.Chemscore.Internal.Correction>
2.7283

> <Gold.Rescore>
     Score         DG    S(hbond)    S(metal)    S(lipo)     H(rot)  DE(clash)    DE(int)     intcor
     16.97     -19.12       2.33        0.00      95.40       2.07       0.05       2.10       ----

> <Gold.Chemscore.Fitness>
16.9658

> <Gold.Chemscore.DG>
-19.1225

> <Gold.Chemscore.ZeroCoef>
-5.4800

> <Gold.Chemscore.Hbond>
2.3328

> <Gold.Chemscore.Metal>
0.0000

> <Gold.Chemscore.Lipo>
95.4039

> <Gold.Chemscore.Internal_Hbond>
0.0000

> <Gold.Chemscore.DEClash>
0.0528

> <Gold.Chemscore.DEInternal>
2.1039

> <Gold.Chemscore.Rot>
2.0748

> <Gold.Chemscore.Internal.Correction>
   9.000000E+99

> <Gold.Chemscore.Hbonds>
donor molecule, donor type, donor heavy atom, donor atom, acceptor molecule, acceptor atom, score
      P1  H  6896  6908       L1    22  0.87
      P1  H  7997  8009       L1    18  0.16
      P1  H 10752 10763       L1     5  1.00

> <Gold.Chemscore.Hbond.Weighted>
-7.7917

> <Gold.Chemscore.Metal.Weighted>
-0.0000

> <Gold.Chemscore.Lipo.Weighted>
-11.1623

> <Gold.Chemscore.Internal_Hbond.Weighted>
0.0000

> <Gold.Chemscore.DEClash.Weighted>
0.0528

> <Gold.Chemscore.DEInternal.Weighted>
2.1039

> <Gold.Chemscore.Rot.Weighted>
5.3115

> <Gold.Chemscore.Internal.Correction.Weighted>
   9.000000E+99

> <Gold.Protein.RotatedTorsions>
[ 6907 6896 6895 6894 ] final   79.78 input  -60.11 | X-H torsion
[ 7974 7965 7964 7962 ] final   82.27 input  175.53 | X-H torsion
[ 8008 7997 7996 7995 ] final  161.54 input   59.86 | X-H torsion
[ 10167 10162 10161 10158 ] final  -93.38 input  -65.29 | X-H torsion
[ 10718 10713 10712 10709 ] final   45.08 input   66.30 | X-H torsion
[ 10763 10752 10751 10750 ] final   78.31 input  -60.55 | X-H torsion
[ 11005 11000 10999 10996 ] final  169.22 input  -57.11 | X-H torsion

> <Gold.Protein.ActiveResidues>
 VAL166  LYS551  ARG553  GLY616  TRP617  ASP618  TYR619  PRO620  LYS621  CYS622 
 ASP623  PHE694  ASN695  SER759  ASP760  ASP761  ALA762  ILE779  LEU786  VAL792 
 PHE793  MET794  SER795  GLU796  ALA797  LYS798  CYS799  TRP800  GLU811  SER814 

> <Gold.Protein.RotatedAtoms>
  152.5211  134.3459  159.9233 H   0  0  0  0  0  0  0  0  0  0  0  0  # atno 6907 bound_to 6896
  151.3409  133.3956  159.2679 H   0  0  0  0  0  0  0  0  0  0  0  0  # atno 6908 bound_to 6896
  150.9804  134.9178  159.7898 H   0  0  0  0  0  0  0  0  0  0  0  0  # atno 6909 bound_to 6896
  145.6272  139.2397  143.2105 H   0  0  0  0  0  0  0  0  0  0  0  0  # atno 7974 bound_to 7965
  156.2096  140.1774  156.7725 H   0  0  0  0  0  0  0  0  0  0  0  0  # atno 8008 bound_to 7997
  154.5703  140.0683  156.8984 H   0  0  0  0  0  0  0  0  0  0  0  0  # atno 8009 bound_to 7997
  155.2685  140.3341  155.4269 H   0  0  0  0  0  0  0  0  0  0  0  0  # atno 8010 bound_to 7997
  140.3252  143.3026  152.0003 H   0  0  0  0  0  0  0  0  0  0  0  0  # atno 10167 bound_to 10162
  157.4337  130.8040  149.7628 H   0  0  0  0  0  0  0  0  0  0  0  0  # atno 10718 bound_to 10713
  153.0865  135.4881  154.8606 H   0  0  0  0  0  0  0  0  0  0  0  0  # atno 10763 bound_to 10752
  154.7217  135.3041  154.9039 H   0  0  0  0  0  0  0  0  0  0  0  0  # atno 10764 bound_to 10752
  153.9702  135.6802  153.4800 H   0  0  0  0  0  0  0  0  0  0  0  0  # atno 10765 bound_to 10752
  140.2954  134.7639  157.3873 H   0  0  0  0  0  0  0  0  0  0  0  0  # atno 11005 bound_to 11000
  146.1385  140.7090  142.9378 LP  0  0  0  0  0  0  0  0  0  0  0  0  # atno 17320 bound_to 7965
  144.7208  140.4365  143.7010 LP  0  0  0  0  0  0  0  0  0  0  0  0  # atno 17321 bound_to 7965
  139.4866  144.6279  151.7128 LP  0  0  0  0  0  0  0  0  0  0  0  0  # atno 17342 bound_to 10162
  140.5447  144.0522  150.6102 LP  0  0  0  0  0  0  0  0  0  0  0  0  # atno 17343 bound_to 10162
  155.9923  130.3932  150.2949 LP  0  0  0  0  0  0  0  0  0  0  0  0  # atno 17370 bound_to 10713
  157.1108  131.0221  151.3048 LP  0  0  0  0  0  0  0  0  0  0  0  0  # atno 17371 bound_to 10713
  140.1157  134.5286  155.8227 LP  0  0  0  0  0  0  0  0  0  0  0  0  # atno 17394 bound_to 11000
  141.2138  133.6739  156.6772 LP  0  0  0  0  0  0  0  0  0  0  0  0  # atno 17395 bound_to 11000

$$$$
