AV-unprocessed.smi:1808|AV-procd|sdf|7308|dock8
  -GOLD-   22720 8563D 1   1.00000     0.00000
 Structure written by MMmdl.
 27 28  0  0  0  0  0  0  0  0  2 V2000
  151.0674  140.6525  155.4561 O   0  0  0  0  0  0  0  0  0  0  0  0
  150.3582  141.6549  155.5696 C   0  0  0  0  0  0  0  0  0  0  0  0
  150.5773  142.5156  156.5721 N   0  0  0  0  0  0  0  0  0  0  0  0
  151.6190  142.3802  157.5813 C   0  0  0  0  0  0  0  0  0  0  0  0
  151.2190  143.1073  158.8722 C   0  0  1  0  0  0  0  0  0  0  0  0
  152.2015  142.9097  160.0235 C   0  0  0  0  0  0  0  0  0  0  0  0
  151.9484  144.1201  160.9075 C   0  0  0  0  0  0  0  0  0  0  0  0
  151.2417  145.1160  159.9822 C   0  0  0  0  0  0  0  0  0  0  0  0
  151.2540  144.5147  158.6944 O   0  0  0  0  0  0  0  0  0  0  0  0
  149.3339  142.0089  154.7602 N   0  5  0  0  0  0  0  0  0  0  0  0
  148.5340  141.0655  154.2369 C   0  0  0  0  0  0  0  0  0  0  0  0
  148.8506  139.7656  154.2216 N   0  0  0  0  0  0  0  0  0  0  0  0
  147.8706  138.9625  153.6352 C   0  0  0  0  0  0  0  0  0  0  0  0
  146.7783  139.6661  153.2025 C   0  0  0  0  0  0  0  0  0  0  0  0
  146.9491  141.3689  153.5200 S   0  0  0  0  0  0  0  0  0  0  0  0
  149.9811  143.3278  156.6319 H   0  0  0  0  0  0  0  0  0  0  0  0
  151.7739  141.3201  157.7863 H   0  0  0  0  0  0  0  0  0  0  0  0
  152.5602  142.7776  157.1982 H   0  0  0  0  0  0  0  0  0  0  0  0
  150.2167  142.8094  159.1861 H   0  0  0  0  0  0  0  0  0  0  0  0
  152.0572  141.9631  160.5451 H   0  0  0  0  0  0  0  0  0  0  0  0
  153.2268  142.9371  159.6517 H   0  0  0  0  0  0  0  0  0  0  0  0
  151.3053  143.8633  161.7499 H   0  0  0  0  0  0  0  0  0  0  0  0
  152.8807  144.5211  161.3062 H   0  0  0  0  0  0  0  0  0  0  0  0
  150.2090  145.2680  160.2992 H   0  0  0  0  0  0  0  0  0  0  0  0
  151.7363  146.0871  159.9586 H   0  0  0  0  0  0  0  0  0  0  0  0
  148.0336  137.8971  153.5690 H   0  0  0  0  0  0  0  0  0  0  0  0
  145.8886  139.2903  152.7206 H   0  0  0  0  0  0  0  0  0  0  0  0
  1  2  2  0  0  0  0
  2  3  1  0  0  0  0
  2 10  1  0  0  0  0
  3  4  1  0  0  0  0
  3 16  1  0  0  0  0
  4  5  1  0  0  0  0
  4 17  1  0  0  0  0
  4 18  1  0  0  0  0
  5  9  1  0  0  0  0
  5  6  1  0  0  0  0
  5 19  1  0  0  0  0
  6  7  1  0  0  0  0
  6 20  1  0  0  0  0
  6 21  1  0  0  0  0
  7  8  1  0  0  0  0
  7 22  1  0  0  0  0
  7 23  1  0  0  0  0
  8  9  1  0  0  0  0
  8 24  1  0  0  0  0
  8 25  1  0  0  0  0
 10 11  1  0  0  0  0
 11 15  1  0  0  0  0
 11 12  2  0  0  0  0
 12 13  1  0  0  0  0
 13 14  2  0  0  0  0
 13 26  1  0  0  0  0
 14 15  1  0  0  0  0
 14 27  1  0  0  0  0
M  CHG  1  10  -1
M  END
> <s_m_source_file>
AV-unprocessed.smi

> <i_m_source_file_index>
1808

> <i_lp_mmshare_version>
43012

> <i_f3d_flags>
0

> <s_epik_input>
czFbY0hdW2NIXW5jMVtOSF1DKD1PKVtOSF1bQ0gyXVtDQEBIXTJbQ0gyXVtDSDJdW0NIMl1PMg==

> <s_epik_cmdline>
J2VwaWtfcHl0aG9uJywgJy1waCcsICc3LjAnLCAnLXRuJywgJzgnLCAnLW1hJywgJzIwMCcsICctbWV0YWxfYmluZGluZycsICctaW1hZScsICc8aW5maWxlLm1hZT4nLCAnLW9tYWUnLCAnPG91dGZpbGUubWFlPic=

> <r_lp_tautomer_probability>
0.999

> <r_epik_Ionization_Penalty>
8.26346

> <r_epik_Ionization_Penalty_Charging>
6.6559

> <r_epik_Ionization_Penalty_Neutral>
1.60756

> <r_epik_State_Penalty>
6.65607

> <r_epik_Charging_Adjusted_Penalty>
13.312

> <i_epik_Tot_Q>
-1

> <i_epik_Tot_abs_Q>
1

> <r_epik_Metal_State_Penalty>
2.5789

> <b_epik_Metal_Only>
1

> <s_lp_Force_Field>
OPLS_2005

> <r_lp_Energy>
13.0287

> <b_lp_Chiralities_Consistent>
1

> <s_lp_Variant>
AV-unprocessed.smi:1808-4

> <Gold.Version>
5.8.1

> <Gold.Id.Protein>
6NUR|6NUR_protein|mol2

> <Gold.PLP.Fitness>
39.7041

> <Gold.PLP.PLP>
-29.5673

> <Gold.PLP.part.hbond>
-3.0332

> <Gold.PLP.part.metal>
0.0000

> <Gold.PLP.part.buried>
-5.0774

> <Gold.PLP.part.nonpolar>
-22.4250

> <Gold.PLP.part.repulsive>
2.0757

> <Gold.PLP.ligand.clash>
0.0000

> <Gold.PLP.ligand.torsion>
0.5338

> <Gold.PLP.Chemscore.Hbond>
1.7816

> <Gold.PLP.Chemscore.CHOScore>
1.9494

> <Gold.PLP.Chemscore.Metal>
0.0000

> <Gold.Chemscore.Hbonds>
donor molecule, donor type, donor heavy atom, donor atom, acceptor molecule, acceptor atom, score
      L1  H     3    16       P1  8028  0.96
      P1  H  7989  7998       L1     1  0.79
      L1  C    13    26       P1  7948  0.96
      L1  C    14    27       P1 10175  0.95

> <Gold.PLP.Chemscore.Internal.Correction>
0.0113

> <Gold.Rescore>
     Score         DG    S(hbond)    S(metal)    S(lipo)     H(rot)  DE(clash)    DE(int)     intcor
     12.64     -14.98       1.37        0.00      70.63       1.30       0.35       1.99       ----

> <Gold.Chemscore.Fitness>
12.6417

> <Gold.Chemscore.DG>
-14.9811

> <Gold.Chemscore.ZeroCoef>
-5.4800

> <Gold.Chemscore.Hbond>
1.3671

> <Gold.Chemscore.Metal>
0.0000

> <Gold.Chemscore.Lipo>
70.6251

> <Gold.Chemscore.Internal_Hbond>
0.0000

> <Gold.Chemscore.DEClash>
0.3470

> <Gold.Chemscore.DEInternal>
1.9924

> <Gold.Chemscore.Rot>
1.3000

> <Gold.Chemscore.Internal.Correction>
   9.000000E+99

> <Gold.Chemscore.Hbonds>
donor molecule, donor type, donor heavy atom, donor atom, acceptor molecule, acceptor atom, score
      L1  H     3    16       P1  8028  0.87
      P1  H  7989  7998       L1     1  0.17

> <Gold.Chemscore.Hbond.Weighted>
-4.5660

> <Gold.Chemscore.Metal.Weighted>
-0.0000

> <Gold.Chemscore.Lipo.Weighted>
-8.2631

> <Gold.Chemscore.Internal_Hbond.Weighted>
0.0000

> <Gold.Chemscore.DEClash.Weighted>
0.3470

> <Gold.Chemscore.DEInternal.Weighted>
1.9924

> <Gold.Chemscore.Rot.Weighted>
3.3280

> <Gold.Chemscore.Internal.Correction.Weighted>
   9.000000E+99

> <Gold.Protein.RotatedTorsions>
[ 6907 6896 6895 6894 ] final -135.94 input  -60.11 | X-H torsion
[ 7974 7965 7964 7962 ] final  174.51 input  175.53 | X-H torsion
[ 8008 7997 7996 7995 ] final -100.03 input   59.86 | X-H torsion
[ 10167 10162 10161 10158 ] final  -34.39 input  -65.29 | X-H torsion
[ 10718 10713 10712 10709 ] final  110.17 input   66.30 | X-H torsion
[ 10763 10752 10751 10750 ] final  -55.11 input  -60.55 | X-H torsion
[ 11005 11000 10999 10996 ] final  161.57 input  -57.11 | X-H torsion

> <Gold.Protein.ActiveResidues>
 VAL166  LYS551  ARG553  GLY616  TRP617  ASP618  TYR619  PRO620  LYS621  CYS622 
 ASP623  PHE694  ASN695  SER759  ASP760  ASP761  ALA762  ILE779  LEU786  VAL792 
 PHE793  MET794  SER795  GLU796  ALA797  LYS798  CYS799  TRP800  GLU811  SER814 

> <Gold.Protein.RotatedAtoms>
  151.0040  133.6029  159.2691 H   0  0  0  0  0  0  0  0  0  0  0  0  # atno 6907 bound_to 6896
  151.3205  135.0816  159.9314 H   0  0  0  0  0  0  0  0  0  0  0  0  # atno 6908 bound_to 6896
  152.5281  133.9688  159.7806 H   0  0  0  0  0  0  0  0  0  0  0  0  # atno 6909 bound_to 6896
  144.7220  139.9808  143.6438 H   0  0  0  0  0  0  0  0  0  0  0  0  # atno 7974 bound_to 7965
  154.8230  140.0443  157.1424 H   0  0  0  0  0  0  0  0  0  0  0  0  # atno 8008 bound_to 7997
  154.9238  140.3030  155.5182 H   0  0  0  0  0  0  0  0  0  0  0  0  # atno 8009 bound_to 7997
  156.2981  140.2335  156.4291 H   0  0  0  0  0  0  0  0  0  0  0  0  # atno 8010 bound_to 7997
  140.7186  143.3551  151.2075 H   0  0  0  0  0  0  0  0  0  0  0  0  # atno 10167 bound_to 10162
  157.6507  131.0928  150.6563 H   0  0  0  0  0  0  0  0  0  0  0  0  # atno 10718 bound_to 10713
  154.1855  135.6436  153.5045 H   0  0  0  0  0  0  0  0  0  0  0  0  # atno 10763 bound_to 10752
  153.0048  135.5416  154.6470 H   0  0  0  0  0  0  0  0  0  0  0  0  # atno 10764 bound_to 10752
  154.5845  135.2928  155.0672 H   0  0  0  0  0  0  0  0  0  0  0  0  # atno 10765 bound_to 10752
  140.2171  134.8224  157.3182 H   0  0  0  0  0  0  0  0  0  0  0  0  # atno 11005 bound_to 11000
  146.0489  139.3492  143.0652 LP  0  0  0  0  0  0  0  0  0  0  0  0  # atno 17320 bound_to 7965
  145.8240  140.9664  143.0884 LP  0  0  0  0  0  0  0  0  0  0  0  0  # atno 17321 bound_to 7965
  139.7091  143.9406  152.2939 LP  0  0  0  0  0  0  0  0  0  0  0  0  # atno 17342 bound_to 10162
  139.9125  144.6848  150.8547 LP  0  0  0  0  0  0  0  0  0  0  0  0  # atno 17343 bound_to 10162
  156.6874  130.4585  149.5610 LP  0  0  0  0  0  0  0  0  0  0  0  0  # atno 17370 bound_to 10713
  156.1886  130.6545  151.1035 LP  0  0  0  0  0  0  0  0  0  0  0  0  # atno 17371 bound_to 10713
  140.1889  134.4397  155.7727 LP  0  0  0  0  0  0  0  0  0  0  0  0  # atno 17394 bound_to 11000
  141.2224  133.7018  156.7993 LP  0  0  0  0  0  0  0  0  0  0  0  0  # atno 17395 bound_to 11000

$$$$
