#       Name:                AV-unprocessed.smi:1433
#       Creating user name   scv26
#       Creation time:       Fri Mar 27 05:50:16 2020


#       File generated by GOLD software.
#

@<TRIPOS>MOLECULE
AV-unprocessed.smi:1433
    50    51     1
SMALL
NO_CHARGES


@<TRIPOS>ATOM
      1 ****        -4.7684  -1.6234  -0.6468 C.3            1 S1                 0.0000
      2 ****        -3.2420  -1.4910  -0.6255 C.3            1 S1                 0.0000
      3 ****        -2.7437  -0.7327   0.6191 C.3            1 S1                 0.0000
      4 ****        -1.2829  -0.6790   0.6892 N.3            1 S1                 0.0000
      5 ****        -0.7800   0.0943   1.8451 C.3            1 S1                 0.0000
      6 ****        -1.3645   1.5225   1.9399 C.3            1 S1                 0.0000
      7 ****         0.7667   0.2070   1.8927 C.3            1 S1                 0.0000
      8 ****         1.2999   0.8556   0.6960 N.am           1 S1                 0.0000
      9 ****         2.0635   0.2724  -0.2415 C.2            1 S1                 0.0000
     10 ****         2.4603  -0.8905  -0.1752 O.2            1 S1                 0.0000
     11 ****         2.4274   1.1313  -1.4530 C.3            1 S1                 0.0000
     12 ****         3.4011   2.1506  -1.1047 N.pl3          1 S1                 0.0000
     13 ****         4.7563   2.0041  -0.8919 C.2            1 S1                 0.0000
     14 ****         5.2564   3.2384  -0.5902 C.2            1 S1                 0.0000
     15 ****         4.1159   4.0878  -0.6457 C.2            1 S1                 0.0000
     16 ****         3.0070   3.4342  -0.9530 N.2            1 S1                 0.0000
     17 ****        -0.7828  -2.0564   0.6737 C.3            1 S1                 0.0000
     18 ****        -1.2634  -2.8566  -0.5512 C.3            1 S1                 0.0000
     19 ****        -0.5805  -2.4245  -1.8608 C.3            1 S1                 0.0000
     20 ****        -2.6859  -2.8028  -0.6456 O.3            1 S1                 0.0000
     21 ****        -5.2475  -0.6441  -0.6385 H              1 S1                 0.0000
     22 ****        -5.1284  -2.1799   0.2190 H              1 S1                 0.0000
     23 ****        -5.1011  -2.1487  -1.5422 H              1 S1                 0.0000
     24 ****        -2.9335  -0.9547  -1.5233 H              1 S1                 0.0000
     25 ****        -3.1618   0.2716   0.5739 H              1 S1                 0.0000
     26 ****        -3.1401  -1.2000   1.5220 H              1 S1                 0.0000
     27 ****        -1.0844  -0.4255   2.7549 H              1 S1                 0.0000
     28 ****        -0.8839   2.0948   2.7339 H              1 S1                 0.0000
     29 ****        -2.4279   1.5144   2.1772 H              1 S1                 0.0000
     30 ****        -1.2302   2.0743   1.0088 H              1 S1                 0.0000
     31 ****         1.0641   0.8100   2.7509 H              1 S1                 0.0000
     32 ****         1.2322  -0.7624   2.0697 H              1 S1                 0.0000
     33 ****         1.0321   1.8181   0.5481 H              1 S1                 0.0000
     34 ****         2.8452   0.5052  -2.2424 H              1 S1                 0.0000
     35 ****         1.5295   1.6011  -1.8582 H              1 S1                 0.0000
     36 ****         5.2447   1.0437  -0.9704 H              1 S1                 0.0000
     37 ****         6.2806   3.4956  -0.3650 H              1 S1                 0.0000
     38 ****         4.0610   5.1525  -0.4730 H              1 S1                 0.0000
     39 ****         0.3040  -2.0816   0.6807 H              1 S1                 0.0000
     40 ****        -1.1053  -2.5682   1.5818 H              1 S1                 0.0000
     41 ****        -1.0072  -3.9039  -0.3893 H              1 S1                 0.0000
     42 ****         0.4973  -2.5782  -1.8039 H              1 S1                 0.0000
     43 ****        -0.7446  -1.3697  -2.0808 H              1 S1                 0.0000
     44 ****        -0.9532  -3.0052  -2.7046 H              1 S1                 0.0000
     45 ****        -0.9350  -0.1808  -0.1049 LP             1 S1                 0.0000
     46 ****         2.2156  -1.4582   0.6108 LP             1 S1                 0.0000
     47 ****         3.0273  -1.2678  -0.9073 LP             1 S1                 0.0000
     48 ****         2.0841   3.8067  -1.0510 LP             1 S1                 0.0000
     49 ****        -2.9567  -3.2413  -1.5026 LP             1 S1                 0.0000
     50 ****        -3.0674  -3.3132   0.1251 LP             1 S1                 0.0000
@<TRIPOS>BOND
    1    1    2 1     
    2    1   21 1     
    3    1   22 1     
    4    1   23 1     
    5    2   20 1     
    6    2    3 1     
    7    2   24 1     
    8    3    4 1     
    9    3   25 1     
   10    3   26 1     
   11    4    5 1     
   12    4   17 1     
   13    5    6 1     
   14    5    7 1     
   15    5   27 1     
   16    6   28 1     
   17    6   29 1     
   18    6   30 1     
   19    7    8 1     
   20    7   31 1     
   21    7   32 1     
   22    8    9 am    
   23    8   33 1     
   24    9   10 2     
   25    9   11 1     
   26   11   12 1     
   27   11   34 1     
   28   11   35 1     
   29   12   16 1     
   30   12   13 1     
   31   13   14 2     
   32   13   36 1     
   33   14   15 1     
   34   14   37 1     
   35   15   16 2     
   36   15   38 1     
   37   17   18 1     
   38   17   39 1     
   39   17   40 1     
   40   18   19 1     
   41   18   20 1     
   42   18   41 1     
   43   19   42 1     
   44   19   43 1     
   45   19   44 1     
   46    4   45 1     
   47   10   46 1     
   48   10   47 1     
   49   16   48 1     
   50   20   49 1     
   51   20   50 1     
@<TRIPOS>SUBSTRUCTURE
      1 S1             1
@<TRIPOS>SET
LONE_PAIRS      STATIC     ATOMS    <user>   **** ""
6 45 46 47 48 49 50
DONOR_HYDROGENS      STATIC     ATOMS    <user>   **** ""
1 33
ATOM$BLUE        STATIC     ATOMS    COLORGROUP SYSTEM
6 45 46 47 48 49 50
ATOM$RED        STATIC     ATOMS    COLORGROUP SYSTEM
1 33
