AV-unprocessed.smi:147|AV-procd|sdf|1201|dock6
  -GOLD-   2262018363D 1   1.00000     0.00000
 Structure written by MMmdl.
 55 57  0  0  0  0  0  0  0  0  1 V2000
  152.6082  144.8920  158.0859 C   0  0  0  0  0  0  0  0  0  0  0  0
  151.4881  144.3995  159.0170 C   0  0  0  0  0  0  0  0  0  0  0  0
  151.9513  144.3779  160.4826 C   0  0  0  0  0  0  0  0  0  0  0  0
  150.9924  143.0127  158.5877 C   0  0  0  0  0  0  0  0  0  0  0  0
  151.0952  142.0529  159.3526 O   0  0  0  0  0  0  0  0  0  0  0  0
  150.4529  142.9212  157.3623 N   0  0  0  0  0  0  0  0  0  0  0  0
  149.9091  141.7025  156.7768 C   0  0  0  0  0  0  0  0  0  0  0  0
  149.9000  141.7773  155.2388 C   0  0  0  0  0  0  0  0  0  0  0  0
  149.2660  140.6096  154.6256 N   0  0  0  0  0  0  0  0  0  0  0  0
  147.8386  140.6831  154.3368 C   0  0  0  0  0  0  0  0  0  0  0  0
  149.8839  139.3928  154.6451 C   0  0  0  0  0  0  0  0  0  0  0  0
  151.2160  139.3319  154.3733 N   0  0  0  0  0  0  0  0  0  0  0  0
  151.8685  138.1675  154.3862 C   0  0  0  0  0  0  0  0  0  0  0  0
  151.3904  136.9492  154.6345 N   0  0  0  0  0  0  0  0  0  0  0  0
  150.0531  136.9883  154.8949 C   0  0  0  0  0  0  0  0  0  0  0  0
  149.2301  138.1529  154.9275 C   0  0  0  0  0  0  0  0  0  0  0  0
  147.9246  137.7825  155.2371 N   0  0  0  0  0  0  0  0  0  0  0  0
  147.9765  136.4881  155.3881 C   0  0  0  0  0  0  0  0  0  0  0  0
  149.2115  135.9245  155.1698 N   0  0  0  0  0  0  0  0  0  0  0  0
  149.5581  134.5394  155.2984 C   0  0  0  0  0  0  0  0  0  0  0  0
  150.0289  133.7280  154.0895 C   0  0  0  0  0  0  0  0  0  0  0  0
  149.3626  132.4667  154.6834 C   0  0  0  0  0  0  0  0  0  0  0  0
  148.6126  131.5798  153.6765 C   0  0  0  0  0  0  0  0  0  0  0  0
  148.1415  132.3355  152.5797 O   0  0  0  0  0  0  0  0  0  0  0  0
  150.2822  131.5835  155.5504 C   0  0  0  0  0  0  0  0  0  0  0  0
  149.5345  130.7467  156.4095 O   0  0  0  0  0  0  0  0  0  0  0  0
  148.4808  133.4646  155.4665 C   0  0  0  0  0  0  0  0  0  0  0  0
  152.2820  144.9061  157.0453 H   0  0  0  0  0  0  0  0  0  0  0  0
  153.4926  144.2567  158.1496 H   0  0  0  0  0  0  0  0  0  0  0  0
  152.9121  145.9062  158.3460 H   0  0  0  0  0  0  0  0  0  0  0  0
  150.6561  145.1013  158.9386 H   0  0  0  0  0  0  0  0  0  0  0  0
  151.1569  144.0313  161.1448 H   0  0  0  0  0  0  0  0  0  0  0  0
  152.2397  145.3756  160.8141 H   0  0  0  0  0  0  0  0  0  0  0  0
  152.8117  143.7222  160.6227 H   0  0  0  0  0  0  0  0  0  0  0  0
  150.4075  143.7578  156.7989 H   0  0  0  0  0  0  0  0  0  0  0  0
  150.5264  140.8683  157.1108 H   0  0  0  0  0  0  0  0  0  0  0  0
  148.9050  141.5181  157.1620 H   0  0  0  0  0  0  0  0  0  0  0  0
  149.3522  142.6646  154.9196 H   0  0  0  0  0  0  0  0  0  0  0  0
  150.9126  141.9107  154.8557 H   0  0  0  0  0  0  0  0  0  0  0  0
  147.6572  140.5576  153.2692 H   0  0  0  0  0  0  0  0  0  0  0  0
  147.4295  141.6506  154.6291 H   0  0  0  0  0  0  0  0  0  0  0  0
  147.2889  139.9149  154.8816 H   0  0  0  0  0  0  0  0  0  0  0  0
  152.9239  138.2193  154.1629 H   0  0  0  0  0  0  0  0  0  0  0  0
  147.1065  135.9057  155.6550 H   0  0  0  0  0  0  0  0  0  0  0  0
  150.2889  134.4851  156.1068 H   0  0  0  0  0  0  0  0  0  0  0  0
  149.5623  134.0605  153.1603 H   0  0  0  0  0  0  0  0  0  0  0  0
  151.1125  133.6739  153.9808 H   0  0  0  0  0  0  0  0  0  0  0  0
  149.2673  130.8004  153.2852 H   0  0  0  0  0  0  0  0  0  0  0  0
  147.7713  131.0657  154.1416 H   0  0  0  0  0  0  0  0  0  0  0  0
  148.2441  131.8197  151.7946 H   0  0  0  0  0  0  0  0  0  0  0  0
  150.9130  130.9454  154.9315 H   0  0  0  0  0  0  0  0  0  0  0  0
  150.9625  132.1859  156.1527 H   0  0  0  0  0  0  0  0  0  0  0  0
  148.7916  130.4122  155.9308 H   0  0  0  0  0  0  0  0  0  0  0  0
  148.2791  133.1844  156.5007 H   0  0  0  0  0  0  0  0  0  0  0  0
  147.5558  133.7134  154.9425 H   0  0  0  0  0  0  0  0  0  0  0  0
  1  2  1  0  0  0  0
  1 28  1  0  0  0  0
  1 29  1  0  0  0  0
  1 30  1  0  0  0  0
  2  3  1  0  0  0  0
  2  4  1  0  0  0  0
  2 31  1  0  0  0  0
  3 32  1  0  0  0  0
  3 33  1  0  0  0  0
  3 34  1  0  0  0  0
  4  5  2  0  0  0  0
  4  6  1  0  0  0  0
  6  7  1  0  0  0  0
  6 35  1  0  0  0  0
  7  8  1  0  0  0  0
  7 36  1  0  0  0  0
  7 37  1  0  0  0  0
  8  9  1  0  0  0  0
  8 38  1  0  0  0  0
  8 39  1  0  0  0  0
  9 10  1  0  0  0  0
  9 11  1  0  0  0  0
 10 40  1  0  0  0  0
 10 41  1  0  0  0  0
 10 42  1  0  0  0  0
 11 16  1  0  0  0  0
 11 12  2  0  0  0  0
 12 13  1  0  0  0  0
 13 14  2  0  0  0  0
 13 43  1  0  0  0  0
 14 15  1  0  0  0  0
 15 19  1  0  0  0  0
 15 16  2  0  0  0  0
 16 17  1  0  0  0  0
 17 18  2  0  0  0  0
 18 19  1  0  0  0  0
 18 44  1  0  0  0  0
 19 20  1  0  0  0  0
 20 27  1  0  0  0  0
 20 21  1  0  0  0  0
 20 45  1  0  0  0  0
 21 22  1  0  0  0  0
 21 46  1  0  0  0  0
 21 47  1  0  0  0  0
 22 23  1  0  0  0  0
 22 25  1  0  0  0  0
 22 27  1  0  0  0  0
 23 24  1  0  0  0  0
 23 48  1  0  0  0  0
 23 49  1  0  0  0  0
 24 50  1  0  0  0  0
 25 26  1  0  0  0  0
 25 51  1  0  0  0  0
 25 52  1  0  0  0  0
 26 53  1  0  0  0  0
 27 54  1  0  0  0  0
 27 55  1  0  0  0  0
M  END
> <s_m_source_file>
AV-unprocessed.smi

> <i_m_source_file_index>
147

> <i_lp_mmshare_version>
43012

> <i_f3d_flags>
0

> <s_epik_input>
W0NIM11bQ0hdKFtDSDNdKUMoPU8pW05IXVtDSDJdW0NIMl1OKFtDSDNdKWMobltjSF1uMSljKGMxMiluW2NIXW4yW0NIXShbQ0gyXTMpW0NIMl1DMyhbQ0gyXVtPSF0pW0NIMl1bT0hd

> <s_epik_cmdline>
J2VwaWtfcHl0aG9uJywgJy1waCcsICc3LjAnLCAnLXRuJywgJzgnLCAnLW1hJywgJzIwMCcsICctbWV0YWxfYmluZGluZycsICctaW1hZScsICc8aW5maWxlLm1hZT4nLCAnLW9tYWUnLCAnPG91dGZpbGUubWFlPic=

> <r_lp_tautomer_probability>
1

> <r_epik_Ionization_Penalty>
0.00124047

> <r_epik_Ionization_Penalty_Charging>
0

> <r_epik_Ionization_Penalty_Neutral>
0.00124047

> <r_epik_State_Penalty>
0.000682986

> <r_epik_Charging_Adjusted_Penalty>
0.000682986

> <i_epik_Tot_Q>
0

> <i_epik_Tot_abs_Q>
0

> <r_epik_Metal_State_Penalty>
-0

> <b_epik_Metal_Only>
0

> <s_lp_Force_Field>
OPLS_2005

> <r_lp_Energy>
28.5646

> <b_lp_Chiralities_Consistent>
1

> <s_lp_Variant>
AV-unprocessed.smi:147-1

> <Gold.Version>
5.8.1

> <Gold.Id.Protein>
6NUR|6NUR_protein|mol2

> <Gold.PLP.Fitness>
56.1033

> <Gold.PLP.PLP>
-47.2239

> <Gold.PLP.part.hbond>
-4.9543

> <Gold.PLP.part.metal>
0.0000

> <Gold.PLP.part.buried>
-6.5768

> <Gold.PLP.part.nonpolar>
-36.3135

> <Gold.PLP.part.repulsive>
0.3590

> <Gold.PLP.ligand.clash>
0.0000

> <Gold.PLP.ligand.torsion>
1.5029

> <Gold.PLP.Chemscore.Hbond>
3.7000

> <Gold.PLP.Chemscore.CHOScore>
0.0000

> <Gold.PLP.Chemscore.Metal>
0.0000

> <Gold.Chemscore.Hbonds>
donor molecule, donor type, donor heavy atom, donor atom, acceptor molecule, acceptor atom, score
      L1  H     6    35       P1  8028  0.56
      L1  H    24    50       P1 10747  1.00
      P1  H  7989  7998       L1    12  1.00
      P1  H 10752 10765       L1    14  0.99

> <Gold.PLP.Chemscore.Internal.Correction>
0.7850

> <Gold.Rescore>
     Score         DG    S(hbond)    S(metal)    S(lipo)     H(rot)  DE(clash)    DE(int)     intcor
     13.26     -17.48       3.47        0.00      94.25       4.15       1.82       2.40       ----

> <Gold.Chemscore.Fitness>
13.2647

> <Gold.Chemscore.DG>
-17.4826

> <Gold.Chemscore.ZeroCoef>
-5.4800

> <Gold.Chemscore.Hbond>
3.4705

> <Gold.Chemscore.Metal>
0.0000

> <Gold.Chemscore.Lipo>
94.2544

> <Gold.Chemscore.Internal_Hbond>
0.0000

> <Gold.Chemscore.DEClash>
1.8180

> <Gold.Chemscore.DEInternal>
2.3998

> <Gold.Chemscore.Rot>
4.1472

> <Gold.Chemscore.Internal.Correction>
   9.000000E+99

> <Gold.Chemscore.Hbonds>
donor molecule, donor type, donor heavy atom, donor atom, acceptor molecule, acceptor atom, score
      L1  H     6    35       P1  8028  0.57
      L1  H    24    50       P1 10747  0.99
      P1  H  7989  7998       L1    12  0.60
      P1  H 10752 10765       L1    14  0.51

> <Gold.Chemscore.Hbond.Weighted>
-11.5915

> <Gold.Chemscore.Metal.Weighted>
-0.0000

> <Gold.Chemscore.Lipo.Weighted>
-11.0278

> <Gold.Chemscore.Internal_Hbond.Weighted>
0.0000

> <Gold.Chemscore.DEClash.Weighted>
1.8180

> <Gold.Chemscore.DEInternal.Weighted>
2.3998

> <Gold.Chemscore.Rot.Weighted>
10.6167

> <Gold.Chemscore.Internal.Correction.Weighted>
   9.000000E+99

> <Gold.Protein.RotatedTorsions>
[ 6907 6896 6895 6894 ] final  -92.44 input  -60.11 | X-H torsion
[ 7974 7965 7964 7962 ] final  156.05 input  175.53 | X-H torsion
[ 8008 7997 7996 7995 ] final  -36.70 input   59.86 | X-H torsion
[ 10167 10162 10161 10158 ] final -158.32 input  -65.29 | X-H torsion
[ 10718 10713 10712 10709 ] final -165.63 input   66.30 | X-H torsion
[ 10763 10752 10751 10750 ] final  164.17 input  -60.55 | X-H torsion
[ 11005 11000 10999 10996 ] final -162.85 input  -57.11 | X-H torsion

> <Gold.Protein.ActiveResidues>
 VAL166  LYS551  ARG553  GLY616  TRP617  ASP618  TYR619  PRO620  LYS621  CYS622 
 ASP623  PHE694  ASN695  SER759  ASP760  ASP761  ALA762  ILE779  LEU786  VAL792 
 PHE793  MET794  SER795  GLU796  ALA797  LYS798  CYS799  TRP800  GLU811  SER814 

> <Gold.Protein.RotatedAtoms>
  150.6906  134.2122  159.4363 H   0  0  0  0  0  0  0  0  0  0  0  0  # atno 6907 bound_to 6896
  152.0083  134.9888  160.0576 H   0  0  0  0  0  0  0  0  0  0  0  0  # atno 6908 bound_to 6896
  152.1512  133.4488  159.4851 H   0  0  0  0  0  0  0  0  0  0  0  0  # atno 6909 bound_to 6896
  144.7987  139.7151  143.6191 H   0  0  0  0  0  0  0  0  0  0  0  0  # atno 7974 bound_to 7965
  154.4068  140.1624  156.2416 H   0  0  0  0  0  0  0  0  0  0  0  0  # atno 8008 bound_to 7997
  155.9196  140.3422  155.6139 H   0  0  0  0  0  0  0  0  0  0  0  0  # atno 8009 bound_to 7997
  155.7238  140.0772  157.2309 H   0  0  0  0  0  0  0  0  0  0  0  0  # atno 8010 bound_to 7997
  139.6701  143.9760  152.2278 H   0  0  0  0  0  0  0  0  0  0  0  0  # atno 10167 bound_to 10162
  156.6562  130.9027  151.3021 H   0  0  0  0  0  0  0  0  0  0  0  0  # atno 10718 bound_to 10713
  154.3048  135.2758  155.2594 H   0  0  0  0  0  0  0  0  0  0  0  0  # atno 10763 bound_to 10752
  154.5015  135.5807  153.6538 H   0  0  0  0  0  0  0  0  0  0  0  0  # atno 10764 bound_to 10752
  152.9895  135.6159  154.3221 H   0  0  0  0  0  0  0  0  0  0  0  0  # atno 10765 bound_to 10752
  140.6047  134.4911  157.5209 H   0  0  0  0  0  0  0  0  0  0  0  0  # atno 11005 bound_to 11000
  146.2262  139.5727  142.9585 LP  0  0  0  0  0  0  0  0  0  0  0  0  # atno 17320 bound_to 7965
  145.5608  141.0404  143.2227 LP  0  0  0  0  0  0  0  0  0  0  0  0  # atno 17321 bound_to 7965
  139.9522  144.6613  150.8161 LP  0  0  0  0  0  0  0  0  0  0  0  0  # atno 17342 bound_to 10162
  140.7615  143.3175  151.2699 LP  0  0  0  0  0  0  0  0  0  0  0  0  # atno 17343 bound_to 10162
  157.7124  130.9457  150.1137 LP  0  0  0  0  0  0  0  0  0  0  0  0  # atno 17370 bound_to 10713
  156.2046  130.3662  149.8746 LP  0  0  0  0  0  0  0  0  0  0  0  0  # atno 17371 bound_to 10713
  139.9217  134.8135  156.1190 LP  0  0  0  0  0  0  0  0  0  0  0  0  # atno 17394 bound_to 11000
  141.0848  133.6738  156.2414 LP  0  0  0  0  0  0  0  0  0  0  0  0  # atno 17395 bound_to 11000

$$$$
