AV-unprocessed.smi:243|AV-procd|sdf|1856|dock3
  -GOLD-   2262020483D 1   1.00000     0.00000
 Structure written by MMmdl.
 58 61  0  0  0  0  0  0  0  0  2 V2000
  152.3033  144.6857  159.2574 C   0  0  0  0  0  0  0  0  0  0  0  0
  151.2935  144.9757  158.1372 C   0  0  0  0  0  0  0  0  0  0  0  0
  150.5067  143.7771  157.7500 N   0  3  2  0  0  0  0  0  0  0  0  0
  149.7797  143.1908  158.9036 C   0  0  0  0  0  0  0  0  0  0  0  0
  148.8389  142.0683  158.4457 C   0  0  0  0  0  0  0  0  0  0  0  0
  149.6090  140.9734  157.6754 C   0  0  1  0  0  0  0  0  0  0  0  0
  148.7529  139.8450  157.2771 N   0  0  0  0  0  0  0  0  0  0  0  0
  148.0220  139.9439  156.0190 C   0  0  0  0  0  0  0  0  0  0  0  0
  149.0214  138.5660  157.6477 C   0  0  0  0  0  0  0  0  0  0  0  0
  149.0947  138.2321  158.9624 N   0  0  0  0  0  0  0  0  0  0  0  0
  149.3687  136.9758  159.3261 C   0  0  0  0  0  0  0  0  0  0  0  0
  149.5991  135.9145  158.5514 N   0  0  0  0  0  0  0  0  0  0  0  0
  149.5314  136.2432  157.2296 C   0  0  0  0  0  0  0  0  0  0  0  0
  149.2516  137.5329  156.6966 C   0  0  0  0  0  0  0  0  0  0  0  0
  149.2495  137.4805  155.3082 N   0  0  0  0  0  0  0  0  0  0  0  0
  149.5162  136.2324  155.0359 C   0  0  0  0  0  0  0  0  0  0  0  0
  149.7093  135.4201  156.1309 N   0  0  0  0  0  0  0  0  0  0  0  0
  150.0143  133.9973  156.1218 C   0  0  0  0  0  0  0  0  0  0  0  0
  148.9529  133.1383  155.3940 C   0  0  1  0  0  0  0  0  0  0  0  0
  147.7026  133.2945  156.0429 O   0  0  0  0  0  0  0  0  0  0  0  0
  148.7838  133.5255  153.9302 C   0  0  0  0  0  0  0  0  0  0  0  0
  148.3407  132.2191  153.2856 C   0  0  0  0  0  0  0  0  0  0  0  0
  149.1377  131.2537  153.9502 O   0  0  0  0  0  0  0  0  0  0  0  0
  149.2789  131.6321  155.3168 C   0  0  0  0  0  0  0  0  0  0  0  0
  150.4341  141.5937  156.5157 C   0  0  2  0  0  0  0  0  0  0  0  0
  151.3137  140.5504  155.8032 C   0  0  0  0  0  0  0  0  0  0  0  0
  151.3130  142.7464  157.0447 C   0  0  0  0  0  0  0  0  0  0  0  0
  152.9338  145.5565  159.4382 H   0  0  0  0  0  0  0  0  0  0  0  0
  152.9580  143.8546  158.9937 H   0  0  0  0  0  0  0  0  0  0  0  0
  151.8138  144.4443  160.2003 H   0  0  0  0  0  0  0  0  0  0  0  0
  150.6237  145.7882  158.4225 H   0  0  0  0  0  0  0  0  0  0  0  0
  151.8553  145.3291  157.2715 H   0  0  0  0  0  0  0  0  0  0  0  0
  150.4955  142.8115  159.6348 H   0  0  0  0  0  0  0  0  0  0  0  0
  149.1931  143.9623  159.4041 H   0  0  0  0  0  0  0  0  0  0  0  0
  148.3416  141.6384  159.3158 H   0  0  0  0  0  0  0  0  0  0  0  0
  148.0535  142.5033  157.8292 H   0  0  0  0  0  0  0  0  0  0  0  0
  150.3335  140.5510  158.3734 H   0  0  0  0  0  0  0  0  0  0  0  0
  148.4449  139.2745  155.2685 H   0  0  0  0  0  0  0  0  0  0  0  0
  148.0588  140.9578  155.6207 H   0  0  0  0  0  0  0  0  0  0  0  0
  146.9731  139.6837  156.1602 H   0  0  0  0  0  0  0  0  0  0  0  0
  149.4105  136.7945  160.3899 H   0  0  0  0  0  0  0  0  0  0  0  0
  149.5769  135.8689  154.0205 H   0  0  0  0  0  0  0  0  0  0  0  0
  150.9916  133.8600  155.6569 H   0  0  0  0  0  0  0  0  0  0  0  0
  150.1207  133.6671  157.1560 H   0  0  0  0  0  0  0  0  0  0  0  0
  147.6297  132.6363  156.7169 H   0  0  0  0  0  0  0  0  0  0  0  0
  148.0811  134.3443  153.7701 H   0  0  0  0  0  0  0  0  0  0  0  0
  149.7431  133.8233  153.5047 H   0  0  0  0  0  0  0  0  0  0  0  0
  147.2854  132.0227  153.4816 H   0  0  0  0  0  0  0  0  0  0  0  0
  148.5015  132.2022  152.2076 H   0  0  0  0  0  0  0  0  0  0  0  0
  150.3024  131.4139  155.6193 H   0  0  0  0  0  0  0  0  0  0  0  0
  148.6178  131.0321  155.9440 H   0  0  0  0  0  0  0  0  0  0  0  0
  149.7604  142.0224  155.7741 H   0  0  0  0  0  0  0  0  0  0  0  0
  152.0087  140.0776  156.4977 H   0  0  0  0  0  0  0  0  0  0  0  0
  151.9006  141.0103  155.0078 H   0  0  0  0  0  0  0  0  0  0  0  0
  150.7159  139.7624  155.3454 H   0  0  0  0  0  0  0  0  0  0  0  0
  151.8398  143.1967  156.2042 H   0  0  0  0  0  0  0  0  0  0  0  0
  152.0770  142.3600  157.7215 H   0  0  0  0  0  0  0  0  0  0  0  0
  149.8001  144.0955  157.1022 H   0  0  0  0  0  0  0  0  0  0  0  0
  1  2  1  0  0  0  0
  1 28  1  0  0  0  0
  1 29  1  0  0  0  0
  1 30  1  0  0  0  0
  2  3  1  0  0  0  0
  2 31  1  0  0  0  0
  2 32  1  0  0  0  0
  3 27  1  0  0  0  0
  3  4  1  0  0  0  0
  3 58  1  0  0  0  0
  4  5  1  0  0  0  0
  4 33  1  0  0  0  0
  4 34  1  0  0  0  0
  5  6  1  0  0  0  0
  5 35  1  0  0  0  0
  5 36  1  0  0  0  0
  6  7  1  0  0  0  0
  6 25  1  0  0  0  0
  6 37  1  0  0  0  0
  7  8  1  0  0  0  0
  7  9  1  0  0  0  0
  8 38  1  0  0  0  0
  8 39  1  0  0  0  0
  8 40  1  0  0  0  0
  9 14  1  0  0  0  0
  9 10  2  0  0  0  0
 10 11  1  0  0  0  0
 11 12  2  0  0  0  0
 11 41  1  0  0  0  0
 12 13  1  0  0  0  0
 13 17  1  0  0  0  0
 13 14  2  0  0  0  0
 14 15  1  0  0  0  0
 15 16  2  0  0  0  0
 16 17  1  0  0  0  0
 16 42  1  0  0  0  0
 17 18  1  0  0  0  0
 18 19  1  0  0  0  0
 18 43  1  0  0  0  0
 18 44  1  0  0  0  0
 19 24  1  0  0  0  0
 19 20  1  0  0  0  0
 19 21  1  0  0  0  0
 20 45  1  0  0  0  0
 21 22  1  0  0  0  0
 21 46  1  0  0  0  0
 21 47  1  0  0  0  0
 22 23  1  0  0  0  0
 22 48  1  0  0  0  0
 22 49  1  0  0  0  0
 23 24  1  0  0  0  0
 24 50  1  0  0  0  0
 24 51  1  0  0  0  0
 25 26  1  0  0  0  0
 25 27  1  0  0  0  0
 25 52  1  0  0  0  0
 26 53  1  0  0  0  0
 26 54  1  0  0  0  0
 26 55  1  0  0  0  0
 27 56  1  0  0  0  0
 27 57  1  0  0  0  0
M  CHG  1   3   1
M  END
> <s_m_source_file>
AV-unprocessed.smi

> <i_m_source_file_index>
243

> <i_lp_mmshare_version>
43012

> <i_f3d_flags>
0

> <s_epik_input>
W0NIM11bQ0gyXU4xW0NIMl1bQ0gyXVtDQEhdKFtDQEBIXShbQ0gzXSlbQ0gyXTEpTihbQ0gzXSljKG5bY0hdbjIpYyhjMjMpbltjSF1uM1tDSDJdW0NAQF00KFtPSF0pW0NIMl1bQ0gyXU9bQ0gyXTQ=

> <s_epik_cmdline>
J2VwaWtfcHl0aG9uJywgJy1waCcsICc3LjAnLCAnLXRuJywgJzgnLCAnLW1hJywgJzIwMCcsICctbWV0YWxfYmluZGluZycsICctaW1hZScsICc8aW5maWxlLm1hZT4nLCAnLW9tYWUnLCAnPG91dGZpbGUubWFlPic=

> <r_lp_tautomer_probability>
1

> <r_epik_Ionization_Penalty>
0.00253099

> <r_epik_Ionization_Penalty_Charging>
0.00137877

> <r_epik_Ionization_Penalty_Neutral>
0.00115221

> <r_epik_State_Penalty>
-0

> <r_epik_Charging_Adjusted_Penalty>
0.00137877

> <i_epik_Tot_Q>
1

> <i_epik_Tot_abs_Q>
1

> <r_epik_Metal_State_Penalty>
-0

> <b_epik_Metal_Only>
0

> <s_lp_Force_Field>
OPLS_2005

> <r_lp_Energy>
45.5206

> <b_lp_Chiralities_Consistent>
1

> <s_lp_Variant>
AV-unprocessed.smi:243-9

> <Gold.Version>
5.8.1

> <Gold.Id.Protein>
6NUR|6NUR_protein|mol2

> <Gold.PLP.Fitness>
47.9099

> <Gold.PLP.PLP>
-37.9849

> <Gold.PLP.part.hbond>
-3.0731

> <Gold.PLP.part.metal>
0.0000

> <Gold.PLP.part.buried>
-6.7223

> <Gold.PLP.part.nonpolar>
-28.5530

> <Gold.PLP.part.repulsive>
0.1807

> <Gold.PLP.ligand.clash>
0.0000

> <Gold.PLP.ligand.torsion>
1.1558

> <Gold.PLP.Chemscore.Hbond>
3.0000

> <Gold.PLP.Chemscore.CHOScore>
0.7442

> <Gold.PLP.Chemscore.Metal>
0.0000

> <Gold.Chemscore.Hbonds>
donor molecule, donor type, donor heavy atom, donor atom, acceptor molecule, acceptor atom, score
      L1  H     3    58       P1  8028  2.00
      P1  H  6896  6908       L1    12  1.00
      L1  C    16    42       P1  7948  1.00

> <Gold.PLP.Chemscore.Internal.Correction>
1.0041

> <Gold.Rescore>
     Score         DG    S(hbond)    S(metal)    S(lipo)     H(rot)  DE(clash)    DE(int)     intcor
     13.39     -15.90       1.85        0.00      85.33       2.24       0.02       2.49       ----

> <Gold.Chemscore.Fitness>
13.3897

> <Gold.Chemscore.DG>
-15.9032

> <Gold.Chemscore.ZeroCoef>
-5.4800

> <Gold.Chemscore.Hbond>
1.8471

> <Gold.Chemscore.Metal>
0.0000

> <Gold.Chemscore.Lipo>
85.3258

> <Gold.Chemscore.Internal_Hbond>
0.0000

> <Gold.Chemscore.DEClash>
0.0195

> <Gold.Chemscore.DEInternal>
2.4939

> <Gold.Chemscore.Rot>
2.2379

> <Gold.Chemscore.Internal.Correction>
   9.000000E+99

> <Gold.Chemscore.Hbonds>
donor molecule, donor type, donor heavy atom, donor atom, acceptor molecule, acceptor atom, score
      L1  H     3    58       P1  8028  0.74
      P1  H  6896  6908       L1    12  0.77

> <Gold.Chemscore.Hbond.Weighted>
-6.1692

> <Gold.Chemscore.Metal.Weighted>
-0.0000

> <Gold.Chemscore.Lipo.Weighted>
-9.9831

> <Gold.Chemscore.Internal_Hbond.Weighted>
0.0000

> <Gold.Chemscore.DEClash.Weighted>
0.0195

> <Gold.Chemscore.DEInternal.Weighted>
2.4939

> <Gold.Chemscore.Rot.Weighted>
5.7291

> <Gold.Chemscore.Internal.Correction.Weighted>
   9.000000E+99

> <Gold.Protein.RotatedTorsions>
[ 6907 6896 6895 6894 ] final  161.20 input  -60.11 | X-H torsion
[ 7974 7965 7964 7962 ] final  142.29 input  175.53 | X-H torsion
[ 8008 7997 7996 7995 ] final -178.98 input   59.86 | X-H torsion
[ 10167 10162 10161 10158 ] final   93.08 input  -65.29 | X-H torsion
[ 10718 10713 10712 10709 ] final  130.63 input   66.30 | X-H torsion
[ 10763 10752 10751 10750 ] final  -21.47 input  -60.55 | X-H torsion
[ 11005 11000 10999 10996 ] final  -38.12 input  -57.11 | X-H torsion

> <Gold.Protein.ActiveResidues>
 VAL166  LYS551  ARG553  GLY616  TRP617  ASP618  TYR619  PRO620  LYS621  CYS622 
 ASP623  PHE694  ASN695  SER759  ASP760  ASP761  ALA762  ILE779  LEU786  VAL792 
 PHE793  MET794  SER795  GLU796  ALA797  LYS798  CYS799  TRP800  GLU811  SER814 

> <Gold.Protein.RotatedAtoms>
  151.9591  133.3690  159.4028 H   0  0  0  0  0  0  0  0  0  0  0  0  # atno 6907 bound_to 6896
  150.6967  134.4259  159.5235 H   0  0  0  0  0  0  0  0  0  0  0  0  # atno 6908 bound_to 6896
  152.1945  134.8643  160.0565 H   0  0  0  0  0  0  0  0  0  0  0  0  # atno 6909 bound_to 6896
  144.9020  139.5410  143.5749 H   0  0  0  0  0  0  0  0  0  0  0  0  # atno 7974 bound_to 7965
  156.0252  140.1270  157.0316 H   0  0  0  0  0  0  0  0  0  0  0  0  # atno 8008 bound_to 7997
  154.4327  140.1060  156.6091 H   0  0  0  0  0  0  0  0  0  0  0  0  # atno 8009 bound_to 7997
  155.5887  140.3469  155.4562 H   0  0  0  0  0  0  0  0  0  0  0  0  # atno 8010 bound_to 7997
  139.8214  144.6729  150.9514 H   0  0  0  0  0  0  0  0  0  0  0  0  # atno 10167 bound_to 10162
  157.5044  131.1095  150.9382 H   0  0  0  0  0  0  0  0  0  0  0  0  # atno 10718 bound_to 10713
  153.6366  135.6987  153.5256 H   0  0  0  0  0  0  0  0  0  0  0  0  # atno 10763 bound_to 10752
  153.2816  135.4184  155.1083 H   0  0  0  0  0  0  0  0  0  0  0  0  # atno 10764 bound_to 10752
  154.8509  135.3603  154.5910 H   0  0  0  0  0  0  0  0  0  0  0  0  # atno 10765 bound_to 10752
  141.0003  133.6959  156.2010 H   0  0  0  0  0  0  0  0  0  0  0  0  # atno 11005 bound_to 11000
  146.3113  139.7758  142.9017 LP  0  0  0  0  0  0  0  0  0  0  0  0  # atno 17320 bound_to 7965
  145.3600  141.0324  143.3290 LP  0  0  0  0  0  0  0  0  0  0  0  0  # atno 17321 bound_to 7965
  140.7813  143.4088  151.1027 LP  0  0  0  0  0  0  0  0  0  0  0  0  # atno 17342 bound_to 10162
  139.7748  143.8442  152.3127 LP  0  0  0  0  0  0  0  0  0  0  0  0  # atno 17343 bound_to 10162
  157.0043  130.5612  149.5314 LP  0  0  0  0  0  0  0  0  0  0  0  0  # atno 17370 bound_to 10713
  156.0249  130.5343  150.8378 LP  0  0  0  0  0  0  0  0  0  0  0  0  # atno 17371 bound_to 10713
  140.6899  134.4677  157.5588 LP  0  0  0  0  0  0  0  0  0  0  0  0  # atno 17394 bound_to 11000
  139.9035  134.8501  156.1797 LP  0  0  0  0  0  0  0  0  0  0  0  0  # atno 17395 bound_to 11000

$$$$
