AV-unprocessed.smi:101|AV-procd|sdf|941|dock1
  -GOLD-   2262017463D 1   1.00000     0.00000
 Structure written by MMmdl.
 43 45  0  0  0  0  0  0  0  0  2 V2000
  147.9978  136.7412  160.1300 C   0  0  0  0  0  0  0  0  0  0  0  0
  148.5878  136.1612  158.8562 C   0  0  0  0  0  0  0  0  0  0  0  0
  149.5507  136.7973  158.1525 C   0  0  0  0  0  0  0  0  0  0  0  0
  150.0844  136.2638  156.9914 N   0  0  0  0  0  0  0  0  0  0  0  0
  151.1666  136.9842  156.2083 C   0  0  2  0  0  0  0  0  0  0  0  0
  151.5738  138.1246  156.9104 O   0  0  0  0  0  0  0  0  0  0  0  0
  151.1326  139.2973  156.2356 C   0  0  1  0  0  0  0  0  0  0  0  0
  152.0386  140.4727  156.6223 C   0  0  0  0  0  0  0  0  0  0  0  0
  151.9489  140.7072  158.0180 O   0  0  0  0  0  0  0  0  0  0  0  0
  152.9477  140.3194  158.8335 C   0  0  0  0  0  0  0  0  0  0  0  0
  153.6874  139.3616  158.5985 O   0  0  0  0  0  0  0  0  0  0  0  0
  153.0645  141.1703  160.0528 C   0  0  0  0  0  0  0  0  0  0  0  0
  152.3693  142.4009  160.1085 C   0  0  0  0  0  0  0  0  0  0  0  0
  152.4609  143.2255  161.2466 C   0  0  0  0  0  0  0  0  0  0  0  0
  153.2490  142.8297  162.3430 C   0  0  0  0  0  0  0  0  0  0  0  0
  153.9442  141.6072  162.3004 C   0  0  0  0  0  0  0  0  0  0  0  0
  153.8536  140.7807  161.1634 C   0  0  0  0  0  0  0  0  0  0  0  0
  151.2138  138.8824  154.7673 C   0  0  2  0  0  0  0  0  0  0  0  0
  150.4731  139.7236  153.9019 O   0  0  0  0  0  0  0  0  0  0  0  0
  150.6998  137.4464  154.8057 C   0  0  2  0  0  0  0  0  0  0  0  0
  149.2930  137.3790  154.6228 O   0  0  0  0  0  0  0  0  0  0  0  0
  149.6083  135.0165  156.5100 C   0  0  0  0  0  0  0  0  0  0  0  0
  150.0888  134.5824  155.4627 O   0  0  0  0  0  0  0  0  0  0  0  0
  148.6407  134.3655  157.2153 N   0  5  0  0  0  0  0  0  0  0  0  0
  148.1025  134.8660  158.3644 C   0  0  0  0  0  0  0  0  0  0  0  0
  147.2299  134.2672  158.9922 O   0  0  0  0  0  0  0  0  0  0  0  0
  148.4469  137.7047  160.3728 H   0  0  0  0  0  0  0  0  0  0  0  0
  148.1694  136.0670  160.9698 H   0  0  0  0  0  0  0  0  0  0  0  0
  146.9229  136.8875  160.0194 H   0  0  0  0  0  0  0  0  0  0  0  0
  149.9044  137.7496  158.5159 H   0  0  0  0  0  0  0  0  0  0  0  0
  152.0154  136.2989  156.1790 H   0  0  0  0  0  0  0  0  0  0  0  0
  150.0985  139.4980  156.5211 H   0  0  0  0  0  0  0  0  0  0  0  0
  153.0731  140.2398  156.3672 H   0  0  0  0  0  0  0  0  0  0  0  0
  151.7574  141.3680  156.0657 H   0  0  0  0  0  0  0  0  0  0  0  0
  151.7587  142.7266  159.2787 H   0  0  0  0  0  0  0  0  0  0  0  0
  151.9252  144.1630  161.2778 H   0  0  0  0  0  0  0  0  0  0  0  0
  153.3194  143.4623  163.2155 H   0  0  0  0  0  0  0  0  0  0  0  0
  154.5481  141.3013  163.1420 H   0  0  0  0  0  0  0  0  0  0  0  0
  154.3983  139.8478  161.1644 H   0  0  0  0  0  0  0  0  0  0  0  0
  152.2571  138.8784  154.4480 H   0  0  0  0  0  0  0  0  0  0  0  0
  150.0490  139.1838  153.2528 H   0  0  0  0  0  0  0  0  0  0  0  0
  151.1755  136.8301  154.0421 H   0  0  0  0  0  0  0  0  0  0  0  0
  149.1214  137.2218  153.7063 H   0  0  0  0  0  0  0  0  0  0  0  0
  1  2  1  0  0  0  0
  1 27  1  0  0  0  0
  1 28  1  0  0  0  0
  1 29  1  0  0  0  0
  2 25  1  0  0  0  0
  2  3  2  0  0  0  0
  3  4  1  0  0  0  0
  3 30  1  0  0  0  0
  4  5  1  0  0  0  0
  4 22  1  0  0  0  0
  5 20  1  0  0  0  0
  5  6  1  0  0  0  0
  5 31  1  0  0  0  0
  6  7  1  0  0  0  0
  7  8  1  0  0  0  0
  7 18  1  0  0  0  0
  7 32  1  0  0  0  0
  8  9  1  0  0  0  0
  8 33  1  0  0  0  0
  8 34  1  0  0  0  0
  9 10  1  0  0  0  0
 10 11  2  0  0  0  0
 10 12  1  0  0  0  0
 12 17  1  0  0  0  0
 12 13  2  0  0  0  0
 13 14  1  0  0  0  0
 13 35  1  0  0  0  0
 14 15  2  0  0  0  0
 14 36  1  0  0  0  0
 15 16  1  0  0  0  0
 15 37  1  0  0  0  0
 16 17  2  0  0  0  0
 16 38  1  0  0  0  0
 17 39  1  0  0  0  0
 18 19  1  0  0  0  0
 18 20  1  0  0  0  0
 18 40  1  0  0  0  0
 19 41  1  0  0  0  0
 20 21  1  0  0  0  0
 20 42  1  0  0  0  0
 21 43  1  0  0  0  0
 22 23  2  0  0  0  0
 22 24  1  0  0  0  0
 24 25  1  0  0  0  0
 25 26  2  0  0  0  0
M  CHG  1  24  -1
M  END
> <s_m_source_file>
AV-unprocessed.smi

> <i_m_source_file_index>
101

> <i_lp_mmshare_version>
43012

> <i_f3d_flags>
0

> <s_epik_input>
Tz1jMVtuSF1jKD1PKW4oW2NIXWMxW0NIM10pW0NAQEhdMk9bQ0BIXShbQ0BASF0oW09IXSlbQ0BIXTJbT0hdKVtDSDJdT0MoPU8pYzNbY0hdW2NIXVtjSF1bY0hdW2NIXTM=

> <s_epik_cmdline>
J2VwaWtfcHl0aG9uJywgJy1waCcsICc3LjAnLCAnLXRuJywgJzgnLCAnLW1hJywgJzIwMCcsICctbWV0YWxfYmluZGluZycsICctaW1hZScsICc8aW5maWxlLm1hZT4nLCAnLW9tYWUnLCAnPG91dGZpbGUubWFlPic=

> <r_lp_tautomer_probability>
0.999537

> <r_epik_Ionization_Penalty>
3.21006

> <r_epik_Ionization_Penalty_Charging>
5.75142e-08

> <r_epik_Ionization_Penalty_Neutral>
3.21006

> <r_epik_State_Penalty>
3.20925

> <r_epik_Charging_Adjusted_Penalty>
3.20925

> <i_epik_Tot_Q>
-1

> <i_epik_Tot_abs_Q>
1

> <r_epik_Metal_State_Penalty>
0.119957

> <b_epik_Metal_Only>
1

> <s_epik_Chemistry_Notes>
This compound has an ester and may undergo hydrolysis at high or low pH. This compound contains an acetal/aminal-like group ( X-CH(R)-Y where X, Y are N, S, or O) that may be acid/base labile, releasing an aldehyde.

> <s_lp_Force_Field>
OPLS_2005

> <r_lp_Energy>
50.083

> <b_lp_Chiralities_Consistent>
1

> <s_lp_Variant>
AV-unprocessed.smi:101-29

> <Gold.Version>
5.8.1

> <Gold.Id.Protein>
6NUR|6NUR_protein|mol2

> <Gold.PLP.Fitness>
51.1050

> <Gold.PLP.PLP>
-43.6796

> <Gold.PLP.part.hbond>
-4.0000

> <Gold.PLP.part.metal>
0.0000

> <Gold.PLP.part.buried>
-5.4634

> <Gold.PLP.part.nonpolar>
-33.8616

> <Gold.PLP.part.repulsive>
0.0908

> <Gold.PLP.ligand.clash>
0.0000

> <Gold.PLP.ligand.torsion>
0.8322

> <Gold.PLP.Chemscore.Hbond>
2.9174

> <Gold.PLP.Chemscore.CHOScore>
0.0000

> <Gold.PLP.Chemscore.Metal>
0.0000

> <Gold.Chemscore.Hbonds>
donor molecule, donor type, donor heavy atom, donor atom, acceptor molecule, acceptor atom, score
      L1  H    19    41       P1  7957  0.14
      L1  H    21    43       P1  7948  0.88
      P1  H  7989  7998       L1    19  1.00
      P1  H  7997  8009       L1    11  0.95

> <Gold.PLP.Chemscore.Internal.Correction>
0.3376

> <Gold.Rescore>
     Score         DG    S(hbond)    S(metal)    S(lipo)     H(rot)  DE(clash)    DE(int)     intcor
     14.58     -15.83       2.11        0.00      99.63       3.27       0.15       1.10       ----

> <Gold.Chemscore.Fitness>
14.5835

> <Gold.Chemscore.DG>
-15.8279

> <Gold.Chemscore.ZeroCoef>
-5.4800

> <Gold.Chemscore.Hbond>
2.1111

> <Gold.Chemscore.Metal>
0.0000

> <Gold.Chemscore.Lipo>
99.6298

> <Gold.Chemscore.Internal_Hbond>
0.0000

> <Gold.Chemscore.DEClash>
0.1469

> <Gold.Chemscore.DEInternal>
1.0975

> <Gold.Chemscore.Rot>
3.2656

> <Gold.Chemscore.Internal.Correction>
   9.000000E+99

> <Gold.Chemscore.Hbonds>
donor molecule, donor type, donor heavy atom, donor atom, acceptor molecule, acceptor atom, score
      L1  H    19    41       P1  7957  0.13
      L1  H    21    43       P1  7948  0.85
      P1  H  7989  7998       L1    19  0.33
      P1  H  7997  8009       L1    11  0.21

> <Gold.Chemscore.Hbond.Weighted>
-7.0510

> <Gold.Chemscore.Metal.Weighted>
-0.0000

> <Gold.Chemscore.Lipo.Weighted>
-11.6567

> <Gold.Chemscore.Internal_Hbond.Weighted>
0.0000

> <Gold.Chemscore.DEClash.Weighted>
0.1469

> <Gold.Chemscore.DEInternal.Weighted>
1.0975

> <Gold.Chemscore.Rot.Weighted>
8.3598

> <Gold.Chemscore.Internal.Correction.Weighted>
   9.000000E+99

> <Gold.Protein.RotatedTorsions>
[ 6907 6896 6895 6894 ] final   34.38 input  -60.11 | X-H torsion
[ 7974 7965 7964 7962 ] final  -82.96 input  175.53 | X-H torsion
[ 8008 7997 7996 7995 ] final  157.87 input   59.86 | X-H torsion
[ 10167 10162 10161 10158 ] final   78.18 input  -65.29 | X-H torsion
[ 10718 10713 10712 10709 ] final  106.88 input   66.30 | X-H torsion
[ 10763 10752 10751 10750 ] final  174.49 input  -60.55 | X-H torsion
[ 11005 11000 10999 10996 ] final    6.66 input  -57.11 | X-H torsion

> <Gold.Protein.ActiveResidues>
 VAL166  LYS551  ARG553  GLY616  TRP617  ASP618  TYR619  PRO620  LYS621  CYS622 
 ASP623  PHE694  ASN695  SER759  ASP760  ASP761  ALA762  ILE779  LEU786  VAL792 
 PHE793  MET794  SER795  GLU796  ALA797  LYS798  CYS799  TRP800  GLU811  SER814 

> <Gold.Protein.RotatedAtoms>
  152.1016  134.9337  160.0569 H   0  0  0  0  0  0  0  0  0  0  0  0  # atno 6907 bound_to 6896
  152.0549  133.4031  159.4401 H   0  0  0  0  0  0  0  0  0  0  0  0  # atno 6908 bound_to 6896
  150.6839  134.3186  159.4820 H   0  0  0  0  0  0  0  0  0  0  0  0  # atno 6909 bound_to 6896
  145.5264  140.9526  143.1627 H   0  0  0  0  0  0  0  0  0  0  0  0  # atno 7974 bound_to 7965
  156.2338  140.1873  156.7174 H   0  0  0  0  0  0  0  0  0  0  0  0  # atno 8008 bound_to 7997
  154.6069  140.0627  156.9470 H   0  0  0  0  0  0  0  0  0  0  0  0  # atno 8009 bound_to 7997
  155.2081  140.3297  155.4335 H   0  0  0  0  0  0  0  0  0  0  0  0  # atno 8010 bound_to 7997
  139.9737  144.5876  150.7962 H   0  0  0  0  0  0  0  0  0  0  0  0  # atno 10167 bound_to 10162
  157.6651  131.0860  150.6073 H   0  0  0  0  0  0  0  0  0  0  0  0  # atno 10718 bound_to 10713
  154.4547  135.2766  155.1756 H   0  0  0  0  0  0  0  0  0  0  0  0  # atno 10763 bound_to 10752
  154.3569  135.6138  153.5674 H   0  0  0  0  0  0  0  0  0  0  0  0  # atno 10764 bound_to 10752
  152.9850  135.5825  154.4898 H   0  0  0  0  0  0  0  0  0  0  0  0  # atno 10765 bound_to 10752
  140.5569  134.0229  155.7957 H   0  0  0  0  0  0  0  0  0  0  0  0  # atno 11005 bound_to 11000
  144.7649  139.6869  143.7219 LP  0  0  0  0  0  0  0  0  0  0  0  0  # atno 17320 bound_to 7965
  146.2073  139.5405  142.9704 LP  0  0  0  0  0  0  0  0  0  0  0  0  # atno 17321 bound_to 7965
  140.7513  143.2970  151.3178 LP  0  0  0  0  0  0  0  0  0  0  0  0  # atno 17342 bound_to 10162
  139.6462  144.0447  152.2592 LP  0  0  0  0  0  0  0  0  0  0  0  0  # atno 17343 bound_to 10162
  156.6374  130.4449  149.5765 LP  0  0  0  0  0  0  0  0  0  0  0  0  # atno 17370 bound_to 10713
  156.2235  130.6752  151.1392 LP  0  0  0  0  0  0  0  0  0  0  0  0  # atno 17371 bound_to 10713
  141.1138  133.9574  157.2861 LP  0  0  0  0  0  0  0  0  0  0  0  0  # atno 17394 bound_to 11000
  139.9427  135.0189  156.8757 LP  0  0  0  0  0  0  0  0  0  0  0  0  # atno 17395 bound_to 11000

$$$$
