#       Name:                AV-unprocessed.smi:2059
#       Creating user name   scv26
#       Creation time:       Fri Mar 27 11:01:51 2020


#       File generated by GOLD software.
#

@<TRIPOS>MOLECULE
AV-unprocessed.smi:2059
    35    36     1
SMALL
NO_CHARGES


@<TRIPOS>ATOM
      1 ****        -0.3230  -6.0706   3.5926 C.3            1 S1                 0.0000
      2 ****         0.2051  -4.8327   2.9526 C.2            1 S1                 0.0000
      3 ****        -0.3600  -3.8939   2.1362 C.2            1 S1                 0.0000
      4 ****         0.7062  -2.9855   1.8995 C.2            1 S1                 0.0000
      5 ****         0.5070  -1.8444   1.0711 N.am           1 S1                 0.0000
      6 ****         1.3451  -0.8448   0.7247 C.2            1 S1                 0.0000
      7 ****         2.5033  -0.8155   1.1375 O.2            1 S1                 0.0000
      8 ****         0.8406   0.0986  -0.0875 N.am           1 S1                 0.0000
      9 ****         1.5681   1.2610  -0.5849 C.3            1 S1                 0.0000
     10 ****         1.6811   2.3737   0.4772 C.3            1 S1                 0.0000
     11 ****         2.1047   3.6753  -0.2148 C.3            1 S1                 0.0000
     12 ****         1.4295   3.5930  -1.9171 S.o2           1 S1                 0.0000
     13 ****         0.2568   4.4737  -2.0274 O.2            1 S1                 0.0000
     14 ****         2.5419   3.6903  -2.8744 O.2            1 S1                 0.0000
     15 ****         0.8657   1.8530  -1.8139 C.3            1 S1                 0.0000
     16 ****         1.8235  -3.3435   2.5163 N.2            1 S1                 0.0000
     17 ****         1.5085  -4.5272   3.1935 O.3            1 S1                 0.0000
     18 ****        -1.4126  -6.0596   3.6205 H              1 S1                 0.0000
     19 ****         0.0388  -6.1634   4.6167 H              1 S1                 0.0000
     20 ****        -0.0071  -6.9553   3.0399 H              1 S1                 0.0000
     21 ****        -1.3756  -3.8645   1.7695 H              1 S1                 0.0000
     22 ****        -0.4161  -1.7768   0.6677 H              1 S1                 0.0000
     23 ****        -0.1210   0.0004  -0.3818 H              1 S1                 0.0000
     24 ****         2.5747   0.9624  -0.8839 H              1 S1                 0.0000
     25 ****         0.7050   2.5274   0.9395 H              1 S1                 0.0000
     26 ****         2.3720   2.1058   1.2770 H              1 S1                 0.0000
     27 ****         1.7371   4.5661   0.2946 H              1 S1                 0.0000
     28 ****         3.1906   3.7381  -0.2871 H              1 S1                 0.0000
     29 ****         1.1010   1.3250  -2.7383 H              1 S1                 0.0000
     30 ****        -0.2174   1.8635  -1.6842 H              1 S1                 0.0000
     31 ****         2.8378  -1.5401   1.7401 LP             1 S1                 0.0000
     32 ****         3.1105  -0.0671   0.8706 LP             1 S1                 0.0000
     33 ****         2.7036  -2.8691   2.5010 LP             1 S1                 0.0000
     34 ****         2.0941  -5.2686   2.8658 LP             1 S1                 0.0000
     35 ****         1.6488  -4.4008   4.1755 LP             1 S1                 0.0000
@<TRIPOS>BOND
    1    1    2 1     
    2    1   18 1     
    3    1   19 1     
    4    1   20 1     
    5    2   17 1     
    6    2    3 2     
    7    3    4 1     
    8    3   21 1     
    9    4    5 1     
   10    4   16 2     
   11    5    6 am    
   12    5   22 1     
   13    6    7 2     
   14    6    8 am    
   15    8    9 1     
   16    8   23 1     
   17    9   15 1     
   18    9   10 1     
   19    9   24 1     
   20   10   11 1     
   21   10   25 1     
   22   10   26 1     
   23   11   12 1     
   24   11   27 1     
   25   11   28 1     
   26   12   13 2     
   27   12   14 2     
   28   12   15 1     
   29   15   29 1     
   30   15   30 1     
   31   16   17 1     
   32    7   31 1     
   33    7   32 1     
   34   16   33 1     
   35   17   34 1     
   36   17   35 1     
@<TRIPOS>SUBSTRUCTURE
      1 S1             1
@<TRIPOS>SET
LONE_PAIRS      STATIC     ATOMS    <user>   **** ""
7 31 32 13 14 33 34 35
DONOR_HYDROGENS      STATIC     ATOMS    <user>   **** ""
2 22 23
ATOM$BLUE        STATIC     ATOMS    COLORGROUP SYSTEM
7 31 32 13 14 33 34 35
ATOM$RED        STATIC     ATOMS    COLORGROUP SYSTEM
2 22 23
