AV-unprocessed.smi:2781|AV-procd|sdf|10720|dock4
  -GOLD-   2272015153D 1   1.00000     0.00000
 Structure written by MMmdl.
 35 38  0  0  0  0  0  0  0  0  1 V2000
  151.6751  141.7465  157.3351 O   0  0  0  0  0  0  0  0  0  0  0  0
  151.0119  142.6406  156.8087 C   0  0  0  0  0  0  0  0  0  0  0  0
  149.9240  142.4517  156.0406 N   0  0  0  0  0  0  0  0  0  0  0  0
  149.3091  141.2248  155.6744 C   0  0  0  0  0  0  0  0  0  0  0  0
  148.6495  141.2364  154.4241 C   0  0  0  0  0  0  0  0  0  0  0  0
  148.0073  140.0687  153.9681 C   0  0  0  0  0  0  0  0  0  0  0  0
  148.0424  138.9188  154.7764 C   0  0  0  0  0  0  0  0  0  0  0  0
  147.4403  137.7728  154.3797 F   0  0  0  0  0  0  0  0  0  0  0  0
  148.7200  138.9899  156.0076 C   0  0  0  0  0  0  0  0  0  0  0  0
  149.3356  140.1087  156.4459 N   0  0  0  0  0  0  0  0  0  0  0  0
  151.2923  143.9451  156.9339 N   0  0  0  0  0  0  0  0  0  0  0  0
  152.3792  144.4971  157.6777 C   0  0  2  0  0  0  0  0  0  0  0  0
  152.9407  143.7699  158.8943 C   0  0  2  0  0  0  0  0  0  0  0  0
  152.2400  142.7807  159.8287 C   0  0  1  0  0  0  0  0  0  0  0  0
  152.6079  143.1786  161.2745 C   0  0  0  0  0  0  0  0  0  0  0  0
  151.8058  144.4909  161.4724 C   0  0  0  0  0  0  0  0  0  0  0  0
  151.0956  144.6532  160.1110 C   0  0  2  0  0  0  0  0  0  0  0  0
  150.7663  143.1872  159.8295 C   0  0  0  0  0  0  0  0  0  0  0  0
  152.1642  145.0405  159.0856 C   0  0  2  0  0  0  0  0  0  0  0  0
  149.4844  143.2835  155.6754 H   0  0  0  0  0  0  0  0  0  0  0  0
  148.6333  142.1294  153.8163 H   0  0  0  0  0  0  0  0  0  0  0  0
  147.4982  140.0570  153.0158 H   0  0  0  0  0  0  0  0  0  0  0  0
  148.7706  138.1283  156.6570 H   0  0  0  0  0  0  0  0  0  0  0  0
  150.6903  144.6051  156.4640 H   0  0  0  0  0  0  0  0  0  0  0  0
  153.1209  145.0387  157.0923 H   0  0  0  0  0  0  0  0  0  0  0  0
  154.0222  143.8151  159.0099 H   0  0  0  0  0  0  0  0  0  0  0  0
  152.4421  141.7400  159.5747 H   0  0  0  0  0  0  0  0  0  0  0  0
  152.2848  142.4169  161.9854 H   0  0  0  0  0  0  0  0  0  0  0  0
  153.6811  143.3235  161.4048 H   0  0  0  0  0  0  0  0  0  0  0  0
  151.0829  144.3839  162.2823 H   0  0  0  0  0  0  0  0  0  0  0  0
  152.4487  145.3398  161.7090 H   0  0  0  0  0  0  0  0  0  0  0  0
  150.2450  145.3350  160.1167 H   0  0  0  0  0  0  0  0  0  0  0  0
  150.2318  142.9999  158.9030 H   0  0  0  0  0  0  0  0  0  0  0  0
  150.1894  142.7145  160.6274 H   0  0  0  0  0  0  0  0  0  0  0  0
  152.7217  145.9431  159.3302 H   0  0  0  0  0  0  0  0  0  0  0  0
  1  2  2  0  0  0  0
  2  3  1  0  0  0  0
  2 11  1  0  0  0  0
  3  4  1  0  0  0  0
  3 20  1  0  0  0  0
  4 10  1  0  0  0  0
  4  5  2  0  0  0  0
  5  6  1  0  0  0  0
  5 21  1  0  0  0  0
  6  7  2  0  0  0  0
  6 22  1  0  0  0  0
  7  8  1  0  0  0  0
  7  9  1  0  0  0  0
  9 10  2  0  0  0  0
  9 23  1  0  0  0  0
 11 12  1  0  0  0  0
 11 24  1  0  0  0  0
 12 19  1  0  0  0  0
 12 13  1  0  0  0  0
 12 25  1  0  0  0  0
 13 19  1  0  0  0  0
 13 14  1  0  0  0  0
 13 26  1  0  0  0  0
 14 18  1  0  0  0  0
 14 15  1  0  0  0  0
 14 27  1  0  0  0  0
 15 16  1  0  0  0  0
 15 28  1  0  0  0  0
 15 29  1  0  0  0  0
 16 17  1  0  0  0  0
 16 30  1  0  0  0  0
 16 31  1  0  0  0  0
 17 18  1  0  0  0  0
 17 19  1  0  0  0  0
 17 32  1  0  0  0  0
 18 33  1  0  0  0  0
 18 34  1  0  0  0  0
 19 35  1  0  0  0  0
M  END
> <s_m_source_file>
AV-unprocessed.smi

> <i_m_source_file_index>
2781

> <i_lp_mmshare_version>
43012

> <i_f3d_flags>
0

> <s_epik_input>
bjFbY0hdYyhGKVtjSF1bY0hdYzFbTkhdQyg9TylbTkhdW0NASF0yW0NAQEhdM1tDQEhdKFtDSDJdNClbQ0gyXVtDSDJdW0NASF00W0NASF0yMw==

> <s_epik_cmdline>
J2VwaWtfcHl0aG9uJywgJy1waCcsICc3LjAnLCAnLXRuJywgJzgnLCAnLW1hJywgJzIwMCcsICctbWV0YWxfYmluZGluZycsICctaW1hZScsICc8aW5maWxlLm1hZT4nLCAnLW9tYWUnLCAnPG91dGZpbGUubWFlPic=

> <r_lp_tautomer_probability>
1

> <r_epik_Ionization_Penalty>
4.05776e-05

> <r_epik_Ionization_Penalty_Charging>
0

> <r_epik_Ionization_Penalty_Neutral>
4.05776e-05

> <r_epik_State_Penalty>
-0

> <r_epik_Charging_Adjusted_Penalty>
0

> <i_epik_Tot_Q>
0

> <i_epik_Tot_abs_Q>
0

> <r_epik_Metal_State_Penalty>
-0

> <b_epik_Metal_Only>
0

> <s_lp_Force_Field>
OPLS_2005

> <r_lp_Energy>
83.3371

> <b_lp_Chiralities_Consistent>
1

> <s_lp_Variant>
AV-unprocessed.smi:2781-4

> <Gold.Version>
5.8.1

> <Gold.Id.Protein>
6NUR|6NUR_protein|mol2

> <Gold.PLP.Fitness>
41.8607

> <Gold.PLP.PLP>
-37.3053

> <Gold.PLP.part.hbond>
-1.9777

> <Gold.PLP.part.metal>
0.0000

> <Gold.PLP.part.buried>
-1.1565

> <Gold.PLP.part.nonpolar>
-35.4694

> <Gold.PLP.part.repulsive>
0.1842

> <Gold.PLP.ligand.clash>
0.0000

> <Gold.PLP.ligand.torsion>
0.5192

> <Gold.PLP.Chemscore.Hbond>
1.8480

> <Gold.PLP.Chemscore.CHOScore>
0.0000

> <Gold.PLP.Chemscore.Metal>
0.0000

> <Gold.Chemscore.Hbonds>
donor molecule, donor type, donor heavy atom, donor atom, acceptor molecule, acceptor atom, score
      L1  H     3    20       P1  8028  1.00
      L1  H    11    24       P1  8028  0.85

> <Gold.PLP.Chemscore.Internal.Correction>
0.0498

> <Gold.Rescore>
     Score         DG    S(hbond)    S(metal)    S(lipo)     H(rot)  DE(clash)    DE(int)     intcor
     18.60     -22.45       1.85        0.00     114.06       1.00       1.85       1.99       ----

> <Gold.Chemscore.Fitness>
18.6017

> <Gold.Chemscore.DG>
-22.4452

> <Gold.Chemscore.ZeroCoef>
-5.4800

> <Gold.Chemscore.Hbond>
1.8505

> <Gold.Chemscore.Metal>
0.0000

> <Gold.Chemscore.Lipo>
114.0562

> <Gold.Chemscore.Internal_Hbond>
0.0000

> <Gold.Chemscore.DEClash>
1.8534

> <Gold.Chemscore.DEInternal>
1.9901

> <Gold.Chemscore.Rot>
1.0000

> <Gold.Chemscore.Internal.Correction>
   9.000000E+99

> <Gold.Chemscore.Hbonds>
donor molecule, donor type, donor heavy atom, donor atom, acceptor molecule, acceptor atom, score
      L1  H     3    20       P1  8028  0.95
      L1  H    11    24       P1  8028  0.81

> <Gold.Chemscore.Hbond.Weighted>
-6.1806

> <Gold.Chemscore.Metal.Weighted>
-0.0000

> <Gold.Chemscore.Lipo.Weighted>
-13.3446

> <Gold.Chemscore.Internal_Hbond.Weighted>
0.0000

> <Gold.Chemscore.DEClash.Weighted>
1.8534

> <Gold.Chemscore.DEInternal.Weighted>
1.9901

> <Gold.Chemscore.Rot.Weighted>
2.5600

> <Gold.Chemscore.Internal.Correction.Weighted>
   9.000000E+99

> <Gold.Protein.RotatedTorsions>
[ 6907 6896 6895 6894 ] final  -89.02 input  -60.11 | X-H torsion
[ 7974 7965 7964 7962 ] final  166.48 input  175.53 | X-H torsion
[ 8008 7997 7996 7995 ] final  106.43 input   59.86 | X-H torsion
[ 10167 10162 10161 10158 ] final   39.74 input  -65.29 | X-H torsion
[ 10718 10713 10712 10709 ] final  -72.61 input   66.30 | X-H torsion
[ 10763 10752 10751 10750 ] final -179.53 input  -60.55 | X-H torsion
[ 11005 11000 10999 10996 ] final   62.43 input  -57.11 | X-H torsion

> <Gold.Protein.ActiveResidues>
 VAL166  LYS551  ARG553  GLY616  TRP617  ASP618  TYR619  PRO620  LYS621  CYS622 
 ASP623  PHE694  ASN695  SER759  ASP760  ASP761  ALA762  ILE779  LEU786  VAL792 
 PHE793  MET794  SER795  GLU796  ALA797  LYS798  CYS799  TRP800  GLU811  SER814 

> <Gold.Protein.RotatedAtoms>
  150.6871  134.2651  159.4565 H   0  0  0  0  0  0  0  0  0  0  0  0  # atno 6907 bound_to 6896
  152.0578  134.9611  160.0584 H   0  0  0  0  0  0  0  0  0  0  0  0  # atno 6908 bound_to 6896
  152.1049  133.4235  159.4641 H   0  0  0  0  0  0  0  0  0  0  0  0  # atno 6909 bound_to 6896
  144.7461  139.8622  143.6382 H   0  0  0  0  0  0  0  0  0  0  0  0  # atno 7974 bound_to 7965
  156.1742  140.3113  155.9029 H   0  0  0  0  0  0  0  0  0  0  0  0  # atno 8008 bound_to 7997
  155.3523  140.0471  157.3063 H   0  0  0  0  0  0  0  0  0  0  0  0  # atno 8009 bound_to 7997
  154.5273  140.2218  155.8878 H   0  0  0  0  0  0  0  0  0  0  0  0  # atno 8010 bound_to 7997
  140.3810  144.1979  150.6131 H   0  0  0  0  0  0  0  0  0  0  0  0  # atno 10167 bound_to 10162
  156.0313  130.4376  150.2618 H   0  0  0  0  0  0  0  0  0  0  0  0  # atno 10718 bound_to 10713
  154.5339  135.2801  155.1156 H   0  0  0  0  0  0  0  0  0  0  0  0  # atno 10763 bound_to 10752
  154.2665  135.6311  153.5298 H   0  0  0  0  0  0  0  0  0  0  0  0  # atno 10764 bound_to 10752
  152.9963  135.5618  154.5859 H   0  0  0  0  0  0  0  0  0  0  0  0  # atno 10765 bound_to 10752
  140.0092  134.6322  155.9806 H   0  0  0  0  0  0  0  0  0  0  0  0  # atno 11005 bound_to 11000
  146.1340  139.4382  143.0150 LP  0  0  0  0  0  0  0  0  0  0  0  0  # atno 17320 bound_to 7965
  145.7119  141.0103  143.1448 LP  0  0  0  0  0  0  0  0  0  0  0  0  # atno 17321 bound_to 7965
  140.4937  143.2339  151.8780 LP  0  0  0  0  0  0  0  0  0  0  0  0  # atno 17342 bound_to 10162
  139.4795  144.5137  151.8897 LP  0  0  0  0  0  0  0  0  0  0  0  0  # atno 17343 bound_to 10162
  157.0720  131.0119  151.3187 LP  0  0  0  0  0  0  0  0  0  0  0  0  # atno 17370 bound_to 10713
  157.4992  130.7869  149.7587 LP  0  0  0  0  0  0  0  0  0  0  0  0  # atno 17371 bound_to 10713
  141.1699  133.6537  156.4614 LP  0  0  0  0  0  0  0  0  0  0  0  0  # atno 17394 bound_to 11000
  140.4585  134.6863  157.5074 LP  0  0  0  0  0  0  0  0  0  0  0  0  # atno 17395 bound_to 11000

$$$$
