#       Name:                AV-unprocessed.smi:1417
#       Creating user name   scv26
#       Creation time:       Fri Mar 27 05:40:47 2020


#       File generated by GOLD software.
#

@<TRIPOS>MOLECULE
AV-unprocessed.smi:1417
    47    48     1
SMALL
NO_CHARGES


@<TRIPOS>ATOM
      1 ****        -6.4517   4.1024   0.5016 C.3            1 S1                 0.0000
      2 ****        -5.7038   2.8137   0.4749 C.2            1 S1                 0.0000
      3 ****        -4.3728   2.5104   0.5317 C.2            1 S1                 0.0000
      4 ****        -4.3664   1.0867   0.4599 C.2            1 S1                 0.0000
      5 ****        -3.2216   0.2488   0.4774 N.am           1 S1                 0.0000
      6 ****        -1.9291   0.6036   0.5703 C.2            1 S1                 0.0000
      7 ****        -1.5106   1.7567   0.6724 O.2            1 S1                 0.0000
      8 ****        -1.1270  -0.4706   0.5361 N.am           1 S1                 0.0000
      9 ****         0.3305  -0.4321   0.6105 C.3            1 S1                 0.0000
     10 ****         0.9405  -0.0841  -0.7602 C.3            1 S1                 0.0000
     11 ****         2.4752  -0.1493  -0.7172 C.3            1 S1                 0.0000
     12 ****         2.9387  -1.4882  -0.2660 N.4            1 S1                 1.0000
     13 ****         4.4121  -1.6552  -0.3525 C.3            1 S1                 0.0000
     14 ****         4.8974  -1.9121  -1.7831 C.2            1 S1                 0.0000
     15 ****         6.1799  -1.6484  -2.0420 N.am           1 S1                 0.0000
     16 ****         4.1338  -2.3555  -2.6390 O.2            1 S1                 0.0000
     17 ****         2.4031  -1.8244   1.0775 C.3            1 S1                 0.0000
     18 ****         0.8651  -1.7940   1.0831 C.3            1 S1                 0.0000
     19 ****        -5.5806   0.5766   0.3672 N.2            1 S1                 0.0000
     20 ****        -6.4451   1.6775   0.3767 O.3            1 S1                 0.0000
     21 ****        -5.7795   4.9460   0.3432 H              1 S1                 0.0000
     22 ****        -6.9470   4.2408   1.4627 H              1 S1                 0.0000
     23 ****        -7.2127   4.1259  -0.2786 H              1 S1                 0.0000
     24 ****        -3.5525   3.2074   0.6116 H              1 S1                 0.0000
     25 ****        -3.4125  -0.7398   0.4055 H              1 S1                 0.0000
     26 ****        -1.5563  -1.3808   0.4524 H              1 S1                 0.0000
     27 ****         0.6311   0.3250   1.3378 H              1 S1                 0.0000
     28 ****         0.5704  -0.7756  -1.5190 H              1 S1                 0.0000
     29 ****         0.6268   0.9127  -1.0725 H              1 S1                 0.0000
     30 ****         2.8695   0.0718  -1.7095 H              1 S1                 0.0000
     31 ****         2.8640   0.6181  -0.0458 H              1 S1                 0.0000
     32 ****         4.9141  -0.7855   0.0751 H              1 S1                 0.0000
     33 ****         4.7200  -2.5179   0.2398 H              1 S1                 0.0000
     34 ****         6.5539  -1.7964  -2.9684 H              1 S1                 0.0000
     35 ****         6.7757  -1.2967  -1.3058 H              1 S1                 0.0000
     36 ****         2.7404  -2.8192   1.3709 H              1 S1                 0.0000
     37 ****         2.7983  -1.1242   1.8152 H              1 S1                 0.0000
     38 ****         0.4969  -2.0129   2.0862 H              1 S1                 0.0000
     39 ****         0.4870  -2.5867   0.4353 H              1 S1                 0.0000
     40 ****         2.5461  -2.1651  -0.9051 H              1 S1                 0.0000
     41 ****        -2.1538   2.5222   0.6915 LP             1 S1                 0.0000
     42 ****        -0.5275   1.9280   0.7362 LP             1 S1                 0.0000
     43 ****         3.1818  -2.5535  -2.4055 LP             1 S1                 0.0000
     44 ****         4.4648  -2.5181  -3.5685 LP             1 S1                 0.0000
     45 ****        -5.8295  -0.3899   0.3038 LP             1 S1                 0.0000
     46 ****        -6.9770   1.6949  -0.4699 LP             1 S1                 0.0000
     47 ****        -7.0651   1.6117   1.1586 LP             1 S1                 0.0000
@<TRIPOS>BOND
    1    1    2 1     
    2    1   21 1     
    3    1   22 1     
    4    1   23 1     
    5    2   20 1     
    6    2    3 2     
    7    3    4 1     
    8    3   24 1     
    9    4    5 1     
   10    4   19 2     
   11    5    6 am    
   12    5   25 1     
   13    6    7 2     
   14    6    8 am    
   15    8    9 1     
   16    8   26 1     
   17    9   18 1     
   18    9   10 1     
   19    9   27 1     
   20   10   11 1     
   21   10   28 1     
   22   10   29 1     
   23   11   12 1     
   24   11   30 1     
   25   11   31 1     
   26   12   13 1     
   27   12   17 1     
   28   12   40 1     
   29   13   14 1     
   30   13   32 1     
   31   13   33 1     
   32   14   15 am    
   33   14   16 2     
   34   15   34 1     
   35   15   35 1     
   36   17   18 1     
   37   17   36 1     
   38   17   37 1     
   39   18   38 1     
   40   18   39 1     
   41   19   20 1     
   42    7   41 1     
   43    7   42 1     
   44   16   43 1     
   45   16   44 1     
   46   19   45 1     
   47   20   46 1     
   48   20   47 1     
@<TRIPOS>SUBSTRUCTURE
      1 S1             1
@<TRIPOS>SET
LONE_PAIRS      STATIC     ATOMS    <user>   **** ""
7 41 42 43 44 45 46 47
DONOR_HYDROGENS      STATIC     ATOMS    <user>   **** ""
5 25 26 40 34 35
ATOM$BLUE        STATIC     ATOMS    COLORGROUP SYSTEM
7 41 42 43 44 45 46 47
ATOM$RED        STATIC     ATOMS    COLORGROUP SYSTEM
5 25 26 40 34 35
