AV-unprocessed.smi:3353|AV-procd|sdf|12953|dock2
  -GOLD-   2272019393D 1   1.00000     0.00000
 Structure written by MMmdl.
 43 44  0  0  0  0  0  0  0  0  2 V2000
  151.3492  141.6239  157.8861 C   0  0  0  0  0  0  0  0  0  0  0  0
  150.9619  142.0035  156.4521 C   0  0  0  0  0  0  0  0  0  0  0  0
  150.6590  140.8326  155.6529 N   0  0  0  0  0  0  0  0  0  0  0  0
  149.4669  140.5048  155.0380 C   0  0  0  0  0  0  0  0  0  0  0  0
  149.6875  139.3061  154.4205 C   0  0  0  0  0  0  0  0  0  0  0  0
  148.7995  138.5146  153.6489 N   0  0  0  0  0  0  0  0  0  0  0  0
  147.4570  138.5497  153.6614 C   0  0  0  0  0  0  0  0  0  0  0  0
  146.7729  139.3029  154.3548 O   0  0  0  0  0  0  0  0  0  0  0  0
  146.9357  137.6487  152.8166 N   0  0  0  0  0  0  0  0  0  0  0  0
  145.5070  137.4405  152.6006 C   0  0  0  0  0  0  0  0  0  0  0  0
  145.2051  136.2644  151.6352 C   0  0  2  0  0  0  0  0  0  0  0  0
  143.7716  135.7302  151.8537 C   0  0  0  0  0  0  0  0  0  0  0  0
  146.2199  135.1828  151.7928 N   0  3  0  0  0  0  0  0  0  0  0  0
  146.3075  134.5718  153.1372 C   0  0  0  0  0  0  0  0  0  0  0  0
  146.9996  133.2318  152.9182 C   0  0  0  0  0  0  0  0  0  0  0  0
  146.4309  132.7673  151.5828 C   0  0  0  0  0  0  0  0  0  0  0  0
  146.1002  134.0611  150.8259 C   0  0  0  0  0  0  0  0  0  0  0  0
  151.0365  138.9675  154.7032 C   0  0  0  0  0  0  0  0  0  0  0  0
  151.6170  139.8946  155.4497 N   0  0  0  0  0  0  0  0  0  0  0  0
  151.5650  142.5136  158.4777 H   0  0  0  0  0  0  0  0  0  0  0  0
  152.2369  140.9908  157.9012 H   0  0  0  0  0  0  0  0  0  0  0  0
  150.5424  141.0822  158.3808 H   0  0  0  0  0  0  0  0  0  0  0  0
  150.0884  142.6565  156.4577 H   0  0  0  0  0  0  0  0  0  0  0  0
  151.7701  142.5588  155.9740 H   0  0  0  0  0  0  0  0  0  0  0  0
  148.5964  141.1406  155.1005 H   0  0  0  0  0  0  0  0  0  0  0  0
  149.2337  137.8488  153.0265 H   0  0  0  0  0  0  0  0  0  0  0  0
  147.5693  137.0711  152.2830 H   0  0  0  0  0  0  0  0  0  0  0  0
  145.0340  137.2932  153.5721 H   0  0  0  0  0  0  0  0  0  0  0  0
  145.0908  138.3651  152.1991 H   0  0  0  0  0  0  0  0  0  0  0  0
  145.2717  136.6251  150.6074 H   0  0  0  0  0  0  0  0  0  0  0  0
  143.0275  136.5195  151.7472 H   0  0  0  0  0  0  0  0  0  0  0  0
  143.6567  135.3012  152.8495 H   0  0  0  0  0  0  0  0  0  0  0  0
  143.5047  134.9641  151.1259 H   0  0  0  0  0  0  0  0  0  0  0  0
  146.8545  135.2027  153.8387 H   0  0  0  0  0  0  0  0  0  0  0  0
  145.3043  134.4065  153.5345 H   0  0  0  0  0  0  0  0  0  0  0  0
  148.0771  133.3801  152.8320 H   0  0  0  0  0  0  0  0  0  0  0  0
  146.8193  132.5229  153.7271 H   0  0  0  0  0  0  0  0  0  0  0  0
  147.1233  132.1258  151.0363 H   0  0  0  0  0  0  0  0  0  0  0  0
  145.5160  132.1976  151.7517 H   0  0  0  0  0  0  0  0  0  0  0  0
  145.0943  133.9934  150.4080 H   0  0  0  0  0  0  0  0  0  0  0  0
  146.7926  134.2249  149.9994 H   0  0  0  0  0  0  0  0  0  0  0  0
  151.6020  138.0985  154.4004 H   0  0  0  0  0  0  0  0  0  0  0  0
  147.1249  135.5989  151.6245 H   0  0  0  0  0  0  0  0  0  0  0  0
  1  2  1  0  0  0  0
  1 20  1  0  0  0  0
  1 21  1  0  0  0  0
  1 22  1  0  0  0  0
  2  3  1  0  0  0  0
  2 23  1  0  0  0  0
  2 24  1  0  0  0  0
  3 19  1  0  0  0  0
  3  4  1  0  0  0  0
  4  5  2  0  0  0  0
  4 25  1  0  0  0  0
  5  6  1  0  0  0  0
  5 18  1  0  0  0  0
  6  7  1  0  0  0  0
  6 26  1  0  0  0  0
  7  8  2  0  0  0  0
  7  9  1  0  0  0  0
  9 10  1  0  0  0  0
  9 27  1  0  0  0  0
 10 11  1  0  0  0  0
 10 28  1  0  0  0  0
 10 29  1  0  0  0  0
 11 12  1  0  0  0  0
 11 13  1  0  0  0  0
 11 30  1  0  0  0  0
 12 31  1  0  0  0  0
 12 32  1  0  0  0  0
 12 33  1  0  0  0  0
 13 17  1  0  0  0  0
 13 14  1  0  0  0  0
 13 43  1  0  0  0  0
 14 15  1  0  0  0  0
 14 34  1  0  0  0  0
 14 35  1  0  0  0  0
 15 16  1  0  0  0  0
 15 36  1  0  0  0  0
 15 37  1  0  0  0  0
 16 17  1  0  0  0  0
 16 38  1  0  0  0  0
 16 39  1  0  0  0  0
 17 40  1  0  0  0  0
 17 41  1  0  0  0  0
 18 19  2  0  0  0  0
 18 42  1  0  0  0  0
M  CHG  1  13   1
M  END
> <s_m_source_file>
AV-unprocessed.smi

> <i_m_source_file_index>
3353

> <i_lp_mmshare_version>
43012

> <i_f3d_flags>
0

> <s_epik_input>
W0NIM11bQ0gyXW4xW2NIXWMoW2NIXW4xKVtOSF1DKD1PKVtOSF1bQ0gyXVtDQEhdKFtDSDNdKU4yW0NIMl1bQ0gyXVtDSDJdW0NIMl0y

> <s_epik_cmdline>
J2VwaWtfcHl0aG9uJywgJy1waCcsICc3LjAnLCAnLXRuJywgJzgnLCAnLW1hJywgJzIwMCcsICctbWV0YWxfYmluZGluZycsICctaW1hZScsICc8aW5maWxlLm1hZT4nLCAnLW9tYWUnLCAnPG91dGZpbGUubWFlPic=

> <r_lp_tautomer_probability>
1

> <r_epik_Ionization_Penalty>
0.000914091

> <r_epik_Ionization_Penalty_Charging>
0.000761583

> <r_epik_Ionization_Penalty_Neutral>
0.000152508

> <r_epik_State_Penalty>
0.000487427

> <r_epik_Charging_Adjusted_Penalty>
0.00124901

> <i_epik_Tot_Q>
1

> <i_epik_Tot_abs_Q>
1

> <r_epik_Metal_State_Penalty>
-0

> <b_epik_Metal_Only>
0

> <s_lp_Force_Field>
OPLS_2005

> <r_lp_Energy>
33.6396

> <b_lp_Chiralities_Consistent>
1

> <s_lp_Variant>
AV-unprocessed.smi:3353-1

> <Gold.Version>
5.8.1

> <Gold.Id.Protein>
6NUR|6NUR_protein|mol2

> <Gold.PLP.Fitness>
46.6768

> <Gold.PLP.PLP>
-35.5835

> <Gold.PLP.part.hbond>
-5.0000

> <Gold.PLP.part.metal>
0.0000

> <Gold.PLP.part.buried>
-4.0540

> <Gold.PLP.part.nonpolar>
-26.7184

> <Gold.PLP.part.repulsive>
0.2727

> <Gold.PLP.ligand.clash>
0.0000

> <Gold.PLP.ligand.torsion>
0.3798

> <Gold.PLP.Chemscore.Hbond>
3.9280

> <Gold.PLP.Chemscore.CHOScore>
0.0000

> <Gold.PLP.Chemscore.Metal>
0.0000

> <Gold.Chemscore.Hbonds>
donor molecule, donor type, donor heavy atom, donor atom, acceptor molecule, acceptor atom, score
      L1  H     6    26       P1  7948  0.94
      L1  H     9    27       P1  7948  1.00
      L1  H    13    43       P1  7948  2.00

> <Gold.PLP.Chemscore.Internal.Correction>
0.0688

> <Gold.Rescore>
     Score         DG    S(hbond)    S(metal)    S(lipo)     H(rot)  DE(clash)    DE(int)     intcor
     19.08     -19.58       2.87        0.00      73.74       1.61       0.05       0.45       ----

> <Gold.Chemscore.Fitness>
19.0771

> <Gold.Chemscore.DG>
-19.5807

> <Gold.Chemscore.ZeroCoef>
-5.4800

> <Gold.Chemscore.Hbond>
2.8741

> <Gold.Chemscore.Metal>
0.0000

> <Gold.Chemscore.Lipo>
73.7362

> <Gold.Chemscore.Internal_Hbond>
0.0000

> <Gold.Chemscore.DEClash>
0.0542

> <Gold.Chemscore.DEInternal>
0.4494

> <Gold.Chemscore.Rot>
1.6117

> <Gold.Chemscore.Internal.Correction>
   9.000000E+99

> <Gold.Chemscore.Hbonds>
donor molecule, donor type, donor heavy atom, donor atom, acceptor molecule, acceptor atom, score
      L1  H     6    26       P1  7948  0.87
      L1  H     9    27       P1  7948  1.00
      L1  H    13    43       P1  7948  0.99

> <Gold.Chemscore.Hbond.Weighted>
-9.5996

> <Gold.Chemscore.Metal.Weighted>
-0.0000

> <Gold.Chemscore.Lipo.Weighted>
-8.6271

> <Gold.Chemscore.Internal_Hbond.Weighted>
0.0000

> <Gold.Chemscore.DEClash.Weighted>
0.0542

> <Gold.Chemscore.DEInternal.Weighted>
0.4494

> <Gold.Chemscore.Rot.Weighted>
4.1260

> <Gold.Chemscore.Internal.Correction.Weighted>
   9.000000E+99

> <Gold.Protein.RotatedTorsions>
[ 6907 6896 6895 6894 ] final -122.82 input  -60.11 | X-H torsion
[ 7974 7965 7964 7962 ] final  143.53 input  175.53 | X-H torsion
[ 8008 7997 7996 7995 ] final    2.23 input   59.86 | X-H torsion
[ 10167 10162 10161 10158 ] final  152.51 input  -65.29 | X-H torsion
[ 10718 10713 10712 10709 ] final   48.40 input   66.30 | X-H torsion
[ 10763 10752 10751 10750 ] final  125.06 input  -60.55 | X-H torsion
[ 11005 11000 10999 10996 ] final -157.16 input  -57.11 | X-H torsion

> <Gold.Protein.ActiveResidues>
 VAL166  LYS551  ARG553  GLY616  TRP617  ASP618  TYR619  PRO620  LYS621  CYS622 
 ASP623  PHE694  ASN695  SER759  ASP760  ASP761  ALA762  ILE779  LEU786  VAL792 
 PHE793  MET794  SER795  GLU796  ALA797  LYS798  CYS799  TRP800  GLU811  SER814 

> <Gold.Protein.RotatedAtoms>
  150.8612  133.7642  159.2991 H   0  0  0  0  0  0  0  0  0  0  0  0  # atno 6907 bound_to 6896
  151.5283  135.1066  159.9906 H   0  0  0  0  0  0  0  0  0  0  0  0  # atno 6908 bound_to 6896
  152.4627  133.7813  159.6908 H   0  0  0  0  0  0  0  0  0  0  0  0  # atno 6909 bound_to 6896
  144.8913  139.5554  143.5797 H   0  0  0  0  0  0  0  0  0  0  0  0  # atno 7974 bound_to 7965
  154.6891  140.2649  155.6831 H   0  0  0  0  0  0  0  0  0  0  0  0  # atno 8008 bound_to 7997
  156.2725  140.2795  156.1386 H   0  0  0  0  0  0  0  0  0  0  0  0  # atno 8009 bound_to 7997
  155.0922  140.0373  157.2662 H   0  0  0  0  0  0  0  0  0  0  0  0  # atno 8010 bound_to 7997
  139.4832  144.5351  151.7658 H   0  0  0  0  0  0  0  0  0  0  0  0  # atno 10167 bound_to 10162
  157.4683  130.8239  149.7960 H   0  0  0  0  0  0  0  0  0  0  0  0  # atno 10718 bound_to 10713
  153.6714  135.3330  155.3154 H   0  0  0  0  0  0  0  0  0  0  0  0  # atno 10763 bound_to 10752
  154.8490  135.4387  154.1701 H   0  0  0  0  0  0  0  0  0  0  0  0  # atno 10764 bound_to 10752
  153.2694  135.6999  153.7573 H   0  0  0  0  0  0  0  0  0  0  0  0  # atno 10765 bound_to 10752
  140.6677  134.4281  157.5232 H   0  0  0  0  0  0  0  0  0  0  0  0  # atno 11005 bound_to 11000
  146.3055  139.7567  142.9059 LP  0  0  0  0  0  0  0  0  0  0  0  0  # atno 17320 bound_to 7965
  145.3778  141.0353  143.3195 LP  0  0  0  0  0  0  0  0  0  0  0  0  # atno 17321 bound_to 7965
  140.4883  144.1348  150.5945 LP  0  0  0  0  0  0  0  0  0  0  0  0  # atno 17342 bound_to 10162
  140.4200  143.2616  151.9727 LP  0  0  0  0  0  0  0  0  0  0  0  0  # atno 17343 bound_to 10162
  156.0061  130.3855  150.2427 LP  0  0  0  0  0  0  0  0  0  0  0  0  # atno 17370 bound_to 10713
  157.0608  131.0089  151.3223 LP  0  0  0  0  0  0  0  0  0  0  0  0  # atno 17371 bound_to 10713
  139.8992  134.8597  156.1971 LP  0  0  0  0  0  0  0  0  0  0  0  0  # atno 17394 bound_to 11000
  141.0416  133.6934  156.1609 LP  0  0  0  0  0  0  0  0  0  0  0  0  # atno 17395 bound_to 11000

$$$$
