AV-unprocessed.smi:1697|AV-procd|sdf|6808|dock8
  -GOLD-   22720 7583D 1   1.00000     0.00000
 Structure written by MMmdl.
 55 57  0  0  0  0  0  0  0  0  3 V2000
  143.5062  146.5302  155.9862 C   0  0  0  0  0  0  0  0  0  0  0  0
  143.0305  145.0725  156.0483 C   0  0  0  0  0  0  0  0  0  0  0  0
  143.9485  144.2658  156.7758 O   0  0  0  0  0  0  0  0  0  0  0  0
  144.5980  143.2516  156.0194 C   0  0  2  0  0  0  0  0  0  0  0  0
  145.8140  142.7700  156.8223 C   0  0  0  0  0  0  0  0  0  0  0  0
  146.6349  141.7462  156.0214 C   0  0  0  0  0  0  0  0  0  0  0  0
  147.0724  142.3093  154.7174 N   0  3  1  0  0  0  0  0  0  0  0  0
  147.9727  141.3824  153.9837 C   0  0  0  0  0  0  0  0  0  0  0  0
  149.0296  140.7161  154.8934 C   0  0  1  0  0  0  0  0  0  0  0  0
  149.6949  139.7031  154.1670 O   0  0  0  0  0  0  0  0  0  0  0  0
  150.1071  141.7001  155.3946 C   0  0  0  0  0  0  0  0  0  0  0  0
  150.9824  141.1272  156.4256 N   0  0  0  0  0  0  0  0  0  0  0  0
  151.6218  139.9261  156.4655 C   0  0  0  0  0  0  0  0  0  0  0  0
  152.3120  139.8678  157.6382 N   0  3  0  0  0  0  0  0  0  0  0  0
  152.0993  141.0423  158.3633 C   0  0  0  0  0  0  0  0  0  0  0  0
  152.5784  141.4468  159.6035 C   0  0  0  0  0  0  0  0  0  0  0  0
  152.1639  142.7138  160.0729 C   0  0  0  0  0  0  0  0  0  0  0  0
  152.6660  143.1850  161.4271 C   0  0  0  0  0  0  0  0  0  0  0  0
  151.2944  143.5294  159.3028 C   0  0  0  0  0  0  0  0  0  0  0  0
  150.8503  144.8869  159.8207 C   0  0  0  0  0  0  0  0  0  0  0  0
  150.8211  143.1013  158.0420 C   0  0  0  0  0  0  0  0  0  0  0  0
  151.2414  141.8517  157.5939 C   0  0  0  0  0  0  0  0  0  0  0  0
  145.9127  142.7677  153.9053 C   0  0  0  0  0  0  0  0  0  0  0  0
  145.0751  143.8087  154.6668 C   0  0  0  0  0  0  0  0  0  0  0  0
  142.8336  147.1301  155.3730 H   0  0  0  0  0  0  0  0  0  0  0  0
  144.5023  146.5964  155.5477 H   0  0  0  0  0  0  0  0  0  0  0  0
  143.5449  146.9885  156.9739 H   0  0  0  0  0  0  0  0  0  0  0  0
  142.0221  145.0068  156.4576 H   0  0  0  0  0  0  0  0  0  0  0  0
  142.9778  144.6775  155.0336 H   0  0  0  0  0  0  0  0  0  0  0  0
  143.9330  142.4023  155.8568 H   0  0  0  0  0  0  0  0  0  0  0  0
  146.4461  143.6201  157.0836 H   0  0  0  0  0  0  0  0  0  0  0  0
  145.4861  142.3278  157.7639 H   0  0  0  0  0  0  0  0  0  0  0  0
  147.5063  141.4534  156.6083 H   0  0  0  0  0  0  0  0  0  0  0  0
  146.0480  140.8420  155.8513 H   0  0  0  0  0  0  0  0  0  0  0  0
  147.3864  140.5941  153.5084 H   0  0  0  0  0  0  0  0  0  0  0  0
  148.4465  141.9354  153.1718 H   0  0  0  0  0  0  0  0  0  0  0  0
  148.5568  140.2511  155.7569 H   0  0  0  0  0  0  0  0  0  0  0  0
  149.8532  140.0063  153.2860 H   0  0  0  0  0  0  0  0  0  0  0  0
  150.7331  142.0480  154.5714 H   0  0  0  0  0  0  0  0  0  0  0  0
  149.6390  142.5876  155.8233 H   0  0  0  0  0  0  0  0  0  0  0  0
  151.5914  139.1596  155.7043 H   0  0  0  0  0  0  0  0  0  0  0  0
  153.2367  140.8191  160.1864 H   0  0  0  0  0  0  0  0  0  0  0  0
  153.1815  144.1414  161.3367 H   0  0  0  0  0  0  0  0  0  0  0  0
  153.3650  142.4712  161.8644 H   0  0  0  0  0  0  0  0  0  0  0  0
  151.8332  143.3044  162.1209 H   0  0  0  0  0  0  0  0  0  0  0  0
  150.1638  145.3735  159.1273 H   0  0  0  0  0  0  0  0  0  0  0  0
  151.7091  145.5446  159.9563 H   0  0  0  0  0  0  0  0  0  0  0  0
  150.3379  144.7831  160.7776 H   0  0  0  0  0  0  0  0  0  0  0  0
  150.1568  143.7204  157.4571 H   0  0  0  0  0  0  0  0  0  0  0  0
  146.2523  143.2095  152.9694 H   0  0  0  0  0  0  0  0  0  0  0  0
  145.2905  141.9114  153.6404 H   0  0  0  0  0  0  0  0  0  0  0  0
  144.2250  144.1091  154.0545 H   0  0  0  0  0  0  0  0  0  0  0  0
  145.6708  144.7079  154.8292 H   0  0  0  0  0  0  0  0  0  0  0  0
  147.6222  143.1271  154.9393 H   0  0  0  0  0  0  0  0  0  0  0  0
  152.8794  139.0798  157.9242 H   0  0  0  0  0  0  0  0  0  0  0  0
  1  2  1  0  0  0  0
  1 25  1  0  0  0  0
  1 26  1  0  0  0  0
  1 27  1  0  0  0  0
  2  3  1  0  0  0  0
  2 28  1  0  0  0  0
  2 29  1  0  0  0  0
  3  4  1  0  0  0  0
  4 24  1  0  0  0  0
  4  5  1  0  0  0  0
  4 30  1  0  0  0  0
  5  6  1  0  0  0  0
  5 31  1  0  0  0  0
  5 32  1  0  0  0  0
  6  7  1  0  0  0  0
  6 33  1  0  0  0  0
  6 34  1  0  0  0  0
  7  8  1  0  0  0  0
  7 23  1  0  0  0  0
  7 54  1  0  0  0  0
  8  9  1  0  0  0  0
  8 35  1  0  0  0  0
  8 36  1  0  0  0  0
  9 10  1  0  0  0  0
  9 11  1  0  0  0  0
  9 37  1  0  0  0  0
 10 38  1  0  0  0  0
 11 12  1  0  0  0  0
 11 39  1  0  0  0  0
 11 40  1  0  0  0  0
 12 22  1  0  0  0  0
 12 13  1  0  0  0  0
 13 14  2  0  0  0  0
 13 41  1  0  0  0  0
 14 15  1  0  0  0  0
 14 55  1  0  0  0  0
 15 22  2  0  0  0  0
 15 16  1  0  0  0  0
 16 17  2  0  0  0  0
 16 42  1  0  0  0  0
 17 18  1  0  0  0  0
 17 19  1  0  0  0  0
 18 43  1  0  0  0  0
 18 44  1  0  0  0  0
 18 45  1  0  0  0  0
 19 20  1  0  0  0  0
 19 21  2  0  0  0  0
 20 46  1  0  0  0  0
 20 47  1  0  0  0  0
 20 48  1  0  0  0  0
 21 22  1  0  0  0  0
 21 49  1  0  0  0  0
 23 24  1  0  0  0  0
 23 50  1  0  0  0  0
 23 51  1  0  0  0  0
 24 52  1  0  0  0  0
 24 53  1  0  0  0  0
M  CHG  1   7   1
M  CHG  1  14   1
M  END
> <s_m_source_file>
AV-unprocessed.smi

> <i_m_source_file_index>
1697

> <i_lp_mmshare_version>
43012

> <i_f3d_flags>
0

> <s_epik_input>
W0NIM11bQ0gyXU9bQ0hdMVtDSDJdW0NIMl1OKFtDSDJdW0NIMl0xKVtDSDJdW0NASF0oW09IXSlbQ0gyXW4oW2NIXW4yKWMoYzIzKVtjSF1jKFtDSDNdKWMoW2NIXTMpW0NIM10=

> <s_epik_cmdline>
J2VwaWtfcHl0aG9uJywgJy1waCcsICc3LjAnLCAnLXRuJywgJzgnLCAnLW1hJywgJzIwMCcsICctbWV0YWxfYmluZGluZycsICctaW1hZScsICc8aW5maWxlLm1hZT4nLCAnLW9tYWUnLCAnPG91dGZpbGUubWFlPic=

> <r_epik_Ionization_Penalty>
1.20016

> <r_epik_Ionization_Penalty_Charging>
1.20016

> <r_epik_Ionization_Penalty_Neutral>
1.70998e-06

> <r_epik_State_Penalty>
1.27959

> <r_epik_Charging_Adjusted_Penalty>
2.47975

> <i_epik_Tot_Q>
2

> <i_epik_Tot_abs_Q>
2

> <r_epik_Metal_State_Penalty>
5.29682

> <b_epik_Metal_Only>
0

> <s_lp_Force_Field>
OPLS_2005

> <r_lp_Energy>
35.517

> <b_lp_Chiralities_Consistent>
1

> <s_lp_Variant>
AV-unprocessed.smi:1697-6

> <Gold.Version>
5.8.1

> <Gold.Id.Protein>
6NUR|6NUR_protein|mol2

> <Gold.PLP.Fitness>
58.5721

> <Gold.PLP.PLP>
-51.0743

> <Gold.PLP.part.hbond>
-2.3035

> <Gold.PLP.part.metal>
0.0000

> <Gold.PLP.part.buried>
-7.4598

> <Gold.PLP.part.nonpolar>
-41.8136

> <Gold.PLP.part.repulsive>
0.2753

> <Gold.PLP.ligand.clash>
0.0000

> <Gold.PLP.ligand.torsion>
0.8210

> <Gold.PLP.Chemscore.Hbond>
3.0000

> <Gold.PLP.Chemscore.CHOScore>
0.0000

> <Gold.PLP.Chemscore.Metal>
0.0000

> <Gold.Chemscore.Hbonds>
donor molecule, donor type, donor heavy atom, donor atom, acceptor molecule, acceptor atom, score
      L1  H     7    54       P1  8028  1.56
      L1  H    10    38       P1  7957  0.73

> <Gold.PLP.Chemscore.Internal.Correction>
0.1398

> <Gold.Rescore>
     Score         DG    S(hbond)    S(metal)    S(lipo)     H(rot)  DE(clash)    DE(int)     intcor
     16.95     -19.65       1.33        0.00     134.41       2.35       1.45       1.25       ----

> <Gold.Chemscore.Fitness>
16.9497

> <Gold.Chemscore.DG>
-19.6469

> <Gold.Chemscore.ZeroCoef>
-5.4800

> <Gold.Chemscore.Hbond>
1.3320

> <Gold.Chemscore.Metal>
0.0000

> <Gold.Chemscore.Lipo>
134.4076

> <Gold.Chemscore.Internal_Hbond>
0.0000

> <Gold.Chemscore.DEClash>
1.4461

> <Gold.Chemscore.DEInternal>
1.2511

> <Gold.Chemscore.Rot>
2.3468

> <Gold.Chemscore.Internal.Correction>
   9.000000E+99

> <Gold.Chemscore.Hbonds>
donor molecule, donor type, donor heavy atom, donor atom, acceptor molecule, acceptor atom, score
      L1  H     7    54       P1  8028  0.38
      L1  H    10    38       P1  7957  0.72

> <Gold.Chemscore.Hbond.Weighted>
-4.4489

> <Gold.Chemscore.Metal.Weighted>
-0.0000

> <Gold.Chemscore.Lipo.Weighted>
-15.7257

> <Gold.Chemscore.Internal_Hbond.Weighted>
0.0000

> <Gold.Chemscore.DEClash.Weighted>
1.4461

> <Gold.Chemscore.DEInternal.Weighted>
1.2511

> <Gold.Chemscore.Rot.Weighted>
6.0077

> <Gold.Chemscore.Internal.Correction.Weighted>
   9.000000E+99

> <Gold.Protein.RotatedTorsions>
[ 6907 6896 6895 6894 ] final -114.54 input  -60.11 | X-H torsion
[ 7974 7965 7964 7962 ] final  -43.06 input  175.53 | X-H torsion
[ 8008 7997 7996 7995 ] final -120.08 input   59.86 | X-H torsion
[ 10167 10162 10161 10158 ] final   -4.91 input  -65.29 | X-H torsion
[ 10718 10713 10712 10709 ] final  -87.41 input   66.30 | X-H torsion
[ 10763 10752 10751 10750 ] final   69.58 input  -60.55 | X-H torsion
[ 11005 11000 10999 10996 ] final -157.36 input  -57.11 | X-H torsion

> <Gold.Protein.ActiveResidues>
 VAL166  LYS551  ARG553  GLY616  TRP617  ASP618  TYR619  PRO620  LYS621  CYS622 
 ASP623  PHE694  ASN695  SER759  ASP760  ASP761  ALA762  ILE779  LEU786  VAL792 
 PHE793  MET794  SER795  GLU796  ALA797  LYS798  CYS799  TRP800  GLU811  SER814 

> <Gold.Protein.RotatedAtoms>
  150.7910  133.8787  159.3279 H   0  0  0  0  0  0  0  0  0  0  0  0  # atno 6907 bound_to 6896
  151.6625  135.0985  160.0191 H   0  0  0  0  0  0  0  0  0  0  0  0  # atno 6908 bound_to 6896
  152.3984  133.6741  159.6330 H   0  0  0  0  0  0  0  0  0  0  0  0  # atno 6909 bound_to 6896
  146.0056  140.7024  142.9249 H   0  0  0  0  0  0  0  0  0  0  0  0  # atno 7974 bound_to 7965
  155.1261  140.0399  157.2762 H   0  0  0  0  0  0  0  0  0  0  0  0  # atno 8008 bound_to 7997
  154.6577  140.2584  155.7117 H   0  0  0  0  0  0  0  0  0  0  0  0  # atno 8009 bound_to 7997
  156.2606  140.2823  156.1037 H   0  0  0  0  0  0  0  0  0  0  0  0  # atno 8010 bound_to 7997
  140.6944  143.6369  150.8471 H   0  0  0  0  0  0  0  0  0  0  0  0  # atno 10167 bound_to 10162
  155.9985  130.4799  150.4862 H   0  0  0  0  0  0  0  0  0  0  0  0  # atno 10718 bound_to 10713
  153.0295  135.5205  154.7310 H   0  0  0  0  0  0  0  0  0  0  0  0  # atno 10763 bound_to 10752
  154.6338  135.2903  155.0188 H   0  0  0  0  0  0  0  0  0  0  0  0  # atno 10764 bound_to 10752
  154.1130  135.6619  153.4941 H   0  0  0  0  0  0  0  0  0  0  0  0  # atno 10765 bound_to 10752
  140.6654  134.4304  157.5233 H   0  0  0  0  0  0  0  0  0  0  0  0  # atno 11005 bound_to 11000
  144.6934  140.3308  143.7216 LP  0  0  0  0  0  0  0  0  0  0  0  0  # atno 17320 bound_to 7965
  145.7421  139.1767  143.2370 LP  0  0  0  0  0  0  0  0  0  0  0  0  # atno 17321 bound_to 7965
  140.0085  143.5668  152.2848 LP  0  0  0  0  0  0  0  0  0  0  0  0  # atno 17342 bound_to 10162
  139.6383  144.7652  151.2392 LP  0  0  0  0  0  0  0  0  0  0  0  0  # atno 17343 bound_to 10162
  157.2862  131.0617  151.2164 LP  0  0  0  0  0  0  0  0  0  0  0  0  # atno 17370 bound_to 10713
  157.3193  130.6929  149.6260 LP  0  0  0  0  0  0  0  0  0  0  0  0  # atno 17371 bound_to 10713
  139.8999  134.8581  156.1942 LP  0  0  0  0  0  0  0  0  0  0  0  0  # atno 17394 bound_to 11000
  141.0433  133.6926  156.1637 LP  0  0  0  0  0  0  0  0  0  0  0  0  # atno 17395 bound_to 11000

$$$$
