AV-unprocessed.smi:1225|AV-procd|sdf|5141|dock3
  -GOLD-   22720 4203D 1   1.00000     0.00000
 Structure written by MMmdl.
 49 51  0  0  0  0  0  0  0  0  2 V2000
  142.7844  146.4357  154.8130 C   0  0  0  0  0  0  0  0  0  0  0  0
  143.6175  145.2013  154.7498 C   0  0  0  0  0  0  0  0  0  0  0  0
  144.6295  145.0353  153.8951 N   0  0  0  0  0  0  0  0  0  0  0  0
  145.2508  143.7930  154.0379 C   0  0  0  0  0  0  0  0  0  0  0  0
  144.7016  143.0087  155.0224 C   0  0  0  0  0  0  0  0  0  0  0  0
  145.1255  141.6415  155.4473 C   0  0  0  0  0  0  0  0  0  0  0  0
  145.8025  140.9016  154.3514 N   0  3  2  0  0  0  0  0  0  0  0  0
  145.7918  139.4354  154.5637 C   0  0  0  0  0  0  0  0  0  0  0  0
  147.1639  141.4145  154.0578 C   0  0  0  0  0  0  0  0  0  0  0  0
  148.1756  141.0352  155.1625 C   0  0  2  0  0  0  0  0  0  0  0  0
  148.0132  141.9237  156.2489 O   0  0  0  0  0  0  0  0  0  0  0  0
  149.6467  141.1065  154.7061 C   0  0  0  0  0  0  0  0  0  0  0  0
  150.5571  140.4910  155.6551 N   0  0  0  0  0  0  0  0  0  0  0  0
  151.1142  139.2673  155.5686 C   0  0  0  0  0  0  0  0  0  0  0  0
  151.9159  138.8923  156.5606 N   0  0  0  0  0  0  0  0  0  0  0  0
  151.8879  140.0075  157.3799 C   0  0  0  0  0  0  0  0  0  0  0  0
  152.5349  140.2579  158.6095 C   0  0  0  0  0  0  0  0  0  0  0  0
  152.3591  141.4872  159.2839 C   0  0  0  0  0  0  0  0  0  0  0  0
  153.0755  141.7144  160.6034 C   0  0  0  0  0  0  0  0  0  0  0  0
  151.5255  142.4901  158.7272 C   0  0  0  0  0  0  0  0  0  0  0  0
  151.3234  143.8192  159.4332 C   0  0  0  0  0  0  0  0  0  0  0  0
  150.8723  142.2568  157.4990 C   0  0  0  0  0  0  0  0  0  0  0  0
  151.0518  141.0280  156.8392 C   0  0  0  0  0  0  0  0  0  0  0  0
  143.3667  143.8159  155.8043 S   0  0  0  0  0  0  0  0  0  0  0  0
  142.9704  147.0698  153.9456 H   0  0  0  0  0  0  0  0  0  0  0  0
  143.0215  146.9988  155.7158 H   0  0  0  0  0  0  0  0  0  0  0  0
  141.7269  146.1721  154.8313 H   0  0  0  0  0  0  0  0  0  0  0  0
  146.0857  143.5495  153.3974 H   0  0  0  0  0  0  0  0  0  0  0  0
  145.7894  141.7420  156.3055 H   0  0  0  0  0  0  0  0  0  0  0  0
  144.2671  141.0690  155.8023 H   0  0  0  0  0  0  0  0  0  0  0  0
  146.3739  139.1647  155.4456 H   0  0  0  0  0  0  0  0  0  0  0  0
  146.2151  138.9174  153.7025 H   0  0  0  0  0  0  0  0  0  0  0  0
  144.7759  139.0629  154.6966 H   0  0  0  0  0  0  0  0  0  0  0  0
  147.4725  141.0346  153.0832 H   0  0  0  0  0  0  0  0  0  0  0  0
  147.1470  142.5016  153.9650 H   0  0  0  0  0  0  0  0  0  0  0  0
  147.9759  140.0296  155.5301 H   0  0  0  0  0  0  0  0  0  0  0  0
  148.4407  142.7404  156.0379 H   0  0  0  0  0  0  0  0  0  0  0  0
  149.7675  140.6121  153.7407 H   0  0  0  0  0  0  0  0  0  0  0  0
  149.9520  142.1446  154.5670 H   0  0  0  0  0  0  0  0  0  0  0  0
  150.9121  138.6098  154.7357 H   0  0  0  0  0  0  0  0  0  0  0  0
  153.1721  139.4948  159.0322 H   0  0  0  0  0  0  0  0  0  0  0  0
  152.3581  141.9104  161.4006 H   0  0  0  0  0  0  0  0  0  0  0  0
  153.7520  142.5661  160.5281 H   0  0  0  0  0  0  0  0  0  0  0  0
  153.6657  140.8441  160.8913 H   0  0  0  0  0  0  0  0  0  0  0  0
  150.6543  144.4714  158.8710 H   0  0  0  0  0  0  0  0  0  0  0  0
  152.2752  144.3381  159.5509 H   0  0  0  0  0  0  0  0  0  0  0  0
  150.8880  143.6653  160.4208 H   0  0  0  0  0  0  0  0  0  0  0  0
  150.2389  143.0153  157.0639 H   0  0  0  0  0  0  0  0  0  0  0  0
  145.2649  141.0681  153.5122 H   0  0  0  0  0  0  0  0  0  0  0  0
  1  2  1  0  0  0  0
  1 25  1  0  0  0  0
  1 26  1  0  0  0  0
  1 27  1  0  0  0  0
  2 24  1  0  0  0  0
  2  3  2  0  0  0  0
  3  4  1  0  0  0  0
  4  5  2  0  0  0  0
  4 28  1  0  0  0  0
  5  6  1  0  0  0  0
  5 24  1  0  0  0  0
  6  7  1  0  0  0  0
  6 29  1  0  0  0  0
  6 30  1  0  0  0  0
  7  8  1  0  0  0  0
  7  9  1  0  0  0  0
  7 49  1  0  0  0  0
  8 31  1  0  0  0  0
  8 32  1  0  0  0  0
  8 33  1  0  0  0  0
  9 10  1  0  0  0  0
  9 34  1  0  0  0  0
  9 35  1  0  0  0  0
 10 11  1  0  0  0  0
 10 12  1  0  0  0  0
 10 36  1  0  0  0  0
 11 37  1  0  0  0  0
 12 13  1  0  0  0  0
 12 38  1  0  0  0  0
 12 39  1  0  0  0  0
 13 23  1  0  0  0  0
 13 14  1  0  0  0  0
 14 15  2  0  0  0  0
 14 40  1  0  0  0  0
 15 16  1  0  0  0  0
 16 23  2  0  0  0  0
 16 17  1  0  0  0  0
 17 18  2  0  0  0  0
 17 41  1  0  0  0  0
 18 19  1  0  0  0  0
 18 20  1  0  0  0  0
 19 42  1  0  0  0  0
 19 43  1  0  0  0  0
 19 44  1  0  0  0  0
 20 21  1  0  0  0  0
 20 22  2  0  0  0  0
 21 45  1  0  0  0  0
 21 46  1  0  0  0  0
 21 47  1  0  0  0  0
 22 23  1  0  0  0  0
 22 48  1  0  0  0  0
M  CHG  1   7   1
M  END
> <s_m_source_file>
AV-unprocessed.smi

> <i_m_source_file_index>
1225

> <i_lp_mmshare_version>
43012

> <i_f3d_flags>
0

> <s_epik_input>
W0NIM11jMW5bY0hdYyhzMSlbQ0gyXU4oW0NIM10pW0NIMl1bQ0BIXShbT0hdKVtDSDJdbihbY0hdbjIpYyhjMjMpW2NIXWMoW0NIM10pYyhbY0hdMylbQ0gzXQ==

> <s_epik_cmdline>
J2VwaWtfcHl0aG9uJywgJy1waCcsICc3LjAnLCAnLXRuJywgJzgnLCAnLW1hJywgJzIwMCcsICctbWV0YWxfYmluZGluZycsICctaW1hZScsICc8aW5maWxlLm1hZT4nLCAnLW9tYWUnLCAnPG91dGZpbGUubWFlPic=

> <r_epik_Ionization_Penalty>
1.62543

> <r_epik_Ionization_Penalty_Charging>
1.53932

> <r_epik_Ionization_Penalty_Neutral>
0.0861152

> <r_epik_State_Penalty>
1.73127

> <r_epik_Charging_Adjusted_Penalty>
3.27059

> <i_epik_Tot_Q>
1

> <i_epik_Tot_abs_Q>
1

> <r_epik_Metal_State_Penalty>
1.71387

> <b_epik_Metal_Only>
0

> <s_lp_Force_Field>
OPLS_2005

> <r_lp_Energy>
11.3811

> <b_lp_Chiralities_Consistent>
1

> <s_lp_Variant>
AV-unprocessed.smi:1225-6

> <Gold.Version>
5.8.1

> <Gold.Id.Protein>
6NUR|6NUR_protein|mol2

> <Gold.PLP.Fitness>
56.3398

> <Gold.PLP.PLP>
-49.3478

> <Gold.PLP.part.hbond>
-2.0000

> <Gold.PLP.part.metal>
0.0000

> <Gold.PLP.part.buried>
-3.8212

> <Gold.PLP.part.nonpolar>
-44.3694

> <Gold.PLP.part.repulsive>
0.1251

> <Gold.PLP.ligand.clash>
0.0000

> <Gold.PLP.ligand.torsion>
1.0578

> <Gold.PLP.Chemscore.Hbond>
3.0000

> <Gold.PLP.Chemscore.CHOScore>
0.0000

> <Gold.PLP.Chemscore.Metal>
0.0000

> <Gold.Chemscore.Hbonds>
donor molecule, donor type, donor heavy atom, donor atom, acceptor molecule, acceptor atom, score
      L1  H     7    49       P1 10175  1.79
      L1  H    11    37       P1  8028  0.94

> <Gold.PLP.Chemscore.Internal.Correction>
0.1076

> <Gold.Rescore>
     Score         DG    S(hbond)    S(metal)    S(lipo)     H(rot)  DE(clash)    DE(int)     intcor
     17.21     -21.31       1.90        0.00     133.00       2.37       1.20       2.90       ----

> <Gold.Chemscore.Fitness>
17.2091

> <Gold.Chemscore.DG>
-21.3098

> <Gold.Chemscore.ZeroCoef>
-5.4800

> <Gold.Chemscore.Hbond>
1.9010

> <Gold.Chemscore.Metal>
0.0000

> <Gold.Chemscore.Lipo>
132.9965

> <Gold.Chemscore.Internal_Hbond>
0.0000

> <Gold.Chemscore.DEClash>
1.2027

> <Gold.Chemscore.DEInternal>
2.8980

> <Gold.Chemscore.Rot>
2.3750

> <Gold.Chemscore.Internal.Correction>
   9.000000E+99

> <Gold.Chemscore.Hbonds>
donor molecule, donor type, donor heavy atom, donor atom, acceptor molecule, acceptor atom, score
      L1  H     7    49       P1 10175  0.48
      L1  H    11    37       P1  8028  0.87

> <Gold.Chemscore.Hbond.Weighted>
-6.3492

> <Gold.Chemscore.Metal.Weighted>
-0.0000

> <Gold.Chemscore.Lipo.Weighted>
-15.5606

> <Gold.Chemscore.Internal_Hbond.Weighted>
0.0000

> <Gold.Chemscore.DEClash.Weighted>
1.2027

> <Gold.Chemscore.DEInternal.Weighted>
2.8980

> <Gold.Chemscore.Rot.Weighted>
6.0800

> <Gold.Chemscore.Internal.Correction.Weighted>
   9.000000E+99

> <Gold.Protein.RotatedTorsions>
[ 6907 6896 6895 6894 ] final  -88.24 input  -60.11 | X-H torsion
[ 7974 7965 7964 7962 ] final   77.06 input  175.53 | X-H torsion
[ 8008 7997 7996 7995 ] final -127.12 input   59.86 | X-H torsion
[ 10167 10162 10161 10158 ] final  -58.87 input  -65.29 | X-H torsion
[ 10718 10713 10712 10709 ] final  -58.63 input   66.30 | X-H torsion
[ 10763 10752 10751 10750 ] final  128.87 input  -60.55 | X-H torsion
[ 11005 11000 10999 10996 ] final  161.54 input  -57.11 | X-H torsion

> <Gold.Protein.ActiveResidues>
 VAL166  LYS551  ARG553  GLY616  TRP617  ASP618  TYR619  PRO620  LYS621  CYS622 
 ASP623  PHE694  ASN695  SER759  ASP760  ASP761  ALA762  ILE779  LEU786  VAL792 
 PHE793  MET794  SER795  GLU796  ALA797  LYS798  CYS799  TRP800  GLU811  SER814 

> <Gold.Protein.RotatedAtoms>
  150.6868  134.2772  159.4612 H   0  0  0  0  0  0  0  0  0  0  0  0  # atno 6907 bound_to 6896
  152.0689  134.9543  160.0584 H   0  0  0  0  0  0  0  0  0  0  0  0  # atno 6908 bound_to 6896
  152.0941  133.4181  159.4594 H   0  0  0  0  0  0  0  0  0  0  0  0  # atno 6909 bound_to 6896
  145.6949  139.2564  143.1738 H   0  0  0  0  0  0  0  0  0  0  0  0  # atno 7974 bound_to 7965
  155.2409  140.0428  157.2975 H   0  0  0  0  0  0  0  0  0  0  0  0  # atno 8008 bound_to 7997
  154.5829  140.2405  155.7998 H   0  0  0  0  0  0  0  0  0  0  0  0  # atno 8009 bound_to 7997
  156.2205  140.2971  155.9950 H   0  0  0  0  0  0  0  0  0  0  0  0  # atno 8010 bound_to 7997
  140.6171  143.2406  151.5572 H   0  0  0  0  0  0  0  0  0  0  0  0  # atno 10167 bound_to 10162
  156.1121  130.4174  150.0604 H   0  0  0  0  0  0  0  0  0  0  0  0  # atno 10718 bound_to 10713
  153.7325  135.3236  155.3288 H   0  0  0  0  0  0  0  0  0  0  0  0  # atno 10763 bound_to 10752
  154.8321  135.4525  154.1107 H   0  0  0  0  0  0  0  0  0  0  0  0  # atno 10764 bound_to 10752
  153.2259  135.6954  153.8027 H   0  0  0  0  0  0  0  0  0  0  0  0  # atno 10765 bound_to 10752
  140.2168  134.8226  157.3178 H   0  0  0  0  0  0  0  0  0  0  0  0  # atno 11005 bound_to 11000
  146.0849  140.7722  142.9623 LP  0  0  0  0  0  0  0  0  0  0  0  0  # atno 17320 bound_to 7965
  144.6985  140.3547  143.7175 LP  0  0  0  0  0  0  0  0  0  0  0  0  # atno 17321 bound_to 7965
  139.5407  144.2655  152.1345 LP  0  0  0  0  0  0  0  0  0  0  0  0  # atno 17342 bound_to 10162
  140.1867  144.4792  150.6500 LP  0  0  0  0  0  0  0  0  0  0  0  0  # atno 17343 bound_to 10162
  156.8565  130.9477  151.3621 LP  0  0  0  0  0  0  0  0  0  0  0  0  # atno 17370 bound_to 10713
  157.6302  130.8723  149.9261 LP  0  0  0  0  0  0  0  0  0  0  0  0  # atno 17371 bound_to 10713
  140.1892  134.4393  155.7725 LP  0  0  0  0  0  0  0  0  0  0  0  0  # atno 17394 bound_to 11000
  141.2224  133.7019  156.7999 LP  0  0  0  0  0  0  0  0  0  0  0  0  # atno 17395 bound_to 11000

$$$$
