AV-unprocessed.smi:1778|AV-procd|sdf|7179|dock9
  -GOLD-   22720 8413D 1   1.00000     0.00000
 Structure written by MMmdl.
 34 35  0  0  0  0  0  0  0  0  1 V2000
  151.8694  143.6841  157.9098 C   0  0  0  0  0  0  0  0  0  0  0  0
  152.3617  143.6518  159.3285 C   0  0  0  0  0  0  0  0  0  0  0  0
  151.6980  144.3199  160.2566 N   0  0  0  0  0  0  0  0  0  0  0  0
  152.3787  144.0906  161.4560 O   0  0  0  0  0  0  0  0  0  0  0  0
  153.4376  143.2812  161.2000 C   0  0  0  0  0  0  0  0  0  0  0  0
  154.2946  142.9068  162.3618 C   0  0  0  0  0  0  0  0  0  0  0  0
  153.4872  142.9647  159.8705 C   0  0  0  0  0  0  0  0  0  0  0  0
  154.4872  142.0925  159.1552 C   0  0  0  0  0  0  0  0  0  0  0  0
  154.0718  140.6268  159.2767 C   0  0  0  0  0  0  0  0  0  0  0  0
  153.4761  140.0758  158.3514 O   0  0  0  0  0  0  0  0  0  0  0  0
  154.3954  140.0079  160.4223 N   0  0  0  0  0  0  0  0  0  0  0  0
  154.1147  138.6105  160.7309 C   0  0  2  0  0  0  0  0  0  0  0  0
  154.6266  138.2107  162.1297 C   0  0  0  0  0  0  0  0  0  0  0  0
  154.6445  136.6804  162.2271 C   0  0  0  0  0  0  0  0  0  0  0  0
  154.9671  136.0653  160.5305 S   0  0  0  0  0  0  0  0  0  0  0  0
  156.3680  135.6310  160.4206 O   0  0  0  0  0  0  0  0  0  0  0  0
  153.8653  135.1783  160.1278 O   0  0  0  0  0  0  0  0  0  0  0  0
  154.7787  137.6875  159.7000 C   0  0  0  0  0  0  0  0  0  0  0  0
  151.0369  142.9940  157.7718 H   0  0  0  0  0  0  0  0  0  0  0  0
  152.6535  143.4010  157.2083 H   0  0  0  0  0  0  0  0  0  0  0  0
  151.5260  144.6810  157.6318 H   0  0  0  0  0  0  0  0  0  0  0  0
  154.2720  141.8290  162.5237 H   0  0  0  0  0  0  0  0  0  0  0  0
  153.9546  143.3936  163.2760 H   0  0  0  0  0  0  0  0  0  0  0  0
  155.3298  143.2004  162.1882 H   0  0  0  0  0  0  0  0  0  0  0  0
  154.5710  142.3560  158.1005 H   0  0  0  0  0  0  0  0  0  0  0  0
  155.4874  142.2128  159.5734 H   0  0  0  0  0  0  0  0  0  0  0  0
  154.8849  140.5418  161.1255 H   0  0  0  0  0  0  0  0  0  0  0  0
  153.0376  138.4358  160.6935 H   0  0  0  0  0  0  0  0  0  0  0  0
  155.6455  138.5794  162.2578 H   0  0  0  0  0  0  0  0  0  0  0  0
  154.0261  138.6536  162.9250 H   0  0  0  0  0  0  0  0  0  0  0  0
  155.4022  136.3063  162.9160 H   0  0  0  0  0  0  0  0  0  0  0  0
  153.6711  136.3026  162.5413 H   0  0  0  0  0  0  0  0  0  0  0  0
  154.1935  137.5770  158.7867 H   0  0  0  0  0  0  0  0  0  0  0  0
  155.7759  138.0403  159.4342 H   0  0  0  0  0  0  0  0  0  0  0  0
  1  2  1  0  0  0  0
  1 19  1  0  0  0  0
  1 20  1  0  0  0  0
  1 21  1  0  0  0  0
  2  7  1  0  0  0  0
  2  3  2  0  0  0  0
  3  4  1  0  0  0  0
  4  5  1  0  0  0  0
  5  6  1  0  0  0  0
  5  7  2  0  0  0  0
  6 22  1  0  0  0  0
  6 23  1  0  0  0  0
  6 24  1  0  0  0  0
  7  8  1  0  0  0  0
  8  9  1  0  0  0  0
  8 25  1  0  0  0  0
  8 26  1  0  0  0  0
  9 10  2  0  0  0  0
  9 11  1  0  0  0  0
 11 12  1  0  0  0  0
 11 27  1  0  0  0  0
 12 18  1  0  0  0  0
 12 13  1  0  0  0  0
 12 28  1  0  0  0  0
 13 14  1  0  0  0  0
 13 29  1  0  0  0  0
 13 30  1  0  0  0  0
 14 15  1  0  0  0  0
 14 31  1  0  0  0  0
 14 32  1  0  0  0  0
 15 16  2  0  0  0  0
 15 17  2  0  0  0  0
 15 18  1  0  0  0  0
 18 33  1  0  0  0  0
 18 34  1  0  0  0  0
M  END
> <s_m_source_file>
AV-unprocessed.smi

> <i_m_source_file_index>
1778

> <i_lp_mmshare_version>
43012

> <i_f3d_flags>
0

> <s_epik_input>
W0NIM11jMW5vYyhbQ0gzXSljMVtDSDJdQyg9TylbTkhdW0NAQEhdKFtDSDJdMilbQ0gyXVtDSDJdUzIoPU8pPU8=

> <s_epik_cmdline>
J2VwaWtfcHl0aG9uJywgJy1waCcsICc3LjAnLCAnLXRuJywgJzgnLCAnLW1hJywgJzIwMCcsICctbWV0YWxfYmluZGluZycsICctaW1hZScsICc8aW5maWxlLm1hZT4nLCAnLW9tYWUnLCAnPG91dGZpbGUubWFlPic=

> <r_lp_tautomer_probability>
1

> <r_epik_Ionization_Penalty>
1.26334e-07

> <r_epik_Ionization_Penalty_Charging>
0

> <r_epik_Ionization_Penalty_Neutral>
1.26334e-07

> <r_epik_State_Penalty>
-0

> <r_epik_Charging_Adjusted_Penalty>
0

> <i_epik_Tot_Q>
0

> <i_epik_Tot_abs_Q>
0

> <r_epik_Metal_State_Penalty>
-0

> <b_epik_Metal_Only>
0

> <s_lp_Force_Field>
OPLS_2005

> <r_lp_Energy>
-2.84912

> <b_lp_Chiralities_Consistent>
1

> <s_lp_Variant>
AV-unprocessed.smi:1778-1

> <Gold.Version>
5.8.1

> <Gold.Id.Protein>
6NUR|6NUR_protein|mol2

> <Gold.PLP.Fitness>
40.1790

> <Gold.PLP.PLP>
-35.2106

> <Gold.PLP.part.hbond>
-3.4267

> <Gold.PLP.part.metal>
0.0000

> <Gold.PLP.part.buried>
-4.2604

> <Gold.PLP.part.nonpolar>
-27.1813

> <Gold.PLP.part.repulsive>
0.6031

> <Gold.PLP.ligand.clash>
0.0000

> <Gold.PLP.ligand.torsion>
0.6458

> <Gold.PLP.Chemscore.Hbond>
2.0860

> <Gold.PLP.Chemscore.CHOScore>
0.0000

> <Gold.PLP.Chemscore.Metal>
0.0000

> <Gold.Chemscore.Hbonds>
donor molecule, donor type, donor heavy atom, donor atom, acceptor molecule, acceptor atom, score
      P1  H  6896  6908       L1    17  0.98
      P1  H  7997  8010       L1    10  0.99

> <Gold.PLP.Chemscore.Internal.Correction>
0.0021

> <Gold.Rescore>
     Score         DG    S(hbond)    S(metal)    S(lipo)     H(rot)  DE(clash)    DE(int)     intcor
     18.00     -19.37       1.95        0.00      96.01       1.51       0.07       1.30       ----

> <Gold.Chemscore.Fitness>
17.9990

> <Gold.Chemscore.DG>
-19.3659

> <Gold.Chemscore.ZeroCoef>
-5.4800

> <Gold.Chemscore.Hbond>
1.9478

> <Gold.Chemscore.Metal>
0.0000

> <Gold.Chemscore.Lipo>
96.0103

> <Gold.Chemscore.Internal_Hbond>
0.0000

> <Gold.Chemscore.DEClash>
0.0712

> <Gold.Chemscore.DEInternal>
1.2957

> <Gold.Chemscore.Rot>
1.5051

> <Gold.Chemscore.Internal.Correction>
   9.000000E+99

> <Gold.Chemscore.Hbonds>
donor molecule, donor type, donor heavy atom, donor atom, acceptor molecule, acceptor atom, score
      P1  H  6896  6908       L1    17  0.92
      P1  H  7997  8010       L1    10  0.24

> <Gold.Chemscore.Hbond.Weighted>
-6.5058

> <Gold.Chemscore.Metal.Weighted>
-0.0000

> <Gold.Chemscore.Lipo.Weighted>
-11.2332

> <Gold.Chemscore.Internal_Hbond.Weighted>
0.0000

> <Gold.Chemscore.DEClash.Weighted>
0.0712

> <Gold.Chemscore.DEInternal.Weighted>
1.2957

> <Gold.Chemscore.Rot.Weighted>
3.8531

> <Gold.Chemscore.Internal.Correction.Weighted>
   9.000000E+99

> <Gold.Protein.RotatedTorsions>
[ 6907 6896 6895 6894 ] final  -65.42 input  -60.11 | X-H torsion
[ 7974 7965 7964 7962 ] final   86.99 input  175.53 | X-H torsion
[ 8008 7997 7996 7995 ] final   23.46 input   59.86 | X-H torsion
[ 10167 10162 10161 10158 ] final -154.23 input  -65.29 | X-H torsion
[ 10718 10713 10712 10709 ] final  122.37 input   66.30 | X-H torsion
[ 10763 10752 10751 10750 ] final   68.37 input  -60.55 | X-H torsion
[ 11005 11000 10999 10996 ] final -116.50 input  -57.11 | X-H torsion

> <Gold.Protein.ActiveResidues>
 VAL166  LYS551  ARG553  GLY616  TRP617  ASP618  TYR619  PRO620  LYS621  CYS622 
 ASP623  PHE694  ASN695  SER759  ASP760  ASP761  ALA762  ILE779  LEU786  VAL792 
 PHE793  MET794  SER795  GLU796  ALA797  LYS798  CYS799  TRP800  GLU811  SER814 

> <Gold.Protein.RotatedAtoms>
  150.7525  134.6162  159.6111 H   0  0  0  0  0  0  0  0  0  0  0  0  # atno 6907 bound_to 6896
  152.3482  134.7039  160.0253 H   0  0  0  0  0  0  0  0  0  0  0  0  # atno 6908 bound_to 6896
  151.7469  133.3289  159.3417 H   0  0  0  0  0  0  0  0  0  0  0  0  # atno 6909 bound_to 6896
  145.5649  139.2307  143.2438 H   0  0  0  0  0  0  0  0  0  0  0  0  # atno 7974 bound_to 7965
  154.9813  140.3102  155.4945 H   0  0  0  0  0  0  0  0  0  0  0  0  # atno 8008 bound_to 7997
  156.2953  140.2266  156.4852 H   0  0  0  0  0  0  0  0  0  0  0  0  # atno 8009 bound_to 7997
  154.7787  140.0447  157.1098 H   0  0  0  0  0  0  0  0  0  0  0  0  # atno 8010 bound_to 7997
  139.7030  143.9232  152.2437 H   0  0  0  0  0  0  0  0  0  0  0  0  # atno 10167 bound_to 10162
  157.5747  131.1080  150.8301 H   0  0  0  0  0  0  0  0  0  0  0  0  # atno 10718 bound_to 10713
  153.0232  135.5250  154.7124 H   0  0  0  0  0  0  0  0  0  0  0  0  # atno 10763 bound_to 10752
  154.6203  135.2888  155.0336 H   0  0  0  0  0  0  0  0  0  0  0  0  # atno 10764 bound_to 10752
  154.1325  135.6591  153.4977 H   0  0  0  0  0  0  0  0  0  0  0  0  # atno 10765 bound_to 10752
  141.0417  133.9825  157.2983 H   0  0  0  0  0  0  0  0  0  0  0  0  # atno 11005 bound_to 11000
  146.1825  140.6475  142.9183 LP  0  0  0  0  0  0  0  0  0  0  0  0  # atno 17320 bound_to 7965
  144.7465  140.5081  143.6832 LP  0  0  0  0  0  0  0  0  0  0  0  0  # atno 17321 bound_to 7965
  139.9079  144.6873  150.8594 LP  0  0  0  0  0  0  0  0  0  0  0  0  # atno 17342 bound_to 10162
  140.7714  143.3465  151.2101 LP  0  0  0  0  0  0  0  0  0  0  0  0  # atno 17343 bound_to 10162
  156.8763  130.5163  149.5293 LP  0  0  0  0  0  0  0  0  0  0  0  0  # atno 17370 bound_to 10713
  156.0792  130.5807  150.9531 LP  0  0  0  0  0  0  0  0  0  0  0  0  # atno 17371 bound_to 10713
  139.9281  135.0201  156.8305 LP  0  0  0  0  0  0  0  0  0  0  0  0  # atno 17394 bound_to 11000
  140.6221  133.9984  155.7623 LP  0  0  0  0  0  0  0  0  0  0  0  0  # atno 17395 bound_to 11000

$$$$
