#       Name:                AV-unprocessed.smi:420
#       Creating user name   scv26
#       Creation time:       Thu Mar 26 22:49:15 2020


#       File generated by GOLD software.
#

@<TRIPOS>MOLECULE
AV-unprocessed.smi:420
    40    42     1
SMALL
NO_CHARGES


@<TRIPOS>ATOM
      1 ****        -1.9730   3.4179  -2.1235 C.3            1 S1                 0.0000
      2 ****        -1.5850   2.4226  -1.1312 N.am           1 S1                 0.0000
      3 ****        -1.0995   1.1813  -1.3665 C.2            1 S1                 0.0000
      4 ****        -0.8998   0.6777  -2.4719 O.2            1 S1                 0.0000
      5 ****        -0.8638   0.5895  -0.1712 N.am           1 S1                 0.0000
      6 ****        -0.3324  -0.7559   0.0425 C.3            1 S1                 0.0000
      7 ****         1.1952  -0.8088  -0.1588 C.3            1 S1                 0.0000
      8 ****         1.8190  -0.2109   0.9608 O.3            1 S1                 0.0000
      9 ****         1.6675  -2.2403  -0.3642 C.ar           1 S1                 0.0000
     10 ****         1.7920  -3.1256   0.7299 C.ar           1 S1                 0.0000
     11 ****         2.2207  -4.4516   0.5252 C.ar           1 S1                 0.0000
     12 ****         2.5229  -4.9020  -0.7743 C.ar           1 S1                 0.0000
     13 ****         2.9326  -6.1774  -0.9712 F              1 S1                 0.0000
     14 ****         2.3964  -4.0255  -1.8690 C.ar           1 S1                 0.0000
     15 ****         1.9693  -2.6989  -1.6645 C.ar           1 S1                 0.0000
     16 ****        -1.2001   1.4818   0.8574 C.ar           1 S1                 0.0000
     17 ****        -1.1295   1.3561   2.2561 C.ar           1 S1                 0.0000
     18 ****        -1.5515   2.4646   3.0272 C.ar           1 S1                 0.0000
     19 ****        -2.0227   3.6485   2.4022 C.ar           1 S1                 0.0000
     20 ****        -2.0798   3.7500   0.9923 C.ar           1 S1                 0.0000
     21 ****        -1.6552   2.6340   0.2514 C.ar           1 S1                 0.0000
     22 ****        -1.8602   3.0473  -3.1431 H              1 S1                 0.0000
     23 ****        -1.3573   4.3117  -2.0200 H              1 S1                 0.0000
     24 ****        -3.0157   3.7029  -1.9824 H              1 S1                 0.0000
     25 ****        -0.6154  -1.1446   1.0214 H              1 S1                 0.0000
     26 ****        -0.8150  -1.4129  -0.6834 H              1 S1                 0.0000
     27 ****         1.4757  -0.2295  -1.0396 H              1 S1                 0.0000
     28 ****         2.7493  -0.1739   0.7997 H              1 S1                 0.0000
     29 ****         1.5568  -2.7923   1.7302 H              1 S1                 0.0000
     30 ****         2.3159  -5.1237   1.3651 H              1 S1                 0.0000
     31 ****         2.6257  -4.3707  -2.8664 H              1 S1                 0.0000
     32 ****         1.8718  -2.0354  -2.5115 H              1 S1                 0.0000
     33 ****        -0.7663   0.4553   2.7279 H              1 S1                 0.0000
     34 ****        -1.5137   2.4092   4.1052 H              1 S1                 0.0000
     35 ****        -2.3399   4.4829   3.0102 H              1 S1                 0.0000
     36 ****        -2.4345   4.6479   0.5084 H              1 S1                 0.0000
     37 ****        -1.1007   1.1978  -3.3020 LP             1 S1                 0.0000
     38 ****        -0.5367  -0.2516  -2.5398 LP             1 S1                 0.0000
     39 ****         1.6394  -0.7571   1.7790 LP             1 S1                 0.0000
     40 ****         1.4620   0.7139   1.0924 LP             1 S1                 0.0000
@<TRIPOS>BOND
    1    1    2 1     
    2    1   22 1     
    3    1   23 1     
    4    1   24 1     
    5    2   21 1     
    6    2    3 am    
    7    3    4 2     
    8    3    5 am    
    9    5    6 1     
   10    5   16 1     
   11    6    7 1     
   12    6   25 1     
   13    6   26 1     
   14    7    8 1     
   15    7    9 1     
   16    7   27 1     
   17    8   28 1     
   18    9   15 ar    
   19    9   10 ar    
   20   10   11 ar    
   21   10   29 1     
   22   11   12 ar    
   23   11   30 1     
   24   12   13 1     
   25   12   14 ar    
   26   14   15 ar    
   27   14   31 1     
   28   15   32 1     
   29   16   21 ar    
   30   16   17 ar    
   31   17   18 ar    
   32   17   33 1     
   33   18   19 ar    
   34   18   34 1     
   35   19   20 ar    
   36   19   35 1     
   37   20   21 ar    
   38   20   36 1     
   39    4   37 1     
   40    4   38 1     
   41    8   39 1     
   42    8   40 1     
@<TRIPOS>SUBSTRUCTURE
      1 S1             1
@<TRIPOS>SET
LONE_PAIRS      STATIC     ATOMS    <user>   **** ""
4 37 38 39 40
DONOR_HYDROGENS      STATIC     ATOMS    <user>   **** ""
1 28
ATOM$BLUE        STATIC     ATOMS    COLORGROUP SYSTEM
4 37 38 39 40
ATOM$RED        STATIC     ATOMS    COLORGROUP SYSTEM
1 28
