AV-unprocessed.smi:3249|AV-procd|sdf|12417|dock1
  -GOLD-   2272018303D 1   1.00000     0.00000
 Structure written by MMmdl.
 44 45  0  0  0  0  0  0  0  0  2 V2000
  146.1285  143.0415  155.1982 C   0  0  0  0  0  0  0  0  0  0  0  0
  146.8715  141.9572  154.4722 C   0  0  0  0  0  0  0  0  0  0  0  0
  148.2801  141.7997  154.3397 C   0  0  0  0  0  0  0  0  0  0  0  0
  148.6138  140.7296  153.6371 N   0  0  0  0  0  0  0  0  0  0  0  0
  147.4356  140.1664  153.2936 N   0  0  0  0  0  0  0  0  0  0  0  0
  147.4240  138.9356  152.5123 C   0  0  2  0  0  0  0  0  0  0  0  0
  147.0922  139.2529  151.0422 C   0  0  0  0  0  0  0  0  0  0  0  0
  146.4765  137.8685  153.1206 C   0  0  2  0  0  0  0  0  0  0  0  0
  146.6500  137.7079  154.6458 C   0  0  0  0  0  0  0  0  0  0  0  0
  146.6939  136.5679  152.4466 N   0  3  0  0  0  0  0  0  0  0  0  0
  145.9409  136.3734  151.1896 C   0  0  0  0  0  0  0  0  0  0  0  0
  145.8695  134.8859  150.8170 C   0  0  2  0  0  0  0  0  0  0  0  0
  144.8465  134.6239  149.6944 C   0  0  0  0  0  0  0  0  0  0  0  0
  144.7232  133.1216  149.4158 C   0  0  0  0  0  0  0  0  0  0  0  0
  144.4239  132.3781  150.7215 C   0  0  0  0  0  0  0  0  0  0  0  0
  145.4569  132.7511  151.7962 C   0  0  0  0  0  0  0  0  0  0  0  0
  145.4753  134.1634  151.9819 O   0  0  0  0  0  0  0  0  0  0  0  0
  146.3672  140.8881  153.7876 C   0  0  0  0  0  0  0  0  0  0  0  0
  146.7588  143.9121  155.3808 H   0  0  0  0  0  0  0  0  0  0  0  0
  145.7650  142.6991  156.1672 H   0  0  0  0  0  0  0  0  0  0  0  0
  145.2625  143.3862  154.6326 H   0  0  0  0  0  0  0  0  0  0  0  0
  149.0663  142.4273  154.7332 H   0  0  0  0  0  0  0  0  0  0  0  0
  148.4381  138.5308  152.5352 H   0  0  0  0  0  0  0  0  0  0  0  0
  147.1830  138.3695  150.4103 H   0  0  0  0  0  0  0  0  0  0  0  0
  147.7725  140.0062  150.6433 H   0  0  0  0  0  0  0  0  0  0  0  0
  146.0763  139.6341  150.9340 H   0  0  0  0  0  0  0  0  0  0  0  0
  145.4505  138.1864  152.9274 H   0  0  0  0  0  0  0  0  0  0  0  0
  146.4098  138.6273  155.1801 H   0  0  0  0  0  0  0  0  0  0  0  0
  147.6755  137.4370  154.8983 H   0  0  0  0  0  0  0  0  0  0  0  0
  145.9963  136.9363  155.0509 H   0  0  0  0  0  0  0  0  0  0  0  0
  147.6759  136.4987  152.2209 H   0  0  0  0  0  0  0  0  0  0  0  0
  144.9338  136.7805  151.2789 H   0  0  0  0  0  0  0  0  0  0  0  0
  146.4424  136.9292  150.3963 H   0  0  0  0  0  0  0  0  0  0  0  0
  146.8564  134.5485  150.4943 H   0  0  0  0  0  0  0  0  0  0  0  0
  143.8722  135.0203  149.9837 H   0  0  0  0  0  0  0  0  0  0  0  0
  145.1390  135.1479  148.7840 H   0  0  0  0  0  0  0  0  0  0  0  0
  143.9391  132.9329  148.6822 H   0  0  0  0  0  0  0  0  0  0  0  0
  145.6535  132.7489  148.9849 H   0  0  0  0  0  0  0  0  0  0  0  0
  143.4244  132.6396  151.0714 H   0  0  0  0  0  0  0  0  0  0  0  0
  144.4244  131.3009  150.5529 H   0  0  0  0  0  0  0  0  0  0  0  0
  145.2002  132.2752  152.7427 H   0  0  0  0  0  0  0  0  0  0  0  0
  146.4513  132.3963  151.5212 H   0  0  0  0  0  0  0  0  0  0  0  0
  145.3453  140.5829  153.6159 H   0  0  0  0  0  0  0  0  0  0  0  0
  146.4625  135.8252  153.0912 H   0  0  0  0  0  0  0  0  0  0  0  0
  1  2  1  0  0  0  0
  1 19  1  0  0  0  0
  1 20  1  0  0  0  0
  1 21  1  0  0  0  0
  2 18  2  0  0  0  0
  2  3  1  0  0  0  0
  3  4  2  0  0  0  0
  3 22  1  0  0  0  0
  4  5  1  0  0  0  0
  5  6  1  0  0  0  0
  5 18  1  0  0  0  0
  6  7  1  0  0  0  0
  6  8  1  0  0  0  0
  6 23  1  0  0  0  0
  7 24  1  0  0  0  0
  7 25  1  0  0  0  0
  7 26  1  0  0  0  0
  8  9  1  0  0  0  0
  8 10  1  0  0  0  0
  8 27  1  0  0  0  0
  9 28  1  0  0  0  0
  9 29  1  0  0  0  0
  9 30  1  0  0  0  0
 10 11  1  0  0  0  0
 10 31  1  0  0  0  0
 10 44  1  0  0  0  0
 11 12  1  0  0  0  0
 11 32  1  0  0  0  0
 11 33  1  0  0  0  0
 12 17  1  0  0  0  0
 12 13  1  0  0  0  0
 12 34  1  0  0  0  0
 13 14  1  0  0  0  0
 13 35  1  0  0  0  0
 13 36  1  0  0  0  0
 14 15  1  0  0  0  0
 14 37  1  0  0  0  0
 14 38  1  0  0  0  0
 15 16  1  0  0  0  0
 15 39  1  0  0  0  0
 15 40  1  0  0  0  0
 16 17  1  0  0  0  0
 16 41  1  0  0  0  0
 16 42  1  0  0  0  0
 18 43  1  0  0  0  0
M  CHG  1  10   1
M  END
> <s_m_source_file>
AV-unprocessed.smi

> <i_m_source_file_index>
3249

> <i_lp_mmshare_version>
43012

> <i_f3d_flags>
0

> <s_epik_input>
W0NIM11jMVtjSF1ubihbY0hdMSlbQ0BIXShbQ0gzXSlbQ0BIXShbQ0gzXSlbTkhdW0NIMl1bQ0BASF0yW0NIMl1bQ0gyXVtDSDJdW0NIMl1PMg==

> <s_epik_cmdline>
J2VwaWtfcHl0aG9uJywgJy1waCcsICc3LjAnLCAnLXRuJywgJzgnLCAnLW1hJywgJzIwMCcsICctbWV0YWxfYmluZGluZycsICctaW1hZScsICc8aW5maWxlLm1hZT4nLCAnLW9tYWUnLCAnPG91dGZpbGUubWFlPic=

> <r_lp_tautomer_probability>
1

> <r_epik_Ionization_Penalty>
0.00659207

> <r_epik_Ionization_Penalty_Charging>
0.00656881

> <r_epik_Ionization_Penalty_Neutral>
2.32662e-05

> <r_epik_State_Penalty>
0.0048654

> <r_epik_Charging_Adjusted_Penalty>
0.0114342

> <i_epik_Tot_Q>
1

> <i_epik_Tot_abs_Q>
1

> <r_epik_Metal_State_Penalty>
-0

> <b_epik_Metal_Only>
0

> <s_lp_Force_Field>
OPLS_2005

> <r_lp_Energy>
18.0263

> <b_lp_Chiralities_Consistent>
1

> <s_lp_Variant>
AV-unprocessed.smi:3249-1

> <Gold.Version>
5.8.1

> <Gold.Id.Protein>
6NUR|6NUR_protein|mol2

> <Gold.PLP.Fitness>
40.7123

> <Gold.PLP.PLP>
-30.7333

> <Gold.PLP.part.hbond>
-1.0000

> <Gold.PLP.part.metal>
0.0000

> <Gold.PLP.part.buried>
0.4038

> <Gold.PLP.part.nonpolar>
-30.1967

> <Gold.PLP.part.repulsive>
0.6459

> <Gold.PLP.ligand.clash>
0.0000

> <Gold.PLP.ligand.torsion>
0.9605

> <Gold.PLP.Chemscore.Hbond>
2.0000

> <Gold.PLP.Chemscore.CHOScore>
1.9341

> <Gold.PLP.Chemscore.Metal>
0.0000

> <Gold.Chemscore.Hbonds>
donor molecule, donor type, donor heavy atom, donor atom, acceptor molecule, acceptor atom, score
      L1  H    10    31       P1  7948  1.07
      L1  C     3    22       P1  8028  0.96
      L1  C    18    43       P1 10175  0.96

> <Gold.PLP.Chemscore.Internal.Correction>
0.0976

> <Gold.Rescore>
     Score         DG    S(hbond)    S(metal)    S(lipo)     H(rot)  DE(clash)    DE(int)     intcor
     12.28     -15.93       1.00        0.00      94.36       1.53       2.81       0.84       ----

> <Gold.Chemscore.Fitness>
12.2796

> <Gold.Chemscore.DG>
-15.9276

> <Gold.Chemscore.ZeroCoef>
-5.4800

> <Gold.Chemscore.Hbond>
0.9978

> <Gold.Chemscore.Metal>
0.0000

> <Gold.Chemscore.Lipo>
94.3593

> <Gold.Chemscore.Internal_Hbond>
0.0000

> <Gold.Chemscore.DEClash>
2.8098

> <Gold.Chemscore.DEInternal>
0.8382

> <Gold.Chemscore.Rot>
1.5333

> <Gold.Chemscore.Internal.Correction>
   9.000000E+99

> <Gold.Chemscore.Hbonds>
donor molecule, donor type, donor heavy atom, donor atom, acceptor molecule, acceptor atom, score
      L1  H    10    31       P1  7948  0.52

> <Gold.Chemscore.Hbond.Weighted>
-3.3327

> <Gold.Chemscore.Metal.Weighted>
-0.0000

> <Gold.Chemscore.Lipo.Weighted>
-11.0400

> <Gold.Chemscore.Internal_Hbond.Weighted>
0.0000

> <Gold.Chemscore.DEClash.Weighted>
2.8098

> <Gold.Chemscore.DEInternal.Weighted>
0.8382

> <Gold.Chemscore.Rot.Weighted>
3.9252

> <Gold.Chemscore.Internal.Correction.Weighted>
   9.000000E+99

> <Gold.Protein.RotatedTorsions>
[ 6907 6896 6895 6894 ] final  -42.12 input  -60.11 | X-H torsion
[ 7974 7965 7964 7962 ] final  135.52 input  175.53 | X-H torsion
[ 8008 7997 7996 7995 ] final  -24.75 input   59.86 | X-H torsion
[ 10167 10162 10161 10158 ] final -123.80 input  -65.29 | X-H torsion
[ 10718 10713 10712 10709 ] final   -5.24 input   66.30 | X-H torsion
[ 10763 10752 10751 10750 ] final  -31.76 input  -60.55 | X-H torsion
[ 11005 11000 10999 10996 ] final   81.60 input  -57.11 | X-H torsion

> <Gold.Protein.ActiveResidues>
 VAL166  LYS551  ARG553  GLY616  TRP617  ASP618  TYR619  PRO620  LYS621  CYS622 
 ASP623  PHE694  ASN695  SER759  ASP760  ASP761  ALA762  ILE779  LEU786  VAL792 
 PHE793  MET794  SER795  GLU796  ALA797  LYS798  CYS799  TRP800  GLU811  SER814 

> <Gold.Protein.RotatedAtoms>
  150.9589  134.8979  159.7717 H   0  0  0  0  0  0  0  0  0  0  0  0  # atno 6907 bound_to 6896
  152.5148  134.3701  159.9325 H   0  0  0  0  0  0  0  0  0  0  0  0  # atno 6908 bound_to 6896
  151.3714  133.3813  159.2735 H   0  0  0  0  0  0  0  0  0  0  0  0  # atno 6909 bound_to 6896
  144.9655  139.4662  143.5458 H   0  0  0  0  0  0  0  0  0  0  0  0  # atno 7974 bound_to 7965
  154.4512  140.1945  156.0512 H   0  0  0  0  0  0  0  0  0  0  0  0  # atno 8008 bound_to 7997
  156.0652  140.3291  155.7482 H   0  0  0  0  0  0  0  0  0  0  0  0  # atno 8009 bound_to 7997
  155.5349  140.0581  157.2872 H   0  0  0  0  0  0  0  0  0  0  0  0  # atno 8010 bound_to 7997
  139.9996  143.5555  152.2309 H   0  0  0  0  0  0  0  0  0  0  0  0  # atno 10167 bound_to 10162
  156.7495  130.5235  149.5807 H   0  0  0  0  0  0  0  0  0  0  0  0  # atno 10718 bound_to 10713
  153.8026  135.6889  153.4853 H   0  0  0  0  0  0  0  0  0  0  0  0  # atno 10763 bound_to 10752
  153.1679  135.4554  154.9860 H   0  0  0  0  0  0  0  0  0  0  0  0  # atno 10764 bound_to 10752
  154.8000  135.3334  154.7513 H   0  0  0  0  0  0  0  0  0  0  0  0  # atno 10765 bound_to 10752
  139.9092  134.8009  156.2063 H   0  0  0  0  0  0  0  0  0  0  0  0  # atno 11005 bound_to 11000
  146.3366  139.8834  142.8820 LP  0  0  0  0  0  0  0  0  0  0  0  0  # atno 17320 bound_to 7965
  145.2635  141.0085  143.3812 LP  0  0  0  0  0  0  0  0  0  0  0  0  # atno 17321 bound_to 7965
  139.6281  144.7640  151.2594 LP  0  0  0  0  0  0  0  0  0  0  0  0  # atno 17342 bound_to 10162
  140.7424  143.6528  150.8234 LP  0  0  0  0  0  0  0  0  0  0  0  0  # atno 17343 bound_to 10162
  156.1411  130.6245  151.0468 LP  0  0  0  0  0  0  0  0  0  0  0  0  # atno 17370 bound_to 10713
  157.6783  131.0844  150.7436 LP  0  0  0  0  0  0  0  0  0  0  0  0  # atno 17371 bound_to 10713
  141.0493  133.6897  156.1742 LP  0  0  0  0  0  0  0  0  0  0  0  0  # atno 17394 bound_to 11000
  140.6835  134.4742  157.5589 LP  0  0  0  0  0  0  0  0  0  0  0  0  # atno 17395 bound_to 11000

$$$$
