AV-unprocessed.smi:129|AV-procd|sdf|1157|dock3
  -GOLD-   2262018293D 1   1.00000     0.00000
 Structure written by MMmdl.
 58 61  0  0  0  0  0  0  0  0  1 V2000
  153.9216  141.2047  160.8503 C   0  0  0  0  0  0  0  0  0  0  0  0
  152.8045  141.3391  159.9838 O   0  0  0  0  0  0  0  0  0  0  0  0
  152.4254  142.6086  159.5942 C   0  0  0  0  0  0  0  0  0  0  0  0
  152.7138  143.7756  160.3476 C   0  0  0  0  0  0  0  0  0  0  0  0
  152.3035  145.0421  159.8926 C   0  0  0  0  0  0  0  0  0  0  0  0
  151.6079  145.1619  158.6778 C   0  0  0  0  0  0  0  0  0  0  0  0
  151.3151  144.0138  157.9204 C   0  0  0  0  0  0  0  0  0  0  0  0
  151.7069  142.7329  158.3803 C   0  0  0  0  0  0  0  0  0  0  0  0
  151.4498  141.5430  157.6433 N   0  0  0  0  0  0  0  0  0  0  0  0
  151.0442  141.4161  156.3653 C   0  0  0  0  0  0  0  0  0  0  0  0
  150.8810  142.3519  155.5822 O   0  0  0  0  0  0  0  0  0  0  0  0
  150.8377  140.0012  155.9027 C   0  0  0  0  0  0  0  0  0  0  0  0
  150.2561  139.7518  154.6404 C   0  0  0  0  0  0  0  0  0  0  0  0
  150.0276  138.4323  154.2067 C   0  0  0  0  0  0  0  0  0  0  0  0
  150.3759  137.3381  155.0238 C   0  0  0  0  0  0  0  0  0  0  0  0
  150.0863  136.0390  154.5249 N   0  0  0  0  0  0  0  0  0  0  0  0
  150.2999  134.8430  155.1028 C   0  0  0  0  0  0  0  0  0  0  0  0
  150.8478  134.6820  156.1941 O   0  0  0  0  0  0  0  0  0  0  0  0
  149.8288  133.6338  154.2786 C   0  0  0  0  0  0  0  0  0  0  0  0
  148.3580  133.5369  154.1517 N   0  0  0  0  0  0  0  0  0  0  0  0
  147.5659  133.6420  155.3220 C   0  0  0  0  0  0  0  0  0  0  0  0
  148.0807  133.8055  156.4291 O   0  0  0  0  0  0  0  0  0  0  0  0
  146.1251  133.5484  155.1173 C   0  0  0  0  0  0  0  0  0  0  0  0
  145.2973  133.6207  156.1735 F   0  0  0  0  0  0  0  0  0  0  0  0
  145.6067  133.3883  153.8823 C   0  0  0  0  0  0  0  0  0  0  0  0
  146.3913  133.3077  152.7454 N   0  0  0  0  0  0  0  0  0  0  0  0
  145.7938  133.1367  151.3643 C   0  0  2  0  0  0  0  0  0  0  0  0
  144.2548  133.1767  151.4301 C   0  0  0  0  0  0  0  0  0  0  0  0
  143.8536  131.9108  150.6987 C   0  0  0  0  0  0  0  0  0  0  0  0
  145.0427  131.0008  150.9660 C   0  0  0  0  0  0  0  0  0  0  0  0
  146.1475  131.8868  150.8436 O   0  0  0  0  0  0  0  0  0  0  0  0
  147.7966  133.3747  152.8627 C   0  0  0  0  0  0  0  0  0  0  0  0
  148.5138  133.3008  151.8623 O   0  0  0  0  0  0  0  0  0  0  0  0
  150.9389  137.5840  156.2991 C   0  0  0  0  0  0  0  0  0  0  0  0
  151.1680  138.9046  156.7322 C   0  0  0  0  0  0  0  0  0  0  0  0
  154.0893  140.1481  161.0582 H   0  0  0  0  0  0  0  0  0  0  0  0
  153.7490  141.7047  161.8041 H   0  0  0  0  0  0  0  0  0  0  0  0
  154.8308  141.5983  160.3938 H   0  0  0  0  0  0  0  0  0  0  0  0
  153.2524  143.7276  161.2816 H   0  0  0  0  0  0  0  0  0  0  0  0
  152.5299  145.9240  160.4736 H   0  0  0  0  0  0  0  0  0  0  0  0
  151.3033  146.1353  158.3225 H   0  0  0  0  0  0  0  0  0  0  0  0
  150.8004  144.1413  156.9806 H   0  0  0  0  0  0  0  0  0  0  0  0
  151.4811  140.6888  158.1809 H   0  0  0  0  0  0  0  0  0  0  0  0
  149.9796  140.5724  153.9940 H   0  0  0  0  0  0  0  0  0  0  0  0
  149.5808  138.2643  153.2375 H   0  0  0  0  0  0  0  0  0  0  0  0
  149.7151  136.0119  153.5864 H   0  0  0  0  0  0  0  0  0  0  0  0
  150.2995  133.6815  153.2952 H   0  0  0  0  0  0  0  0  0  0  0  0
  150.2440  132.7287  154.7246 H   0  0  0  0  0  0  0  0  0  0  0  0
  144.5327  133.3227  153.8019 H   0  0  0  0  0  0  0  0  0  0  0  0
  146.2363  133.9242  150.7517 H   0  0  0  0  0  0  0  0  0  0  0  0
  143.9187  133.1401  152.4677 H   0  0  0  0  0  0  0  0  0  0  0  0
  143.8672  134.0828  150.9638 H   0  0  0  0  0  0  0  0  0  0  0  0
  142.9096  131.4947  151.0510 H   0  0  0  0  0  0  0  0  0  0  0  0
  143.7660  132.1058  149.6292 H   0  0  0  0  0  0  0  0  0  0  0  0
  144.9975  130.5892  151.9751 H   0  0  0  0  0  0  0  0  0  0  0  0
  145.1102  130.1738  150.2590 H   0  0  0  0  0  0  0  0  0  0  0  0
  151.1848  136.7777  156.9725 H   0  0  0  0  0  0  0  0  0  0  0  0
  151.5875  139.0632  157.7153 H   0  0  0  0  0  0  0  0  0  0  0  0
  1  2  1  0  0  0  0
  1 36  1  0  0  0  0
  1 37  1  0  0  0  0
  1 38  1  0  0  0  0
  2  3  1  0  0  0  0
  3  8  1  0  0  0  0
  3  4  2  0  0  0  0
  4  5  1  0  0  0  0
  4 39  1  0  0  0  0
  5  6  2  0  0  0  0
  5 40  1  0  0  0  0
  6  7  1  0  0  0  0
  6 41  1  0  0  0  0
  7  8  2  0  0  0  0
  7 42  1  0  0  0  0
  8  9  1  0  0  0  0
  9 10  1  0  0  0  0
  9 43  1  0  0  0  0
 10 11  2  0  0  0  0
 10 12  1  0  0  0  0
 12 35  1  0  0  0  0
 12 13  2  0  0  0  0
 13 14  1  0  0  0  0
 13 44  1  0  0  0  0
 14 15  2  0  0  0  0
 14 45  1  0  0  0  0
 15 16  1  0  0  0  0
 15 34  1  0  0  0  0
 16 17  1  0  0  0  0
 16 46  1  0  0  0  0
 17 18  2  0  0  0  0
 17 19  1  0  0  0  0
 19 20  1  0  0  0  0
 19 47  1  0  0  0  0
 19 48  1  0  0  0  0
 20 32  1  0  0  0  0
 20 21  1  0  0  0  0
 21 22  2  0  0  0  0
 21 23  1  0  0  0  0
 23 24  1  0  0  0  0
 23 25  2  0  0  0  0
 25 26  1  0  0  0  0
 25 49  1  0  0  0  0
 26 27  1  0  0  0  0
 26 32  1  0  0  0  0
 27 31  1  0  0  0  0
 27 28  1  0  0  0  0
 27 50  1  0  0  0  0
 28 29  1  0  0  0  0
 28 51  1  0  0  0  0
 28 52  1  0  0  0  0
 29 30  1  0  0  0  0
 29 53  1  0  0  0  0
 29 54  1  0  0  0  0
 30 31  1  0  0  0  0
 30 55  1  0  0  0  0
 30 56  1  0  0  0  0
 32 33  2  0  0  0  0
 34 35  2  0  0  0  0
 34 57  1  0  0  0  0
 35 58  1  0  0  0  0
M  END
> <s_m_source_file>
AV-unprocessed.smi

> <i_m_source_file_index>
129

> <i_lp_mmshare_version>
43012

> <i_f3d_flags>
0

> <s_epik_input>
W0NIM11PYzFbY0hdW2NIXVtjSF1bY0hdYzFbTkhdQyg9TyljMltjSF1bY0hdYyhbY0hdW2NIXTIpW05IXUMoPU8pW0NIMl1uM2MoPU8pYyhGKVtjSF1uKGMzPU8pW0NAQEhdNFtDSDJdW0NIMl1bQ0gyXU80

> <s_epik_cmdline>
J2VwaWtfcHl0aG9uJywgJy1waCcsICc3LjAnLCAnLXRuJywgJzgnLCAnLW1hJywgJzIwMCcsICctbWV0YWxfYmluZGluZycsICctaW1hZScsICc8aW5maWxlLm1hZT4nLCAnLW9tYWUnLCAnPG91dGZpbGUubWFlPic=

> <r_lp_tautomer_probability>
1

> <r_epik_Ionization_Penalty>
2.57954e-06

> <r_epik_Ionization_Penalty_Charging>
3.88729e-08

> <r_epik_Ionization_Penalty_Neutral>
2.54066e-06

> <r_epik_State_Penalty>
-0

> <r_epik_Charging_Adjusted_Penalty>
3.88729e-08

> <i_epik_Tot_Q>
0

> <i_epik_Tot_abs_Q>
0

> <r_epik_Metal_State_Penalty>
-0

> <b_epik_Metal_Only>
0

> <s_epik_Chemistry_Notes>
This compound contains an acetal/aminal-like group ( X-CH(R)-Y where X, Y are N, S, or O) that may be acid/base labile, releasing an aldehyde.

> <s_lp_Force_Field>
OPLS_2005

> <r_lp_Energy>
50.6218

> <b_lp_Chiralities_Consistent>
1

> <s_lp_Variant>
AV-unprocessed.smi:129-1

> <Gold.Version>
5.8.1

> <Gold.Id.Protein>
6NUR|6NUR_protein|mol2

> <Gold.PLP.Fitness>
57.3928

> <Gold.PLP.PLP>
-52.4694

> <Gold.PLP.part.hbond>
-1.9504

> <Gold.PLP.part.metal>
0.0000

> <Gold.PLP.part.buried>
-3.5065

> <Gold.PLP.part.nonpolar>
-50.1253

> <Gold.PLP.part.repulsive>
2.8336

> <Gold.PLP.ligand.clash>
0.0000

> <Gold.PLP.ligand.torsion>
0.6161

> <Gold.PLP.Chemscore.Hbond>
1.0000

> <Gold.PLP.Chemscore.CHOScore>
1.0000

> <Gold.PLP.Chemscore.Metal>
0.0000

> <Gold.Chemscore.Hbonds>
donor molecule, donor type, donor heavy atom, donor atom, acceptor molecule, acceptor atom, score
      L1  H    16    46       P1  7948  0.95
      L1  C    25    49       P1 10957  0.78

> <Gold.PLP.Chemscore.Internal.Correction>
0.1555

> <Gold.Rescore>
     Score         DG    S(hbond)    S(metal)    S(lipo)     H(rot)  DE(clash)    DE(int)     intcor
     10.33     -17.92       0.32        0.00     139.64       1.94       0.74       6.84       ----

> <Gold.Chemscore.Fitness>
10.3345

> <Gold.Chemscore.DG>
-17.9196

> <Gold.Chemscore.ZeroCoef>
-5.4800

> <Gold.Chemscore.Hbond>
0.3221

> <Gold.Chemscore.Metal>
0.0000

> <Gold.Chemscore.Lipo>
139.6395

> <Gold.Chemscore.Internal_Hbond>
0.0000

> <Gold.Chemscore.DEClash>
0.7447

> <Gold.Chemscore.DEInternal>
6.8404

> <Gold.Chemscore.Rot>
1.9430

> <Gold.Chemscore.Internal.Correction>
   9.000000E+99

> <Gold.Chemscore.Hbonds>
donor molecule, donor type, donor heavy atom, donor atom, acceptor molecule, acceptor atom, score
      L1  H    16    46       P1  7948  0.22

> <Gold.Chemscore.Hbond.Weighted>
-1.0759

> <Gold.Chemscore.Metal.Weighted>
-0.0000

> <Gold.Chemscore.Lipo.Weighted>
-16.3378

> <Gold.Chemscore.Internal_Hbond.Weighted>
0.0000

> <Gold.Chemscore.DEClash.Weighted>
0.7447

> <Gold.Chemscore.DEInternal.Weighted>
6.8404

> <Gold.Chemscore.Rot.Weighted>
4.9741

> <Gold.Chemscore.Internal.Correction.Weighted>
   9.000000E+99

> <Gold.Protein.RotatedTorsions>
[ 6907 6896 6895 6894 ] final  122.89 input  -60.11 | X-H torsion
[ 7974 7965 7964 7962 ] final  107.97 input  175.53 | X-H torsion
[ 8008 7997 7996 7995 ] final -160.98 input   59.86 | X-H torsion
[ 10167 10162 10161 10158 ] final  104.78 input  -65.29 | X-H torsion
[ 10718 10713 10712 10709 ] final -169.39 input   66.30 | X-H torsion
[ 10763 10752 10751 10750 ] final  -70.44 input  -60.55 | X-H torsion
[ 11005 11000 10999 10996 ] final   97.16 input  -57.11 | X-H torsion

> <Gold.Protein.ActiveResidues>
 VAL166  LYS551  ARG553  GLY616  TRP617  ASP618  TYR619  PRO620  LYS621  CYS622 
 ASP623  PHE694  ASN695  SER759  ASP760  ASP761  ALA762  ILE779  LEU786  VAL792 
 PHE793  MET794  SER795  GLU796  ALA797  LYS798  CYS799  TRP800  GLU811  SER814 

> <Gold.Protein.RotatedAtoms>
  152.4206  133.7110  159.6478 H   0  0  0  0  0  0  0  0  0  0  0  0  # atno 6907 bound_to 6896
  150.8082  133.8459  159.3201 H   0  0  0  0  0  0  0  0  0  0  0  0  # atno 6908 bound_to 6896
  151.6177  135.1037  160.0146 H   0  0  0  0  0  0  0  0  0  0  0  0  # atno 6909 bound_to 6896
  145.2867  139.2614  143.3886 H   0  0  0  0  0  0  0  0  0  0  0  0  # atno 7974 bound_to 7965
  155.7854  140.0871  157.2037 H   0  0  0  0  0  0  0  0  0  0  0  0  # atno 8008 bound_to 7997
  154.3988  140.1500  156.3158 H   0  0  0  0  0  0  0  0  0  0  0  0  # atno 8009 bound_to 7997
  155.8612  140.3430  155.5760 H   0  0  0  0  0  0  0  0  0  0  0  0  # atno 8010 bound_to 7997
  139.7148  144.7070  151.0968 H   0  0  0  0  0  0  0  0  0  0  0  0  # atno 10167 bound_to 10162
  156.7108  130.9232  151.3089 H   0  0  0  0  0  0  0  0  0  0  0  0  # atno 10718 bound_to 10713
  154.4176  135.5994  153.5990 H   0  0  0  0  0  0  0  0  0  0  0  0  # atno 10763 bound_to 10752
  152.9792  135.5944  154.3994 H   0  0  0  0  0  0  0  0  0  0  0  0  # atno 10764 bound_to 10752
  154.3815  135.2841  155.2187 H   0  0  0  0  0  0  0  0  0  0  0  0  # atno 10765 bound_to 10752
  139.8777  134.8987  156.4265 H   0  0  0  0  0  0  0  0  0  0  0  0  # atno 11005 bound_to 11000
  146.3198  140.3348  142.8643 LP  0  0  0  0  0  0  0  0  0  0  0  0  # atno 17320 bound_to 7965
  144.9207  140.7864  143.5750 LP  0  0  0  0  0  0  0  0  0  0  0  0  # atno 17321 bound_to 7965
  140.7741  143.5244  150.9497 LP  0  0  0  0  0  0  0  0  0  0  0  0  # atno 17342 bound_to 10162
  139.8930  143.6929  152.3142 LP  0  0  0  0  0  0  0  0  0  0  0  0  # atno 17343 bound_to 10162
  157.6937  130.9259  150.0584 LP  0  0  0  0  0  0  0  0  0  0  0  0  # atno 17370 bound_to 10713
  156.1662  130.3645  149.9228 LP  0  0  0  0  0  0  0  0  0  0  0  0  # atno 17371 bound_to 10713
  140.9097  133.7721  155.9777 LP  0  0  0  0  0  0  0  0  0  0  0  0  # atno 17394 bound_to 11000
  140.8560  134.2897  157.5255 LP  0  0  0  0  0  0  0  0  0  0  0  0  # atno 17395 bound_to 11000

$$$$
