#       Name:                AV-unprocessed.smi:1682
#       Creating user name   scv26
#       Creation time:       Fri Mar 27 07:50:11 2020


#       File generated by GOLD software.
#

@<TRIPOS>MOLECULE
AV-unprocessed.smi:1682
    43    44     1
SMALL
NO_CHARGES


@<TRIPOS>ATOM
      1 ****        -0.9086   0.8573   1.5045 O.2            1 S1                 0.0000
      2 ****        -0.5372  -0.2060   1.0069 C.2            1 S1                 0.0000
      3 ****        -1.3858  -1.1534   0.5794 N.am           1 S1                 0.0000
      4 ****        -2.8426  -1.0610   0.6263 C.3            1 S1                 0.0000
      5 ****        -3.4203  -0.0474  -0.3832 C.3            1 S1                 0.0000
      6 ****        -2.9155  -0.2430  -1.8024 C.ar           1 S1                 0.0000
      7 ****        -1.9025   0.5692  -2.3582 C.ar           1 S1                 0.0000
      8 ****        -1.4736   0.3290  -3.6799 C.ar           1 S1                 0.0000
      9 ****        -2.0677  -0.7152  -4.4187 C.ar           1 S1                 0.0000
     10 ****        -3.0764  -1.4941  -3.8157 C.ar           1 S1                 0.0000
     11 ****        -3.4584  -1.2342  -2.5458 N.pl3          1 S1                 1.0000
     12 ****         0.9608  -0.4980   0.8291 C.3            1 S1                 0.0000
     13 ****         1.5971   0.4622  -0.1948 C.3            1 S1                 0.0000
     14 ****         2.5477   1.3088   0.6339 C.2            1 S1                 0.0000
     15 ****         3.1532   2.2737   0.1706 O.2            1 S1                 0.0000
     16 ****         2.6081   0.8695   1.8953 N.am           1 S1                 0.0000
     17 ****         3.3943   1.4543   2.9807 C.3            1 S1                 0.0000
     18 ****         4.8691   1.0137   2.9446 C.3            1 S1                 0.0000
     19 ****         5.4706   1.4252   1.8287 F              1 S1                 0.0000
     20 ****         5.5056   1.5457   3.9870 F              1 S1                 0.0000
     21 ****         4.9579  -0.3139   3.0259 F              1 S1                 0.0000
     22 ****         1.7677  -0.2937   2.1304 C.3            1 S1                 0.0000
     23 ****        -0.9938  -1.9985   0.1891 H              1 S1                 0.0000
     24 ****        -3.2369  -2.0537   0.4080 H              1 S1                 0.0000
     25 ****        -3.1689  -0.8164   1.6383 H              1 S1                 0.0000
     26 ****        -4.5091  -0.1112  -0.3826 H              1 S1                 0.0000
     27 ****        -3.1829   0.9683  -0.0646 H              1 S1                 0.0000
     28 ****        -1.4556   1.3640  -1.7781 H              1 S1                 0.0000
     29 ****        -0.6988   0.9387  -4.1215 H              1 S1                 0.0000
     30 ****        -1.7546  -0.9148  -5.4333 H              1 S1                 0.0000
     31 ****        -3.5854  -2.3108  -4.3068 H              1 S1                 0.0000
     32 ****         1.0832  -1.5280   0.4893 H              1 S1                 0.0000
     33 ****         2.1622  -0.0852  -0.9497 H              1 S1                 0.0000
     34 ****         0.8750   1.0975  -0.7103 H              1 S1                 0.0000
     35 ****         3.3290   2.5424   2.9320 H              1 S1                 0.0000
     36 ****         2.9515   1.1680   3.9357 H              1 S1                 0.0000
     37 ****         1.1347  -0.1389   3.0060 H              1 S1                 0.0000
     38 ****         2.3988  -1.1600   2.3326 H              1 S1                 0.0000
     39 ****        -4.1902  -1.8107  -2.1297 H              1 S1                 0.0000
     40 ****        -1.8851   1.0478   1.6059 LP             1 S1                 0.0000
     41 ****        -0.2338   1.5304   1.8073 LP             1 S1                 0.0000
     42 ****         3.0289   2.5284  -0.7884 LP             1 S1                 0.0000
     43 ****         3.7697   2.8036   0.7529 LP             1 S1                 0.0000
@<TRIPOS>BOND
    1    1    2 2     
    2    2    3 am    
    3    2   12 1     
    4    3    4 1     
    5    3   23 1     
    6    4    5 1     
    7    4   24 1     
    8    4   25 1     
    9    5    6 1     
   10    5   26 1     
   11    5   27 1     
   12    6   11 ar    
   13    6    7 ar    
   14    7    8 ar    
   15    7   28 1     
   16    8    9 ar    
   17    8   29 1     
   18    9   10 ar    
   19    9   30 1     
   20   10   11 ar    
   21   10   31 1     
   22   11   39 1     
   23   12   22 1     
   24   12   13 1     
   25   12   32 1     
   26   13   14 1     
   27   13   33 1     
   28   13   34 1     
   29   14   15 2     
   30   14   16 am    
   31   16   17 1     
   32   16   22 1     
   33   17   18 1     
   34   17   35 1     
   35   17   36 1     
   36   18   19 1     
   37   18   20 1     
   38   18   21 1     
   39   22   37 1     
   40   22   38 1     
   41    1   40 1     
   42    1   41 1     
   43   15   42 1     
   44   15   43 1     
@<TRIPOS>SUBSTRUCTURE
      1 S1             1
@<TRIPOS>SET
LONE_PAIRS      STATIC     ATOMS    <user>   **** ""
4 40 41 42 43
DONOR_HYDROGENS      STATIC     ATOMS    <user>   **** ""
2 23 39
ATOM$BLUE        STATIC     ATOMS    COLORGROUP SYSTEM
4 40 41 42 43
ATOM$RED        STATIC     ATOMS    COLORGROUP SYSTEM
2 23 39
