AV-unprocessed.smi:2448|AV-procd|sdf|9659|dock10
  -GOLD-   2272013293D 1   1.00000     0.00000
 Structure written by MMmdl.
 38 39  0  0  0  0  0  0  0  0  2 V2000
  147.1199  134.7795  153.1020 O   0  0  0  0  0  0  0  0  0  0  0  0
  146.2374  135.7652  153.6095 C   0  0  1  0  0  0  0  0  0  0  0  0
  146.9843  136.5640  154.6974 C   0  0  0  0  0  0  0  0  0  0  0  0
  148.3360  136.9367  154.2745 N   0  0  0  0  0  0  0  0  0  0  0  0
  149.3322  137.1205  155.3403 C   0  0  2  0  0  0  0  0  0  0  0  0
  150.4817  138.0818  154.9382 C   0  0  0  0  0  0  0  0  0  0  0  0
  150.1824  139.5638  155.0993 C   0  0  0  0  0  0  0  0  0  0  0  0
  150.9909  140.3694  155.9327 C   0  0  0  0  0  0  0  0  0  0  0  0
  150.6905  141.7400  156.0696 C   0  0  0  0  0  0  0  0  0  0  0  0
  149.6352  142.2664  155.4108 N   0  3  0  0  0  0  0  0  0  0  0  0
  148.8311  141.5316  154.6117 C   0  0  0  0  0  0  0  0  0  0  0  0
  149.0825  140.1553  154.4372 C   0  0  0  0  0  0  0  0  0  0  0  0
  149.8864  135.7441  155.7657 C   0  0  0  0  0  0  0  0  0  0  0  0
  150.9081  135.9074  156.6071 F   0  0  0  0  0  0  0  0  0  0  0  0
  148.9423  135.0205  156.3686 F   0  0  0  0  0  0  0  0  0  0  0  0
  150.3308  135.0762  154.7009 F   0  0  0  0  0  0  0  0  0  0  0  0
  145.8232  136.6637  152.4322 C   0  0  0  0  0  0  0  0  0  0  0  0
  144.8322  135.8791  151.5662 C   0  0  0  0  0  0  0  0  0  0  0  0
  143.8571  134.8272  152.6699 S   0  0  0  0  0  0  0  0  0  0  0  0
  144.9358  135.1046  154.1005 C   0  0  0  0  0  0  0  0  0  0  0  0
  147.8733  135.2108  152.7294 H   0  0  0  0  0  0  0  0  0  0  0  0
  146.4004  137.4451  154.9553 H   0  0  0  0  0  0  0  0  0  0  0  0
  147.0468  135.9552  155.6001 H   0  0  0  0  0  0  0  0  0  0  0  0
  148.6816  136.2546  153.6062 H   0  0  0  0  0  0  0  0  0  0  0  0
  148.8317  137.5223  156.2219 H   0  0  0  0  0  0  0  0  0  0  0  0
  151.3570  137.8842  155.5570 H   0  0  0  0  0  0  0  0  0  0  0  0
  150.7949  137.8740  153.9141 H   0  0  0  0  0  0  0  0  0  0  0  0
  151.8345  139.9460  156.4586 H   0  0  0  0  0  0  0  0  0  0  0  0
  151.2577  142.4251  156.6826 H   0  0  0  0  0  0  0  0  0  0  0  0
  148.0158  142.0622  154.1420 H   0  0  0  0  0  0  0  0  0  0  0  0
  148.4369  139.5649  153.8033 H   0  0  0  0  0  0  0  0  0  0  0  0
  145.3202  137.5526  152.8155 H   0  0  0  0  0  0  0  0  0  0  0  0
  146.6789  137.0118  151.8518 H   0  0  0  0  0  0  0  0  0  0  0  0
  144.1883  136.5360  150.9811 H   0  0  0  0  0  0  0  0  0  0  0  0
  145.3696  135.2348  150.8697 H   0  0  0  0  0  0  0  0  0  0  0  0
  145.1128  134.1749  154.6426 H   0  0  0  0  0  0  0  0  0  0  0  0
  144.4077  135.7793  154.7751 H   0  0  0  0  0  0  0  0  0  0  0  0
  149.4348  143.2605  155.5247 H   0  0  0  0  0  0  0  0  0  0  0  0
  1  2  1  0  0  0  0
  1 21  1  0  0  0  0
  2 20  1  0  0  0  0
  2  3  1  0  0  0  0
  2 17  1  0  0  0  0
  3  4  1  0  0  0  0
  3 22  1  0  0  0  0
  3 23  1  0  0  0  0
  4  5  1  0  0  0  0
  4 24  1  0  0  0  0
  5  6  1  0  0  0  0
  5 13  1  0  0  0  0
  5 25  1  0  0  0  0
  6  7  1  0  0  0  0
  6 26  1  0  0  0  0
  6 27  1  0  0  0  0
  7 12  1  0  0  0  0
  7  8  2  0  0  0  0
  8  9  1  0  0  0  0
  8 28  1  0  0  0  0
  9 10  2  0  0  0  0
  9 29  1  0  0  0  0
 10 11  1  0  0  0  0
 10 38  1  0  0  0  0
 11 12  2  0  0  0  0
 11 30  1  0  0  0  0
 12 31  1  0  0  0  0
 13 14  1  0  0  0  0
 13 15  1  0  0  0  0
 13 16  1  0  0  0  0
 17 18  1  0  0  0  0
 17 32  1  0  0  0  0
 17 33  1  0  0  0  0
 18 19  1  0  0  0  0
 18 34  1  0  0  0  0
 18 35  1  0  0  0  0
 19 20  1  0  0  0  0
 20 36  1  0  0  0  0
 20 37  1  0  0  0  0
M  CHG  1  10   1
M  END
> <s_m_source_file>
AV-unprocessed.smi

> <i_m_source_file_index>
2448

> <i_lp_mmshare_version>
43012

> <i_f3d_flags>
0

> <s_epik_input>
W0NIMl0xU1tDSDJdW0NIMl1bQ0BAXTEoW09IXSlbQ0gyXVtOSF1bQ0BASF0oQyhGKShGKUYpW0NIMl1jMltjSF1bY0hdbltjSF1bY0hdMg==

> <s_epik_cmdline>
J2VwaWtfcHl0aG9uJywgJy1waCcsICc3LjAnLCAnLXRuJywgJzgnLCAnLW1hJywgJzIwMCcsICctbWV0YWxfYmluZGluZycsICctaW1hZScsICc8aW5maWxlLm1hZT4nLCAnLW9tYWUnLCAnPG91dGZpbGUubWFlPic=

> <r_epik_Ionization_Penalty>
1.11129

> <r_epik_Ionization_Penalty_Charging>
1.08366

> <r_epik_Ionization_Penalty_Neutral>
0.0276276

> <r_epik_State_Penalty>
1.93785

> <r_epik_Charging_Adjusted_Penalty>
3.02151

> <i_epik_Tot_Q>
1

> <i_epik_Tot_abs_Q>
1

> <r_epik_Metal_State_Penalty>
5.97911

> <b_epik_Metal_Only>
0

> <s_lp_Force_Field>
OPLS_2005

> <r_lp_Energy>
39.4187

> <b_lp_Chiralities_Consistent>
1

> <s_lp_Variant>
AV-unprocessed.smi:2448-9

> <Gold.Version>
5.8.1

> <Gold.Id.Protein>
6NUR|6NUR_protein|mol2

> <Gold.PLP.Fitness>
40.4597

> <Gold.PLP.PLP>
-30.8003

> <Gold.PLP.part.hbond>
-3.0000

> <Gold.PLP.part.metal>
0.0000

> <Gold.PLP.part.buried>
-3.4599

> <Gold.PLP.part.nonpolar>
-24.7010

> <Gold.PLP.part.repulsive>
0.2001

> <Gold.PLP.ligand.clash>
0.0000

> <Gold.PLP.ligand.torsion>
0.9743

> <Gold.PLP.Chemscore.Hbond>
3.7360

> <Gold.PLP.Chemscore.CHOScore>
0.0000

> <Gold.PLP.Chemscore.Metal>
0.0000

> <Gold.Chemscore.Hbonds>
donor molecule, donor type, donor heavy atom, donor atom, acceptor molecule, acceptor atom, score
      L1  H     1    21       P1  7948  1.00
      L1  H     4    24       P1  7948  0.72
      L1  H    10    38       P1  8028  2.00

> <Gold.PLP.Chemscore.Internal.Correction>
0.3999

> <Gold.Rescore>
     Score         DG    S(hbond)    S(metal)    S(lipo)     H(rot)  DE(clash)    DE(int)     intcor
     14.69     -16.62       2.82        0.00      67.83       2.42       0.00       1.94       ----

> <Gold.Chemscore.Fitness>
14.6852

> <Gold.Chemscore.DG>
-16.6247

> <Gold.Chemscore.ZeroCoef>
-5.4800

> <Gold.Chemscore.Hbond>
2.8191

> <Gold.Chemscore.Metal>
0.0000

> <Gold.Chemscore.Lipo>
67.8295

> <Gold.Chemscore.Internal_Hbond>
0.0000

> <Gold.Chemscore.DEClash>
0.0028

> <Gold.Chemscore.DEInternal>
1.9367

> <Gold.Chemscore.Rot>
2.4247

> <Gold.Chemscore.Internal.Correction>
   9.000000E+99

> <Gold.Chemscore.Hbonds>
donor molecule, donor type, donor heavy atom, donor atom, acceptor molecule, acceptor atom, score
      L1  H     1    21       P1  7948  0.99
      L1  H     4    24       P1  7948  0.72
      L1  H    10    38       P1  8028  0.96

> <Gold.Chemscore.Hbond.Weighted>
-9.4159

> <Gold.Chemscore.Metal.Weighted>
-0.0000

> <Gold.Chemscore.Lipo.Weighted>
-7.9360

> <Gold.Chemscore.Internal_Hbond.Weighted>
0.0000

> <Gold.Chemscore.DEClash.Weighted>
0.0028

> <Gold.Chemscore.DEInternal.Weighted>
1.9367

> <Gold.Chemscore.Rot.Weighted>
6.2072

> <Gold.Chemscore.Internal.Correction.Weighted>
   9.000000E+99

> <Gold.Protein.RotatedTorsions>
[ 6907 6896 6895 6894 ] final -170.49 input  -60.11 | X-H torsion
[ 7974 7965 7964 7962 ] final -174.39 input  175.53 | X-H torsion
[ 8008 7997 7996 7995 ] final  -74.31 input   59.86 | X-H torsion
[ 10167 10162 10161 10158 ] final  -84.66 input  -65.29 | X-H torsion
[ 10718 10713 10712 10709 ] final -176.96 input   66.30 | X-H torsion
[ 10763 10752 10751 10750 ] final -123.11 input  -60.55 | X-H torsion
[ 11005 11000 10999 10996 ] final -151.57 input  -57.11 | X-H torsion

> <Gold.Protein.ActiveResidues>
 VAL166  LYS551  ARG553  GLY616  TRP617  ASP618  TYR619  PRO620  LYS621  CYS622 
 ASP623  PHE694  ASN695  SER759  ASP760  ASP761  ALA762  ILE779  LEU786  VAL792 
 PHE793  MET794  SER795  GLU796  ALA797  LYS798  CYS799  TRP800  GLU811  SER814 

> <Gold.Protein.RotatedAtoms>
  151.5086  133.3489  159.2880 H   0  0  0  0  0  0  0  0  0  0  0  0  # atno 6907 bound_to 6896
  150.8727  134.8106  159.7177 H   0  0  0  0  0  0  0  0  0  0  0  0  # atno 6908 bound_to 6896
  152.4709  134.4972  159.9765 H   0  0  0  0  0  0  0  0  0  0  0  0  # atno 6909 bound_to 6896
  144.7132  140.1479  143.6386 H   0  0  0  0  0  0  0  0  0  0  0  0  # atno 7974 bound_to 7965
  154.5320  140.0764  156.8361 H   0  0  0  0  0  0  0  0  0  0  0  0  # atno 8008 bound_to 7997
  155.3356  140.3404  155.4221 H   0  0  0  0  0  0  0  0  0  0  0  0  # atno 8009 bound_to 7997
  156.1790  140.1646  156.8296 H   0  0  0  0  0  0  0  0  0  0  0  0  # atno 8010 bound_to 7997
  140.4111  143.2622  151.9016 H   0  0  0  0  0  0  0  0  0  0  0  0  # atno 10167 bound_to 10162
  156.8225  130.9625  151.3111 H   0  0  0  0  0  0  0  0  0  0  0  0  # atno 10718 bound_to 10713
  154.8702  135.4109  154.2891 H   0  0  0  0  0  0  0  0  0  0  0  0  # atno 10763 bound_to 10752
  153.3770  135.7010  153.6599 H   0  0  0  0  0  0  0  0  0  0  0  0  # atno 10764 bound_to 10752
  153.5437  135.3643  155.2701 H   0  0  0  0  0  0  0  0  0  0  0  0  # atno 10765 bound_to 10752
  140.7281  134.3651  157.5171 H   0  0  0  0  0  0  0  0  0  0  0  0  # atno 11005 bound_to 11000
  145.9143  139.2506  143.1419 LP  0  0  0  0  0  0  0  0  0  0  0  0  # atno 17320 bound_to 7965
  145.9685  140.8779  143.0175 LP  0  0  0  0  0  0  0  0  0  0  0  0  # atno 17321 bound_to 7965
  139.4782  144.5535  151.8349 LP  0  0  0  0  0  0  0  0  0  0  0  0  # atno 17342 bound_to 10162
  140.4636  144.1686  150.5909 LP  0  0  0  0  0  0  0  0  0  0  0  0  # atno 17343 bound_to 10162
  157.6449  130.8836  149.9520 LP  0  0  0  0  0  0  0  0  0  0  0  0  # atno 17370 bound_to 10713
  156.0981  130.3658  150.0269 LP  0  0  0  0  0  0  0  0  0  0  0  0  # atno 17371 bound_to 10713
  139.8832  134.9000  156.2779 LP  0  0  0  0  0  0  0  0  0  0  0  0  # atno 17394 bound_to 11000
  140.9945  133.7189  156.0864 LP  0  0  0  0  0  0  0  0  0  0  0  0  # atno 17395 bound_to 11000

$$$$
