AV-unprocessed.smi:3308|AV-procd|sdf|12713|dock6
  -GOLD-   2272019 53D 1   1.00000     0.00000
 Structure written by MMmdl.
 40 41  0  0  0  0  0  0  0  0  1 V2000
  150.5685  138.5583  154.4476 C   0  0  0  0  0  0  0  0  0  0  0  0
  150.5559  139.3945  155.7460 C   0  0  1  0  0  0  0  0  0  0  0  0
  151.2195  140.6688  155.4868 N   0  0  0  0  0  0  0  0  0  0  0  0
  151.2791  141.5222  156.6803 C   0  0  0  0  0  0  0  0  0  0  0  0
  152.1839  140.9129  157.7558 C   0  0  0  0  0  0  0  0  0  0  0  0
  152.6733  139.8013  157.5552 O   0  0  0  0  0  0  0  0  0  0  0  0
  152.4145  141.6103  158.8887 N   0  0  0  0  0  0  0  0  0  0  0  0
  151.8671  142.9278  159.2129 C   0  0  0  0  0  0  0  0  0  0  0  0
  152.2186  143.1737  160.6804 C   0  0  0  0  0  0  0  0  0  0  0  0
  153.4514  142.3126  160.9179 C   0  0  0  0  0  0  0  0  0  0  0  0
  153.2647  141.1249  159.9739 C   0  0  0  0  0  0  0  0  0  0  0  0
  149.1236  139.6859  156.2690 C   0  0  2  0  0  0  0  0  0  0  0  0
  148.4027  138.4186  156.7659 C   0  0  0  0  0  0  0  0  0  0  0  0
  148.3032  140.3477  155.2618 N   0  0  0  0  0  0  0  0  0  0  0  0
  148.4013  141.6387  154.7815 C   0  0  0  0  0  0  0  0  0  0  0  0
  147.4200  141.8030  153.8466 C   0  0  0  0  0  0  0  0  0  0  0  0
  146.7671  140.5393  153.8171 C   0  0  0  0  0  0  0  0  0  0  0  0
  147.2986  139.6709  154.6620 N   0  0  0  0  0  0  0  0  0  0  0  0
  150.1350  137.5701  154.6006 H   0  0  0  0  0  0  0  0  0  0  0  0
  151.5779  138.3973  154.0706 H   0  0  0  0  0  0  0  0  0  0  0  0
  149.9978  139.0496  153.6586 H   0  0  0  0  0  0  0  0  0  0  0  0
  151.0959  138.8508  156.5236 H   0  0  0  0  0  0  0  0  0  0  0  0
  150.7346  141.1419  154.7375 H   0  0  0  0  0  0  0  0  0  0  0  0
  151.6718  142.5014  156.4015 H   0  0  0  0  0  0  0  0  0  0  0  0
  150.2850  141.6962  157.0906 H   0  0  0  0  0  0  0  0  0  0  0  0
  152.3417  143.6774  158.5780 H   0  0  0  0  0  0  0  0  0  0  0  0
  150.7891  142.9812  159.0563 H   0  0  0  0  0  0  0  0  0  0  0  0
  152.3887  144.2272  160.9038 H   0  0  0  0  0  0  0  0  0  0  0  0
  151.4026  142.8253  161.3152 H   0  0  0  0  0  0  0  0  0  0  0  0
  154.3451  142.8694  160.6329 H   0  0  0  0  0  0  0  0  0  0  0  0
  153.5635  142.0112  161.9598 H   0  0  0  0  0  0  0  0  0  0  0  0
  152.7541  140.3068  160.4841 H   0  0  0  0  0  0  0  0  0  0  0  0
  154.2239  140.7525  159.6108 H   0  0  0  0  0  0  0  0  0  0  0  0
  149.2074  140.3700  157.1165 H   0  0  0  0  0  0  0  0  0  0  0  0
  148.9328  137.9547  157.5977 H   0  0  0  0  0  0  0  0  0  0  0  0
  148.3128  137.6741  155.9744 H   0  0  0  0  0  0  0  0  0  0  0  0
  147.3969  138.6543  157.1158 H   0  0  0  0  0  0  0  0  0  0  0  0
  149.1514  142.3263  155.1447 H   0  0  0  0  0  0  0  0  0  0  0  0
  147.2026  142.6903  153.2707 H   0  0  0  0  0  0  0  0  0  0  0  0
  145.9288  140.2290  153.2109 H   0  0  0  0  0  0  0  0  0  0  0  0
  1  2  1  0  0  0  0
  1 19  1  0  0  0  0
  1 20  1  0  0  0  0
  1 21  1  0  0  0  0
  2  3  1  0  0  0  0
  2 12  1  0  0  0  0
  2 22  1  0  0  0  0
  3  4  1  0  0  0  0
  3 23  1  0  0  0  0
  4  5  1  0  0  0  0
  4 24  1  0  0  0  0
  4 25  1  0  0  0  0
  5  6  2  0  0  0  0
  5  7  1  0  0  0  0
  7 11  1  0  0  0  0
  7  8  1  0  0  0  0
  8  9  1  0  0  0  0
  8 26  1  0  0  0  0
  8 27  1  0  0  0  0
  9 10  1  0  0  0  0
  9 28  1  0  0  0  0
  9 29  1  0  0  0  0
 10 11  1  0  0  0  0
 10 30  1  0  0  0  0
 10 31  1  0  0  0  0
 11 32  1  0  0  0  0
 11 33  1  0  0  0  0
 12 13  1  0  0  0  0
 12 14  1  0  0  0  0
 12 34  1  0  0  0  0
 13 35  1  0  0  0  0
 13 36  1  0  0  0  0
 13 37  1  0  0  0  0
 14 18  1  0  0  0  0
 14 15  1  0  0  0  0
 15 16  2  0  0  0  0
 15 38  1  0  0  0  0
 16 17  1  0  0  0  0
 16 39  1  0  0  0  0
 17 18  2  0  0  0  0
 17 40  1  0  0  0  0
M  END
> <s_m_source_file>
AV-unprocessed.smi

> <i_m_source_file_index>
3308

> <i_lp_mmshare_version>
43012

> <i_f3d_flags>
0

> <s_epik_input>
bjFbY0hdW2NIXVtjSF1uMVtDQEBIXShbQ0gzXSlbQ0BIXShbQ0gzXSlbTkhdW0NIMl1DKD1PKU4yW0NIMl1bQ0gyXVtDSDJdW0NIMl0y

> <s_epik_cmdline>
J2VwaWtfcHl0aG9uJywgJy1waCcsICc3LjAnLCAnLXRuJywgJzgnLCAnLW1hJywgJzIwMCcsICctbWV0YWxfYmluZGluZycsICctaW1hZScsICc8aW5maWxlLm1hZT4nLCAnLW9tYWUnLCAnPG91dGZpbGUubWFlPic=

> <r_lp_tautomer_probability>
1

> <r_epik_Ionization_Penalty>
0.918676

> <r_epik_Ionization_Penalty_Charging>
0

> <r_epik_Ionization_Penalty_Neutral>
0.918676

> <r_epik_State_Penalty>
0.958258

> <r_epik_Charging_Adjusted_Penalty>
0.958258

> <i_epik_Tot_Q>
0

> <i_epik_Tot_abs_Q>
0

> <r_epik_Metal_State_Penalty>
0.956879

> <b_epik_Metal_Only>
0

> <s_lp_Force_Field>
OPLS_2005

> <r_lp_Energy>
35.768

> <b_lp_Chiralities_Consistent>
1

> <s_lp_Variant>
AV-unprocessed.smi:3308-6

> <Gold.Version>
5.8.1

> <Gold.Id.Protein>
6NUR|6NUR_protein|mol2

> <Gold.PLP.Fitness>
42.2782

> <Gold.PLP.PLP>
-34.0995

> <Gold.PLP.part.hbond>
-2.0000

> <Gold.PLP.part.metal>
0.0000

> <Gold.PLP.part.buried>
-4.8617

> <Gold.PLP.part.nonpolar>
-26.8185

> <Gold.PLP.part.repulsive>
0.0948

> <Gold.PLP.ligand.clash>
0.0000

> <Gold.PLP.ligand.torsion>
0.4033

> <Gold.PLP.Chemscore.Hbond>
1.0000

> <Gold.PLP.Chemscore.CHOScore>
1.9731

> <Gold.PLP.Chemscore.Metal>
0.0000

> <Gold.Chemscore.Hbonds>
donor molecule, donor type, donor heavy atom, donor atom, acceptor molecule, acceptor atom, score
      P1  H  7997  8010       L1     6  1.00
      L1  C    15    38       P1  8028  0.95
      L1  C    17    40       P1 10175  1.00

> <Gold.PLP.Chemscore.Internal.Correction>
0.0659

> <Gold.Rescore>
     Score         DG    S(hbond)    S(metal)    S(lipo)     H(rot)  DE(clash)    DE(int)     intcor
     12.77     -14.80       0.97        0.00      89.68       1.72       0.19       1.84       ----

> <Gold.Chemscore.Fitness>
12.7683

> <Gold.Chemscore.DG>
-14.7954

> <Gold.Chemscore.ZeroCoef>
-5.4800

> <Gold.Chemscore.Hbond>
0.9660

> <Gold.Chemscore.Metal>
0.0000

> <Gold.Chemscore.Lipo>
89.6757

> <Gold.Chemscore.Internal_Hbond>
0.0000

> <Gold.Chemscore.DEClash>
0.1891

> <Gold.Chemscore.DEInternal>
1.8380

> <Gold.Chemscore.Rot>
1.7200

> <Gold.Chemscore.Internal.Correction>
   9.000000E+99

> <Gold.Chemscore.Hbonds>
donor molecule, donor type, donor heavy atom, donor atom, acceptor molecule, acceptor atom, score
      P1  H  7997  8010       L1     6  0.60

> <Gold.Chemscore.Hbond.Weighted>
-3.2265

> <Gold.Chemscore.Metal.Weighted>
-0.0000

> <Gold.Chemscore.Lipo.Weighted>
-10.4921

> <Gold.Chemscore.Internal_Hbond.Weighted>
0.0000

> <Gold.Chemscore.DEClash.Weighted>
0.1891

> <Gold.Chemscore.DEInternal.Weighted>
1.8380

> <Gold.Chemscore.Rot.Weighted>
4.4031

> <Gold.Chemscore.Internal.Correction.Weighted>
   9.000000E+99

> <Gold.Protein.RotatedTorsions>
[ 6907 6896 6895 6894 ] final  -52.10 input  -60.11 | X-H torsion
[ 7974 7965 7964 7962 ] final  -43.35 input  175.53 | X-H torsion
[ 8008 7997 7996 7995 ] final   57.60 input   59.86 | X-H torsion
[ 10167 10162 10161 10158 ] final  -11.73 input  -65.29 | X-H torsion
[ 10718 10713 10712 10709 ] final   44.11 input   66.30 | X-H torsion
[ 10763 10752 10751 10750 ] final   18.91 input  -60.55 | X-H torsion
[ 11005 11000 10999 10996 ] final  129.22 input  -57.11 | X-H torsion

> <Gold.Protein.ActiveResidues>
 VAL166  LYS551  ARG553  GLY616  TRP617  ASP618  TYR619  PRO620  LYS621  CYS622 
 ASP623  PHE694  ASN695  SER759  ASP760  ASP761  ALA762  ILE779  LEU786  VAL792 
 PHE793  MET794  SER795  GLU796  ALA797  LYS798  CYS799  TRP800  GLU811  SER814 

> <Gold.Protein.RotatedAtoms>
  150.8549  134.7885  159.7037 H   0  0  0  0  0  0  0  0  0  0  0  0  # atno 6907 bound_to 6896
  152.4603  134.5195  159.9788 H   0  0  0  0  0  0  0  0  0  0  0  0  # atno 6908 bound_to 6896
  151.5309  133.3411  159.2953 H   0  0  0  0  0  0  0  0  0  0  0  0  # atno 6909 bound_to 6896
  146.0027  140.7056  142.9262 H   0  0  0  0  0  0  0  0  0  0  0  0  # atno 7974 bound_to 7965
  155.5364  140.3483  155.4437 H   0  0  0  0  0  0  0  0  0  0  0  0  # atno 8008 bound_to 7997
  156.0682  140.1356  156.9887 H   0  0  0  0  0  0  0  0  0  0  0  0  # atno 8009 bound_to 7997
  154.4514  140.0971  156.6604 H   0  0  0  0  0  0  0  0  0  0  0  0  # atno 8010 bound_to 7997
  140.7145  143.5608  150.9198 H   0  0  0  0  0  0  0  0  0  0  0  0  # atno 10167 bound_to 10162
  157.4233  130.7982  149.7535 H   0  0  0  0  0  0  0  0  0  0  0  0  # atno 10718 bound_to 10713
  153.1207  135.6718  153.9340 H   0  0  0  0  0  0  0  0  0  0  0  0  # atno 10763 bound_to 10752
  153.8856  135.3053  155.3447 H   0  0  0  0  0  0  0  0  0  0  0  0  # atno 10764 bound_to 10752
  154.7619  135.4983  153.9560 H   0  0  0  0  0  0  0  0  0  0  0  0  # atno 10765 bound_to 10752
  139.9603  134.9604  156.9116 H   0  0  0  0  0  0  0  0  0  0  0  0  # atno 11005 bound_to 11000
  144.6925  140.3261  143.7224 LP  0  0  0  0  0  0  0  0  0  0  0  0  # atno 17320 bound_to 7965
  145.7463  139.1779  143.2347 LP  0  0  0  0  0  0  0  0  0  0  0  0  # atno 17321 bound_to 7965
  139.9333  143.6467  152.3071 LP  0  0  0  0  0  0  0  0  0  0  0  0  # atno 17342 bound_to 10162
  139.6926  144.7645  151.1412 LP  0  0  0  0  0  0  0  0  0  0  0  0  # atno 17343 bound_to 10162
  155.9888  130.3956  150.3103 LP  0  0  0  0  0  0  0  0  0  0  0  0  # atno 17370 bound_to 10713
  157.1253  131.0257  151.2992 LP  0  0  0  0  0  0  0  0  0  0  0  0  # atno 17371 bound_to 10713
  140.5515  134.0622  155.7371 LP  0  0  0  0  0  0  0  0  0  0  0  0  # atno 17394 bound_to 11000
  141.1279  133.9351  157.2596 LP  0  0  0  0  0  0  0  0  0  0  0  0  # atno 17395 bound_to 11000

$$$$
