AV-unprocessed.smi:767|AV-procd|sdf|3668|dock8
  -GOLD-   22720 1 83D 1   1.00000     0.00000
 Structure written by MMmdl.
 48 50  0  0  0  0  0  0  0  0  2 V2000
  151.5526  143.5540  157.8710 C   0  0  0  0  0  0  0  0  0  0  0  0
  151.0934  142.3986  157.0073 C   0  0  0  0  0  0  0  0  0  0  0  0
  151.5468  141.0780  157.2134 C   0  0  0  0  0  0  0  0  0  0  0  0
  151.0828  140.0509  156.3658 C   0  0  0  0  0  0  0  0  0  0  0  0
  150.1754  140.3639  155.3295 C   0  0  0  0  0  0  0  0  0  0  0  0
  149.6908  139.2902  154.3702 C   0  0  0  0  0  0  0  0  0  0  0  0
  148.1548  139.1982  154.2703 C   0  0  0  0  0  0  0  0  0  0  0  0
  147.7075  137.9640  153.6277 N   0  0  0  0  0  0  0  0  0  0  0  0
  146.4867  137.4228  153.7510 C   0  0  0  0  0  0  0  0  0  0  0  0
  145.5850  137.9006  154.4401 O   0  0  0  0  0  0  0  0  0  0  0  0
  146.3577  136.3099  153.0178 N   0  0  0  0  0  0  0  0  0  0  0  0
  145.1229  135.5401  152.9134 C   0  0  1  0  0  0  0  0  0  0  0  0
  143.8723  136.4313  152.8679 C   0  0  2  0  0  0  0  0  0  0  0  0
  142.8811  136.3879  153.9986 C   0  0  0  0  0  0  0  0  0  0  0  0
  141.8427  135.3768  153.5040 C   0  0  0  0  0  0  0  0  0  0  0  0
  142.5269  134.6083  152.5166 O   0  0  0  0  0  0  0  0  0  0  0  0
  143.3595  135.5004  151.7792 C   0  0  2  0  0  0  0  0  0  0  0  0
  144.7986  135.0232  151.4891 C   0  0  0  0  0  0  0  0  0  0  0  0
  145.4721  135.7338  150.3062 C   0  0  0  0  0  0  0  0  0  0  0  0
  144.9752  133.5214  151.2596 C   0  0  0  0  0  0  0  0  0  0  0  0
  149.7491  141.7009  155.1782 C   0  0  0  0  0  0  0  0  0  0  0  0
  150.2187  142.6566  156.0094 N   0  3  0  0  0  0  0  0  0  0  0  0
  152.4621  143.2969  158.4148 H   0  0  0  0  0  0  0  0  0  0  0  0
  150.7810  143.8135  158.5963 H   0  0  0  0  0  0  0  0  0  0  0  0
  151.7614  144.4329  157.2600 H   0  0  0  0  0  0  0  0  0  0  0  0
  152.2456  140.8536  158.0059 H   0  0  0  0  0  0  0  0  0  0  0  0
  151.4322  139.0380  156.5029 H   0  0  0  0  0  0  0  0  0  0  0  0
  150.1115  139.4764  153.3811 H   0  0  0  0  0  0  0  0  0  0  0  0
  150.0934  138.3293  154.6930 H   0  0  0  0  0  0  0  0  0  0  0  0
  147.7233  139.2310  155.2708 H   0  0  0  0  0  0  0  0  0  0  0  0
  147.7577  140.0674  153.7429 H   0  0  0  0  0  0  0  0  0  0  0  0
  148.3775  137.4914  153.0385 H   0  0  0  0  0  0  0  0  0  0  0  0
  147.1506  135.9854  152.4837 H   0  0  0  0  0  0  0  0  0  0  0  0
  145.0305  134.7553  153.6681 H   0  0  0  0  0  0  0  0  0  0  0  0
  144.0785  137.4299  152.4784 H   0  0  0  0  0  0  0  0  0  0  0  0
  143.3539  136.0421  154.9184 H   0  0  0  0  0  0  0  0  0  0  0  0
  142.4295  137.3600  154.1986 H   0  0  0  0  0  0  0  0  0  0  0  0
  141.4547  134.7470  154.3049 H   0  0  0  0  0  0  0  0  0  0  0  0
  141.0022  135.8895  153.0341 H   0  0  0  0  0  0  0  0  0  0  0  0
  142.8441  136.0087  150.9629 H   0  0  0  0  0  0  0  0  0  0  0  0
  145.0124  135.4508  149.3588 H   0  0  0  0  0  0  0  0  0  0  0  0
  146.5328  135.4898  150.2392 H   0  0  0  0  0  0  0  0  0  0  0  0
  145.3930  136.8182  150.3865 H   0  0  0  0  0  0  0  0  0  0  0  0
  144.4866  133.1971  150.3403 H   0  0  0  0  0  0  0  0  0  0  0  0
  144.5489  132.9368  152.0752 H   0  0  0  0  0  0  0  0  0  0  0  0
  146.0287  133.2493  151.1889 H   0  0  0  0  0  0  0  0  0  0  0  0
  149.0664  142.0361  154.4111 H   0  0  0  0  0  0  0  0  0  0  0  0
  149.9041  143.6175  155.8732 H   0  0  0  0  0  0  0  0  0  0  0  0
  1  2  1  0  0  0  0
  1 23  1  0  0  0  0
  1 24  1  0  0  0  0
  1 25  1  0  0  0  0
  2 22  1  0  0  0  0
  2  3  2  0  0  0  0
  3  4  1  0  0  0  0
  3 26  1  0  0  0  0
  4  5  2  0  0  0  0
  4 27  1  0  0  0  0
  5  6  1  0  0  0  0
  5 21  1  0  0  0  0
  6  7  1  0  0  0  0
  6 28  1  0  0  0  0
  6 29  1  0  0  0  0
  7  8  1  0  0  0  0
  7 30  1  0  0  0  0
  7 31  1  0  0  0  0
  8  9  1  0  0  0  0
  8 32  1  0  0  0  0
  9 10  2  0  0  0  0
  9 11  1  0  0  0  0
 11 12  1  0  0  0  0
 11 33  1  0  0  0  0
 12 18  1  0  0  0  0
 12 13  1  0  0  0  0
 12 34  1  0  0  0  0
 13 17  1  0  0  0  0
 13 14  1  0  0  0  0
 13 35  1  0  0  0  0
 14 15  1  0  0  0  0
 14 36  1  0  0  0  0
 14 37  1  0  0  0  0
 15 16  1  0  0  0  0
 15 38  1  0  0  0  0
 15 39  1  0  0  0  0
 16 17  1  0  0  0  0
 17 18  1  0  0  0  0
 17 40  1  0  0  0  0
 18 19  1  0  0  0  0
 18 20  1  0  0  0  0
 19 41  1  0  0  0  0
 19 42  1  0  0  0  0
 19 43  1  0  0  0  0
 20 44  1  0  0  0  0
 20 45  1  0  0  0  0
 20 46  1  0  0  0  0
 21 22  2  0  0  0  0
 21 47  1  0  0  0  0
 22 48  1  0  0  0  0
M  CHG  1  22   1
M  END
> <s_m_source_file>
AV-unprocessed.smi

> <i_m_source_file_index>
767

> <i_lp_mmshare_version>
43012

> <i_f3d_flags>
0

> <s_epik_input>
W0NIM11jMVtjSF1bY0hdYyhbY0hdbjEpW0NIMl1bQ0gyXVtOSF1DKD1PKVtOSF1bQ0BIXTJDKFtDSDNdKShbQ0gzXSlbQ0BIXShbQ0BASF0yMylPW0NIMl1bQ0gyXTM=

> <s_epik_cmdline>
J2VwaWtfcHl0aG9uJywgJy1waCcsICc3LjAnLCAnLXRuJywgJzgnLCAnLW1hJywgJzIwMCcsICctbWV0YWxfYmluZGluZycsICctaW1hZScsICc8aW5maWxlLm1hZT4nLCAnLW9tYWUnLCAnPG91dGZpbGUubWFlPic=

> <r_epik_Ionization_Penalty>
1.41853

> <r_epik_Ionization_Penalty_Charging>
1.41848

> <r_epik_Ionization_Penalty_Neutral>
5.17407e-05

> <r_epik_State_Penalty>
1.50205

> <r_epik_Charging_Adjusted_Penalty>
2.92053

> <i_epik_Tot_Q>
1

> <i_epik_Tot_abs_Q>
1

> <r_epik_Metal_State_Penalty>
1.5544

> <b_epik_Metal_Only>
0

> <s_lp_Force_Field>
OPLS_2005

> <r_lp_Energy>
39.2779

> <b_lp_Chiralities_Consistent>
1

> <s_lp_Variant>
AV-unprocessed.smi:767-12

> <Gold.Version>
5.8.1

> <Gold.Id.Protein>
6NUR|6NUR_protein|mol2

> <Gold.PLP.Fitness>
45.9119

> <Gold.PLP.PLP>
-34.7784

> <Gold.PLP.part.hbond>
-2.9276

> <Gold.PLP.part.metal>
0.0000

> <Gold.PLP.part.buried>
-4.8274

> <Gold.PLP.part.nonpolar>
-28.1012

> <Gold.PLP.part.repulsive>
0.4379

> <Gold.PLP.ligand.clash>
0.0000

> <Gold.PLP.ligand.torsion>
0.5230

> <Gold.PLP.Chemscore.Hbond>
4.0000

> <Gold.PLP.Chemscore.CHOScore>
0.0000

> <Gold.PLP.Chemscore.Metal>
0.0000

> <Gold.Chemscore.Hbonds>
donor molecule, donor type, donor heavy atom, donor atom, acceptor molecule, acceptor atom, score
      L1  H     8    32       P1  7948  1.00
      L1  H    11    33       P1  7948  1.00
      L1  H    22    48       P1  8028  1.92

> <Gold.PLP.Chemscore.Internal.Correction>
0.1796

> <Gold.Rescore>
     Score         DG    S(hbond)    S(metal)    S(lipo)     H(rot)  DE(clash)    DE(int)     intcor
     20.18     -22.27       2.90        0.00      93.89       1.52       0.34       1.75       ----

> <Gold.Chemscore.Fitness>
20.1782

> <Gold.Chemscore.DG>
-22.2664

> <Gold.Chemscore.ZeroCoef>
-5.4800

> <Gold.Chemscore.Hbond>
2.9044

> <Gold.Chemscore.Metal>
0.0000

> <Gold.Chemscore.Lipo>
93.8912

> <Gold.Chemscore.Internal_Hbond>
0.0000

> <Gold.Chemscore.DEClash>
0.3401

> <Gold.Chemscore.DEInternal>
1.7481

> <Gold.Chemscore.Rot>
1.5233

> <Gold.Chemscore.Internal.Correction>
   9.000000E+99

> <Gold.Chemscore.Hbonds>
donor molecule, donor type, donor heavy atom, donor atom, acceptor molecule, acceptor atom, score
      L1  H     8    32       P1  7948  0.99
      L1  H    11    33       P1  7948  0.95
      L1  H    22    48       P1  8028  0.89

> <Gold.Chemscore.Hbond.Weighted>
-9.7007

> <Gold.Chemscore.Metal.Weighted>
-0.0000

> <Gold.Chemscore.Lipo.Weighted>
-10.9853

> <Gold.Chemscore.Internal_Hbond.Weighted>
0.0000

> <Gold.Chemscore.DEClash.Weighted>
0.3401

> <Gold.Chemscore.DEInternal.Weighted>
1.7481

> <Gold.Chemscore.Rot.Weighted>
3.8995

> <Gold.Chemscore.Internal.Correction.Weighted>
   9.000000E+99

> <Gold.Protein.RotatedTorsions>
[ 6907 6896 6895 6894 ] final   58.93 input  -60.11 | X-H torsion
[ 7974 7965 7964 7962 ] final  134.59 input  175.53 | X-H torsion
[ 8008 7997 7996 7995 ] final -167.94 input   59.86 | X-H torsion
[ 10167 10162 10161 10158 ] final  -26.30 input  -65.29 | X-H torsion
[ 10718 10713 10712 10709 ] final  154.97 input   66.30 | X-H torsion
[ 10763 10752 10751 10750 ] final  106.25 input  -60.55 | X-H torsion
[ 11005 11000 10999 10996 ] final   67.93 input  -57.11 | X-H torsion

> <Gold.Protein.ActiveResidues>
 VAL166  LYS551  ARG553  GLY616  TRP617  ASP618  TYR619  PRO620  LYS621  CYS622 
 ASP623  PHE694  ASN695  SER759  ASP760  ASP761  ALA762  ILE779  LEU786  VAL792 
 PHE793  MET794  SER795  GLU796  ALA797  LYS798  CYS799  TRP800  GLU811  SER814 

> <Gold.Protein.RotatedAtoms>
  152.3869  134.6503  160.0122 H   0  0  0  0  0  0  0  0  0  0  0  0  # atno 6907 bound_to 6896
  151.6749  133.3307  159.3213 H   0  0  0  0  0  0  0  0  0  0  0  0  # atno 6908 bound_to 6896
  150.7793  134.6767  159.6466 H   0  0  0  0  0  0  0  0  0  0  0  0  # atno 6909 bound_to 6896
  144.9749  139.4566  143.5415 H   0  0  0  0  0  0  0  0  0  0  0  0  # atno 7974 bound_to 7965
  155.8846  140.1014  157.1461 H   0  0  0  0  0  0  0  0  0  0  0  0  # atno 8008 bound_to 7997
  154.4008  140.1322  156.4303 H   0  0  0  0  0  0  0  0  0  0  0  0  # atno 8009 bound_to 7997
  155.7604  140.3463  155.5197 H   0  0  0  0  0  0  0  0  0  0  0  0  # atno 8010 bound_to 7997
  140.7283  143.4190  151.0981 H   0  0  0  0  0  0  0  0  0  0  0  0  # atno 10167 bound_to 10162
  157.2245  131.0726  151.1891 H   0  0  0  0  0  0  0  0  0  0  0  0  # atno 10718 bound_to 10713
  153.3904  135.3883  155.1919 H   0  0  0  0  0  0  0  0  0  0  0  0  # atno 10763 bound_to 10752
  154.8718  135.3747  154.4744 H   0  0  0  0  0  0  0  0  0  0  0  0  # atno 10764 bound_to 10752
  153.5230  135.7086  153.5783 H   0  0  0  0  0  0  0  0  0  0  0  0  # atno 10765 bound_to 10752
  139.9741  134.6851  156.0388 H   0  0  0  0  0  0  0  0  0  0  0  0  # atno 11005 bound_to 11000
  146.3392  139.8984  142.8798 LP  0  0  0  0  0  0  0  0  0  0  0  0  # atno 17320 bound_to 7965
  145.2505  141.0042  143.3884 LP  0  0  0  0  0  0  0  0  0  0  0  0  # atno 17321 bound_to 7965
  139.7834  143.8323  152.3141 LP  0  0  0  0  0  0  0  0  0  0  0  0  # atno 17342 bound_to 10162
  139.8282  144.7266  150.9485 LP  0  0  0  0  0  0  0  0  0  0  0  0  # atno 17343 bound_to 10162
  157.3541  130.7097  149.6459 LP  0  0  0  0  0  0  0  0  0  0  0  0  # atno 17370 bound_to 10713
  155.9680  130.4244  150.4606 LP  0  0  0  0  0  0  0  0  0  0  0  0  # atno 17371 bound_to 10713
  141.1419  133.6563  156.3756 LP  0  0  0  0  0  0  0  0  0  0  0  0  # atno 17394 bound_to 11000
  140.5231  134.6285  157.5325 LP  0  0  0  0  0  0  0  0  0  0  0  0  # atno 17395 bound_to 11000

$$$$
