#       Name:                AV-unprocessed.smi:2142
#       Creating user name   scv26
#       Creation time:       Fri Mar 27 11:48:54 2020


#       File generated by GOLD software.
#

@<TRIPOS>MOLECULE
AV-unprocessed.smi:2142
    50    51     1
SMALL
NO_CHARGES


@<TRIPOS>ATOM
      1 ****        -4.1911   7.0326   0.9441 C.3            1 S1                 0.0000
      2 ****        -3.7835   5.6914   0.7385 O.3            1 S1                 0.0000
      3 ****        -3.0005   5.5354  -0.4334 C.3            1 S1                 0.0000
      4 ****        -2.6079   4.0629  -0.5877 C.3            1 S1                 0.0000
      5 ****        -1.5887   3.7547   0.3587 O.3            1 S1                 0.0000
      6 ****        -1.0673   2.4769   0.3714 C.ar           1 S1                 0.0000
      7 ****        -0.0450   2.1754   1.2911 C.ar           1 S1                 0.0000
      8 ****         0.4938   0.8750   1.2999 C.ar           1 S1                 0.0000
      9 ****         0.0069  -0.0924   0.3935 C.ar           1 S1                 0.0000
     10 ****         0.4956  -1.3425   0.3697 N.pl3          1 S1                -1.0000
     11 ****         1.5338  -1.6607  -0.4498 C.2            1 S1                 0.0000
     12 ****         2.0918  -0.8612  -1.2054 O.2            1 S1                 0.0000
     13 ****         2.0557  -3.0573  -0.4723 C.2            1 S1                 0.0000
     14 ****         1.4569  -3.9761   0.2192 N.2            1 S1                 0.0000
     15 ****         1.8796  -5.2894   0.2203 N.am           1 S1                 0.0000
     16 ****         0.9420  -6.2341   0.8237 C.3            1 S1                 0.0000
     17 ****         3.0732  -5.7151  -0.2616 C.2            1 S1                 0.0000
     18 ****         3.4280  -6.8940  -0.2676 O.2            1 S1                 0.0000
     19 ****         4.0192  -4.6348  -0.7918 C.3            1 S1                 0.0000
     20 ****         3.2590  -3.4068  -1.3301 C.3            1 S1                 0.0000
     21 ****        -1.0266   0.3177  -0.4792 C.ar           1 S1                 0.0000
     22 ****        -1.5536   1.5606  -0.5001 N.ar           1 S1                 0.0000
     23 ****        -4.7827   7.0999   1.8571 H              1 S1                 0.0000
     24 ****        -4.8063   7.3892   0.1169 H              1 S1                 0.0000
     25 ****        -3.3305   7.6943   1.0511 H              1 S1                 0.0000
     26 ****        -3.5871   5.8457  -1.2992 H              1 S1                 0.0000
     27 ****        -2.1108   6.1661  -0.3973 H              1 S1                 0.0000
     28 ****        -3.4814   3.4226  -0.4545 H              1 S1                 0.0000
     29 ****        -2.2246   3.9024  -1.5967 H              1 S1                 0.0000
     30 ****         0.3216   2.9264   1.9748 H              1 S1                 0.0000
     31 ****         1.2807   0.6246   1.9966 H              1 S1                 0.0000
     32 ****         1.3967  -6.7331   1.6806 H              1 S1                 0.0000
     33 ****         0.6464  -6.9956   0.1009 H              1 S1                 0.0000
     34 ****         0.0329  -5.7415   1.1727 H              1 S1                 0.0000
     35 ****         4.6652  -4.3328   0.0334 H              1 S1                 0.0000
     36 ****         4.6680  -5.0486  -1.5644 H              1 S1                 0.0000
     37 ****         2.9291  -3.5913  -2.3530 H              1 S1                 0.0000
     38 ****         3.9574  -2.5706  -1.3777 H              1 S1                 0.0000
     39 ****        -1.4450  -0.3773  -1.1928 H              1 S1                 0.0000
     40 ****        -4.5984   5.1173   0.6586 LP             1 S1                 0.0000
     41 ****        -3.2436   5.3959   1.5266 LP             1 S1                 0.0000
     42 ****        -1.9676   3.9282   1.2678 LP             1 S1                 0.0000
     43 ****        -0.8287   4.3821   0.1891 LP             1 S1                 0.0000
     44 ****         0.0939  -2.0442   0.9581 LP             1 S1                 0.0000
     45 ****         1.7851   0.0900  -1.2417 LP             1 S1                 0.0000
     46 ****         2.8508  -1.1641  -1.7817 LP             1 S1                 0.0000
     47 ****         0.6615  -3.7242   0.7706 LP             1 S1                 0.0000
     48 ****         2.8217  -7.6004   0.0975 LP             1 S1                 0.0000
     49 ****         4.3224  -7.1450  -0.6376 LP             1 S1                 0.0000
     50 ****        -2.2831   1.7984  -1.1414 LP             1 S1                 0.0000
@<TRIPOS>BOND
    1    1    2 1     
    2    1   23 1     
    3    1   24 1     
    4    1   25 1     
    5    2    3 1     
    6    3    4 1     
    7    3   26 1     
    8    3   27 1     
    9    4    5 1     
   10    4   28 1     
   11    4   29 1     
   12    5    6 1     
   13    6   22 ar    
   14    6    7 ar    
   15    7    8 ar    
   16    7   30 1     
   17    8    9 ar    
   18    8   31 1     
   19    9   10 1     
   20    9   21 ar    
   21   10   11 1     
   22   11   12 2     
   23   11   13 1     
   24   13   20 1     
   25   13   14 2     
   26   14   15 1     
   27   15   16 1     
   28   15   17 am    
   29   16   32 1     
   30   16   33 1     
   31   16   34 1     
   32   17   18 2     
   33   17   19 1     
   34   19   20 1     
   35   19   35 1     
   36   19   36 1     
   37   20   37 1     
   38   20   38 1     
   39   21   22 ar    
   40   21   39 1     
   41    2   40 1     
   42    2   41 1     
   43    5   42 1     
   44    5   43 1     
   45   10   44 1     
   46   12   45 1     
   47   12   46 1     
   48   14   47 1     
   49   18   48 1     
   50   18   49 1     
   51   22   50 1     
@<TRIPOS>SUBSTRUCTURE
      1 S1             1
@<TRIPOS>SET
LONE_PAIRS      STATIC     ATOMS    <user>   **** ""
11 40 41 42 43 44 45 46 47 48 49 50
ATOM$BLUE        STATIC     ATOMS    COLORGROUP SYSTEM
11 40 41 42 43 44 45 46 47 48 49 50
