AV-unprocessed.smi:3306|AV-procd|sdf|12705|dock3
  -GOLD-   2272019 43D 1   1.00000     0.00000
 Structure written by MMmdl.
 44 45  0  0  0  0  0  0  0  0  2 V2000
  147.2774  135.0294  154.2181 C   0  0  0  0  0  0  0  0  0  0  0  0
  148.4797  135.5940  155.0046 C   0  0  0  0  0  0  0  0  0  0  0  0
  148.1355  135.5529  156.5091 C   0  0  0  0  0  0  0  0  0  0  0  0
  148.8737  136.9619  154.5305 N   0  3  2  0  0  0  0  0  0  0  0  0
  150.1026  137.4773  155.2010 C   0  0  0  0  0  0  0  0  0  0  0  0
  150.5634  138.8252  154.6197 C   0  0  0  0  0  0  0  0  0  0  0  0
  149.4567  139.8936  154.6716 C   0  0  2  0  0  0  0  0  0  0  0  0
  149.1641  140.3301  156.0318 N   0  0  0  0  0  0  0  0  0  0  0  0
  150.1768  141.2213  156.5817 C   0  0  0  0  0  0  0  0  0  0  0  0
  149.7940  141.6524  158.0080 C   0  0  0  0  0  0  0  0  0  0  0  0
  150.5799  142.8585  158.4988 C   0  0  0  0  0  0  0  0  0  0  0  0
  151.5398  143.4742  157.6673 C   0  0  0  0  0  0  0  0  0  0  0  0
  152.2589  144.5750  158.1718 C   0  0  0  0  0  0  0  0  0  0  0  0
  151.9942  145.0147  159.4831 C   0  0  0  0  0  0  0  0  0  0  0  0
  151.0168  144.3322  160.2341 C   0  0  0  0  0  0  0  0  0  0  0  0
  150.3221  143.2759  159.7600 N   0  0  0  0  0  0  0  0  0  0  0  0
  148.1779  139.3347  154.0328 C   0  0  0  0  0  0  0  0  0  0  0  0
  147.7730  137.9659  154.6126 C   0  0  0  0  0  0  0  0  0  0  0  0
  146.9245  134.0959  154.6574 H   0  0  0  0  0  0  0  0  0  0  0  0
  147.5268  134.7945  153.1844 H   0  0  0  0  0  0  0  0  0  0  0  0
  146.4395  135.7274  154.2174 H   0  0  0  0  0  0  0  0  0  0  0  0
  149.3282  134.9265  154.8451 H   0  0  0  0  0  0  0  0  0  0  0  0
  147.7372  134.5784  156.7937 H   0  0  0  0  0  0  0  0  0  0  0  0
  147.3854  136.3011  156.7679 H   0  0  0  0  0  0  0  0  0  0  0  0
  149.0109  135.7106  157.1385 H   0  0  0  0  0  0  0  0  0  0  0  0
  149.9213  137.5722  156.2731 H   0  0  0  0  0  0  0  0  0  0  0  0
  150.9317  136.7832  155.0832 H   0  0  0  0  0  0  0  0  0  0  0  0
  151.4688  139.1580  155.1250 H   0  0  0  0  0  0  0  0  0  0  0  0
  150.8520  138.6744  153.5788 H   0  0  0  0  0  0  0  0  0  0  0  0
  149.7681  140.7693  154.1001 H   0  0  0  0  0  0  0  0  0  0  0  0
  148.2706  140.8010  156.0568 H   0  0  0  0  0  0  0  0  0  0  0  0
  151.1547  140.7425  156.6043 H   0  0  0  0  0  0  0  0  0  0  0  0
  150.2625  142.0977  155.9384 H   0  0  0  0  0  0  0  0  0  0  0  0
  148.7312  141.8951  158.0379 H   0  0  0  0  0  0  0  0  0  0  0  0
  149.9307  140.8220  158.7026 H   0  0  0  0  0  0  0  0  0  0  0  0
  151.7244  143.1108  156.6668 H   0  0  0  0  0  0  0  0  0  0  0  0
  153.0010  145.0721  157.5645 H   0  0  0  0  0  0  0  0  0  0  0  0
  152.5260  145.8559  159.9028 H   0  0  0  0  0  0  0  0  0  0  0  0
  150.7878  144.6417  161.2430 H   0  0  0  0  0  0  0  0  0  0  0  0
  147.3564  140.0447  154.1392 H   0  0  0  0  0  0  0  0  0  0  0  0
  148.3404  139.2256  152.9597 H   0  0  0  0  0  0  0  0  0  0  0  0
  146.9027  137.6362  154.0484 H   0  0  0  0  0  0  0  0  0  0  0  0
  147.4570  138.0729  155.6517 H   0  0  0  0  0  0  0  0  0  0  0  0
  149.0980  136.8683  153.5502 H   0  0  0  0  0  0  0  0  0  0  0  0
  1  2  1  0  0  0  0
  1 19  1  0  0  0  0
  1 20  1  0  0  0  0
  1 21  1  0  0  0  0
  2  3  1  0  0  0  0
  2  4  1  0  0  0  0
  2 22  1  0  0  0  0
  3 23  1  0  0  0  0
  3 24  1  0  0  0  0
  3 25  1  0  0  0  0
  4 18  1  0  0  0  0
  4  5  1  0  0  0  0
  4 44  1  0  0  0  0
  5  6  1  0  0  0  0
  5 26  1  0  0  0  0
  5 27  1  0  0  0  0
  6  7  1  0  0  0  0
  6 28  1  0  0  0  0
  6 29  1  0  0  0  0
  7  8  1  0  0  0  0
  7 17  1  0  0  0  0
  7 30  1  0  0  0  0
  8  9  1  0  0  0  0
  8 31  1  0  0  0  0
  9 10  1  0  0  0  0
  9 32  1  0  0  0  0
  9 33  1  0  0  0  0
 10 11  1  0  0  0  0
 10 34  1  0  0  0  0
 10 35  1  0  0  0  0
 11 16  1  0  0  0  0
 11 12  2  0  0  0  0
 12 13  1  0  0  0  0
 12 36  1  0  0  0  0
 13 14  2  0  0  0  0
 13 37  1  0  0  0  0
 14 15  1  0  0  0  0
 14 38  1  0  0  0  0
 15 16  2  0  0  0  0
 15 39  1  0  0  0  0
 17 18  1  0  0  0  0
 17 40  1  0  0  0  0
 17 41  1  0  0  0  0
 18 42  1  0  0  0  0
 18 43  1  0  0  0  0
M  CHG  1   4   1
M  END
> <s_m_source_file>
AV-unprocessed.smi

> <i_m_source_file_index>
3306

> <i_lp_mmshare_version>
43012

> <i_f3d_flags>
0

> <s_epik_input>
W0NIM11bQ0hdKFtDSDNdKU4xW0NIMl1bQ0gyXVtDSF0oW0NIMl1bQ0gyXTEpW05IXVtDSDJdW0NIMl1jMltjSF1bY0hdW2NIXVtjSF1uMg==

> <s_epik_cmdline>
J2VwaWtfcHl0aG9uJywgJy1waCcsICc3LjAnLCAnLXRuJywgJzgnLCAnLW1hJywgJzIwMCcsICctbWV0YWxfYmluZGluZycsICctaW1hZScsICc8aW5maWxlLm1hZT4nLCAnLW9tYWUnLCAnPG91dGZpbGUubWFlPic=

> <r_epik_Ionization_Penalty>
2.29993

> <r_epik_Ionization_Penalty_Charging>
0.000386008

> <r_epik_Ionization_Penalty_Neutral>
2.29954

> <r_epik_State_Penalty>
2.40593

> <r_epik_Charging_Adjusted_Penalty>
2.40631

> <i_epik_Tot_Q>
1

> <i_epik_Tot_abs_Q>
1

> <r_epik_Metal_State_Penalty>
2.31593

> <b_epik_Metal_Only>
0

> <s_lp_Force_Field>
OPLS_2005

> <r_lp_Energy>
27.2023

> <b_lp_Chiralities_Consistent>
1

> <s_lp_Variant>
AV-unprocessed.smi:3306-5

> <Gold.Version>
5.8.1

> <Gold.Id.Protein>
6NUR|6NUR_protein|mol2

> <Gold.PLP.Fitness>
43.8565

> <Gold.PLP.PLP>
-38.1643

> <Gold.PLP.part.hbond>
-2.0679

> <Gold.PLP.part.metal>
0.0000

> <Gold.PLP.part.buried>
-4.5607

> <Gold.PLP.part.nonpolar>
-31.2847

> <Gold.PLP.part.repulsive>
0.0685

> <Gold.PLP.ligand.clash>
0.0000

> <Gold.PLP.ligand.torsion>
0.2032

> <Gold.PLP.Chemscore.Hbond>
2.0000

> <Gold.PLP.Chemscore.CHOScore>
0.0000

> <Gold.PLP.Chemscore.Metal>
0.0000

> <Gold.Chemscore.Hbonds>
donor molecule, donor type, donor heavy atom, donor atom, acceptor molecule, acceptor atom, score
      L1  H     4    44       P1  7948  2.00

> <Gold.PLP.Chemscore.Internal.Correction>
0.0986

> <Gold.Rescore>
     Score         DG    S(hbond)    S(metal)    S(lipo)     H(rot)  DE(clash)    DE(int)     intcor
     17.79     -18.21       0.96        0.00     112.29       1.41       0.21       0.20       ----

> <Gold.Chemscore.Fitness>
17.7908

> <Gold.Chemscore.DG>
-18.2058

> <Gold.Chemscore.ZeroCoef>
-5.4800

> <Gold.Chemscore.Hbond>
0.9556

> <Gold.Chemscore.Metal>
0.0000

> <Gold.Chemscore.Lipo>
112.2931

> <Gold.Chemscore.Internal_Hbond>
0.0000

> <Gold.Chemscore.DEClash>
0.2113

> <Gold.Chemscore.DEInternal>
0.2037

> <Gold.Chemscore.Rot>
1.4078

> <Gold.Chemscore.Internal.Correction>
   9.000000E+99

> <Gold.Chemscore.Hbonds>
donor molecule, donor type, donor heavy atom, donor atom, acceptor molecule, acceptor atom, score
      L1  H     4    44       P1  7948  0.99

> <Gold.Chemscore.Hbond.Weighted>
-3.1916

> <Gold.Chemscore.Metal.Weighted>
-0.0000

> <Gold.Chemscore.Lipo.Weighted>
-13.1383

> <Gold.Chemscore.Internal_Hbond.Weighted>
0.0000

> <Gold.Chemscore.DEClash.Weighted>
0.2113

> <Gold.Chemscore.DEInternal.Weighted>
0.2037

> <Gold.Chemscore.Rot.Weighted>
3.6041

> <Gold.Chemscore.Internal.Correction.Weighted>
   9.000000E+99

> <Gold.Protein.RotatedTorsions>
[ 6907 6896 6895 6894 ] final  -65.07 input  -60.11 | X-H torsion
[ 7974 7965 7964 7962 ] final  -89.16 input  175.53 | X-H torsion
[ 8008 7997 7996 7995 ] final -163.69 input   59.86 | X-H torsion
[ 10167 10162 10161 10158 ] final  166.68 input  -65.29 | X-H torsion
[ 10718 10713 10712 10709 ] final  -76.94 input   66.30 | X-H torsion
[ 10763 10752 10751 10750 ] final -104.42 input  -60.55 | X-H torsion
[ 11005 11000 10999 10996 ] final   29.29 input  -57.11 | X-H torsion

> <Gold.Protein.ActiveResidues>
 VAL166  LYS551  ARG553  GLY616  TRP617  ASP618  TYR619  PRO620  LYS621  CYS622 
 ASP623  PHE694  ASN695  SER759  ASP760  ASP761  ALA762  ILE779  LEU786  VAL792 
 PHE793  MET794  SER795  GLU796  ALA797  LYS798  CYS799  TRP800  GLU811  SER814 

> <Gold.Protein.RotatedAtoms>
  150.7546  134.6211  159.6136 H   0  0  0  0  0  0  0  0  0  0  0  0  # atno 6907 bound_to 6896
  152.3517  134.6993  160.0243 H   0  0  0  0  0  0  0  0  0  0  0  0  # atno 6908 bound_to 6896
  151.7412  133.3286  159.3403 H   0  0  0  0  0  0  0  0  0  0  0  0  # atno 6909 bound_to 6896
  145.4434  140.9559  143.2062 H   0  0  0  0  0  0  0  0  0  0  0  0  # atno 7974 bound_to 7965
  155.8249  140.0925  157.1827 H   0  0  0  0  0  0  0  0  0  0  0  0  # atno 8008 bound_to 7997
  154.3979  140.1430  156.3604 H   0  0  0  0  0  0  0  0  0  0  0  0  # atno 8009 bound_to 7997
  155.8227  140.3445  155.5527 H   0  0  0  0  0  0  0  0  0  0  0  0  # atno 8010 bound_to 7997
  139.4929  144.4001  151.9419 H   0  0  0  0  0  0  0  0  0  0  0  0  # atno 10167 bound_to 10162
  156.0160  130.4478  150.3270 H   0  0  0  0  0  0  0  0  0  0  0  0  # atno 10718 bound_to 10713
  154.7877  135.4787  153.9982 H   0  0  0  0  0  0  0  0  0  0  0  0  # atno 10763 bound_to 10752
  153.1584  135.6804  153.8786 H   0  0  0  0  0  0  0  0  0  0  0  0  # atno 10764 bound_to 10752
  153.8407  135.3179  155.3404 H   0  0  0  0  0  0  0  0  0  0  0  0  # atno 10765 bound_to 10752
  140.3065  134.2697  155.7743 H   0  0  0  0  0  0  0  0  0  0  0  0  # atno 11005 bound_to 11000
  144.8107  139.5968  143.7031 LP  0  0  0  0  0  0  0  0  0  0  0  0  # atno 17320 bound_to 7965
  146.2544  139.6269  142.9405 LP  0  0  0  0  0  0  0  0  0  0  0  0  # atno 17321 bound_to 7965
  140.3440  144.3169  150.5961 LP  0  0  0  0  0  0  0  0  0  0  0  0  # atno 17342 bound_to 10162
  140.5541  143.2201  151.7877 LP  0  0  0  0  0  0  0  0  0  0  0  0  # atno 17343 bound_to 10162
  157.1369  131.0286  151.2945 LP  0  0  0  0  0  0  0  0  0  0  0  0  # atno 17370 bound_to 10713
  157.4504  130.7595  149.7146 LP  0  0  0  0  0  0  0  0  0  0  0  0  # atno 17371 bound_to 10713
  141.2117  133.7680  156.9845 LP  0  0  0  0  0  0  0  0  0  0  0  0  # atno 17394 bound_to 11000
  140.1062  134.9505  157.1998 LP  0  0  0  0  0  0  0  0  0  0  0  0  # atno 17395 bound_to 11000

$$$$
