AV-unprocessed.smi:1356|AV-procd|sdf|5540|dock10
  -GOLD-   22720 5133D 1   1.00000     0.00000
 Structure written by MMmdl.
 41 42  0  0  0  0  0  0  0  0  1 V2000
  149.3926  131.1521  153.9183 C   0  0  0  0  0  0  0  0  0  0  0  0
  149.1058  132.3660  154.7756 C   0  0  2  0  0  0  0  0  0  0  0  0
  147.8289  133.1526  154.6042 C   0  0  0  0  0  0  0  0  0  0  0  0
  149.1488  133.7581  154.1730 C   0  0  1  0  0  0  0  0  0  0  0  0
  149.7002  134.8664  155.0090 C   0  0  0  0  0  0  0  0  0  0  0  0
  150.0727  134.7107  156.1727 O   0  0  0  0  0  0  0  0  0  0  0  0
  149.7384  136.0515  154.3814 N   0  0  0  0  0  0  0  0  0  0  0  0
  150.1817  137.3128  154.9736 C   0  0  0  0  0  0  0  0  0  0  0  0
  151.5413  137.8045  154.4270 C   0  0  0  0  0  0  0  0  0  0  0  0
  151.9923  139.1395  155.0287 C   0  0  0  0  0  0  0  0  0  0  0  0
  153.1262  139.5653  154.8088 O   0  0  0  0  0  0  0  0  0  0  0  0
  151.0850  139.7972  155.7665 N   0  0  0  0  0  0  0  0  0  0  0  0
  151.2806  141.1183  156.3500 C   0  0  0  0  0  0  0  0  0  0  0  0
  151.5231  141.0285  157.8661 C   0  0  0  0  0  0  0  0  0  0  0  0
  151.6286  142.3965  158.5125 C   0  0  0  0  0  0  0  0  0  0  0  0
  151.5041  143.5704  157.7390 C   0  0  0  0  0  0  0  0  0  0  0  0
  151.6022  144.8157  158.3892 C   0  0  0  0  0  0  0  0  0  0  0  0
  151.8193  144.8393  159.7805 C   0  0  0  0  0  0  0  0  0  0  0  0
  151.9279  143.6111  160.4626 C   0  0  0  0  0  0  0  0  0  0  0  0
  151.8352  142.4117  159.8487 N   0  0  0  0  0  0  0  0  0  0  0  0
  149.0211  131.2975  152.9035 H   0  0  0  0  0  0  0  0  0  0  0  0
  148.9092  130.2721  154.3427 H   0  0  0  0  0  0  0  0  0  0  0  0
  150.4667  130.9718  153.8731 H   0  0  0  0  0  0  0  0  0  0  0  0
  149.4585  132.2574  155.8000 H   0  0  0  0  0  0  0  0  0  0  0  0
  147.1423  132.8556  153.8142 H   0  0  0  0  0  0  0  0  0  0  0  0
  147.3521  133.5340  155.5055 H   0  0  0  0  0  0  0  0  0  0  0  0
  149.3199  133.8294  153.0996 H   0  0  0  0  0  0  0  0  0  0  0  0
  149.4136  136.0899  153.4259 H   0  0  0  0  0  0  0  0  0  0  0  0
  149.4191  138.0765  154.8139 H   0  0  0  0  0  0  0  0  0  0  0  0
  150.2473  137.1709  156.0527 H   0  0  0  0  0  0  0  0  0  0  0  0
  152.3053  137.0458  154.6031 H   0  0  0  0  0  0  0  0  0  0  0  0
  151.4773  137.9215  153.3449 H   0  0  0  0  0  0  0  0  0  0  0  0
  150.1797  139.3692  155.8982 H   0  0  0  0  0  0  0  0  0  0  0  0
  152.1413  141.5784  155.8638 H   0  0  0  0  0  0  0  0  0  0  0  0
  150.4223  141.7566  156.1335 H   0  0  0  0  0  0  0  0  0  0  0  0
  150.7149  140.4752  158.3471 H   0  0  0  0  0  0  0  0  0  0  0  0
  152.4367  140.4661  158.0643 H   0  0  0  0  0  0  0  0  0  0  0  0
  151.3362  143.5196  156.6734 H   0  0  0  0  0  0  0  0  0  0  0  0
  151.5122  145.7359  157.8310 H   0  0  0  0  0  0  0  0  0  0  0  0
  151.8996  145.7759  160.3122 H   0  0  0  0  0  0  0  0  0  0  0  0
  152.0931  143.5914  161.5296 H   0  0  0  0  0  0  0  0  0  0  0  0
  1  2  1  0  0  0  0
  1 21  1  0  0  0  0
  1 22  1  0  0  0  0
  1 23  1  0  0  0  0
  2  4  1  0  0  0  0
  2  3  1  0  0  0  0
  2 24  1  0  0  0  0
  3  4  1  0  0  0  0
  3 25  1  0  0  0  0
  3 26  1  0  0  0  0
  4  5  1  0  0  0  0
  4 27  1  0  0  0  0
  5  6  2  0  0  0  0
  5  7  1  0  0  0  0
  7  8  1  0  0  0  0
  7 28  1  0  0  0  0
  8  9  1  0  0  0  0
  8 29  1  0  0  0  0
  8 30  1  0  0  0  0
  9 10  1  0  0  0  0
  9 31  1  0  0  0  0
  9 32  1  0  0  0  0
 10 11  2  0  0  0  0
 10 12  1  0  0  0  0
 12 13  1  0  0  0  0
 12 33  1  0  0  0  0
 13 14  1  0  0  0  0
 13 34  1  0  0  0  0
 13 35  1  0  0  0  0
 14 15  1  0  0  0  0
 14 36  1  0  0  0  0
 14 37  1  0  0  0  0
 15 20  1  0  0  0  0
 15 16  2  0  0  0  0
 16 17  1  0  0  0  0
 16 38  1  0  0  0  0
 17 18  2  0  0  0  0
 17 39  1  0  0  0  0
 18 19  1  0  0  0  0
 18 40  1  0  0  0  0
 19 20  2  0  0  0  0
 19 41  1  0  0  0  0
M  END
> <s_m_source_file>
AV-unprocessed.smi

> <i_m_source_file_index>
1356

> <i_lp_mmshare_version>
43012

> <i_f3d_flags>
0

> <s_epik_input>
W0NIM11bQ0BASF0xW0NIMl1bQ0BIXTFDKD1PKVtOSF1bQ0gyXVtDSDJdQyg9TylbTkhdW0NIMl1bQ0gyXWMyW2NIXVtjSF1bY0hdW2NIXW4y

> <s_epik_cmdline>
J2VwaWtfcHl0aG9uJywgJy1waCcsICc3LjAnLCAnLXRuJywgJzgnLCAnLW1hJywgJzIwMCcsICctbWV0YWxfYmluZGluZycsICctaW1hZScsICc8aW5maWxlLm1hZT4nLCAnLW9tYWUnLCAnPG91dGZpbGUubWFlPic=

> <r_epik_Ionization_Penalty>
0.0258005

> <r_epik_Ionization_Penalty_Charging>
0

> <r_epik_Ionization_Penalty_Neutral>
0.0258005

> <r_epik_State_Penalty>
0.0210245

> <r_epik_Charging_Adjusted_Penalty>
0.0210245

> <i_epik_Tot_Q>
0

> <i_epik_Tot_abs_Q>
0

> <r_epik_Metal_State_Penalty>
0.0201445

> <b_epik_Metal_Only>
0

> <s_lp_Force_Field>
OPLS_2005

> <r_lp_Energy>
2.94754

> <b_lp_Chiralities_Consistent>
1

> <s_lp_Variant>
AV-unprocessed.smi:1356-1

> <Gold.Version>
5.8.1

> <Gold.Id.Protein>
6NUR|6NUR_protein|mol2

> <Gold.PLP.Fitness>
50.0356

> <Gold.PLP.PLP>
-44.4552

> <Gold.PLP.part.hbond>
-3.3795

> <Gold.PLP.part.metal>
0.0000

> <Gold.PLP.part.buried>
-5.8266

> <Gold.PLP.part.nonpolar>
-35.2542

> <Gold.PLP.part.repulsive>
0.1999

> <Gold.PLP.ligand.clash>
0.0000

> <Gold.PLP.ligand.torsion>
0.2824

> <Gold.PLP.Chemscore.Hbond>
2.0000

> <Gold.PLP.Chemscore.CHOScore>
0.0000

> <Gold.PLP.Chemscore.Metal>
0.0000

> <Gold.Chemscore.Hbonds>
donor molecule, donor type, donor heavy atom, donor atom, acceptor molecule, acceptor atom, score
      L1  H     7    28       P1  7948  1.00
      P1  H  7997  8008       L1    11  1.00

> <Gold.PLP.Chemscore.Internal.Correction>
0.1452

> <Gold.Rescore>
     Score         DG    S(hbond)    S(metal)    S(lipo)     H(rot)  DE(clash)    DE(int)     intcor
     18.57     -18.90       1.96        0.00     106.44       2.18       0.05       0.27       ----

> <Gold.Chemscore.Fitness>
18.5745

> <Gold.Chemscore.DG>
-18.8994

> <Gold.Chemscore.ZeroCoef>
-5.4800

> <Gold.Chemscore.Hbond>
1.9565

> <Gold.Chemscore.Metal>
0.0000

> <Gold.Chemscore.Lipo>
106.4394

> <Gold.Chemscore.Internal_Hbond>
0.0000

> <Gold.Chemscore.DEClash>
0.0542

> <Gold.Chemscore.DEInternal>
0.2708

> <Gold.Chemscore.Rot>
2.1753

> <Gold.Chemscore.Internal.Correction>
   9.000000E+99

> <Gold.Chemscore.Hbonds>
donor molecule, donor type, donor heavy atom, donor atom, acceptor molecule, acceptor atom, score
      L1  H     7    28       P1  7948  0.54
      P1  H  7997  8008       L1    11  1.00

> <Gold.Chemscore.Hbond.Weighted>
-6.5347

> <Gold.Chemscore.Metal.Weighted>
-0.0000

> <Gold.Chemscore.Lipo.Weighted>
-12.4534

> <Gold.Chemscore.Internal_Hbond.Weighted>
0.0000

> <Gold.Chemscore.DEClash.Weighted>
0.0542

> <Gold.Chemscore.DEInternal.Weighted>
0.2708

> <Gold.Chemscore.Rot.Weighted>
5.5687

> <Gold.Chemscore.Internal.Correction.Weighted>
   9.000000E+99

> <Gold.Protein.RotatedTorsions>
[ 6907 6896 6895 6894 ] final   38.01 input  -60.11 | X-H torsion
[ 7974 7965 7964 7962 ] final   79.59 input  175.53 | X-H torsion
[ 8008 7997 7996 7995 ] final   -4.87 input   59.86 | X-H torsion
[ 10167 10162 10161 10158 ] final  177.99 input  -65.29 | X-H torsion
[ 10718 10713 10712 10709 ] final  -14.32 input   66.30 | X-H torsion
[ 10763 10752 10751 10750 ] final -123.53 input  -60.55 | X-H torsion
[ 11005 11000 10999 10996 ] final   64.16 input  -57.11 | X-H torsion

> <Gold.Protein.ActiveResidues>
 VAL166  LYS551  ARG553  GLY616  TRP617  ASP618  TYR619  PRO620  LYS621  CYS622 
 ASP623  PHE694  ASN695  SER759  ASP760  ASP761  ALA762  ILE779  LEU786  VAL792 
 PHE793  MET794  SER795  GLU796  ALA797  LYS798  CYS799  TRP800  GLU811  SER814 

> <Gold.Protein.RotatedAtoms>
  152.1508  134.8990  160.0547 H   0  0  0  0  0  0  0  0  0  0  0  0  # atno 6907 bound_to 6896
  152.0022  133.3825  159.4194 H   0  0  0  0  0  0  0  0  0  0  0  0  # atno 6908 bound_to 6896
  150.6875  134.3743  159.5050 H   0  0  0  0  0  0  0  0  0  0  0  0  # atno 6909 bound_to 6896
  145.6623  139.2474  143.1916 H   0  0  0  0  0  0  0  0  0  0  0  0  # atno 7974 bound_to 7965
  154.6098  140.2473  155.7684 H   0  0  0  0  0  0  0  0  0  0  0  0  # atno 8008 bound_to 7997
  156.2363  140.2949  156.0272 H   0  0  0  0  0  0  0  0  0  0  0  0  # atno 8009 bound_to 7997
  155.2072  140.0396  157.2918 H   0  0  0  0  0  0  0  0  0  0  0  0  # atno 8010 bound_to 7997
  139.5276  144.2732  152.0610 H   0  0  0  0  0  0  0  0  0  0  0  0  # atno 10167 bound_to 10162
  156.6177  130.4867  149.6176 H   0  0  0  0  0  0  0  0  0  0  0  0  # atno 10718 bound_to 10713
  154.8709  135.4095  154.2958 H   0  0  0  0  0  0  0  0  0  0  0  0  # atno 10763 bound_to 10752
  153.3826  135.7012  153.6560 H   0  0  0  0  0  0  0  0  0  0  0  0  # atno 10764 bound_to 10752
  153.5376  135.3655  155.2675 H   0  0  0  0  0  0  0  0  0  0  0  0  # atno 10765 bound_to 10752
  139.9977  134.6491  155.9983 H   0  0  0  0  0  0  0  0  0  0  0  0  # atno 11005 bound_to 11000
  146.1115  140.7422  142.9501 LP  0  0  0  0  0  0  0  0  0  0  0  0  # atno 17320 bound_to 7965
  144.7085  140.3946  143.7099 LP  0  0  0  0  0  0  0  0  0  0  0  0  # atno 17321 bound_to 7965
  140.2191  144.4484  150.6350 LP  0  0  0  0  0  0  0  0  0  0  0  0  # atno 17342 bound_to 10162
  140.6430  143.2207  151.6248 LP  0  0  0  0  0  0  0  0  0  0  0  0  # atno 17343 bound_to 10162
  156.2337  130.6810  151.1489 LP  0  0  0  0  0  0  0  0  0  0  0  0  # atno 17370 bound_to 10713
  157.7236  131.0665  150.6028 LP  0  0  0  0  0  0  0  0  0  0  0  0  # atno 17371 bound_to 10713
  141.1617  133.6538  156.4342 LP  0  0  0  0  0  0  0  0  0  0  0  0  # atno 17394 bound_to 11000
  140.4787  134.6685  157.5161 LP  0  0  0  0  0  0  0  0  0  0  0  0  # atno 17395 bound_to 11000

$$$$
