AV-unprocessed.smi:2246|AV-procd|sdf|9085|dock5
  -GOLD-   2272012283D 1   1.00000     0.00000
 Structure written by MMmdl.
 28 29  0  0  0  0  0  0  0  0  2 V2000
  150.3703  140.1616  154.1434 O   0  0  0  0  0  0  0  0  0  0  0  0
  150.3921  140.6243  155.2834 C   0  0  0  0  0  0  0  0  0  0  0  0
  151.5242  140.3376  156.2683 C   0  0  2  0  0  0  0  0  0  0  0  0
  151.5833  138.8929  156.6004 N   0  0  0  0  0  0  0  0  0  0  0  0
  150.4983  138.3040  157.2854 C   0  0  0  0  0  0  0  0  0  0  0  0
  150.4598  136.9923  157.5863 C   0  0  0  0  0  0  0  0  0  0  0  0
  149.1111  136.3106  158.4238 Cl  0  0  0  0  0  0  0  0  0  0  0  0
  151.5871  136.1619  157.1734 C   0  0  0  0  0  0  0  0  0  0  0  0
  151.5945  134.9631  157.4498 O   0  0  0  0  0  0  0  0  0  0  0  0
  152.5977  136.7658  156.4840 N   0  5  0  0  0  0  0  0  0  0  0  0
  152.6144  138.0991  156.1749 C   0  0  0  0  0  0  0  0  0  0  0  0
  153.5341  138.6022  155.5296 O   0  0  0  0  0  0  0  0  0  0  0  0
  151.1526  141.2249  157.4770 C   0  0  0  0  0  0  0  0  0  0  0  0
  149.7730  141.8276  157.1799 C   0  0  0  0  0  0  0  0  0  0  0  0
  149.4707  141.4358  155.8148 N   0  0  0  0  0  0  0  0  0  0  0  0
  148.2546  141.9125  155.1586 C   0  0  0  0  0  0  0  0  0  0  0  0
  146.9828  141.5745  155.9587 C   0  0  0  0  0  0  0  0  0  0  0  0
  147.0811  140.3284  156.4201 F   0  0  0  0  0  0  0  0  0  0  0  0
  146.8286  142.3969  156.9961 F   0  0  0  0  0  0  0  0  0  0  0  0
  145.9071  141.6524  155.1750 F   0  0  0  0  0  0  0  0  0  0  0  0
  152.4525  140.7147  155.8372 H   0  0  0  0  0  0  0  0  0  0  0  0
  149.6930  138.9753  157.5425 H   0  0  0  0  0  0  0  0  0  0  0  0
  151.1667  140.6940  158.4295 H   0  0  0  0  0  0  0  0  0  0  0  0
  151.8847  142.0282  157.5699 H   0  0  0  0  0  0  0  0  0  0  0  0
  149.0163  141.4254  157.8544 H   0  0  0  0  0  0  0  0  0  0  0  0
  149.7801  142.9133  157.2833 H   0  0  0  0  0  0  0  0  0  0  0  0
  148.3248  142.9929  155.0241 H   0  0  0  0  0  0  0  0  0  0  0  0
  148.1898  141.4864  154.1561 H   0  0  0  0  0  0  0  0  0  0  0  0
  1  2  2  0  0  0  0
  2 15  1  0  0  0  0
  2  3  1  0  0  0  0
  3  4  1  0  0  0  0
  3 13  1  0  0  0  0
  3 21  1  0  0  0  0
  4 11  1  0  0  0  0
  4  5  1  0  0  0  0
  5  6  2  0  0  0  0
  5 22  1  0  0  0  0
  6  7  1  0  0  0  0
  6  8  1  0  0  0  0
  8  9  2  0  0  0  0
  8 10  1  0  0  0  0
 10 11  1  0  0  0  0
 11 12  2  0  0  0  0
 13 14  1  0  0  0  0
 13 23  1  0  0  0  0
 13 24  1  0  0  0  0
 14 15  1  0  0  0  0
 14 25  1  0  0  0  0
 14 26  1  0  0  0  0
 15 16  1  0  0  0  0
 16 17  1  0  0  0  0
 16 27  1  0  0  0  0
 16 28  1  0  0  0  0
 17 18  1  0  0  0  0
 17 19  1  0  0  0  0
 17 20  1  0  0  0  0
M  CHG  1  10  -1
M  END
> <s_m_source_file>
AV-unprocessed.smi

> <i_m_source_file_index>
2246

> <i_lp_mmshare_version>
43012

> <i_f3d_flags>
0

> <s_epik_input>
RkMoRikoRilbQ0gyXU4xW0NIMl1bQ0gyXVtDQEBIXShDMT1PKW4yW2NIXWMoQ2wpYyg9TylbbkhdYzI9Tw==

> <s_epik_cmdline>
J2VwaWtfcHl0aG9uJywgJy1waCcsICc3LjAnLCAnLXRuJywgJzgnLCAnLW1hJywgJzIwMCcsICctbWV0YWxfYmluZGluZycsICctaW1hZScsICc8aW5maWxlLm1hZT4nLCAnLW9tYWUnLCAnPG91dGZpbGUubWFlPic=

> <r_epik_Ionization_Penalty>
1.33611

> <r_epik_Ionization_Penalty_Charging>
6.88308e-09

> <r_epik_Ionization_Penalty_Neutral>
1.33611

> <r_epik_State_Penalty>
1.41295

> <r_epik_Charging_Adjusted_Penalty>
1.41295

> <i_epik_Tot_Q>
-1

> <i_epik_Tot_abs_Q>
1

> <r_epik_Metal_State_Penalty>
0.00581136

> <b_epik_Metal_Only>
0

> <s_lp_Force_Field>
OPLS_2005

> <r_lp_Energy>
31.0989

> <b_lp_Chiralities_Consistent>
1

> <s_lp_Variant>
AV-unprocessed.smi:2246-4

> <Gold.Version>
5.8.1

> <Gold.Id.Protein>
6NUR|6NUR_protein|mol2

> <Gold.PLP.Fitness>
35.8658

> <Gold.PLP.PLP>
-25.1272

> <Gold.PLP.part.hbond>
-4.0000

> <Gold.PLP.part.metal>
0.0000

> <Gold.PLP.part.buried>
-2.3007

> <Gold.PLP.part.nonpolar>
-20.0069

> <Gold.PLP.part.repulsive>
0.7566

> <Gold.PLP.ligand.clash>
0.0000

> <Gold.PLP.ligand.torsion>
0.4328

> <Gold.PLP.Chemscore.Hbond>
3.8320

> <Gold.PLP.Chemscore.CHOScore>
0.0000

> <Gold.PLP.Chemscore.Metal>
0.0000

> <Gold.Chemscore.Hbonds>
donor molecule, donor type, donor heavy atom, donor atom, acceptor molecule, acceptor atom, score
      P1  H  7989  7998       L1     1  1.00
      P1  H  7997  8008       L1    12  0.83
      P1  H 10752 10765       L1    10  1.98

> <Gold.PLP.Chemscore.Internal.Correction>
0.1082

> <Gold.Rescore>
     Score         DG    S(hbond)    S(metal)    S(lipo)     H(rot)  DE(clash)    DE(int)     intcor
     10.99     -13.65       2.50        0.00      30.03       1.45       1.28       1.39       ----

> <Gold.Chemscore.Fitness>
10.9856

> <Gold.Chemscore.DG>
-13.6528

> <Gold.Chemscore.ZeroCoef>
-5.4800

> <Gold.Chemscore.Hbond>
2.5045

> <Gold.Chemscore.Metal>
0.0000

> <Gold.Chemscore.Lipo>
30.0304

> <Gold.Chemscore.Internal_Hbond>
0.0000

> <Gold.Chemscore.DEClash>
1.2787

> <Gold.Chemscore.DEInternal>
1.3886

> <Gold.Chemscore.Rot>
1.4476

> <Gold.Chemscore.Internal.Correction>
   9.000000E+99

> <Gold.Chemscore.Hbonds>
donor molecule, donor type, donor heavy atom, donor atom, acceptor molecule, acceptor atom, score
      P1  H  7989  7998       L1     1  0.32
      P1  H  7997  8008       L1    12  0.83
      P1  H 10752 10765       L1    10  0.53

> <Gold.Chemscore.Hbond.Weighted>
-8.3652

> <Gold.Chemscore.Metal.Weighted>
-0.0000

> <Gold.Chemscore.Lipo.Weighted>
-3.5136

> <Gold.Chemscore.Internal_Hbond.Weighted>
0.0000

> <Gold.Chemscore.DEClash.Weighted>
1.2787

> <Gold.Chemscore.DEInternal.Weighted>
1.3886

> <Gold.Chemscore.Rot.Weighted>
3.7059

> <Gold.Chemscore.Internal.Correction.Weighted>
   9.000000E+99

> <Gold.Protein.RotatedTorsions>
[ 6907 6896 6895 6894 ] final  -49.83 input  -60.11 | X-H torsion
[ 7974 7965 7964 7962 ] final  168.20 input  175.53 | X-H torsion
[ 8008 7997 7996 7995 ] final  -22.11 input   59.86 | X-H torsion
[ 10167 10162 10161 10158 ] final -158.33 input  -65.29 | X-H torsion
[ 10718 10713 10712 10709 ] final  -49.63 input   66.30 | X-H torsion
[ 10763 10752 10751 10750 ] final -148.09 input  -60.55 | X-H torsion
[ 11005 11000 10999 10996 ] final  -85.18 input  -57.11 | X-H torsion

> <Gold.Protein.ActiveResidues>
 VAL166  LYS551  ARG553  GLY616  TRP617  ASP618  TYR619  PRO620  LYS621  CYS622 
 ASP623  PHE694  ASN695  SER759  ASP760  ASP761  ALA762  ILE779  LEU786  VAL792 
 PHE793  MET794  SER795  GLU796  ALA797  LYS798  CYS799  TRP800  GLU811  SER814 

> <Gold.Protein.RotatedAtoms>
  150.8766  134.8150  159.7193 H   0  0  0  0  0  0  0  0  0  0  0  0  # atno 6907 bound_to 6896
  152.4750  134.4862  159.9691 H   0  0  0  0  0  0  0  0  0  0  0  0  # atno 6908 bound_to 6896
  151.4943  133.3479  159.2894 H   0  0  0  0  0  0  0  0  0  0  0  0  # atno 6909 bound_to 6896
  144.7397  139.8872  143.6400 H   0  0  0  0  0  0  0  0  0  0  0  0  # atno 7974 bound_to 7965
  154.4664  140.2016  156.0108 H   0  0  0  0  0  0  0  0  0  0  0  0  # atno 8008 bound_to 7997
  156.0934  140.3254  155.7816 H   0  0  0  0  0  0  0  0  0  0  0  0  # atno 8009 bound_to 7997
  155.4919  140.0547  157.2943 H   0  0  0  0  0  0  0  0  0  0  0  0  # atno 8010 bound_to 7997
  139.6701  143.9760  152.2278 H   0  0  0  0  0  0  0  0  0  0  0  0  # atno 10167 bound_to 10162
  156.1875  130.4152  149.9418 H   0  0  0  0  0  0  0  0  0  0  0  0  # atno 10718 bound_to 10713
  154.8252  135.3343  154.6919 H   0  0  0  0  0  0  0  0  0  0  0  0  # atno 10763 bound_to 10752
  153.7546  135.6937  153.4943 H   0  0  0  0  0  0  0  0  0  0  0  0  # atno 10764 bound_to 10752
  153.2152  135.4468  155.0376 H   0  0  0  0  0  0  0  0  0  0  0  0  # atno 10765 bound_to 10752
  141.1643  133.7386  156.8978 H   0  0  0  0  0  0  0  0  0  0  0  0  # atno 11005 bound_to 11000
  146.1168  139.4180  143.0253 LP  0  0  0  0  0  0  0  0  0  0  0  0  # atno 17320 bound_to 7965
  145.7363  141.0024  143.1325 LP  0  0  0  0  0  0  0  0  0  0  0  0  # atno 17321 bound_to 7965
  139.9522  144.6613  150.8160 LP  0  0  0  0  0  0  0  0  0  0  0  0  # atno 17342 bound_to 10162
  140.7614  143.3175  151.2700 LP  0  0  0  0  0  0  0  0  0  0  0  0  # atno 17343 bound_to 10162
  156.7169  130.8991  151.3614 LP  0  0  0  0  0  0  0  0  0  0  0  0  # atno 17370 bound_to 10713
  157.6908  130.9232  150.0509 LP  0  0  0  0  0  0  0  0  0  0  0  0  # atno 17371 bound_to 10713
  140.1604  134.9169  157.2707 LP  0  0  0  0  0  0  0  0  0  0  0  0  # atno 17394 bound_to 11000
  140.2618  134.3562  155.7404 LP  0  0  0  0  0  0  0  0  0  0  0  0  # atno 17395 bound_to 11000

$$$$
