AV-unprocessed.smi:400|AV-procd|sdf|2492|dock5
  -GOLD-   2262022433D 1   1.00000     0.00000
 Structure written by MMmdl.
 40 41  0  0  0  0  0  0  0  0  1 V2000
  155.0846  134.0491  159.8837 C   0  0  0  0  0  0  0  0  0  0  0  0
  154.6077  134.1014  161.3438 C   0  0  0  0  0  0  0  0  0  0  0  0
  154.8320  135.4640  162.0365 C   0  0  2  0  0  0  0  0  0  0  0  0
  154.2990  135.4410  163.4795 C   0  0  0  0  0  0  0  0  0  0  0  0
  154.1874  136.6190  161.2538 C   0  0  0  0  0  0  0  0  0  0  0  0
  153.5025  136.3730  160.2601 O   0  0  0  0  0  0  0  0  0  0  0  0
  154.4298  137.8563  161.7270 N   0  0  0  0  0  0  0  0  0  0  0  0
  153.9774  139.1003  161.2129 C   0  0  0  0  0  0  0  0  0  0  0  0
  154.4013  140.2366  161.9336 C   0  0  0  0  0  0  0  0  0  0  0  0
  154.0086  141.5184  161.5033 C   0  0  0  0  0  0  0  0  0  0  0  0
  153.1968  141.6497  160.3514 C   0  0  0  0  0  0  0  0  0  0  0  0
  152.7633  142.9005  159.8601 N   0  0  0  0  0  0  0  0  0  0  0  0
  152.2359  142.9657  158.5001 C   0  0  0  0  0  0  0  0  0  0  0  0
  152.1135  144.4293  158.0422 C   0  0  0  0  0  0  0  0  0  0  0  0
  151.3239  145.1595  158.9751 O   0  0  0  0  0  0  0  0  0  0  0  0
  151.9174  145.1778  160.2692 C   0  0  0  0  0  0  0  0  0  0  0  0
  152.0376  143.7418  160.8089 C   0  0  0  0  0  0  0  0  0  0  0  0
  152.8207  140.4508  159.7028 C   0  0  0  0  0  0  0  0  0  0  0  0
  153.1950  139.2217  160.1143 N   0  0  0  0  0  0  0  0  0  0  0  0
  154.9552  133.0480  159.4722 H   0  0  0  0  0  0  0  0  0  0  0  0
  156.1416  134.3046  159.8060 H   0  0  0  0  0  0  0  0  0  0  0  0
  154.5244  134.7372  159.2504 H   0  0  0  0  0  0  0  0  0  0  0  0
  153.5526  133.8271  161.3882 H   0  0  0  0  0  0  0  0  0  0  0  0
  155.1376  133.3296  161.9031 H   0  0  0  0  0  0  0  0  0  0  0  0
  155.9078  135.6413  162.0900 H   0  0  0  0  0  0  0  0  0  0  0  0
  154.4372  136.4052  163.9704 H   0  0  0  0  0  0  0  0  0  0  0  0
  154.8233  134.6944  164.0767 H   0  0  0  0  0  0  0  0  0  0  0  0
  153.2355  135.2003  163.5111 H   0  0  0  0  0  0  0  0  0  0  0  0
  155.0099  137.9117  162.5512 H   0  0  0  0  0  0  0  0  0  0  0  0
  155.0250  140.1332  162.8096 H   0  0  0  0  0  0  0  0  0  0  0  0
  154.3477  142.3777  162.0619 H   0  0  0  0  0  0  0  0  0  0  0  0
  152.8923  142.4289  157.8143 H   0  0  0  0  0  0  0  0  0  0  0  0
  151.2580  142.4834  158.4672 H   0  0  0  0  0  0  0  0  0  0  0  0
  153.0979  144.8897  157.9436 H   0  0  0  0  0  0  0  0  0  0  0  0
  151.6402  144.4775  157.0615 H   0  0  0  0  0  0  0  0  0  0  0  0
  152.8956  145.6596  160.2259 H   0  0  0  0  0  0  0  0  0  0  0  0
  151.2973  145.7779  160.9352 H   0  0  0  0  0  0  0  0  0  0  0  0
  151.0443  143.3190  160.9649 H   0  0  0  0  0  0  0  0  0  0  0  0
  152.5256  143.7697  161.7821 H   0  0  0  0  0  0  0  0  0  0  0  0
  152.1820  140.4645  158.8323 H   0  0  0  0  0  0  0  0  0  0  0  0
  1  2  1  0  0  0  0
  1 20  1  0  0  0  0
  1 21  1  0  0  0  0
  1 22  1  0  0  0  0
  2  3  1  0  0  0  0
  2 23  1  0  0  0  0
  2 24  1  0  0  0  0
  3  4  1  0  0  0  0
  3  5  1  0  0  0  0
  3 25  1  0  0  0  0
  4 26  1  0  0  0  0
  4 27  1  0  0  0  0
  4 28  1  0  0  0  0
  5  6  2  0  0  0  0
  5  7  1  0  0  0  0
  7  8  1  0  0  0  0
  7 29  1  0  0  0  0
  8 19  1  0  0  0  0
  8  9  2  0  0  0  0
  9 10  1  0  0  0  0
  9 30  1  0  0  0  0
 10 11  2  0  0  0  0
 10 31  1  0  0  0  0
 11 12  1  0  0  0  0
 11 18  1  0  0  0  0
 12 17  1  0  0  0  0
 12 13  1  0  0  0  0
 13 14  1  0  0  0  0
 13 32  1  0  0  0  0
 13 33  1  0  0  0  0
 14 15  1  0  0  0  0
 14 34  1  0  0  0  0
 14 35  1  0  0  0  0
 15 16  1  0  0  0  0
 16 17  1  0  0  0  0
 16 36  1  0  0  0  0
 16 37  1  0  0  0  0
 17 38  1  0  0  0  0
 17 39  1  0  0  0  0
 18 19  2  0  0  0  0
 18 40  1  0  0  0  0
M  END
> <s_m_source_file>
AV-unprocessed.smi

> <i_m_source_file_index>
400

> <i_lp_mmshare_version>
43012

> <i_f3d_flags>
0

> <s_epik_input>
W0NIM11bQ0gyXVtDQEhdKFtDSDNdKUMoPU8pW05IXWMxW2NIXVtjSF1jKFtjSF1uMSlOMltDSDJdW0NIMl1PW0NIMl1bQ0gyXTI=

> <s_epik_cmdline>
J2VwaWtfcHl0aG9uJywgJy1waCcsICc3LjAnLCAnLXRuJywgJzgnLCAnLW1hJywgJzIwMCcsICctbWV0YWxfYmluZGluZycsICctaW1hZScsICc8aW5maWxlLm1hZT4nLCAnLW9tYWUnLCAnPG91dGZpbGUubWFlPic=

> <r_lp_tautomer_probability>
1

> <r_epik_Ionization_Penalty>
0.00393323

> <r_epik_Ionization_Penalty_Charging>
0

> <r_epik_Ionization_Penalty_Neutral>
0.00393323

> <r_epik_State_Penalty>
0.00357844

> <r_epik_Charging_Adjusted_Penalty>
0.00357844

> <i_epik_Tot_Q>
0

> <i_epik_Tot_abs_Q>
0

> <r_epik_Metal_State_Penalty>
-0

> <b_epik_Metal_Only>
0

> <s_lp_Force_Field>
OPLS_2005

> <r_lp_Energy>
25.3319

> <b_lp_Chiralities_Consistent>
1

> <s_lp_Variant>
AV-unprocessed.smi:400-1

> <Gold.Version>
5.8.1

> <Gold.Id.Protein>
6NUR|6NUR_protein|mol2

> <Gold.PLP.Fitness>
41.1083

> <Gold.PLP.PLP>
-38.3498

> <Gold.PLP.part.hbond>
-0.9132

> <Gold.PLP.part.metal>
0.0000

> <Gold.PLP.part.buried>
-5.3673

> <Gold.PLP.part.nonpolar>
-32.3453

> <Gold.PLP.part.repulsive>
0.1238

> <Gold.PLP.ligand.clash>
0.0000

> <Gold.PLP.ligand.torsion>
0.2603

> <Gold.PLP.Chemscore.Hbond>
0.9588

> <Gold.PLP.Chemscore.CHOScore>
0.0000

> <Gold.PLP.Chemscore.Metal>
0.0000

> <Gold.Chemscore.Hbonds>
donor molecule, donor type, donor heavy atom, donor atom, acceptor molecule, acceptor atom, score
      P1  H  6896  6907       L1     6  1.00

> <Gold.PLP.Chemscore.Internal.Correction>
0.4029

> <Gold.Rescore>
     Score         DG    S(hbond)    S(metal)    S(lipo)     H(rot)  DE(clash)    DE(int)     intcor
     14.76     -17.54       1.00        0.00     103.06       1.30       0.01       2.78       ----

> <Gold.Chemscore.Fitness>
14.7553

> <Gold.Chemscore.DG>
-17.5389

> <Gold.Chemscore.ZeroCoef>
-5.4800

> <Gold.Chemscore.Hbond>
1.0000

> <Gold.Chemscore.Metal>
0.0000

> <Gold.Chemscore.Lipo>
103.0550

> <Gold.Chemscore.Internal_Hbond>
0.0000

> <Gold.Chemscore.DEClash>
0.0067

> <Gold.Chemscore.DEInternal>
2.7769

> <Gold.Chemscore.Rot>
1.3041

> <Gold.Chemscore.Internal.Correction>
   9.000000E+99

> <Gold.Chemscore.Hbonds>
donor molecule, donor type, donor heavy atom, donor atom, acceptor molecule, acceptor atom, score
      P1  H  6896  6907       L1     6  0.99

> <Gold.Chemscore.Hbond.Weighted>
-3.3400

> <Gold.Chemscore.Metal.Weighted>
-0.0000

> <Gold.Chemscore.Lipo.Weighted>
-12.0574

> <Gold.Chemscore.Internal_Hbond.Weighted>
0.0000

> <Gold.Chemscore.DEClash.Weighted>
0.0067

> <Gold.Chemscore.DEInternal.Weighted>
2.7769

> <Gold.Chemscore.Rot.Weighted>
3.3385

> <Gold.Chemscore.Internal.Correction.Weighted>
   9.000000E+99

> <Gold.Protein.RotatedTorsions>
[ 6907 6896 6895 6894 ] final   47.56 input  -60.11 | X-H torsion
[ 7974 7965 7964 7962 ] final   48.51 input  175.53 | X-H torsion
[ 8008 7997 7996 7995 ] final   81.05 input   59.86 | X-H torsion
[ 10167 10162 10161 10158 ] final -161.43 input  -65.29 | X-H torsion
[ 10718 10713 10712 10709 ] final -108.77 input   66.30 | X-H torsion
[ 10763 10752 10751 10750 ] final  -76.44 input  -60.55 | X-H torsion
[ 11005 11000 10999 10996 ] final  170.19 input  -57.11 | X-H torsion

> <Gold.Protein.ActiveResidues>
 VAL166  LYS551  ARG553  GLY616  TRP617  ASP618  TYR619  PRO620  LYS621  CYS622 
 ASP623  PHE694  ASN695  SER759  ASP760  ASP761  ALA762  ILE779  LEU786  VAL792 
 PHE793  MET794  SER795  GLU796  ALA797  LYS798  CYS799  TRP800  GLU811  SER814 

> <Gold.Protein.RotatedAtoms>
  152.2695  134.7948  160.0416 H   0  0  0  0  0  0  0  0  0  0  0  0  # atno 6907 bound_to 6896
  151.8566  133.3444  159.3698 H   0  0  0  0  0  0  0  0  0  0  0  0  # atno 6908 bound_to 6896
  150.7146  134.5174  159.5681 H   0  0  0  0  0  0  0  0  0  0  0  0  # atno 6909 bound_to 6896
  146.0197  139.4637  142.9904 H   0  0  0  0  0  0  0  0  0  0  0  0  # atno 7974 bound_to 7965
  155.8919  140.3438  155.5962 H   0  0  0  0  0  0  0  0  0  0  0  0  # atno 8008 bound_to 7997
  155.7601  140.0831  157.2178 H   0  0  0  0  0  0  0  0  0  0  0  0  # atno 8009 bound_to 7997
  154.4034  140.1537  156.2810 H   0  0  0  0  0  0  0  0  0  0  0  0  # atno 8010 bound_to 7997
  139.6465  144.0162  152.2131 H   0  0  0  0  0  0  0  0  0  0  0  0  # atno 10167 bound_to 10162
  156.0502  130.5729  150.8007 H   0  0  0  0  0  0  0  0  0  0  0  0  # atno 10718 bound_to 10713
  154.4998  135.5798  153.6522 H   0  0  0  0  0  0  0  0  0  0  0  0  # atno 10763 bound_to 10752
  152.9877  135.6133  154.3017 H   0  0  0  0  0  0  0  0  0  0  0  0  # atno 10764 bound_to 10752
  154.2923  135.2848  155.2628 H   0  0  0  0  0  0  0  0  0  0  0  0  # atno 10765 bound_to 10752
  140.3058  134.7558  157.3952 H   0  0  0  0  0  0  0  0  0  0  0  0  # atno 11005 bound_to 11000
  145.7212  141.0074  143.1401 LP  0  0  0  0  0  0  0  0  0  0  0  0  # atno 17320 bound_to 7965
  144.6985  139.8872  143.7451 LP  0  0  0  0  0  0  0  0  0  0  0  0  # atno 17321 bound_to 7965
  139.9865  144.6392  150.7853 LP  0  0  0  0  0  0  0  0  0  0  0  0  # atno 17342 bound_to 10162
  140.7517  143.2977  151.3160 LP  0  0  0  0  0  0  0  0  0  0  0  0  # atno 17343 bound_to 10162
  157.5421  131.0941  150.9813 LP  0  0  0  0  0  0  0  0  0  0  0  0  # atno 17370 bound_to 10713
  157.0094  130.5630  149.5319 LP  0  0  0  0  0  0  0  0  0  0  0  0  # atno 17371 bound_to 10713
  140.1069  134.5398  155.8301 LP  0  0  0  0  0  0  0  0  0  0  0  0  # atno 17394 bound_to 11000
  141.2119  133.6712  156.6615 LP  0  0  0  0  0  0  0  0  0  0  0  0  # atno 17395 bound_to 11000

$$$$
