AV-unprocessed.smi:498|AV-procd|sdf|2729|dock1
  -GOLD-   2262023173D 1   1.00000     0.00000
 Structure written by MMmdl.
 43 45  0  0  0  0  0  0  0  0  2 V2000
  147.0780  142.3253  154.3956 C   0  0  0  0  0  0  0  0  0  0  0  0
  147.7629  141.0881  153.8117 C   0  0  0  0  0  0  0  0  0  0  0  0
  149.1667  141.2810  153.8479 O   0  0  0  0  0  0  0  0  0  0  0  0
  149.7728  140.6823  154.9796 C   0  0  0  0  0  0  0  0  0  0  0  0
  149.5165  141.5705  156.2050 C   0  0  0  0  0  0  0  0  0  0  0  0
  150.3038  141.1377  157.3665 N   0  0  0  0  0  0  0  0  0  0  0  0
  150.3511  139.9316  158.0064 C   0  0  0  0  0  0  0  0  0  0  0  0
  149.5812  138.6934  157.6683 C   0  0  0  0  0  0  0  0  0  0  0  0
  149.0304  138.0511  158.8567 N   0  0  0  0  0  0  0  0  0  0  0  0
  149.1138  136.7431  159.1486 C   0  0  0  0  0  0  0  0  0  0  0  0
  149.7590  135.9358  158.4810 O   0  0  0  0  0  0  0  0  0  0  0  0
  148.3235  136.2960  160.3105 C   0  0  0  0  0  0  0  0  0  0  0  0
  147.9333  135.0465  160.7154 C   0  0  0  0  0  0  0  0  0  0  0  0
  147.1951  135.2210  161.9186 C   0  0  0  0  0  0  0  0  0  0  0  0
  147.1813  136.5645  162.1595 C   0  0  0  0  0  0  0  0  0  0  0  0
  147.8605  137.2328  161.1884 O   0  0  0  0  0  0  0  0  0  0  0  0
  151.2370  140.0595  159.0349 N   0  3  0  0  0  0  0  0  0  0  0  0
  151.7549  141.3555  159.0568 C   0  0  0  0  0  0  0  0  0  0  0  0
  152.6755  141.9557  159.9104 C   0  0  0  0  0  0  0  0  0  0  0  0
  152.9851  143.3083  159.6571 C   0  0  0  0  0  0  0  0  0  0  0  0
  152.3879  144.0111  158.5904 C   0  0  0  0  0  0  0  0  0  0  0  0
  151.4562  143.3918  157.7311 C   0  0  0  0  0  0  0  0  0  0  0  0
  151.1574  142.0543  157.9882 C   0  0  0  0  0  0  0  0  0  0  0  0
  145.9938  142.2146  154.3786 H   0  0  0  0  0  0  0  0  0  0  0  0
  147.3315  143.2181  153.8233 H   0  0  0  0  0  0  0  0  0  0  0  0
  147.3823  142.4905  155.4293 H   0  0  0  0  0  0  0  0  0  0  0  0
  147.4911  140.2004  154.3845 H   0  0  0  0  0  0  0  0  0  0  0  0
  147.4273  140.9345  152.7852 H   0  0  0  0  0  0  0  0  0  0  0  0
  149.3752  139.6795  155.1416 H   0  0  0  0  0  0  0  0  0  0  0  0
  150.8454  140.5818  154.8079 H   0  0  0  0  0  0  0  0  0  0  0  0
  149.7958  142.6017  155.9899 H   0  0  0  0  0  0  0  0  0  0  0  0
  148.4587  141.5910  156.4691 H   0  0  0  0  0  0  0  0  0  0  0  0
  148.8070  138.9490  156.9434 H   0  0  0  0  0  0  0  0  0  0  0  0
  150.2442  137.9831  157.1735 H   0  0  0  0  0  0  0  0  0  0  0  0
  148.4767  138.6316  159.4695 H   0  0  0  0  0  0  0  0  0  0  0  0
  148.1555  134.1171  160.2120 H   0  0  0  0  0  0  0  0  0  0  0  0
  146.7326  134.4602  162.5297 H   0  0  0  0  0  0  0  0  0  0  0  0
  146.7574  137.1842  162.9360 H   0  0  0  0  0  0  0  0  0  0  0  0
  153.1339  141.4200  160.7290 H   0  0  0  0  0  0  0  0  0  0  0  0
  153.6938  143.8173  160.2945 H   0  0  0  0  0  0  0  0  0  0  0  0
  152.6489  145.0469  158.4273 H   0  0  0  0  0  0  0  0  0  0  0  0
  151.0026  143.9387  156.9177 H   0  0  0  0  0  0  0  0  0  0  0  0
  151.4667  139.3120  159.6770 H   0  0  0  0  0  0  0  0  0  0  0  0
  1  2  1  0  0  0  0
  1 24  1  0  0  0  0
  1 25  1  0  0  0  0
  1 26  1  0  0  0  0
  2  3  1  0  0  0  0
  2 27  1  0  0  0  0
  2 28  1  0  0  0  0
  3  4  1  0  0  0  0
  4  5  1  0  0  0  0
  4 29  1  0  0  0  0
  4 30  1  0  0  0  0
  5  6  1  0  0  0  0
  5 31  1  0  0  0  0
  5 32  1  0  0  0  0
  6 23  1  0  0  0  0
  6  7  1  0  0  0  0
  7  8  1  0  0  0  0
  7 17  2  0  0  0  0
  8  9  1  0  0  0  0
  8 33  1  0  0  0  0
  8 34  1  0  0  0  0
  9 10  1  0  0  0  0
  9 35  1  0  0  0  0
 10 11  2  0  0  0  0
 10 12  1  0  0  0  0
 12 16  1  0  0  0  0
 12 13  2  0  0  0  0
 13 14  1  0  0  0  0
 13 36  1  0  0  0  0
 14 15  2  0  0  0  0
 14 37  1  0  0  0  0
 15 16  1  0  0  0  0
 15 38  1  0  0  0  0
 17 18  1  0  0  0  0
 17 43  1  0  0  0  0
 18 23  2  0  0  0  0
 18 19  1  0  0  0  0
 19 20  2  0  0  0  0
 19 39  1  0  0  0  0
 20 21  1  0  0  0  0
 20 40  1  0  0  0  0
 21 22  2  0  0  0  0
 21 41  1  0  0  0  0
 22 23  1  0  0  0  0
 22 42  1  0  0  0  0
M  CHG  1  17   1
M  END
> <s_m_source_file>
AV-unprocessed.smi

> <i_m_source_file_index>
498

> <i_lp_mmshare_version>
43012

> <i_f3d_flags>
0

> <s_epik_input>
W0NIM11bQ0gyXU9bQ0gyXVtDSDJdbihjKGMxMilbY0hdW2NIXVtjSF1bY0hdMiljKG4xKVtDSDJdW05IXUMoPU8pYzNbY0hdW2NIXVtjSF1vMw==

> <s_epik_cmdline>
J2VwaWtfcHl0aG9uJywgJy1waCcsICc3LjAnLCAnLXRuJywgJzgnLCAnLW1hJywgJzIwMCcsICctbWV0YWxfYmluZGluZycsICctaW1hZScsICc8aW5maWxlLm1hZT4nLCAnLW9tYWUnLCAnPG91dGZpbGUubWFlPic=

> <r_epik_Ionization_Penalty>
1.29911

> <r_epik_Ionization_Penalty_Charging>
1.29908

> <r_epik_Ionization_Penalty_Neutral>
2.77772e-05

> <r_epik_State_Penalty>
1.37286

> <r_epik_Charging_Adjusted_Penalty>
2.67194

> <i_epik_Tot_Q>
1

> <i_epik_Tot_abs_Q>
1

> <r_epik_Metal_State_Penalty>
1.47523

> <b_epik_Metal_Only>
0

> <s_lp_Force_Field>
OPLS_2005

> <r_lp_Energy>
10.1123

> <b_lp_Chiralities_Consistent>
1

> <s_lp_Variant>
AV-unprocessed.smi:498-2

> <Gold.Version>
5.8.1

> <Gold.Id.Protein>
6NUR|6NUR_protein|mol2

> <Gold.PLP.Fitness>
59.3055

> <Gold.PLP.PLP>
-49.9192

> <Gold.PLP.part.hbond>
-5.0000

> <Gold.PLP.part.metal>
0.0000

> <Gold.PLP.part.buried>
-5.2751

> <Gold.PLP.part.nonpolar>
-41.5883

> <Gold.PLP.part.repulsive>
1.5437

> <Gold.PLP.ligand.clash>
0.0000

> <Gold.PLP.ligand.torsion>
0.7436

> <Gold.PLP.Chemscore.Hbond>
3.5920

> <Gold.PLP.Chemscore.CHOScore>
0.0000

> <Gold.PLP.Chemscore.Metal>
0.0000

> <Gold.Chemscore.Hbonds>
donor molecule, donor type, donor heavy atom, donor atom, acceptor molecule, acceptor atom, score
      P1  H  6896  6907       L1    11  1.00
      P1  H  6931  6943       L1    16  0.96
      P1  H  6934  6947       L1    16  0.77
      P1  H  8011  8017       L1     3  0.83

> <Gold.PLP.Chemscore.Internal.Correction>
0.0976

> <Gold.Rescore>
     Score         DG    S(hbond)    S(metal)    S(lipo)     H(rot)  DE(clash)    DE(int)     intcor
     22.60     -23.59       2.79        0.00     119.88       2.04       0.24       0.76       ----

> <Gold.Chemscore.Fitness>
22.5970

> <Gold.Chemscore.DG>
-23.5917

> <Gold.Chemscore.ZeroCoef>
-5.4800

> <Gold.Chemscore.Hbond>
2.7893

> <Gold.Chemscore.Metal>
0.0000

> <Gold.Chemscore.Lipo>
119.8819

> <Gold.Chemscore.Internal_Hbond>
0.0000

> <Gold.Chemscore.DEClash>
0.2392

> <Gold.Chemscore.DEInternal>
0.7555

> <Gold.Chemscore.Rot>
2.0432

> <Gold.Chemscore.Internal.Correction>
   9.000000E+99

> <Gold.Chemscore.Hbonds>
donor molecule, donor type, donor heavy atom, donor atom, acceptor molecule, acceptor atom, score
      P1  H  6896  6907       L1    11  0.69
      P1  H  6931  6943       L1    16  0.65
      P1  H  6934  6947       L1    16  0.62
      P1  H  8011  8017       L1     3  0.66

> <Gold.Chemscore.Hbond.Weighted>
-9.3161

> <Gold.Chemscore.Metal.Weighted>
-0.0000

> <Gold.Chemscore.Lipo.Weighted>
-14.0262

> <Gold.Chemscore.Internal_Hbond.Weighted>
0.0000

> <Gold.Chemscore.DEClash.Weighted>
0.2392

> <Gold.Chemscore.DEInternal.Weighted>
0.7555

> <Gold.Chemscore.Rot.Weighted>
5.2306

> <Gold.Chemscore.Internal.Correction.Weighted>
   9.000000E+99

> <Gold.Protein.RotatedTorsions>
[ 6907 6896 6895 6894 ] final  -51.09 input  -60.11 | X-H torsion
[ 7974 7965 7964 7962 ] final   69.02 input  175.53 | X-H torsion
[ 8008 7997 7996 7995 ] final  102.20 input   59.86 | X-H torsion
[ 10167 10162 10161 10158 ] final   61.72 input  -65.29 | X-H torsion
[ 10718 10713 10712 10709 ] final   47.25 input   66.30 | X-H torsion
[ 10763 10752 10751 10750 ] final -154.11 input  -60.55 | X-H torsion
[ 11005 11000 10999 10996 ] final   96.36 input  -57.11 | X-H torsion

> <Gold.Protein.ActiveResidues>
 VAL166  LYS551  ARG553  GLY616  TRP617  ASP618  TYR619  PRO620  LYS621  CYS622 
 ASP623  PHE694  ASN695  SER759  ASP760  ASP761  ALA762  ILE779  LEU786  VAL792 
 PHE793  MET794  SER795  GLU796  ALA797  LYS798  CYS799  TRP800  GLU811  SER814 

> <Gold.Protein.RotatedAtoms>
  150.8645  134.8005  159.7107 H   0  0  0  0  0  0  0  0  0  0  0  0  # atno 6907 bound_to 6896
  152.4671  134.5046  159.9745 H   0  0  0  0  0  0  0  0  0  0  0  0  # atno 6908 bound_to 6896
  151.5145  133.3440  159.2926 H   0  0  0  0  0  0  0  0  0  0  0  0  # atno 6909 bound_to 6896
  145.7955  139.2956  143.1185 H   0  0  0  0  0  0  0  0  0  0  0  0  # atno 7974 bound_to 7965
  156.1370  140.3185  155.8436 H   0  0  0  0  0  0  0  0  0  0  0  0  # atno 8008 bound_to 7997
  155.4225  140.0513  157.3041 H   0  0  0  0  0  0  0  0  0  0  0  0  # atno 8009 bound_to 7997
  154.4945  140.2105  155.9489 H   0  0  0  0  0  0  0  0  0  0  0  0  # atno 8010 bound_to 7997
  140.1517  144.4456  150.6755 H   0  0  0  0  0  0  0  0  0  0  0  0  # atno 10167 bound_to 10162
  157.4566  130.8170  149.7842 H   0  0  0  0  0  0  0  0  0  0  0  0  # atno 10718 bound_to 10713
  154.7881  135.3197  154.7839 H   0  0  0  0  0  0  0  0  0  0  0  0  # atno 10763 bound_to 10752
  153.8535  135.6860  153.4794 H   0  0  0  0  0  0  0  0  0  0  0  0  # atno 10764 bound_to 10752
  153.1541  135.4687  154.9618 H   0  0  0  0  0  0  0  0  0  0  0  0  # atno 10765 bound_to 10752
  139.8782  134.8947  156.4147 H   0  0  0  0  0  0  0  0  0  0  0  0  # atno 11005 bound_to 11000
  145.9932  140.8585  143.0056 LP  0  0  0  0  0  0  0  0  0  0  0  0  # atno 17320 bound_to 7965
  144.6776  140.2245  143.7362 LP  0  0  0  0  0  0  0  0  0  0  0  0  # atno 17321 bound_to 7965
  140.6698  143.2281  151.5653 LP  0  0  0  0  0  0  0  0  0  0  0  0  # atno 17342 bound_to 10162
  139.5422  144.2616  152.1374 LP  0  0  0  0  0  0  0  0  0  0  0  0  # atno 17343 bound_to 10162
  156.0010  130.3880  150.2607 LP  0  0  0  0  0  0  0  0  0  0  0  0  # atno 17370 bound_to 10713
  157.0782  131.0136  151.3166 LP  0  0  0  0  0  0  0  0  0  0  0  0  # atno 17371 bound_to 10713
  140.9175  133.7668  155.9866 LP  0  0  0  0  0  0  0  0  0  0  0  0  # atno 17394 bound_to 11000
  140.8477  134.2992  157.5288 LP  0  0  0  0  0  0  0  0  0  0  0  0  # atno 17395 bound_to 11000

$$$$
