AV-unprocessed.smi:1429|AV-procd|sdf|5819|dock9
  -GOLD-   22720 5473D 1   1.00000     0.00000
 Structure written by MMmdl.
 30 31  0  0  0  0  0  0  0  0  1 V2000
  145.7449  129.9277  151.9969 C   0  0  0  0  0  0  0  0  0  0  0  0
  146.7309  130.8708  152.5969 C   0  0  0  0  0  0  0  0  0  0  0  0
  147.6584  130.4862  153.4824 N   0  0  0  0  0  0  0  0  0  0  0  0
  148.4585  131.5415  153.8977 N   0  0  0  0  0  0  0  0  0  0  0  0
  148.1089  132.6948  153.3113 C   0  0  0  0  0  0  0  0  0  0  0  0
  148.7619  133.9325  153.5518 N   0  0  0  0  0  0  0  0  0  0  0  0
  149.5285  134.2803  154.6002 C   0  0  0  0  0  0  0  0  0  0  0  0
  149.7841  133.5596  155.5651 O   0  0  0  0  0  0  0  0  0  0  0  0
  149.9977  135.5290  154.4643 N   0  0  0  0  0  0  0  0  0  0  0  0
  150.8843  136.2073  155.4051 C   0  0  0  0  0  0  0  0  0  0  0  0
  150.6250  137.7250  155.4386 C   0  0  1  0  0  0  0  0  0  0  0  0
  151.6329  138.5031  156.2595 C   0  0  0  0  0  0  0  0  0  0  0  0
  151.4223  139.9282  155.7549 C   0  0  0  0  0  0  0  0  0  0  0  0
  150.9932  139.8058  154.4016 O   0  0  0  0  0  0  0  0  0  0  0  0
  150.7450  138.4385  154.0907 C   0  0  0  0  0  0  0  0  0  0  0  0
  146.7598  132.5831  152.1939 S   0  0  0  0  0  0  0  0  0  0  0  0
  145.9586  128.9019  152.2992 H   0  0  0  0  0  0  0  0  0  0  0  0
  145.7873  129.9866  150.9093 H   0  0  0  0  0  0  0  0  0  0  0  0
  144.7375  130.1860  152.3236 H   0  0  0  0  0  0  0  0  0  0  0  0
  148.6411  134.6313  152.8337 H   0  0  0  0  0  0  0  0  0  0  0  0
  149.7332  136.0476  153.6394 H   0  0  0  0  0  0  0  0  0  0  0  0
  150.7001  135.7866  156.3938 H   0  0  0  0  0  0  0  0  0  0  0  0
  151.9310  135.9983  155.1764 H   0  0  0  0  0  0  0  0  0  0  0  0
  149.6305  137.9126  155.8475 H   0  0  0  0  0  0  0  0  0  0  0  0
  151.4772  138.4071  157.3343 H   0  0  0  0  0  0  0  0  0  0  0  0
  152.6474  138.1730  156.0308 H   0  0  0  0  0  0  0  0  0  0  0  0
  150.6330  140.4207  156.3241 H   0  0  0  0  0  0  0  0  0  0  0  0
  152.3252  140.5343  155.8338 H   0  0  0  0  0  0  0  0  0  0  0  0
  151.5958  138.0553  153.5252 H   0  0  0  0  0  0  0  0  0  0  0  0
  149.8521  138.3268  153.4751 H   0  0  0  0  0  0  0  0  0  0  0  0
  1  2  1  0  0  0  0
  1 17  1  0  0  0  0
  1 18  1  0  0  0  0
  1 19  1  0  0  0  0
  2 16  1  0  0  0  0
  2  3  2  0  0  0  0
  3  4  1  0  0  0  0
  4  5  2  0  0  0  0
  5  6  1  0  0  0  0
  5 16  1  0  0  0  0
  6  7  1  0  0  0  0
  6 20  1  0  0  0  0
  7  8  2  0  0  0  0
  7  9  1  0  0  0  0
  9 10  1  0  0  0  0
  9 21  1  0  0  0  0
 10 11  1  0  0  0  0
 10 22  1  0  0  0  0
 10 23  1  0  0  0  0
 11 15  1  0  0  0  0
 11 12  1  0  0  0  0
 11 24  1  0  0  0  0
 12 13  1  0  0  0  0
 12 25  1  0  0  0  0
 12 26  1  0  0  0  0
 13 14  1  0  0  0  0
 13 27  1  0  0  0  0
 13 28  1  0  0  0  0
 14 15  1  0  0  0  0
 15 29  1  0  0  0  0
 15 30  1  0  0  0  0
M  END
> <s_m_source_file>
AV-unprocessed.smi

> <i_m_source_file_index>
1429

> <i_lp_mmshare_version>
43012

> <i_f3d_flags>
0

> <s_epik_input>
W0NIM11jMW5uYyhzMSlbTkhdQyg9TylbTkhdW0NIMl1bQ0BASF0yW0NIMl1bQ0gyXU9bQ0gyXTI=

> <s_epik_cmdline>
J2VwaWtfcHl0aG9uJywgJy1waCcsICc3LjAnLCAnLXRuJywgJzgnLCAnLW1hJywgJzIwMCcsICctbWV0YWxfYmluZGluZycsICctaW1hZScsICc8aW5maWxlLm1hZT4nLCAnLW9tYWUnLCAnPG91dGZpbGUubWFlPic=

> <r_lp_tautomer_probability>
1

> <r_epik_Ionization_Penalty>
0.000468089

> <r_epik_Ionization_Penalty_Charging>
0

> <r_epik_Ionization_Penalty_Neutral>
0.000468089

> <r_epik_State_Penalty>
-0

> <r_epik_Charging_Adjusted_Penalty>
0

> <i_epik_Tot_Q>
0

> <i_epik_Tot_abs_Q>
0

> <r_epik_Metal_State_Penalty>
0.211262

> <b_epik_Metal_Only>
0

> <s_lp_Force_Field>
OPLS_2005

> <r_lp_Energy>
17.5985

> <b_lp_Chiralities_Consistent>
1

> <s_lp_Variant>
AV-unprocessed.smi:1429-2

> <Gold.Version>
5.8.1

> <Gold.Id.Protein>
6NUR|6NUR_protein|mol2

> <Gold.PLP.Fitness>
34.2663

> <Gold.PLP.PLP>
-26.1446

> <Gold.PLP.part.hbond>
-3.2483

> <Gold.PLP.part.metal>
0.0000

> <Gold.PLP.part.buried>
-3.9354

> <Gold.PLP.part.nonpolar>
-19.1416

> <Gold.PLP.part.repulsive>
0.3521

> <Gold.PLP.ligand.clash>
0.0000

> <Gold.PLP.ligand.torsion>
0.2917

> <Gold.PLP.Chemscore.Hbond>
2.9000

> <Gold.PLP.Chemscore.CHOScore>
0.0000

> <Gold.PLP.Chemscore.Metal>
0.0000

> <Gold.Chemscore.Hbonds>
donor molecule, donor type, donor heavy atom, donor atom, acceptor molecule, acceptor atom, score
      L1  H     6    20       P1  7948  0.85
      L1  H     9    21       P1  7948  0.95
      P1  H  7989  7998       L1    14  1.00

> <Gold.PLP.Chemscore.Internal.Correction>
0.0052

> <Gold.Rescore>
     Score         DG    S(hbond)    S(metal)    S(lipo)     H(rot)  DE(clash)    DE(int)     intcor
     13.81     -15.28       2.26        0.00      48.04       1.31       0.00       1.47       ----

> <Gold.Chemscore.Fitness>
13.8061

> <Gold.Chemscore.DG>
-15.2805

> <Gold.Chemscore.ZeroCoef>
-5.4800

> <Gold.Chemscore.Hbond>
2.2573

> <Gold.Chemscore.Metal>
0.0000

> <Gold.Chemscore.Lipo>
48.0432

> <Gold.Chemscore.Internal_Hbond>
0.0000

> <Gold.Chemscore.DEClash>
0.0000

> <Gold.Chemscore.DEInternal>
1.4744

> <Gold.Chemscore.Rot>
1.3125

> <Gold.Chemscore.Internal.Correction>
   9.000000E+99

> <Gold.Chemscore.Hbonds>
donor molecule, donor type, donor heavy atom, donor atom, acceptor molecule, acceptor atom, score
      L1  H     6    20       P1  7948  0.15
      L1  H     9    21       P1  7948  0.21
      P1  H  7989  7998       L1    14  0.77

> <Gold.Chemscore.Hbond.Weighted>
-7.5394

> <Gold.Chemscore.Metal.Weighted>
-0.0000

> <Gold.Chemscore.Lipo.Weighted>
-5.6211

> <Gold.Chemscore.Internal_Hbond.Weighted>
0.0000

> <Gold.Chemscore.DEClash.Weighted>
0.0000

> <Gold.Chemscore.DEInternal.Weighted>
1.4744

> <Gold.Chemscore.Rot.Weighted>
3.3600

> <Gold.Chemscore.Internal.Correction.Weighted>
   9.000000E+99

> <Gold.Protein.RotatedTorsions>
[ 6907 6896 6895 6894 ] final  179.06 input  -60.11 | X-H torsion
[ 7974 7965 7964 7962 ] final -178.51 input  175.53 | X-H torsion
[ 8008 7997 7996 7995 ] final  177.60 input   59.86 | X-H torsion
[ 10167 10162 10161 10158 ] final  -95.81 input  -65.29 | X-H torsion
[ 10718 10713 10712 10709 ] final  -66.58 input   66.30 | X-H torsion
[ 10763 10752 10751 10750 ] final -151.98 input  -60.55 | X-H torsion
[ 11005 11000 10999 10996 ] final  171.71 input  -57.11 | X-H torsion

> <Gold.Protein.ActiveResidues>
 VAL166  LYS551  ARG553  GLY616  TRP617  ASP618  TYR619  PRO620  LYS621  CYS622 
 ASP623  PHE694  ASN695  SER759  ASP760  ASP761  ALA762  ILE779  LEU786  VAL792 
 PHE793  MET794  SER795  GLU796  ALA797  LYS798  CYS799  TRP800  GLU811  SER814 

> <Gold.Protein.RotatedAtoms>
  151.6778  133.3312  159.3211 H   0  0  0  0  0  0  0  0  0  0  0  0  # atno 6907 bound_to 6896
  150.7837  134.6807  159.6452 H   0  0  0  0  0  0  0  0  0  0  0  0  # atno 6908 bound_to 6896
  152.3901  134.6458  160.0163 H   0  0  0  0  0  0  0  0  0  0  0  0  # atno 6909 bound_to 6896
  144.7131  140.0857  143.6423 H   0  0  0  0  0  0  0  0  0  0  0  0  # atno 7974 bound_to 7965
  156.0638  140.1354  156.9909 H   0  0  0  0  0  0  0  0  0  0  0  0  # atno 8008 bound_to 7997
  154.4495  140.0986  156.6628 H   0  0  0  0  0  0  0  0  0  0  0  0  # atno 8009 bound_to 7997
  155.5335  140.3459  155.4433 H   0  0  0  0  0  0  0  0  0  0  0  0  # atno 8010 bound_to 7997
  140.3003  143.3167  152.0255 H   0  0  0  0  0  0  0  0  0  0  0  0  # atno 10167 bound_to 10162
  156.0604  130.4264  150.1730 H   0  0  0  0  0  0  0  0  0  0  0  0  # atno 10718 bound_to 10713
  154.8023  135.3247  154.7518 H   0  0  0  0  0  0  0  0  0  0  0  0  # atno 10763 bound_to 10752
  153.8184  135.6890  153.4835 H   0  0  0  0  0  0  0  0  0  0  0  0  # atno 10764 bound_to 10752
  153.1747  135.4609  154.9893 H   0  0  0  0  0  0  0  0  0  0  0  0  # atno 10765 bound_to 10752
  140.3219  134.7430  157.4070 H   0  0  0  0  0  0  0  0  0  0  0  0  # atno 11005 bound_to 11000
  145.9664  139.2837  143.1125 LP  0  0  0  0  0  0  0  0  0  0  0  0  # atno 17320 bound_to 7965
  145.9165  140.9145  143.0427 LP  0  0  0  0  0  0  0  0  0  0  0  0  # atno 17321 bound_to 7965
  139.4916  144.6461  151.6776 LP  0  0  0  0  0  0  0  0  0  0  0  0  # atno 17342 bound_to 10162
  140.5657  144.0194  150.6191 LP  0  0  0  0  0  0  0  0  0  0  0  0  # atno 17343 bound_to 10162
  156.9799  130.9861  151.3439 LP  0  0  0  0  0  0  0  0  0  0  0  0  # atno 17370 bound_to 10713
  157.5608  130.8245  149.8264 LP  0  0  0  0  0  0  0  0  0  0  0  0  # atno 17371 bound_to 10713
  140.0934  134.5569  155.8421 LP  0  0  0  0  0  0  0  0  0  0  0  0  # atno 17394 bound_to 11000
  141.2084  133.6674  156.6372 LP  0  0  0  0  0  0  0  0  0  0  0  0  # atno 17395 bound_to 11000

$$$$
