AV-unprocessed.smi:2473|AV-procd|sdf|9743|dock7
  -GOLD-   2272013383D 1   1.00000     0.00000
 Structure written by MMmdl.
 48 49  0  0  0  0  0  0  0  0  2 V2000
  146.8767  138.2046  154.8609 C   0  0  0  0  0  0  0  0  0  0  0  0
  148.3740  138.0749  155.1761 C   0  0  2  0  0  0  0  0  0  0  0  0
  149.2292  138.7930  154.1118 C   0  0  0  0  0  0  0  0  0  0  0  0
  150.7494  138.6722  154.3660 C   0  0  1  0  0  0  0  0  0  0  0  0
  151.2838  139.6159  155.4611 C   0  0  0  0  0  0  0  0  0  0  0  0
  152.4807  139.8957  155.5342 O   0  0  0  0  0  0  0  0  0  0  0  0
  150.3780  140.0878  156.3305 N   0  0  0  0  0  0  0  0  0  0  0  0
  150.6782  141.0233  157.4045 C   0  0  0  0  0  0  0  0  0  0  0  0
  151.3750  142.2729  156.8513 C   0  0  0  0  0  0  0  0  0  0  0  0
  151.4878  143.3680  157.8657 C   0  0  0  0  0  0  0  0  0  0  0  0
  150.8378  144.5372  157.8236 N   0  3  0  0  0  0  0  0  0  0  0  0
  151.1569  145.2997  158.9143 C   0  0  0  0  0  0  0  0  0  0  0  0
  152.0371  144.5598  159.6599 C   0  0  0  0  0  0  0  0  0  0  0  0
  152.2199  143.3758  158.9923 N   0  0  0  0  0  0  0  0  0  0  0  0
  153.0750  142.2620  159.4090 C   0  0  0  0  0  0  0  0  0  0  0  0
  151.1496  137.1886  154.5745 C   0  0  0  0  0  0  0  0  0  0  0  0
  150.2967  136.3905  155.5988 C   0  0  0  0  0  0  0  0  0  0  0  0
  150.6310  134.8932  155.4412 C   0  0  0  0  0  0  0  0  0  0  0  0
  150.6241  136.7760  157.0590 C   0  0  0  0  0  0  0  0  0  0  0  0
  148.7923  136.5950  155.2938 C   0  0  0  0  0  0  0  0  0  0  0  0
  146.6295  137.7409  153.9056 H   0  0  0  0  0  0  0  0  0  0  0  0
  146.5760  139.2515  154.8107 H   0  0  0  0  0  0  0  0  0  0  0  0
  146.2704  137.7258  155.6304 H   0  0  0  0  0  0  0  0  0  0  0  0
  148.5310  138.5570  156.1399 H   0  0  0  0  0  0  0  0  0  0  0  0
  149.0067  138.3687  153.1319 H   0  0  0  0  0  0  0  0  0  0  0  0
  148.9396  139.8430  154.0468 H   0  0  0  0  0  0  0  0  0  0  0  0
  151.2436  139.0106  153.4540 H   0  0  0  0  0  0  0  0  0  0  0  0
  149.4160  139.8017  156.2189 H   0  0  0  0  0  0  0  0  0  0  0  0
  149.7521  141.2978  157.9116 H   0  0  0  0  0  0  0  0  0  0  0  0
  151.3184  140.5375  158.1426 H   0  0  0  0  0  0  0  0  0  0  0  0
  152.3822  142.0422  156.5028 H   0  0  0  0  0  0  0  0  0  0  0  0
  150.8249  142.6794  156.0017 H   0  0  0  0  0  0  0  0  0  0  0  0
  150.7429  146.2847  159.0750 H   0  0  0  0  0  0  0  0  0  0  0  0
  152.5329  144.7827  160.5937 H   0  0  0  0  0  0  0  0  0  0  0  0
  153.5574  142.5061  160.3558 H   0  0  0  0  0  0  0  0  0  0  0  0
  153.8392  142.0884  158.6510 H   0  0  0  0  0  0  0  0  0  0  0  0
  152.4686  141.3652  159.5362 H   0  0  0  0  0  0  0  0  0  0  0  0
  151.0641  136.7002  153.6024 H   0  0  0  0  0  0  0  0  0  0  0  0
  152.2065  137.1079  154.8325 H   0  0  0  0  0  0  0  0  0  0  0  0
  150.0478  134.2795  156.1289 H   0  0  0  0  0  0  0  0  0  0  0  0
  151.6853  134.6983  155.6416 H   0  0  0  0  0  0  0  0  0  0  0  0
  150.4201  134.5375  154.4319 H   0  0  0  0  0  0  0  0  0  0  0  0
  150.0990  136.1291  157.7625 H   0  0  0  0  0  0  0  0  0  0  0  0
  150.3374  137.7959  157.3045 H   0  0  0  0  0  0  0  0  0  0  0  0
  151.6910  136.6800  157.2636 H   0  0  0  0  0  0  0  0  0  0  0  0
  148.1912  136.1033  156.0601 H   0  0  0  0  0  0  0  0  0  0  0  0
  148.5458  136.0934  154.3566 H   0  0  0  0  0  0  0  0  0  0  0  0
  150.2004  144.8156  157.0881 H   0  0  0  0  0  0  0  0  0  0  0  0
  1  2  1  0  0  0  0
  1 21  1  0  0  0  0
  1 22  1  0  0  0  0
  1 23  1  0  0  0  0
  2 20  1  0  0  0  0
  2  3  1  0  0  0  0
  2 24  1  0  0  0  0
  3  4  1  0  0  0  0
  3 25  1  0  0  0  0
  3 26  1  0  0  0  0
  4  5  1  0  0  0  0
  4 16  1  0  0  0  0
  4 27  1  0  0  0  0
  5  6  2  0  0  0  0
  5  7  1  0  0  0  0
  7  8  1  0  0  0  0
  7 28  1  0  0  0  0
  8  9  1  0  0  0  0
  8 29  1  0  0  0  0
  8 30  1  0  0  0  0
  9 10  1  0  0  0  0
  9 31  1  0  0  0  0
  9 32  1  0  0  0  0
 10 14  1  0  0  0  0
 10 11  2  0  0  0  0
 11 12  1  0  0  0  0
 11 48  1  0  0  0  0
 12 13  2  0  0  0  0
 12 33  1  0  0  0  0
 13 14  1  0  0  0  0
 13 34  1  0  0  0  0
 14 15  1  0  0  0  0
 15 35  1  0  0  0  0
 15 36  1  0  0  0  0
 15 37  1  0  0  0  0
 16 17  1  0  0  0  0
 16 38  1  0  0  0  0
 16 39  1  0  0  0  0
 17 18  1  0  0  0  0
 17 19  1  0  0  0  0
 17 20  1  0  0  0  0
 18 40  1  0  0  0  0
 18 41  1  0  0  0  0
 18 42  1  0  0  0  0
 19 43  1  0  0  0  0
 19 44  1  0  0  0  0
 19 45  1  0  0  0  0
 20 46  1  0  0  0  0
 20 47  1  0  0  0  0
M  CHG  1  11   1
M  END
> <s_m_source_file>
AV-unprocessed.smi

> <i_m_source_file_index>
2473

> <i_lp_mmshare_version>
43012

> <i_f3d_flags>
0

> <s_epik_input>
W0NIM11bQ0BASF0oW0NIMl0xKVtDSDJdW0NASF0oW0NIMl1DMShbQ0gzXSlbQ0gzXSlDKD1PKVtOSF1bQ0gyXVtDSDJdYzJuW2NIXVtjSF1uMltDSDNd

> <s_epik_cmdline>
J2VwaWtfcHl0aG9uJywgJy1waCcsICc3LjAnLCAnLXRuJywgJzgnLCAnLW1hJywgJzIwMCcsICctbWV0YWxfYmluZGluZycsICctaW1hZScsICc8aW5maWxlLm1hZT4nLCAnLW9tYWUnLCAnPG91dGZpbGUubWFlPic=

> <r_lp_tautomer_probability>
1

> <r_epik_Ionization_Penalty>
0.0796112

> <r_epik_Ionization_Penalty_Charging>
0

> <r_epik_Ionization_Penalty_Neutral>
0.0796112

> <r_epik_State_Penalty>
0.0704541

> <r_epik_Charging_Adjusted_Penalty>
0.0704541

> <i_epik_Tot_Q>
1

> <i_epik_Tot_abs_Q>
1

> <r_epik_Metal_State_Penalty>
0.409899

> <b_epik_Metal_Only>
0

> <s_lp_Force_Field>
OPLS_2005

> <r_lp_Energy>
17.1237

> <b_lp_Chiralities_Consistent>
1

> <s_lp_Variant>
AV-unprocessed.smi:2473-1

> <Gold.Version>
5.8.1

> <Gold.Id.Protein>
6NUR|6NUR_protein|mol2

> <Gold.PLP.Fitness>
47.9884

> <Gold.PLP.PLP>
-39.9329

> <Gold.PLP.part.hbond>
-3.0030

> <Gold.PLP.part.metal>
0.0000

> <Gold.PLP.part.buried>
-4.8327

> <Gold.PLP.part.nonpolar>
-32.4432

> <Gold.PLP.part.repulsive>
0.1331

> <Gold.PLP.ligand.clash>
0.0000

> <Gold.PLP.ligand.torsion>
0.5075

> <Gold.PLP.Chemscore.Hbond>
3.0000

> <Gold.PLP.Chemscore.CHOScore>
0.0000

> <Gold.PLP.Chemscore.Metal>
0.0000

> <Gold.Chemscore.Hbonds>
donor molecule, donor type, donor heavy atom, donor atom, acceptor molecule, acceptor atom, score
      L1  H    11    48       P1  8028  2.00
      P1  H  7997  8010       L1     6  1.00

> <Gold.PLP.Chemscore.Internal.Correction>
0.0704

> <Gold.Rescore>
     Score         DG    S(hbond)    S(metal)    S(lipo)     H(rot)  DE(clash)    DE(int)     intcor
     14.92     -17.63       1.74        0.00      88.94       1.58       0.39       2.32       ----

> <Gold.Chemscore.Fitness>
14.9175

> <Gold.Chemscore.DG>
-17.6326

> <Gold.Chemscore.ZeroCoef>
-5.4800

> <Gold.Chemscore.Hbond>
1.7352

> <Gold.Chemscore.Metal>
0.0000

> <Gold.Chemscore.Lipo>
88.9435

> <Gold.Chemscore.Internal_Hbond>
0.0000

> <Gold.Chemscore.DEClash>
0.3944

> <Gold.Chemscore.DEInternal>
2.3207

> <Gold.Chemscore.Rot>
1.5818

> <Gold.Chemscore.Internal.Correction>
   9.000000E+99

> <Gold.Chemscore.Hbonds>
donor molecule, donor type, donor heavy atom, donor atom, acceptor molecule, acceptor atom, score
      L1  H    11    48       P1  8028  0.30
      P1  H  7997  8010       L1     6  0.97

> <Gold.Chemscore.Hbond.Weighted>
-5.7956

> <Gold.Chemscore.Metal.Weighted>
-0.0000

> <Gold.Chemscore.Lipo.Weighted>
-10.4064

> <Gold.Chemscore.Internal_Hbond.Weighted>
0.0000

> <Gold.Chemscore.DEClash.Weighted>
0.3944

> <Gold.Chemscore.DEInternal.Weighted>
2.3207

> <Gold.Chemscore.Rot.Weighted>
4.0495

> <Gold.Chemscore.Internal.Correction.Weighted>
   9.000000E+99

> <Gold.Protein.RotatedTorsions>
[ 6907 6896 6895 6894 ] final    2.36 input  -60.11 | X-H torsion
[ 7974 7965 7964 7962 ] final -148.40 input  175.53 | X-H torsion
[ 8008 7997 7996 7995 ] final   95.62 input   59.86 | X-H torsion
[ 10167 10162 10161 10158 ] final  -71.47 input  -65.29 | X-H torsion
[ 10718 10713 10712 10709 ] final -148.43 input   66.30 | X-H torsion
[ 10763 10752 10751 10750 ] final  155.78 input  -60.55 | X-H torsion
[ 11005 11000 10999 10996 ] final  -50.01 input  -57.11 | X-H torsion

> <Gold.Protein.ActiveResidues>
 VAL166  LYS551  ARG553  GLY616  TRP617  ASP618  TYR619  PRO620  LYS621  CYS622 
 ASP623  PHE694  ASN695  SER759  ASP760  ASP761  ALA762  ILE779  LEU786  VAL792 
 PHE793  MET794  SER795  GLU796  ALA797  LYS798  CYS799  TRP800  GLU811  SER814 

> <Gold.Protein.RotatedAtoms>
  151.6076  135.1042  160.0073 H   0  0  0  0  0  0  0  0  0  0  0  0  # atno 6907 bound_to 6896
  152.4225  133.7136  159.6503 H   0  0  0  0  0  0  0  0  0  0  0  0  # atno 6908 bound_to 6896
  150.8113  133.8344  159.3203 H   0  0  0  0  0  0  0  0  0  0  0  0  # atno 6909 bound_to 6896
  144.8032  140.5201  143.5693 H   0  0  0  0  0  0  0  0  0  0  0  0  # atno 7974 bound_to 7965
  156.0709  140.3284  155.7574 H   0  0  0  0  0  0  0  0  0  0  0  0  # atno 8008 bound_to 7997
  155.5307  140.0593  157.2907 H   0  0  0  0  0  0  0  0  0  0  0  0  # atno 8009 bound_to 7997
  154.4529  140.1928  156.0481 H   0  0  0  0  0  0  0  0  0  0  0  0  # atno 8010 bound_to 7997
  140.5270  143.2325  151.7329 H   0  0  0  0  0  0  0  0  0  0  0  0  # atno 10167 bound_to 10162
  156.4201  130.8024  151.2247 H   0  0  0  0  0  0  0  0  0  0  0  0  # atno 10718 bound_to 10713
  154.1738  135.2803  155.3073 H   0  0  0  0  0  0  0  0  0  0  0  0  # atno 10763 bound_to 10752
  154.6055  135.5516  153.7422 H   0  0  0  0  0  0  0  0  0  0  0  0  # atno 10764 bound_to 10752
  153.0157  135.6402  154.1878 H   0  0  0  0  0  0  0  0  0  0  0  0  # atno 10765 bound_to 10752
  141.0792  133.6658  156.3669 H   0  0  0  0  0  0  0  0  0  0  0  0  # atno 11005 bound_to 11000
  145.5502  139.1476  143.3398 LP  0  0  0  0  0  0  0  0  0  0  0  0  # atno 17320 bound_to 7965
  146.2318  140.5641  142.8972 LP  0  0  0  0  0  0  0  0  0  0  0  0  # atno 17321 bound_to 7965
  139.4941  144.4170  152.0019 LP  0  0  0  0  0  0  0  0  0  0  0  0  # atno 17342 bound_to 10162
  140.3270  144.3361  150.5996 LP  0  0  0  0  0  0  0  0  0  0  0  0  # atno 17343 bound_to 10162
  157.7508  131.0230  150.3818 LP  0  0  0  0  0  0  0  0  0  0  0  0  # atno 17370 bound_to 10713
  156.4134  130.3938  149.6875 LP  0  0  0  0  0  0  0  0  0  0  0  0  # atno 17371 bound_to 10713
  140.5506  134.6031  157.5406 LP  0  0  0  0  0  0  0  0  0  0  0  0  # atno 17394 bound_to 11000
  139.9605  134.7461  156.0247 LP  0  0  0  0  0  0  0  0  0  0  0  0  # atno 17395 bound_to 11000

$$$$
