AV-unprocessed.smi:1643|AV-procd|sdf|6575|dock3
  -GOLD-   22720 7263D 1   1.00000     0.00000
 Structure written by MMmdl.
 54 56  0  0  0  0  0  0  0  0  2 V2000
  149.9050  131.0013  154.4782 C   0  0  0  0  0  0  0  0  0  0  0  0
  149.2589  131.7974  155.6162 C   0  0  0  0  0  0  0  0  0  0  0  0
  148.4913  131.2038  156.3738 O   0  0  0  0  0  0  0  0  0  0  0  0
  149.5562  133.1134  155.7535 N   0  0  0  0  0  0  0  0  0  0  0  0
  149.0048  133.9017  156.8666 C   0  0  0  0  0  0  0  0  0  0  0  0
  147.7946  134.7402  156.4175 C   0  0  0  0  0  0  0  0  0  0  0  0
  147.8798  135.2680  154.9695 C   0  0  0  0  0  0  0  0  0  0  0  0
  149.1003  136.0691  154.6796 N   0  3  1  0  0  0  0  0  0  0  0  0
  149.0489  137.4279  155.2838 C   0  0  0  0  0  0  0  0  0  0  0  0
  150.1601  138.3592  154.7604 C   0  0  1  0  0  0  0  0  0  0  0  0
  150.0079  138.5113  153.3617 O   0  0  0  0  0  0  0  0  0  0  0  0
  150.1118  139.7447  155.4326 C   0  0  0  0  0  0  0  0  0  0  0  0
  151.1464  139.9069  156.4381 N   0  0  0  0  0  0  0  0  0  0  0  0
  152.2095  139.1075  156.6520 C   0  0  0  0  0  0  0  0  0  0  0  0
  153.0357  139.4444  157.6379 N   0  0  0  0  0  0  0  0  0  0  0  0
  152.4414  140.5987  158.1183 C   0  0  0  0  0  0  0  0  0  0  0  0
  152.8226  141.4560  159.1736 C   0  0  0  0  0  0  0  0  0  0  0  0
  152.0530  142.5972  159.4940 C   0  0  0  0  0  0  0  0  0  0  0  0
  152.4997  143.4914  160.6372 C   0  0  0  0  0  0  0  0  0  0  0  0
  150.8820  142.8962  158.7520 C   0  0  0  0  0  0  0  0  0  0  0  0
  150.0423  144.1192  159.0761 C   0  0  0  0  0  0  0  0  0  0  0  0
  150.4863  142.0497  157.6954 C   0  0  0  0  0  0  0  0  0  0  0  0
  151.2594  140.9164  157.3876 C   0  0  0  0  0  0  0  0  0  0  0  0
  150.4136  135.3813  154.8837 C   0  0  0  0  0  0  0  0  0  0  0  0
  150.4065  133.8323  154.7807 C   0  0  0  0  0  0  0  0  0  0  0  0
  150.9892  131.1142  154.4845 H   0  0  0  0  0  0  0  0  0  0  0  0
  149.5204  131.3257  153.5112 H   0  0  0  0  0  0  0  0  0  0  0  0
  149.6842  129.9385  154.5827 H   0  0  0  0  0  0  0  0  0  0  0  0
  148.7118  133.2736  157.7095 H   0  0  0  0  0  0  0  0  0  0  0  0
  149.7781  134.5402  157.2907 H   0  0  0  0  0  0  0  0  0  0  0  0
  146.8978  134.1243  156.4950 H   0  0  0  0  0  0  0  0  0  0  0  0
  147.6469  135.5652  157.1148 H   0  0  0  0  0  0  0  0  0  0  0  0
  147.8211  134.4416  154.2604 H   0  0  0  0  0  0  0  0  0  0  0  0
  146.9962  135.8701  154.7546 H   0  0  0  0  0  0  0  0  0  0  0  0
  148.0824  137.8897  155.0768 H   0  0  0  0  0  0  0  0  0  0  0  0
  149.1138  137.3367  156.3690 H   0  0  0  0  0  0  0  0  0  0  0  0
  151.1393  137.9202  154.9512 H   0  0  0  0  0  0  0  0  0  0  0  0
  149.5045  137.7832  153.0298 H   0  0  0  0  0  0  0  0  0  0  0  0
  150.2162  140.5374  154.6901 H   0  0  0  0  0  0  0  0  0  0  0  0
  149.1457  139.8953  155.9159 H   0  0  0  0  0  0  0  0  0  0  0  0
  152.3847  138.2256  156.0531 H   0  0  0  0  0  0  0  0  0  0  0  0
  153.7151  141.2286  159.7377 H   0  0  0  0  0  0  0  0  0  0  0  0
  151.7240  143.5526  161.4010 H   0  0  0  0  0  0  0  0  0  0  0  0
  152.7095  144.4980  160.2747 H   0  0  0  0  0  0  0  0  0  0  0  0
  153.4052  143.1105  161.1104 H   0  0  0  0  0  0  0  0  0  0  0  0
  149.1868  144.2036  158.4055 H   0  0  0  0  0  0  0  0  0  0  0  0
  150.6363  145.0279  158.9758 H   0  0  0  0  0  0  0  0  0  0  0  0
  149.6633  144.0633  160.0967 H   0  0  0  0  0  0  0  0  0  0  0  0
  149.5971  142.2661  157.1224 H   0  0  0  0  0  0  0  0  0  0  0  0
  151.0949  135.7620  154.1224 H   0  0  0  0  0  0  0  0  0  0  0  0
  150.8593  135.6881  155.8300 H   0  0  0  0  0  0  0  0  0  0  0  0
  151.4305  133.4741  154.8952 H   0  0  0  0  0  0  0  0  0  0  0  0
  150.1025  133.5732  153.7657 H   0  0  0  0  0  0  0  0  0  0  0  0
  149.0456  136.2300  153.6834 H   0  0  0  0  0  0  0  0  0  0  0  0
  1  2  1  0  0  0  0
  1 26  1  0  0  0  0
  1 27  1  0  0  0  0
  1 28  1  0  0  0  0
  2  3  2  0  0  0  0
  2  4  1  0  0  0  0
  4 25  1  0  0  0  0
  4  5  1  0  0  0  0
  5  6  1  0  0  0  0
  5 29  1  0  0  0  0
  5 30  1  0  0  0  0
  6  7  1  0  0  0  0
  6 31  1  0  0  0  0
  6 32  1  0  0  0  0
  7  8  1  0  0  0  0
  7 33  1  0  0  0  0
  7 34  1  0  0  0  0
  8  9  1  0  0  0  0
  8 24  1  0  0  0  0
  8 54  1  0  0  0  0
  9 10  1  0  0  0  0
  9 35  1  0  0  0  0
  9 36  1  0  0  0  0
 10 11  1  0  0  0  0
 10 12  1  0  0  0  0
 10 37  1  0  0  0  0
 11 38  1  0  0  0  0
 12 13  1  0  0  0  0
 12 39  1  0  0  0  0
 12 40  1  0  0  0  0
 13 23  1  0  0  0  0
 13 14  1  0  0  0  0
 14 15  2  0  0  0  0
 14 41  1  0  0  0  0
 15 16  1  0  0  0  0
 16 23  2  0  0  0  0
 16 17  1  0  0  0  0
 17 18  2  0  0  0  0
 17 42  1  0  0  0  0
 18 19  1  0  0  0  0
 18 20  1  0  0  0  0
 19 43  1  0  0  0  0
 19 44  1  0  0  0  0
 19 45  1  0  0  0  0
 20 21  1  0  0  0  0
 20 22  2  0  0  0  0
 21 46  1  0  0  0  0
 21 47  1  0  0  0  0
 21 48  1  0  0  0  0
 22 23  1  0  0  0  0
 22 49  1  0  0  0  0
 24 25  1  0  0  0  0
 24 50  1  0  0  0  0
 24 51  1  0  0  0  0
 25 52  1  0  0  0  0
 25 53  1  0  0  0  0
M  CHG  1   8   1
M  END
> <s_m_source_file>
AV-unprocessed.smi

> <i_m_source_file_index>
1643

> <i_lp_mmshare_version>
43012

> <i_f3d_flags>
0

> <s_epik_input>
W0NIM11DKD1PKU4xW0NIMl1bQ0gyXVtDSDJdTihbQ0gyXVtDSDJdMSlbQ0gyXVtDQEhdKFtPSF0pW0NIMl1uKFtjSF1uMiljKGMyMylbY0hdYyhbQ0gzXSljKFtjSF0zKVtDSDNd

> <s_epik_cmdline>
J2VwaWtfcHl0aG9uJywgJy1waCcsICc3LjAnLCAnLXRuJywgJzgnLCAnLW1hJywgJzIwMCcsICctbWV0YWxfYmluZGluZycsICctaW1hZScsICc8aW5maWxlLm1hZT4nLCAnLW9tYWUnLCAnPG91dGZpbGUubWFlPic=

> <r_epik_Ionization_Penalty>
0.189467

> <r_epik_Ionization_Penalty_Charging>
0.101761

> <r_epik_Ionization_Penalty_Neutral>
0.0877056

> <r_epik_State_Penalty>
0.170758

> <r_epik_Charging_Adjusted_Penalty>
0.272519

> <i_epik_Tot_Q>
1

> <i_epik_Tot_abs_Q>
1

> <r_epik_Metal_State_Penalty>
0.0948013

> <b_epik_Metal_Only>
0

> <s_lp_Force_Field>
OPLS_2005

> <r_lp_Energy>
48.4896

> <b_lp_Chiralities_Consistent>
1

> <s_lp_Variant>
AV-unprocessed.smi:1643-4

> <Gold.Version>
5.8.1

> <Gold.Id.Protein>
6NUR|6NUR_protein|mol2

> <Gold.PLP.Fitness>
49.1483

> <Gold.PLP.PLP>
-38.6641

> <Gold.PLP.part.hbond>
-4.0000

> <Gold.PLP.part.metal>
0.0000

> <Gold.PLP.part.buried>
-4.4445

> <Gold.PLP.part.nonpolar>
-30.0396

> <Gold.PLP.part.repulsive>
0.0003

> <Gold.PLP.ligand.clash>
0.0000

> <Gold.PLP.ligand.torsion>
0.7994

> <Gold.PLP.Chemscore.Hbond>
4.0000

> <Gold.PLP.Chemscore.CHOScore>
0.0000

> <Gold.PLP.Chemscore.Metal>
0.0000

> <Gold.Chemscore.Hbonds>
donor molecule, donor type, donor heavy atom, donor atom, acceptor molecule, acceptor atom, score
      L1  H     8    54       P1  7948  2.00
      L1  H    11    38       P1  7948  1.00
      P1  H  7997  8009       L1    15  1.00

> <Gold.PLP.Chemscore.Internal.Correction>
0.0830

> <Gold.Rescore>
     Score         DG    S(hbond)    S(metal)    S(lipo)     H(rot)  DE(clash)    DE(int)     intcor
     18.53     -19.42       1.92        0.00     110.72       2.12       0.26       0.62       ----

> <Gold.Chemscore.Fitness>
18.5306

> <Gold.Chemscore.DG>
-19.4170

> <Gold.Chemscore.ZeroCoef>
-5.4800

> <Gold.Chemscore.Hbond>
1.9174

> <Gold.Chemscore.Metal>
0.0000

> <Gold.Chemscore.Lipo>
110.7209

> <Gold.Chemscore.Internal_Hbond>
0.0000

> <Gold.Chemscore.DEClash>
0.2631

> <Gold.Chemscore.DEInternal>
0.6233

> <Gold.Chemscore.Rot>
2.1178

> <Gold.Chemscore.Internal.Correction>
   9.000000E+99

> <Gold.Chemscore.Hbonds>
donor molecule, donor type, donor heavy atom, donor atom, acceptor molecule, acceptor atom, score
      L1  H     8    54       P1  7948  0.98
      L1  H    11    38       P1  7948  0.82
      P1  H  7997  8009       L1    15  0.14

> <Gold.Chemscore.Hbond.Weighted>
-6.4041

> <Gold.Chemscore.Metal.Weighted>
-0.0000

> <Gold.Chemscore.Lipo.Weighted>
-12.9543

> <Gold.Chemscore.Internal_Hbond.Weighted>
0.0000

> <Gold.Chemscore.DEClash.Weighted>
0.2631

> <Gold.Chemscore.DEInternal.Weighted>
0.6233

> <Gold.Chemscore.Rot.Weighted>
5.4215

> <Gold.Chemscore.Internal.Correction.Weighted>
   9.000000E+99

> <Gold.Protein.RotatedTorsions>
[ 6907 6896 6895 6894 ] final   89.92 input  -60.11 | X-H torsion
[ 7974 7965 7964 7962 ] final -140.75 input  175.53 | X-H torsion
[ 8008 7997 7996 7995 ] final  172.93 input   59.86 | X-H torsion
[ 10167 10162 10161 10158 ] final -161.28 input  -65.29 | X-H torsion
[ 10718 10713 10712 10709 ] final   89.98 input   66.30 | X-H torsion
[ 10763 10752 10751 10750 ] final  110.52 input  -60.55 | X-H torsion
[ 11005 11000 10999 10996 ] final  154.89 input  -57.11 | X-H torsion

> <Gold.Protein.ActiveResidues>
 VAL166  LYS551  ARG553  GLY616  TRP617  ASP618  TYR619  PRO620  LYS621  CYS622 
 ASP623  PHE694  ASN695  SER759  ASP760  ASP761  ALA762  ILE779  LEU786  VAL792 
 PHE793  MET794  SER795  GLU796  ALA797  LYS798  CYS799  TRP800  GLU811  SER814 

> <Gold.Protein.RotatedAtoms>
  152.5440  134.1891  159.8666 H   0  0  0  0  0  0  0  0  0  0  0  0  # atno 6907 bound_to 6896
  151.1888  133.4673  159.2602 H   0  0  0  0  0  0  0  0  0  0  0  0  # atno 6908 bound_to 6896
  151.1104  135.0035  159.8546 H   0  0  0  0  0  0  0  0  0  0  0  0  # atno 6909 bound_to 6896
  144.8573  140.6163  143.5351 H   0  0  0  0  0  0  0  0  0  0  0  0  # atno 7974 bound_to 7965
  156.1125  140.1473  156.9318 H   0  0  0  0  0  0  0  0  0  0  0  0  # atno 8008 bound_to 7997
  154.4777  140.0889  156.7345 H   0  0  0  0  0  0  0  0  0  0  0  0  # atno 8009 bound_to 7997
  155.4571  140.3437  155.4310 H   0  0  0  0  0  0  0  0  0  0  0  0  # atno 8010 bound_to 7997
  139.6477  144.0142  152.2139 H   0  0  0  0  0  0  0  0  0  0  0  0  # atno 10167 bound_to 10162
  157.6957  131.0353  150.3508 H   0  0  0  0  0  0  0  0  0  0  0  0  # atno 10718 bound_to 10713
  153.4502  135.3746  155.2279 H   0  0  0  0  0  0  0  0  0  0  0  0  # atno 10763 bound_to 10752
  154.8756  135.3884  154.4048 H   0  0  0  0  0  0  0  0  0  0  0  0  # atno 10764 bound_to 10752
  153.4606  135.7086  153.6117 H   0  0  0  0  0  0  0  0  0  0  0  0  # atno 10765 bound_to 10752
  140.1531  134.8661  157.2480 H   0  0  0  0  0  0  0  0  0  0  0  0  # atno 11005 bound_to 11000
  145.4381  139.1539  143.3985 LP  0  0  0  0  0  0  0  0  0  0  0  0  # atno 17320 bound_to 7965
  146.2833  140.4501  142.8768 LP  0  0  0  0  0  0  0  0  0  0  0  0  # atno 17321 bound_to 7965
  139.9847  144.6403  150.7868 LP  0  0  0  0  0  0  0  0  0  0  0  0  # atno 17342 bound_to 10162
  140.7522  143.2987  151.3137 LP  0  0  0  0  0  0  0  0  0  0  0  0  # atno 17343 bound_to 10162
  156.3957  130.3906  149.6997 LP  0  0  0  0  0  0  0  0  0  0  0  0  # atno 17370 bound_to 10713
  156.4331  130.7825  151.2845 LP  0  0  0  0  0  0  0  0  0  0  0  0  # atno 17371 bound_to 10713
  140.2580  134.3604  155.7417 LP  0  0  0  0  0  0  0  0  0  0  0  0  # atno 17394 bound_to 11000
  141.2201  133.7354  156.9037 LP  0  0  0  0  0  0  0  0  0  0  0  0  # atno 17395 bound_to 11000

$$$$
