#       Name:                AV-unprocessed.smi:47
#       Creating user name   scv26
#       Creation time:       Thu Mar 26 16:30:32 2020


#       File generated by GOLD software.
#

@<TRIPOS>MOLECULE
AV-unprocessed.smi:47
    36    38     1
SMALL
NO_CHARGES


@<TRIPOS>ATOM
      1 ****        -4.2925  -0.9549  -1.5344 O.3            1 S1                 0.0000
      2 ****        -3.1722  -0.4702  -0.8252 C.3            1 S1                 0.0000
      3 ****        -3.4434   0.8858  -0.1742 C.3            1 S1                 0.0000
      4 ****        -2.4911   0.9730   0.9478 N.4            1 S1                 1.0000
      5 ****        -2.1109  -0.4022   1.3429 C.3            1 S1                 0.0000
      6 ****        -0.6132  -0.4199   1.2306 C.2            1 S1                 0.0000
      7 ****         0.1499  -1.0287   2.1446 N.pl3          1 S1                 0.0000
      8 ****         1.4499  -0.9121   1.7992 N.2            1 S1                 0.0000
      9 ****         1.3647  -0.2223   0.6633 C.2            1 S1                 0.0000
     10 ****         2.5687   0.1589  -0.1111 C.ar           1 S1                 0.0000
     11 ****         2.4714   1.0093  -1.2394 C.ar           1 S1                 0.0000
     12 ****         3.6136   1.3748  -1.9780 C.ar           1 S1                 0.0000
     13 ****         4.8797   0.8937  -1.6009 C.ar           1 S1                 0.0000
     14 ****         4.9983   0.0477  -0.4843 C.ar           1 S1                 0.0000
     15 ****         3.8534  -0.3143   0.2515 C.ar           1 S1                 0.0000
     16 ****         0.1076   0.1174   0.2466 N.2            1 S1                 0.0000
     17 ****        -2.8180  -1.3557   0.3681 C.3            1 S1                 0.0000
     18 ****        -2.3175  -0.3942  -1.4989 H              1 S1                 0.0000
     19 ****        -2.4074  -0.5977   2.3743 H              1 S1                 0.0000
     20 ****        -4.0731  -1.7931  -1.9130 H              1 S1                 0.0000
     21 ****        -3.3316   1.7199  -0.8674 H              1 S1                 0.0000
     22 ****        -4.4540   0.9175   0.2357 H              1 S1                 0.0000
     23 ****        -1.6556   1.4417   0.6262 H              1 S1                 0.0000
     24 ****         1.5128   1.3956  -1.5523 H              1 S1                 0.0000
     25 ****         3.5170   2.0253  -2.8347 H              1 S1                 0.0000
     26 ****         5.7568   1.1729  -2.1660 H              1 S1                 0.0000
     27 ****         5.9684  -0.3256  -0.1909 H              1 S1                 0.0000
     28 ****         3.9753  -0.9665   1.1037 H              1 S1                 0.0000
     29 ****        -3.7369  -1.7140   0.8350 H              1 S1                 0.0000
     30 ****        -2.2227  -2.2303   0.1026 H              1 S1                 0.0000
     31 ****        -2.8914   1.4820   1.7227 H              1 S1                 0.0000
     32 ****        -0.1555  -1.5148   2.9762 H              1 S1                 0.0000
     33 ****        -4.5353  -0.3112  -2.2602 LP             1 S1                 0.0000
     34 ****        -5.0662  -1.0602  -0.9097 LP             1 S1                 0.0000
     35 ****         2.2624  -1.2536   2.2717 LP             1 S1                 0.0000
     36 ****        -0.1867   0.6238  -0.5640 LP             1 S1                 0.0000
@<TRIPOS>BOND
    1    1    2 1     
    2    1   20 1     
    3    2   18 1     
    4    2   17 1     
    5    2    3 1     
    6    3    4 1     
    7    3   21 1     
    8    3   22 1     
    9    4    5 1     
   10    4   23 1     
   11    4   31 1     
   12    5   19 1     
   13    5    6 1     
   14    5   17 1     
   15    6   16 2     
   16    6    7 1     
   17    7    8 1     
   18    7   32 1     
   19    8    9 2     
   20    9   10 1     
   21    9   16 1     
   22   10   15 ar    
   23   10   11 ar    
   24   11   12 ar    
   25   11   24 1     
   26   12   13 ar    
   27   12   25 1     
   28   13   14 ar    
   29   13   26 1     
   30   14   15 ar    
   31   14   27 1     
   32   15   28 1     
   33   17   29 1     
   34   17   30 1     
   35    1   33 1     
   36    1   34 1     
   37    8   35 1     
   38   16   36 1     
@<TRIPOS>SUBSTRUCTURE
      1 S1             1
@<TRIPOS>SET
LONE_PAIRS      STATIC     ATOMS    <user>   **** ""
4 33 34 35 36
DONOR_HYDROGENS      STATIC     ATOMS    <user>   **** ""
4 20 23 31 32
ATOM$BLUE        STATIC     ATOMS    COLORGROUP SYSTEM
4 33 34 35 36
ATOM$RED        STATIC     ATOMS    COLORGROUP SYSTEM
4 20 23 31 32
