AV-unprocessed.smi:1032|AV-procd|sdf|4488|dock10
  -GOLD-   22720 2473D 1   1.00000     0.00000
 Structure written by MMmdl.
 47 48  0  0  0  0  0  0  0  0  3 V2000
  147.5835  129.5364  152.7016 C   0  0  0  0  0  0  0  0  0  0  0  0
  146.1754  130.1149  152.9260 C   0  0  2  0  0  0  0  0  0  0  0  0
  145.3898  130.2953  151.6145 C   0  0  0  0  0  0  0  0  0  0  0  0
  145.8941  131.4942  150.7911 C   0  0  0  0  0  0  0  0  0  0  0  0
  145.8734  132.7462  151.5905 N   0  3  2  0  0  0  0  0  0  0  0  0
  146.2275  133.9390  150.7782 C   0  0  0  0  0  0  0  0  0  0  0  0
  145.3102  135.1452  151.0660 C   0  0  2  0  0  0  0  0  0  0  0  0
  145.7250  136.2103  150.2326 O   0  0  0  0  0  0  0  0  0  0  0  0
  145.4251  135.6092  152.5330 C   0  0  0  0  0  0  0  0  0  0  0  0
  146.5701  136.4908  152.7413 N   0  0  0  0  0  0  0  0  0  0  0  0
  146.5105  137.7068  153.3034 C   0  0  0  0  0  0  0  0  0  0  0  0
  145.4616  138.2201  153.6932 O   0  0  0  0  0  0  0  0  0  0  0  0
  147.7241  138.2824  153.3572 N   0  0  0  0  0  0  0  0  0  0  0  0
  148.0774  139.5496  153.8959 C   0  0  0  0  0  0  0  0  0  0  0  0
  147.1767  140.6198  153.6986 C   0  0  0  0  0  0  0  0  0  0  0  0
  147.4938  141.8981  154.2017 C   0  0  0  0  0  0  0  0  0  0  0  0
  148.6580  142.0930  154.8575 N   0  3  0  0  0  0  0  0  0  0  0  0
  149.5571  141.1055  155.0572 C   0  0  0  0  0  0  0  0  0  0  0  0
  149.2946  139.8060  154.5776 C   0  0  0  0  0  0  0  0  0  0  0  0
  146.6868  132.6171  152.8290 C   0  0  0  0  0  0  0  0  0  0  0  0
  146.1940  131.4464  153.6983 C   0  0  0  0  0  0  0  0  0  0  0  0
  148.2092  130.1942  152.0992 H   0  0  0  0  0  0  0  0  0  0  0  0
  147.5324  128.5739  152.1918 H   0  0  0  0  0  0  0  0  0  0  0  0
  148.0943  129.3749  153.6514 H   0  0  0  0  0  0  0  0  0  0  0  0
  145.6376  129.3876  153.5357 H   0  0  0  0  0  0  0  0  0  0  0  0
  145.4383  129.3842  151.0170 H   0  0  0  0  0  0  0  0  0  0  0  0
  144.3350  130.4467  151.8482 H   0  0  0  0  0  0  0  0  0  0  0  0
  146.9044  131.3104  150.4236 H   0  0  0  0  0  0  0  0  0  0  0  0
  145.2572  131.6105  149.9131 H   0  0  0  0  0  0  0  0  0  0  0  0
  147.2713  134.1961  150.9660 H   0  0  0  0  0  0  0  0  0  0  0  0
  146.1640  133.7012  149.7149 H   0  0  0  0  0  0  0  0  0  0  0  0
  144.2756  134.8947  150.8349 H   0  0  0  0  0  0  0  0  0  0  0  0
  145.0258  136.8443  150.1790 H   0  0  0  0  0  0  0  0  0  0  0  0
  144.5228  136.1491  152.8261 H   0  0  0  0  0  0  0  0  0  0  0  0
  145.4954  134.7566  153.2098 H   0  0  0  0  0  0  0  0  0  0  0  0
  147.4697  136.1457  152.4394 H   0  0  0  0  0  0  0  0  0  0  0  0
  148.4755  137.7750  152.9131 H   0  0  0  0  0  0  0  0  0  0  0  0
  146.2459  140.4659  153.1717 H   0  0  0  0  0  0  0  0  0  0  0  0
  146.8569  142.7646  154.0976 H   0  0  0  0  0  0  0  0  0  0  0  0
  150.4574  141.3833  155.5858 H   0  0  0  0  0  0  0  0  0  0  0  0
  150.0362  139.0371  154.7309 H   0  0  0  0  0  0  0  0  0  0  0  0
  147.7366  132.4809  152.5665 H   0  0  0  0  0  0  0  0  0  0  0  0
  146.6331  133.5332  153.4158 H   0  0  0  0  0  0  0  0  0  0  0  0
  145.1856  131.6688  154.0505 H   0  0  0  0  0  0  0  0  0  0  0  0
  146.8124  131.3566  154.5921 H   0  0  0  0  0  0  0  0  0  0  0  0
  144.9143  132.8782  151.8797 H   0  0  0  0  0  0  0  0  0  0  0  0
  148.8694  143.0261  155.2124 H   0  0  0  0  0  0  0  0  0  0  0  0
  1  2  1  0  0  0  0
  1 22  1  0  0  0  0
  1 23  1  0  0  0  0
  1 24  1  0  0  0  0
  2 21  1  0  0  0  0
  2  3  1  0  0  0  0
  2 25  1  0  0  0  0
  3  4  1  0  0  0  0
  3 26  1  0  0  0  0
  3 27  1  0  0  0  0
  4  5  1  0  0  0  0
  4 28  1  0  0  0  0
  4 29  1  0  0  0  0
  5  6  1  0  0  0  0
  5 20  1  0  0  0  0
  5 46  1  0  0  0  0
  6  7  1  0  0  0  0
  6 30  1  0  0  0  0
  6 31  1  0  0  0  0
  7  8  1  0  0  0  0
  7  9  1  0  0  0  0
  7 32  1  0  0  0  0
  8 33  1  0  0  0  0
  9 10  1  0  0  0  0
  9 34  1  0  0  0  0
  9 35  1  0  0  0  0
 10 11  1  0  0  0  0
 10 36  1  0  0  0  0
 11 12  2  0  0  0  0
 11 13  1  0  0  0  0
 13 14  1  0  0  0  0
 13 37  1  0  0  0  0
 14 19  1  0  0  0  0
 14 15  2  0  0  0  0
 15 16  1  0  0  0  0
 15 38  1  0  0  0  0
 16 17  2  0  0  0  0
 16 39  1  0  0  0  0
 17 18  1  0  0  0  0
 17 47  1  0  0  0  0
 18 19  2  0  0  0  0
 18 40  1  0  0  0  0
 19 41  1  0  0  0  0
 20 21  1  0  0  0  0
 20 42  1  0  0  0  0
 20 43  1  0  0  0  0
 21 44  1  0  0  0  0
 21 45  1  0  0  0  0
M  CHG  1   5   1
M  CHG  1  17   1
M  END
> <s_m_source_file>
AV-unprocessed.smi

> <i_m_source_file_index>
1032

> <i_lp_mmshare_version>
43012

> <i_f3d_flags>
0

> <s_epik_input>
W0NIM11bQ0hdMVtDSDJdW0NIMl1OKFtDSDJdW0NIMl0xKVtDSDJdW0NASF0oW09IXSlbQ0gyXVtOSF1DKD1PKVtOSF1jMltjSF1bY0hdbltjSF1bY0hdMg==

> <s_epik_cmdline>
J2VwaWtfcHl0aG9uJywgJy1waCcsICc3LjAnLCAnLXRuJywgJzgnLCAnLW1hJywgJzIwMCcsICctbWV0YWxfYmluZGluZycsICctaW1hZScsICc8aW5maWxlLm1hZT4nLCAnLW9tYWUnLCAnPG91dGZpbGUubWFlPic=

> <r_epik_Ionization_Penalty>
1.02509

> <r_epik_Ionization_Penalty_Charging>
1.02507

> <r_epik_Ionization_Penalty_Neutral>
1.85474e-05

> <r_epik_State_Penalty>
1.07411

> <r_epik_Charging_Adjusted_Penalty>
2.09917

> <i_epik_Tot_Q>
2

> <i_epik_Tot_abs_Q>
2

> <r_epik_Metal_State_Penalty>
1.1725

> <b_epik_Metal_Only>
0

> <s_lp_Force_Field>
OPLS_2005

> <r_lp_Energy>
33.8521

> <b_lp_Chiralities_Consistent>
1

> <s_lp_Variant>
AV-unprocessed.smi:1032-7

> <Gold.Version>
5.8.1

> <Gold.Id.Protein>
6NUR|6NUR_protein|mol2

> <Gold.PLP.Fitness>
49.5692

> <Gold.PLP.PLP>
-36.7578

> <Gold.PLP.part.hbond>
-5.0000

> <Gold.PLP.part.metal>
0.0000

> <Gold.PLP.part.buried>
-3.3291

> <Gold.PLP.part.nonpolar>
-28.8956

> <Gold.PLP.part.repulsive>
0.6974

> <Gold.PLP.ligand.clash>
0.0000

> <Gold.PLP.ligand.torsion>
1.1011

> <Gold.PLP.Chemscore.Hbond>
4.9920

> <Gold.PLP.Chemscore.CHOScore>
0.0000

> <Gold.PLP.Chemscore.Metal>
0.0000

> <Gold.Chemscore.Hbonds>
donor molecule, donor type, donor heavy atom, donor atom, acceptor molecule, acceptor atom, score
      L1  H     8    33       P1 10171  0.80
      L1  H    10    36       P1  7948  1.00
      L1  H    13    37       P1  7948  0.93
      L1  H    17    47       P1  8028  2.00

> <Gold.PLP.Chemscore.Internal.Correction>
0.0375

> <Gold.Rescore>
     Score         DG    S(hbond)    S(metal)    S(lipo)     H(rot)  DE(clash)    DE(int)     intcor
     21.00     -23.36       3.93        0.00      91.67       2.34       0.10       2.26       ----

> <Gold.Chemscore.Fitness>
20.9991

> <Gold.Chemscore.DG>
-23.3557

> <Gold.Chemscore.ZeroCoef>
-5.4800

> <Gold.Chemscore.Hbond>
3.9339

> <Gold.Chemscore.Metal>
0.0000

> <Gold.Chemscore.Lipo>
91.6661

> <Gold.Chemscore.Internal_Hbond>
0.0000

> <Gold.Chemscore.DEClash>
0.0997

> <Gold.Chemscore.DEInternal>
2.2569

> <Gold.Chemscore.Rot>
2.3393

> <Gold.Chemscore.Internal.Correction>
   9.000000E+99

> <Gold.Chemscore.Hbonds>
donor molecule, donor type, donor heavy atom, donor atom, acceptor molecule, acceptor atom, score
      L1  H     8    33       P1 10171  0.79
      L1  H    10    36       P1  7948  0.97
      L1  H    13    37       P1  7948  0.91
      L1  H    17    47       P1  8028  1.00

> <Gold.Chemscore.Hbond.Weighted>
-13.1394

> <Gold.Chemscore.Metal.Weighted>
-0.0000

> <Gold.Chemscore.Lipo.Weighted>
-10.7249

> <Gold.Chemscore.Internal_Hbond.Weighted>
0.0000

> <Gold.Chemscore.DEClash.Weighted>
0.0997

> <Gold.Chemscore.DEInternal.Weighted>
2.2569

> <Gold.Chemscore.Rot.Weighted>
5.9886

> <Gold.Chemscore.Internal.Correction.Weighted>
   9.000000E+99

> <Gold.Protein.RotatedTorsions>
[ 6907 6896 6895 6894 ] final  -90.38 input  -60.11 | X-H torsion
[ 7974 7965 7964 7962 ] final -100.98 input  175.53 | X-H torsion
[ 8008 7997 7996 7995 ] final    1.19 input   59.86 | X-H torsion
[ 10167 10162 10161 10158 ] final   65.42 input  -65.29 | X-H torsion
[ 10718 10713 10712 10709 ] final -129.31 input   66.30 | X-H torsion
[ 10763 10752 10751 10750 ] final   98.05 input  -60.55 | X-H torsion
[ 11005 11000 10999 10996 ] final   82.54 input  -57.11 | X-H torsion

> <Gold.Protein.ActiveResidues>
 VAL166  LYS551  ARG553  GLY616  TRP617  ASP618  TYR619  PRO620  LYS621  CYS622 
 ASP623  PHE694  ASN695  SER759  ASP760  ASP761  ALA762  ILE779  LEU786  VAL792 
 PHE793  MET794  SER795  GLU796  ALA797  LYS798  CYS799  TRP800  GLU811  SER814 

> <Gold.Protein.RotatedAtoms>
  150.6881  134.2440  159.4483 H   0  0  0  0  0  0  0  0  0  0  0  0  # atno 6907 bound_to 6896
  152.0383  134.9724  160.0583 H   0  0  0  0  0  0  0  0  0  0  0  0  # atno 6908 bound_to 6896
  152.1236  133.4333  159.4724 H   0  0  0  0  0  0  0  0  0  0  0  0  # atno 6909 bound_to 6896
  145.2876  140.9344  143.2896 H   0  0  0  0  0  0  0  0  0  0  0  0  # atno 7974 bound_to 7965
  154.6768  140.2624  155.6949 H   0  0  0  0  0  0  0  0  0  0  0  0  # atno 8008 bound_to 7997
  156.2681  140.2818  156.1220 H   0  0  0  0  0  0  0  0  0  0  0  0  # atno 8009 bound_to 7997
  155.1089  140.0375  157.2708 H   0  0  0  0  0  0  0  0  0  0  0  0  # atno 8010 bound_to 7997
  140.1115  144.4814  150.6975 H   0  0  0  0  0  0  0  0  0  0  0  0  # atno 10167 bound_to 10162
  156.2034  130.6872  151.0566 H   0  0  0  0  0  0  0  0  0  0  0  0  # atno 10718 bound_to 10713
  153.2844  135.4162  155.1108 H   0  0  0  0  0  0  0  0  0  0  0  0  # atno 10763 bound_to 10752
  154.8500  135.3503  154.6068 H   0  0  0  0  0  0  0  0  0  0  0  0  # atno 10764 bound_to 10752
  153.6489  135.7053  153.5273 H   0  0  0  0  0  0  0  0  0  0  0  0  # atno 10765 bound_to 10752
  139.9060  134.8079  156.2189 H   0  0  0  0  0  0  0  0  0  0  0  0  # atno 11005 bound_to 11000
  144.9200  139.4423  143.6546 LP  0  0  0  0  0  0  0  0  0  0  0  0  # atno 17320 bound_to 7965
  146.3196  139.8055  142.8956 LP  0  0  0  0  0  0  0  0  0  0  0  0  # atno 17321 bound_to 7965
  140.6923  143.2383  151.5097 LP  0  0  0  0  0  0  0  0  0  0  0  0  # atno 17342 bound_to 10162
  139.5617  144.2141  152.1701 LP  0  0  0  0  0  0  0  0  0  0  0  0  # atno 17343 bound_to 10162
  157.6999  131.0780  150.6854 LP  0  0  0  0  0  0  0  0  0  0  0  0  # atno 17370 bound_to 10713
  156.6912  130.4595  149.5599 LP  0  0  0  0  0  0  0  0  0  0  0  0  # atno 17371 bound_to 10713
  141.0418  133.6933  156.1612 LP  0  0  0  0  0  0  0  0  0  0  0  0  # atno 17394 bound_to 11000
  140.6943  134.4632  157.5588 LP  0  0  0  0  0  0  0  0  0  0  0  0  # atno 17395 bound_to 11000

$$$$
