AV-unprocessed.smi:6|AV-procd|sdf|39|dock8
  -GOLD-   2262015153D 1   1.00000     0.00000
 Structure written by MMmdl.
 37 38  0  0  0  0  0  0  0  0  1 V2000
  152.9495  142.8171  162.4379 C   0  0  0  0  0  0  0  0  0  0  0  0
  152.6264  142.0620  161.1394 C   0  0  0  0  0  0  0  0  0  0  0  0
  153.7109  141.0471  160.7468 C   0  0  0  0  0  0  0  0  0  0  0  0
  152.2899  143.0103  159.9956 C   0  0  0  0  0  0  0  0  0  0  0  0
  152.4946  144.3157  160.2046 N   0  0  0  0  0  0  0  0  0  0  0  0
  152.1918  145.1520  159.1888 C   0  0  0  0  0  0  0  0  0  0  0  0
  151.6856  144.6778  157.9618 C   0  0  0  0  0  0  0  0  0  0  0  0
  151.5126  143.2830  157.8477 C   0  0  0  0  0  0  0  0  0  0  0  0
  151.0130  142.7466  156.6532 N   0  0  0  0  0  0  0  0  0  0  0  0
  150.1096  141.6037  156.6973 C   0  0  0  0  0  0  0  0  0  0  0  0
  150.8391  140.2713  156.7633 C   0  0  0  0  0  0  0  0  0  0  0  0
  151.2792  139.7546  157.9388 C   0  0  0  0  0  0  0  0  0  0  0  0
  151.9237  138.5322  158.0443 N   0  0  0  0  0  0  0  0  0  0  0  0
  152.3924  137.9953  159.2924 C   0  0  0  0  0  0  0  0  0  0  0  0
  152.1399  137.7507  156.8904 C   0  0  0  0  0  0  0  0  0  0  0  0
  152.7036  136.6562  156.9143 O   0  0  0  0  0  0  0  0  0  0  0  0
  151.6769  138.2751  155.6844 N   0  0  0  0  0  0  0  0  0  0  0  0
  151.0252  139.5023  155.5268 C   0  0  0  0  0  0  0  0  0  0  0  0
  150.6592  139.8536  154.4066 O   0  0  0  0  0  0  0  0  0  0  0  0
  151.8179  142.4547  158.8745 N   0  0  0  0  0  0  0  0  0  0  0  0
  151.8238  137.7201  154.8536 H   0  0  0  0  0  0  0  0  0  0  0  0
  152.1267  143.4731  162.7236 H   0  0  0  0  0  0  0  0  0  0  0  0
  153.8440  143.4315  162.3303 H   0  0  0  0  0  0  0  0  0  0  0  0
  153.1210  142.1242  163.2619 H   0  0  0  0  0  0  0  0  0  0  0  0
  151.7276  141.4780  161.3464 H   0  0  0  0  0  0  0  0  0  0  0  0
  153.4094  140.4724  159.8705 H   0  0  0  0  0  0  0  0  0  0  0  0
  153.8984  140.3412  161.5560 H   0  0  0  0  0  0  0  0  0  0  0  0
  154.6542  141.5417  160.5133 H   0  0  0  0  0  0  0  0  0  0  0  0
  152.3541  146.2064  159.3557 H   0  0  0  0  0  0  0  0  0  0  0  0
  151.4448  145.3529  157.1539 H   0  0  0  0  0  0  0  0  0  0  0  0
  151.5217  142.9209  155.7987 H   0  0  0  0  0  0  0  0  0  0  0  0
  149.4540  141.7071  157.5628 H   0  0  0  0  0  0  0  0  0  0  0  0
  149.4689  141.6042  155.8144 H   0  0  0  0  0  0  0  0  0  0  0  0
  151.1186  140.3300  158.8396 H   0  0  0  0  0  0  0  0  0  0  0  0
  153.4714  137.8505  159.2084 H   0  0  0  0  0  0  0  0  0  0  0  0
  151.8631  137.0566  159.4688 H   0  0  0  0  0  0  0  0  0  0  0  0
  152.1674  138.7125  160.0826 H   0  0  0  0  0  0  0  0  0  0  0  0
  1  2  1  0  0  0  0
  1 22  1  0  0  0  0
  1 23  1  0  0  0  0
  1 24  1  0  0  0  0
  2  3  1  0  0  0  0
  2  4  1  0  0  0  0
  2 25  1  0  0  0  0
  3 26  1  0  0  0  0
  3 27  1  0  0  0  0
  3 28  1  0  0  0  0
  4 20  1  0  0  0  0
  4  5  2  0  0  0  0
  5  6  1  0  0  0  0
  6  7  2  0  0  0  0
  6 29  1  0  0  0  0
  7  8  1  0  0  0  0
  7 30  1  0  0  0  0
  8  9  1  0  0  0  0
  8 20  2  0  0  0  0
  9 10  1  0  0  0  0
  9 31  1  0  0  0  0
 10 11  1  0  0  0  0
 10 32  1  0  0  0  0
 10 33  1  0  0  0  0
 11 18  1  0  0  0  0
 11 12  2  0  0  0  0
 12 13  1  0  0  0  0
 12 34  1  0  0  0  0
 13 14  1  0  0  0  0
 13 15  1  0  0  0  0
 14 35  1  0  0  0  0
 14 36  1  0  0  0  0
 14 37  1  0  0  0  0
 15 16  2  0  0  0  0
 15 17  1  0  0  0  0
 17 21  1  0  0  0  0
 17 18  1  0  0  0  0
 18 19  2  0  0  0  0
M  END
> <s_m_source_file>
AV-unprocessed.smi

> <i_m_source_file_index>
6

> <i_lp_mmshare_version>
43012

> <i_f3d_flags>
0

> <s_epik_input>
W0NIM11bQ0hdKFtDSDNdKWMxbltjSF1bY0hdYyhuMSlbTkhdW0NIMl1jMltjSF1uKFtDSDNdKWMoPU8pW25IXWMyPU8=

> <s_epik_cmdline>
J2VwaWtfcHl0aG9uJywgJy1waCcsICc3LjAnLCAnLXRuJywgJzgnLCAnLW1hJywgJzIwMCcsICctbWV0YWxfYmluZGluZycsICctaW1hZScsICc8aW5maWxlLm1hZT4nLCAnLW9tYWUnLCAnPG91dGZpbGUubWFlPic=

> <r_lp_tautomer_probability>
0.999537

> <r_epik_Ionization_Penalty>
0.308056

> <r_epik_Ionization_Penalty_Charging>
0.000755917

> <r_epik_Ionization_Penalty_Neutral>
0.3073

> <r_epik_State_Penalty>
0.300752

> <r_epik_Charging_Adjusted_Penalty>
0.301508

> <i_epik_Tot_Q>
0

> <i_epik_Tot_abs_Q>
0

> <r_epik_Metal_State_Penalty>
0.395738

> <b_epik_Metal_Only>
0

> <s_lp_Force_Field>
OPLS_2005

> <r_lp_Energy>
3.35028

> <b_lp_Chiralities_Consistent>
1

> <s_lp_Variant>
AV-unprocessed.smi:6-1

> <Gold.Version>
5.8.1

> <Gold.Id.Protein>
6NUR|6NUR_protein|mol2

> <Gold.PLP.Fitness>
47.5299

> <Gold.PLP.PLP>
-43.1634

> <Gold.PLP.part.hbond>
-2.9924

> <Gold.PLP.part.metal>
0.0000

> <Gold.PLP.part.buried>
-6.3941

> <Gold.PLP.part.nonpolar>
-33.9779

> <Gold.PLP.part.repulsive>
0.3723

> <Gold.PLP.ligand.clash>
0.0000

> <Gold.PLP.ligand.torsion>
0.8429

> <Gold.PLP.Chemscore.Hbond>
1.9920

> <Gold.PLP.Chemscore.CHOScore>
0.0000

> <Gold.PLP.Chemscore.Metal>
0.0000

> <Gold.Chemscore.Hbonds>
donor molecule, donor type, donor heavy atom, donor atom, acceptor molecule, acceptor atom, score
      P1  H  7989  7998       L1    19  1.00
      P1  H 10752 10764       L1    16  0.63

> <Gold.PLP.Chemscore.Internal.Correction>
0.0762

> <Gold.Rescore>
     Score         DG    S(hbond)    S(metal)    S(lipo)     H(rot)  DE(clash)    DE(int)     intcor
     15.43     -17.04       1.89        0.00      81.03       1.65       0.13       1.47       ----

> <Gold.Chemscore.Fitness>
15.4348

> <Gold.Chemscore.DG>
-17.0378

> <Gold.Chemscore.ZeroCoef>
-5.4800

> <Gold.Chemscore.Hbond>
1.8878

> <Gold.Chemscore.Metal>
0.0000

> <Gold.Chemscore.Lipo>
81.0272

> <Gold.Chemscore.Internal_Hbond>
0.0000

> <Gold.Chemscore.DEClash>
0.1325

> <Gold.Chemscore.DEInternal>
1.4705

> <Gold.Chemscore.Rot>
1.6514

> <Gold.Chemscore.Internal.Correction>
   9.000000E+99

> <Gold.Chemscore.Hbonds>
donor molecule, donor type, donor heavy atom, donor atom, acceptor molecule, acceptor atom, score
      P1  H  7989  7998       L1    19  0.98
      P1  H 10752 10764       L1    16  0.62

> <Gold.Chemscore.Hbond.Weighted>
-6.3051

> <Gold.Chemscore.Metal.Weighted>
-0.0000

> <Gold.Chemscore.Lipo.Weighted>
-9.4802

> <Gold.Chemscore.Internal_Hbond.Weighted>
0.0000

> <Gold.Chemscore.DEClash.Weighted>
0.1325

> <Gold.Chemscore.DEInternal.Weighted>
1.4705

> <Gold.Chemscore.Rot.Weighted>
4.2275

> <Gold.Chemscore.Internal.Correction.Weighted>
   9.000000E+99

> <Gold.Protein.RotatedTorsions>
[ 6907 6896 6895 6894 ] final  -38.96 input  -60.11 | X-H torsion
[ 7974 7965 7964 7962 ] final  -41.06 input  175.53 | X-H torsion
[ 8008 7997 7996 7995 ] final -174.09 input   59.86 | X-H torsion
[ 10167 10162 10161 10158 ] final  -82.50 input  -65.29 | X-H torsion
[ 10718 10713 10712 10709 ] final  149.66 input   66.30 | X-H torsion
[ 10763 10752 10751 10750 ] final   -6.34 input  -60.55 | X-H torsion
[ 11005 11000 10999 10996 ] final  -96.59 input  -57.11 | X-H torsion

> <Gold.Protein.ActiveResidues>
 VAL166  LYS551  ARG553  GLY616  TRP617  ASP618  TYR619  PRO620  LYS621  CYS622 
 ASP623  PHE694  ASN695  SER759  ASP760  ASP761  ALA762  ILE779  LEU786  VAL792 
 PHE793  MET794  SER795  GLU796  ALA797  LYS798  CYS799  TRP800  GLU811  SER814 

> <Gold.Protein.RotatedAtoms>
  150.9961  134.9284  159.7926 H   0  0  0  0  0  0  0  0  0  0  0  0  # atno 6907 bound_to 6896
  152.5265  134.3217  159.9160 H   0  0  0  0  0  0  0  0  0  0  0  0  # atno 6908 bound_to 6896
  151.3222  133.3994  159.2690 H   0  0  0  0  0  0  0  0  0  0  0  0  # atno 6909 bound_to 6896
  146.0246  140.6807  142.9161 H   0  0  0  0  0  0  0  0  0  0  0  0  # atno 7974 bound_to 7965
  155.9657  140.1153  157.0856 H   0  0  0  0  0  0  0  0  0  0  0  0  # atno 8008 bound_to 7997
  154.4143  140.1173  156.5306 H   0  0  0  0  0  0  0  0  0  0  0  0  # atno 8009 bound_to 7997
  155.6662  140.3473  155.4803 H   0  0  0  0  0  0  0  0  0  0  0  0  # atno 8010 bound_to 7997
  140.4314  143.2547  151.8754 H   0  0  0  0  0  0  0  0  0  0  0  0  # atno 10167 bound_to 10162
  157.2933  131.0857  151.1446 H   0  0  0  0  0  0  0  0  0  0  0  0  # atno 10718 bound_to 10713
  153.4111  135.7007  153.6359 H   0  0  0  0  0  0  0  0  0  0  0  0  # atno 10763 bound_to 10752
  153.4853  135.3684  155.2464 H   0  0  0  0  0  0  0  0  0  0  0  0  # atno 10764 bound_to 10752
  154.8717  135.4076  154.3463 H   0  0  0  0  0  0  0  0  0  0  0  0  # atno 10765 bound_to 10752
  141.1406  133.8109  157.0592 H   0  0  0  0  0  0  0  0  0  0  0  0  # atno 11005 bound_to 11000
  144.7004  140.3627  143.7160 LP  0  0  0  0  0  0  0  0  0  0  0  0  # atno 17320 bound_to 7965
  145.7138  139.1691  143.2524 LP  0  0  0  0  0  0  0  0  0  0  0  0  # atno 17321 bound_to 7965
  139.4785  144.5330  151.8639 LP  0  0  0  0  0  0  0  0  0  0  0  0  # atno 17342 bound_to 10162
  140.4422  144.1970  150.5892 LP  0  0  0  0  0  0  0  0  0  0  0  0  # atno 17343 bound_to 10162
  157.2834  130.6761  149.6077 LP  0  0  0  0  0  0  0  0  0  0  0  0  # atno 17370 bound_to 10713
  155.9668  130.4443  150.5455 LP  0  0  0  0  0  0  0  0  0  0  0  0  # atno 17371 bound_to 10713
  140.0582  134.9769  157.1258 LP  0  0  0  0  0  0  0  0  0  0  0  0  # atno 17394 bound_to 11000
  140.3887  134.2208  155.7167 LP  0  0  0  0  0  0  0  0  0  0  0  0  # atno 17395 bound_to 11000

$$$$
