AV-unprocessed.smi:2697|AV-procd|sdf|10415|dock7
  -GOLD-   2272014453D 1   1.00000     0.00000
 Structure written by MMmdl.
 32 33  0  0  0  0  0  0  0  0  2 V2000
  149.2309  137.5443  158.3330 C   0  0  0  0  0  0  0  0  0  0  0  0
  150.4183  138.3341  158.5794 N   0  0  0  0  0  0  0  0  0  0  0  0
  151.5726  137.9638  159.2361 C   0  0  0  0  0  0  0  0  0  0  0  0
  152.3870  139.0576  159.1951 C   0  0  0  0  0  0  0  0  0  0  0  0
  153.7873  139.1353  159.7260 C   0  0  0  0  0  0  0  0  0  0  0  0
  154.2363  138.0329  160.3319 N   0  0  0  0  0  0  0  0  0  0  0  0
  154.4554  140.1629  159.6367 O   0  0  0  0  0  0  0  0  0  0  0  0
  151.6675  140.0673  158.4894 C   0  0  0  0  0  0  0  0  0  0  0  0
  152.0655  141.4795  158.1234 C   0  0  2  0  0  0  0  0  0  0  0  0
  152.4889  142.3033  159.3556 C   0  0  0  0  0  0  0  0  0  0  0  0
  152.8772  143.7301  158.9371 C   0  0  0  0  0  0  0  0  0  0  0  0
  151.7454  144.3964  158.1364 C   0  0  0  0  0  0  0  0  0  0  0  0
  151.3732  143.5706  156.9667 N   0  3  0  0  0  0  0  0  0  0  0  0
  150.9540  142.2003  157.3348 C   0  0  0  0  0  0  0  0  0  0  0  0
  150.4765  139.6069  158.1208 N   0  0  0  0  0  0  0  0  0  0  0  0
  149.2737  136.6160  158.9035 H   0  0  0  0  0  0  0  0  0  0  0  0
  149.1628  137.3053  157.2715 H   0  0  0  0  0  0  0  0  0  0  0  0
  148.3434  138.1027  158.6329 H   0  0  0  0  0  0  0  0  0  0  0  0
  151.7126  136.9778  159.6547 H   0  0  0  0  0  0  0  0  0  0  0  0
  155.1709  138.0107  160.7131 H   0  0  0  0  0  0  0  0  0  0  0  0
  153.6381  137.2226  160.4055 H   0  0  0  0  0  0  0  0  0  0  0  0
  152.9392  141.4392  157.4746 H   0  0  0  0  0  0  0  0  0  0  0  0
  151.6724  142.3494  160.0775 H   0  0  0  0  0  0  0  0  0  0  0  0
  153.3268  141.8226  159.8619 H   0  0  0  0  0  0  0  0  0  0  0  0
  153.1116  144.3265  159.8194 H   0  0  0  0  0  0  0  0  0  0  0  0
  153.7854  143.7006  158.3336 H   0  0  0  0  0  0  0  0  0  0  0  0
  150.8674  144.5417  158.7671 H   0  0  0  0  0  0  0  0  0  0  0  0
  152.0568  145.3821  157.7904 H   0  0  0  0  0  0  0  0  0  0  0  0
  150.6174  144.0224  156.4717 H   0  0  0  0  0  0  0  0  0  0  0  0
  150.7168  141.6493  156.4243 H   0  0  0  0  0  0  0  0  0  0  0  0
  150.0367  142.2563  157.9227 H   0  0  0  0  0  0  0  0  0  0  0  0
  152.1725  143.5059  156.3523 H   0  0  0  0  0  0  0  0  0  0  0  0
  1  2  1  0  0  0  0
  1 16  1  0  0  0  0
  1 17  1  0  0  0  0
  1 18  1  0  0  0  0
  2 15  1  0  0  0  0
  2  3  1  0  0  0  0
  3  4  2  0  0  0  0
  3 19  1  0  0  0  0
  4  5  1  0  0  0  0
  4  8  1  0  0  0  0
  5  6  1  0  0  0  0
  5  7  2  0  0  0  0
  6 20  1  0  0  0  0
  6 21  1  0  0  0  0
  8  9  1  0  0  0  0
  8 15  2  0  0  0  0
  9 14  1  0  0  0  0
  9 10  1  0  0  0  0
  9 22  1  0  0  0  0
 10 11  1  0  0  0  0
 10 23  1  0  0  0  0
 10 24  1  0  0  0  0
 11 12  1  0  0  0  0
 11 25  1  0  0  0  0
 11 26  1  0  0  0  0
 12 13  1  0  0  0  0
 12 27  1  0  0  0  0
 12 28  1  0  0  0  0
 13 14  1  0  0  0  0
 13 29  1  0  0  0  0
 13 32  1  0  0  0  0
 14 30  1  0  0  0  0
 14 31  1  0  0  0  0
M  CHG  1  13   1
M  END
> <s_m_source_file>
AV-unprocessed.smi

> <i_m_source_file_index>
2697

> <i_lp_mmshare_version>
43012

> <i_f3d_flags>
0

> <s_epik_input>
W0NIM11uMVtjSF1jKEMoPU8pW05IMl0pYyhuMSlbQ0BASF0yW0NIMl1bQ0gyXVtDSDJdW05IXVtDSDJdMg==

> <s_epik_cmdline>
J2VwaWtfcHl0aG9uJywgJy1waCcsICc3LjAnLCAnLXRuJywgJzgnLCAnLW1hJywgJzIwMCcsICctbWV0YWxfYmluZGluZycsICctaW1hZScsICc8aW5maWxlLm1hZT4nLCAnLW9tYWUnLCAnPG91dGZpbGUubWFlPic=

> <r_lp_tautomer_probability>
1

> <r_epik_Ionization_Penalty>
0.000158942

> <r_epik_Ionization_Penalty_Charging>
0.000157527

> <r_epik_Ionization_Penalty_Neutral>
1.41498e-06

> <r_epik_State_Penalty>
-0

> <r_epik_Charging_Adjusted_Penalty>
0.000157527

> <i_epik_Tot_Q>
1

> <i_epik_Tot_abs_Q>
1

> <r_epik_Metal_State_Penalty>
-0

> <b_epik_Metal_Only>
0

> <s_lp_Force_Field>
OPLS_2005

> <r_lp_Energy>
9.94433

> <b_lp_Chiralities_Consistent>
1

> <s_lp_Variant>
AV-unprocessed.smi:2697-1

> <Gold.Version>
5.8.1

> <Gold.Id.Protein>
6NUR|6NUR_protein|mol2

> <Gold.PLP.Fitness>
37.0593

> <Gold.PLP.PLP>
-28.0799

> <Gold.PLP.part.hbond>
-2.0000

> <Gold.PLP.part.metal>
0.0000

> <Gold.PLP.part.buried>
-4.0152

> <Gold.PLP.part.nonpolar>
-22.0631

> <Gold.PLP.part.repulsive>
0.0524

> <Gold.PLP.ligand.clash>
0.0000

> <Gold.PLP.ligand.torsion>
0.0271

> <Gold.PLP.Chemscore.Hbond>
3.0000

> <Gold.PLP.Chemscore.CHOScore>
0.0000

> <Gold.PLP.Chemscore.Metal>
0.0000

> <Gold.Chemscore.Hbonds>
donor molecule, donor type, donor heavy atom, donor atom, acceptor molecule, acceptor atom, score
      L1  H    13    29       P1  8028  2.00
      P1  H  7997  8008       L1     7  0.11

> <Gold.PLP.Chemscore.Internal.Correction>
0.0335

> <Gold.Rescore>
     Score         DG    S(hbond)    S(metal)    S(lipo)     H(rot)  DE(clash)    DE(int)     intcor
     17.55     -17.68       1.99        0.00      69.47       1.00       0.04       0.09       ----

> <Gold.Chemscore.Fitness>
17.5530

> <Gold.Chemscore.DG>
-17.6789

> <Gold.Chemscore.ZeroCoef>
-5.4800

> <Gold.Chemscore.Hbond>
1.9852

> <Gold.Chemscore.Metal>
0.0000

> <Gold.Chemscore.Lipo>
69.4738

> <Gold.Chemscore.Internal_Hbond>
0.0000

> <Gold.Chemscore.DEClash>
0.0354

> <Gold.Chemscore.DEInternal>
0.0905

> <Gold.Chemscore.Rot>
1.0000

> <Gold.Chemscore.Internal.Correction>
   9.000000E+99

> <Gold.Chemscore.Hbonds>
donor molecule, donor type, donor heavy atom, donor atom, acceptor molecule, acceptor atom, score
      L1  H    13    29       P1  8028  0.94
      P1  H  7997  8008       L1     7  0.03

> <Gold.Chemscore.Hbond.Weighted>
-6.6305

> <Gold.Chemscore.Metal.Weighted>
-0.0000

> <Gold.Chemscore.Lipo.Weighted>
-8.1284

> <Gold.Chemscore.Internal_Hbond.Weighted>
0.0000

> <Gold.Chemscore.DEClash.Weighted>
0.0354

> <Gold.Chemscore.DEInternal.Weighted>
0.0905

> <Gold.Chemscore.Rot.Weighted>
2.5600

> <Gold.Chemscore.Internal.Correction.Weighted>
   9.000000E+99

> <Gold.Protein.RotatedTorsions>
[ 6907 6896 6895 6894 ] final  158.57 input  -60.11 | X-H torsion
[ 7974 7965 7964 7962 ] final  -17.83 input  175.53 | X-H torsion
[ 8008 7997 7996 7995 ] final -118.99 input   59.86 | X-H torsion
[ 10167 10162 10161 10158 ] final -102.81 input  -65.29 | X-H torsion
[ 10718 10713 10712 10709 ] final    9.17 input   66.30 | X-H torsion
[ 10763 10752 10751 10750 ] final   33.34 input  -60.55 | X-H torsion
[ 11005 11000 10999 10996 ] final  105.40 input  -57.11 | X-H torsion

> <Gold.Protein.ActiveResidues>
 VAL166  LYS551  ARG553  GLY616  TRP617  ASP618  TYR619  PRO620  LYS621  CYS622 
 ASP623  PHE694  ASN695  SER759  ASP760  ASP761  ALA762  ILE779  LEU786  VAL792 
 PHE793  MET794  SER795  GLU796  ALA797  LYS798  CYS799  TRP800  GLU811  SER814 

> <Gold.Protein.RotatedAtoms>
  151.9984  133.3816  159.4171 H   0  0  0  0  0  0  0  0  0  0  0  0  # atno 6907 bound_to 6896
  150.6913  134.3861  159.5065 H   0  0  0  0  0  0  0  0  0  0  0  0  # atno 6908 bound_to 6896
  152.1604  134.8916  160.0592 H   0  0  0  0  0  0  0  0  0  0  0  0  # atno 6909 bound_to 6896
  146.1922  140.3835  142.8454 H   0  0  0  0  0  0  0  0  0  0  0  0  # atno 7974 bound_to 7965
  155.1085  140.0397  157.2717 H   0  0  0  0  0  0  0  0  0  0  0  0  # atno 8008 bound_to 7997
  154.6704  140.2611  155.6988 H   0  0  0  0  0  0  0  0  0  0  0  0  # atno 8009 bound_to 7997
  156.2656  140.2799  156.1210 H   0  0  0  0  0  0  0  0  0  0  0  0  # atno 8010 bound_to 7997
  140.2267  143.3636  152.0922 H   0  0  0  0  0  0  0  0  0  0  0  0  # atno 10167 bound_to 10162
  156.9624  130.5938  149.5663 H   0  0  0  0  0  0  0  0  0  0  0  0  # atno 10718 bound_to 10713
  153.0216  135.6389  154.1497 H   0  0  0  0  0  0  0  0  0  0  0  0  # atno 10763 bound_to 10752
  154.1230  135.2845  155.3205 H   0  0  0  0  0  0  0  0  0  0  0  0  # atno 10764 bound_to 10752
  154.6249  135.5512  153.7678 H   0  0  0  0  0  0  0  0  0  0  0  0  # atno 10765 bound_to 10752
  139.8801  134.9334  156.5508 H   0  0  0  0  0  0  0  0  0  0  0  0  # atno 11005 bound_to 11000
  144.8508  140.6999  143.6169 LP  0  0  0  0  0  0  0  0  0  0  0  0  # atno 17320 bound_to 7965
  145.3758  139.1648  143.4307 LP  0  0  0  0  0  0  0  0  0  0  0  0  # atno 17321 bound_to 7965
  139.5124  144.6917  151.5742 LP  0  0  0  0  0  0  0  0  0  0  0  0  # atno 17342 bound_to 10162
  140.6215  143.9249  150.6530 LP  0  0  0  0  0  0  0  0  0  0  0  0  # atno 17343 bound_to 10162
  156.0316  130.5407  150.8549 LP  0  0  0  0  0  0  0  0  0  0  0  0  # atno 17370 bound_to 10713
  157.5648  131.0946  150.9505 LP  0  0  0  0  0  0  0  0  0  0  0  0  # atno 17371 bound_to 10713
  140.8242  133.8330  155.8923 LP  0  0  0  0  0  0  0  0  0  0  0  0  # atno 17394 bound_to 11000
  140.9390  134.1925  157.4811 LP  0  0  0  0  0  0  0  0  0  0  0  0  # atno 17395 bound_to 11000

$$$$
