AV-unprocessed.smi:249|AV-procd|sdf|1915|dock8
  -GOLD-   2262021 13D 1   1.00000     0.00000
 Structure written by MMmdl.
 64 67  0  0  0  0  0  0  0  0  2 V2000
  144.6833  134.4806  150.7884 C   0  0  0  0  0  0  0  0  0  0  0  0
  143.8199  133.6094  151.7152 C   0  0  0  0  0  0  0  0  0  0  0  0
  144.5171  133.2154  152.9738 N   0  3  1  0  0  0  0  0  0  0  0  0
  145.6349  132.2652  152.7042 C   0  0  0  0  0  0  0  0  0  0  0  0
  146.3167  131.7840  153.9947 C   0  0  0  0  0  0  0  0  0  0  0  0
  146.8690  132.9641  154.8116 C   0  0  1  0  0  0  0  0  0  0  0  0
  147.9909  133.6369  154.1362 N   0  0  0  0  0  0  0  0  0  0  0  0
  148.8042  132.8356  153.2269 C   0  0  0  0  0  0  0  0  0  0  0  0
  148.7809  134.3915  154.9320 C   0  0  0  0  0  0  0  0  0  0  0  0
  149.7960  133.7639  155.5747 N   0  0  0  0  0  0  0  0  0  0  0  0
  150.6149  134.4620  156.3674 C   0  0  0  0  0  0  0  0  0  0  0  0
  150.5934  135.7669  156.6489 N   0  0  0  0  0  0  0  0  0  0  0  0
  149.5667  136.3968  156.0084 C   0  0  0  0  0  0  0  0  0  0  0  0
  148.6194  135.7901  155.1377 C   0  0  0  0  0  0  0  0  0  0  0  0
  147.7224  136.7433  154.6711 N   0  0  0  0  0  0  0  0  0  0  0  0
  148.1190  137.8530  155.2328 C   0  0  0  0  0  0  0  0  0  0  0  0
  149.2231  137.7367  156.0466 N   0  0  0  0  0  0  0  0  0  0  0  0
  149.8668  138.8063  156.7900 C   0  0  0  0  0  0  0  0  0  0  0  0
  150.9232  139.5801  155.9615 C   0  0  2  0  0  0  0  0  0  0  0  0
  151.9868  138.6171  155.3740 C   0  0  0  0  0  0  0  0  0  0  0  0
  153.1325  139.3118  154.9285 O   0  0  0  0  0  0  0  0  0  0  0  0
  151.5572  140.7073  156.8225 C   0  0  2  0  0  0  0  0  0  0  0  0
  152.2422  140.2228  158.0980 C   0  0  0  0  0  0  0  0  0  0  0  0
  152.0962  141.3843  159.0858 C   0  0  0  0  0  0  0  0  0  0  0  0
  151.3379  142.3773  158.4094 O   0  0  0  0  0  0  0  0  0  0  0  0
  150.5842  141.7411  157.3920 C   0  0  0  0  0  0  0  0  0  0  0  0
  145.6693  133.8929  155.0983 C   0  0  0  0  0  0  0  0  0  0  0  0
  144.9609  134.3781  153.8112 C   0  0  2  0  0  0  0  0  0  0  0  0
  143.8006  135.3111  154.2165 C   0  0  0  0  0  0  0  0  0  0  0  0
  144.1865  134.6201  149.8279 H   0  0  0  0  0  0  0  0  0  0  0  0
  145.6485  134.0125  150.5925 H   0  0  0  0  0  0  0  0  0  0  0  0
  144.8620  135.4748  151.1962 H   0  0  0  0  0  0  0  0  0  0  0  0
  142.8827  134.1154  151.9515 H   0  0  0  0  0  0  0  0  0  0  0  0
  143.5550  132.7313  151.1318 H   0  0  0  0  0  0  0  0  0  0  0  0
  145.2671  131.3854  152.1791 H   0  0  0  0  0  0  0  0  0  0  0  0
  146.3654  132.7385  152.0461 H   0  0  0  0  0  0  0  0  0  0  0  0
  145.5910  131.2362  154.5975 H   0  0  0  0  0  0  0  0  0  0  0  0
  147.1014  131.0641  153.7620 H   0  0  0  0  0  0  0  0  0  0  0  0
  147.2409  132.5738  155.7596 H   0  0  0  0  0  0  0  0  0  0  0  0
  149.7502  133.3241  152.9857 H   0  0  0  0  0  0  0  0  0  0  0  0
  148.2747  132.6772  152.2876 H   0  0  0  0  0  0  0  0  0  0  0  0
  149.0275  131.8616  153.6636 H   0  0  0  0  0  0  0  0  0  0  0  0
  151.4003  133.8942  156.8444 H   0  0  0  0  0  0  0  0  0  0  0  0
  147.6160  138.7948  155.0662 H   0  0  0  0  0  0  0  0  0  0  0  0
  149.0769  139.4731  157.1350 H   0  0  0  0  0  0  0  0  0  0  0  0
  150.3262  138.3867  157.6859 H   0  0  0  0  0  0  0  0  0  0  0  0
  150.3975  140.0459  155.1262 H   0  0  0  0  0  0  0  0  0  0  0  0
  152.2752  137.8639  156.1078 H   0  0  0  0  0  0  0  0  0  0  0  0
  151.6071  138.0788  154.5069 H   0  0  0  0  0  0  0  0  0  0  0  0
  153.4141  138.9337  154.1093 H   0  0  0  0  0  0  0  0  0  0  0  0
  152.2962  141.2416  156.2228 H   0  0  0  0  0  0  0  0  0  0  0  0
  151.7422  139.3401  158.4988 H   0  0  0  0  0  0  0  0  0  0  0  0
  153.2873  139.9637  157.9248 H   0  0  0  0  0  0  0  0  0  0  0  0
  151.5661  141.0638  159.9836 H   0  0  0  0  0  0  0  0  0  0  0  0
  153.0612  141.7915  159.3885 H   0  0  0  0  0  0  0  0  0  0  0  0
  150.2516  142.4666  156.6495 H   0  0  0  0  0  0  0  0  0  0  0  0
  149.7066  141.2630  157.8308 H   0  0  0  0  0  0  0  0  0  0  0  0
  144.9495  133.3520  155.7147 H   0  0  0  0  0  0  0  0  0  0  0  0
  145.9761  134.7441  155.7069 H   0  0  0  0  0  0  0  0  0  0  0  0
  145.6703  134.9627  153.2236 H   0  0  0  0  0  0  0  0  0  0  0  0
  144.1304  136.0429  154.9547 H   0  0  0  0  0  0  0  0  0  0  0  0
  142.9746  134.7518  154.6571 H   0  0  0  0  0  0  0  0  0  0  0  0
  143.4149  135.8893  153.3778 H   0  0  0  0  0  0  0  0  0  0  0  0
  143.8402  132.7144  153.5311 H   0  0  0  0  0  0  0  0  0  0  0  0
  1  2  1  0  0  0  0
  1 30  1  0  0  0  0
  1 31  1  0  0  0  0
  1 32  1  0  0  0  0
  2  3  1  0  0  0  0
  2 33  1  0  0  0  0
  2 34  1  0  0  0  0
  3 28  1  0  0  0  0
  3  4  1  0  0  0  0
  3 64  1  0  0  0  0
  4  5  1  0  0  0  0
  4 35  1  0  0  0  0
  4 36  1  0  0  0  0
  5  6  1  0  0  0  0
  5 37  1  0  0  0  0
  5 38  1  0  0  0  0
  6  7  1  0  0  0  0
  6 27  1  0  0  0  0
  6 39  1  0  0  0  0
  7  8  1  0  0  0  0
  7  9  1  0  0  0  0
  8 40  1  0  0  0  0
  8 41  1  0  0  0  0
  8 42  1  0  0  0  0
  9 14  1  0  0  0  0
  9 10  2  0  0  0  0
 10 11  1  0  0  0  0
 11 12  2  0  0  0  0
 11 43  1  0  0  0  0
 12 13  1  0  0  0  0
 13 17  1  0  0  0  0
 13 14  2  0  0  0  0
 14 15  1  0  0  0  0
 15 16  2  0  0  0  0
 16 17  1  0  0  0  0
 16 44  1  0  0  0  0
 17 18  1  0  0  0  0
 18 19  1  0  0  0  0
 18 45  1  0  0  0  0
 18 46  1  0  0  0  0
 19 20  1  0  0  0  0
 19 22  1  0  0  0  0
 19 47  1  0  0  0  0
 20 21  1  0  0  0  0
 20 48  1  0  0  0  0
 20 49  1  0  0  0  0
 21 50  1  0  0  0  0
 22 26  1  0  0  0  0
 22 23  1  0  0  0  0
 22 51  1  0  0  0  0
 23 24  1  0  0  0  0
 23 52  1  0  0  0  0
 23 53  1  0  0  0  0
 24 25  1  0  0  0  0
 24 54  1  0  0  0  0
 24 55  1  0  0  0  0
 25 26  1  0  0  0  0
 26 56  1  0  0  0  0
 26 57  1  0  0  0  0
 27 28  1  0  0  0  0
 27 58  1  0  0  0  0
 27 59  1  0  0  0  0
 28 29  1  0  0  0  0
 28 60  1  0  0  0  0
 29 61  1  0  0  0  0
 29 62  1  0  0  0  0
 29 63  1  0  0  0  0
M  CHG  1   3   1
M  END
> <s_m_source_file>
AV-unprocessed.smi

> <i_m_source_file_index>
249

> <i_lp_mmshare_version>
43012

> <i_f3d_flags>
0

> <s_epik_input>
W0NIM11bQ0gyXU4xW0NIMl1bQ0gyXVtDQEhdKFtDSDJdW0NASF0xW0NIM10pTihbQ0gzXSljKG5bY0hdbjIpYyhjMjMpbltjSF1uM1tDSDJdW0NASF0oW0NIMl1bT0hdKVtDQEBIXTRbQ0gyXVtDSDJdT1tDSDJdNA==

> <s_epik_cmdline>
J2VwaWtfcHl0aG9uJywgJy1waCcsICc3LjAnLCAnLXRuJywgJzgnLCAnLW1hJywgJzIwMCcsICctbWV0YWxfYmluZGluZycsICctaW1hZScsICc8aW5maWxlLm1hZT4nLCAnLW9tYWUnLCAnPG91dGZpbGUubWFlPic=

> <r_lp_tautomer_probability>
1

> <r_epik_Ionization_Penalty>
0.00294688

> <r_epik_Ionization_Penalty_Charging>
0.00169971

> <r_epik_Ionization_Penalty_Neutral>
0.00124717

> <r_epik_State_Penalty>
-0

> <r_epik_Charging_Adjusted_Penalty>
0.00169971

> <i_epik_Tot_Q>
1

> <i_epik_Tot_abs_Q>
1

> <r_epik_Metal_State_Penalty>
-0

> <b_epik_Metal_Only>
0

> <s_lp_Force_Field>
OPLS_2005

> <r_lp_Energy>
57.0606

> <b_lp_Chiralities_Consistent>
1

> <s_lp_Variant>
AV-unprocessed.smi:249-18

> <Gold.Version>
5.8.1

> <Gold.Id.Protein>
6NUR|6NUR_protein|mol2

> <Gold.PLP.Fitness>
41.5077

> <Gold.PLP.PLP>
-34.9330

> <Gold.PLP.part.hbond>
-2.9912

> <Gold.PLP.part.metal>
0.0000

> <Gold.PLP.part.buried>
-6.7097

> <Gold.PLP.part.nonpolar>
-26.2073

> <Gold.PLP.part.repulsive>
0.9359

> <Gold.PLP.ligand.clash>
0.0000

> <Gold.PLP.ligand.torsion>
1.5806

> <Gold.PLP.Chemscore.Hbond>
3.0466

> <Gold.PLP.Chemscore.CHOScore>
0.0000

> <Gold.PLP.Chemscore.Metal>
0.0000

> <Gold.Chemscore.Hbonds>
donor molecule, donor type, donor heavy atom, donor atom, acceptor molecule, acceptor atom, score
      L1  H     3    64       P1 10957  2.00
      P1  H  7997  8010       L1    21  1.00

> <Gold.PLP.Chemscore.Internal.Correction>
0.5960

> <Gold.Rescore>
     Score         DG    S(hbond)    S(metal)    S(lipo)     H(rot)  DE(clash)    DE(int)     intcor
     12.48     -13.65       1.98        0.00      76.82       2.90       0.06       1.10       ----

> <Gold.Chemscore.Fitness>
12.4834

> <Gold.Chemscore.DG>
-13.6482

> <Gold.Chemscore.ZeroCoef>
-5.4800

> <Gold.Chemscore.Hbond>
1.9777

> <Gold.Chemscore.Metal>
0.0000

> <Gold.Chemscore.Lipo>
76.8224

> <Gold.Chemscore.Internal_Hbond>
0.0000

> <Gold.Chemscore.DEClash>
0.0605

> <Gold.Chemscore.DEInternal>
1.1043

> <Gold.Chemscore.Rot>
2.9006

> <Gold.Chemscore.Internal.Correction>
   9.000000E+99

> <Gold.Chemscore.Hbonds>
donor molecule, donor type, donor heavy atom, donor atom, acceptor molecule, acceptor atom, score
      L1  H     3    64       P1 10957  0.60
      P1  H  7997  8010       L1    21  0.94

> <Gold.Chemscore.Hbond.Weighted>
-6.6056

> <Gold.Chemscore.Metal.Weighted>
-0.0000

> <Gold.Chemscore.Lipo.Weighted>
-8.9882

> <Gold.Chemscore.Internal_Hbond.Weighted>
0.0000

> <Gold.Chemscore.DEClash.Weighted>
0.0605

> <Gold.Chemscore.DEInternal.Weighted>
1.1043

> <Gold.Chemscore.Rot.Weighted>
7.4256

> <Gold.Chemscore.Internal.Correction.Weighted>
   9.000000E+99

> <Gold.Protein.RotatedTorsions>
[ 6907 6896 6895 6894 ] final -122.74 input  -60.11 | X-H torsion
[ 7974 7965 7964 7962 ] final -178.83 input  175.53 | X-H torsion
[ 8008 7997 7996 7995 ] final   99.73 input   59.86 | X-H torsion
[ 10167 10162 10161 10158 ] final   74.01 input  -65.29 | X-H torsion
[ 10718 10713 10712 10709 ] final  -78.67 input   66.30 | X-H torsion
[ 10763 10752 10751 10750 ] final -111.54 input  -60.55 | X-H torsion
[ 11005 11000 10999 10996 ] final -157.64 input  -57.11 | X-H torsion

> <Gold.Protein.ActiveResidues>
 VAL166  LYS551  ARG553  GLY616  TRP617  ASP618  TYR619  PRO620  LYS621  CYS622 
 ASP623  PHE694  ASN695  SER759  ASP760  ASP761  ALA762  ILE779  LEU786  VAL792 
 PHE793  MET794  SER795  GLU796  ALA797  LYS798  CYS799  TRP800  GLU811  SER814 

> <Gold.Protein.RotatedAtoms>
  150.8605  133.7651  159.2993 H   0  0  0  0  0  0  0  0  0  0  0  0  # atno 6907 bound_to 6896
  151.5295  135.1066  159.9908 H   0  0  0  0  0  0  0  0  0  0  0  0  # atno 6908 bound_to 6896
  152.4622  133.7803  159.6903 H   0  0  0  0  0  0  0  0  0  0  0  0  # atno 6909 bound_to 6896
  144.7133  140.0809  143.6425 H   0  0  0  0  0  0  0  0  0  0  0  0  # atno 7974 bound_to 7965
  156.1134  140.3224  155.8105 H   0  0  0  0  0  0  0  0  0  0  0  0  # atno 8008 bound_to 7997
  155.4632  140.0541  157.3005 H   0  0  0  0  0  0  0  0  0  0  0  0  # atno 8009 bound_to 7997
  154.4776  140.2039  155.9855 H   0  0  0  0  0  0  0  0  0  0  0  0  # atno 8010 bound_to 7997
  140.0183  144.5560  150.7602 H   0  0  0  0  0  0  0  0  0  0  0  0  # atno 10167 bound_to 10162
  156.0111  130.4524  150.3532 H   0  0  0  0  0  0  0  0  0  0  0  0  # atno 10718 bound_to 10713
  154.8305  135.4524  154.1054 H   0  0  0  0  0  0  0  0  0  0  0  0  # atno 10763 bound_to 10752
  153.2331  135.6908  153.7873 H   0  0  0  0  0  0  0  0  0  0  0  0  # atno 10764 bound_to 10752
  153.7248  135.3336  155.3250 H   0  0  0  0  0  0  0  0  0  0  0  0  # atno 10765 bound_to 10752
  140.6624  134.4335  157.5234 H   0  0  0  0  0  0  0  0  0  0  0  0  # atno 11005 bound_to 11000
  145.9703  139.2865  143.1103 LP  0  0  0  0  0  0  0  0  0  0  0  0  # atno 17320 bound_to 7965
  145.9124  140.9171  143.0447 LP  0  0  0  0  0  0  0  0  0  0  0  0  # atno 17321 bound_to 7965
  140.7353  143.2739  151.3802 LP  0  0  0  0  0  0  0  0  0  0  0  0  # atno 17342 bound_to 10162
  139.6157  144.1008  152.2343 LP  0  0  0  0  0  0  0  0  0  0  0  0  # atno 17343 bound_to 10162
  157.1623  131.0348  151.2835 LP  0  0  0  0  0  0  0  0  0  0  0  0  # atno 17370 bound_to 10713
  157.4300  130.7485  149.6982 LP  0  0  0  0  0  0  0  0  0  0  0  0  # atno 17371 bound_to 10713
  139.9008  134.8560  156.1903 LP  0  0  0  0  0  0  0  0  0  0  0  0  # atno 17394 bound_to 11000
  141.0455  133.6915  156.1675 LP  0  0  0  0  0  0  0  0  0  0  0  0  # atno 17395 bound_to 11000

$$$$
