AV-unprocessed.smi:1056|AV-procd|sdf|4646|dock6
  -GOLD-   22720 3153D 1   1.00000     0.00000
 Structure written by MMmdl.
 45 47  0  0  0  0  0  0  0  0  4 V2000
  152.4968  142.7312  160.9441 C   0  0  0  0  0  0  0  0  0  0  0  0
  152.1485  142.0754  159.6186 C   0  0  0  0  0  0  0  0  0  0  0  0
  151.2690  142.7508  158.7429 C   0  0  0  0  0  0  0  0  0  0  0  0
  150.9717  142.1272  157.5369 C   0  0  0  0  0  0  0  0  0  0  0  0
  150.1558  142.5308  156.4786 N   0  3  0  0  0  0  0  0  0  0  0  0
  150.1758  141.5820  155.5028 C   0  0  0  0  0  0  0  0  0  0  0  0
  150.9885  140.5743  155.9238 N   0  0  0  0  0  0  0  0  0  0  0  0
  151.3533  139.3211  155.2415 C   0  0  0  0  0  0  0  0  0  0  0  0
  150.1440  138.4387  154.8611 C   0  0  2  0  0  0  0  0  0  0  0  0
  150.6037  137.3425  154.0932 O   0  0  0  0  0  0  0  0  0  0  0  0
  149.0617  139.1951  154.0593 C   0  0  0  0  0  0  0  0  0  0  0  0
  148.0233  138.2987  153.4883 N   0  3  2  0  0  0  0  0  0  0  0  0
  147.0576  139.0245  152.6228 C   0  0  0  0  0  0  0  0  0  0  0  0
  146.2077  138.0274  151.8122 C   0  0  0  0  0  0  0  0  0  0  0  0
  145.6934  136.9671  152.6866 N   0  5  0  0  0  0  0  0  0  0  0  0
  146.2228  136.5742  153.8868 C   0  0  0  0  0  0  0  0  0  0  0  0
  145.8696  135.5913  154.5347 O   0  0  0  0  0  0  0  0  0  0  0  0
  147.3267  137.4679  154.5131 C   0  0  0  0  0  0  0  0  0  0  0  0
  151.5134  140.8743  157.1875 C   0  0  0  0  0  0  0  0  0  0  0  0
  152.3817  140.1957  158.0406 C   0  0  0  0  0  0  0  0  0  0  0  0
  152.6974  140.8138  159.2716 C   0  0  0  0  0  0  0  0  0  0  0  0
  153.6440  140.0977  160.2199 C   0  0  0  0  0  0  0  0  0  0  0  0
  152.0334  143.7138  161.0371 H   0  0  0  0  0  0  0  0  0  0  0  0
  153.5750  142.8630  161.0360 H   0  0  0  0  0  0  0  0  0  0  0  0
  152.1501  142.1184  161.7765 H   0  0  0  0  0  0  0  0  0  0  0  0
  150.8484  143.7123  158.9997 H   0  0  0  0  0  0  0  0  0  0  0  0
  149.6408  141.6193  154.5645 H   0  0  0  0  0  0  0  0  0  0  0  0
  151.9052  139.5968  154.3418 H   0  0  0  0  0  0  0  0  0  0  0  0
  152.0564  138.7644  155.8604 H   0  0  0  0  0  0  0  0  0  0  0  0
  149.7284  138.0446  155.7873 H   0  0  0  0  0  0  0  0  0  0  0  0
  149.9462  137.1210  153.4512 H   0  0  0  0  0  0  0  0  0  0  0  0
  148.5742  139.9409  154.6885 H   0  0  0  0  0  0  0  0  0  0  0  0
  149.5472  139.7470  153.2531 H   0  0  0  0  0  0  0  0  0  0  0  0
  146.4198  139.6592  153.2408 H   0  0  0  0  0  0  0  0  0  0  0  0
  147.5828  139.6827  151.9296 H   0  0  0  0  0  0  0  0  0  0  0  0
  145.4061  138.5644  151.3060 H   0  0  0  0  0  0  0  0  0  0  0  0
  146.8292  137.6062  151.0216 H   0  0  0  0  0  0  0  0  0  0  0  0
  148.0367  136.8235  155.0300 H   0  0  0  0  0  0  0  0  0  0  0  0
  146.8662  138.1112  155.2643 H   0  0  0  0  0  0  0  0  0  0  0  0
  152.8033  139.2362  157.7814 H   0  0  0  0  0  0  0  0  0  0  0  0
  153.9487  139.1286  159.8236 H   0  0  0  0  0  0  0  0  0  0  0  0
  153.1658  139.9268  161.1848 H   0  0  0  0  0  0  0  0  0  0  0  0
  154.5451  140.6904  160.3795 H   0  0  0  0  0  0  0  0  0  0  0  0
  148.4979  137.6560  152.8707 H   0  0  0  0  0  0  0  0  0  0  0  0
  149.6262  143.3915  156.4214 H   0  0  0  0  0  0  0  0  0  0  0  0
  1  2  1  0  0  0  0
  1 23  1  0  0  0  0
  1 24  1  0  0  0  0
  1 25  1  0  0  0  0
  2 21  1  0  0  0  0
  2  3  2  0  0  0  0
  3  4  1  0  0  0  0
  3 26  1  0  0  0  0
  4 19  2  0  0  0  0
  4  5  1  0  0  0  0
  5  6  2  0  0  0  0
  5 45  1  0  0  0  0
  6  7  1  0  0  0  0
  6 27  1  0  0  0  0
  7  8  1  0  0  0  0
  7 19  1  0  0  0  0
  8  9  1  0  0  0  0
  8 28  1  0  0  0  0
  8 29  1  0  0  0  0
  9 10  1  0  0  0  0
  9 11  1  0  0  0  0
  9 30  1  0  0  0  0
 10 31  1  0  0  0  0
 11 12  1  0  0  0  0
 11 32  1  0  0  0  0
 11 33  1  0  0  0  0
 12 18  1  0  0  0  0
 12 13  1  0  0  0  0
 12 44  1  0  0  0  0
 13 14  1  0  0  0  0
 13 34  1  0  0  0  0
 13 35  1  0  0  0  0
 14 15  1  0  0  0  0
 14 36  1  0  0  0  0
 14 37  1  0  0  0  0
 15 16  1  0  0  0  0
 16 17  2  0  0  0  0
 16 18  1  0  0  0  0
 18 38  1  0  0  0  0
 18 39  1  0  0  0  0
 19 20  1  0  0  0  0
 20 21  2  0  0  0  0
 20 40  1  0  0  0  0
 21 22  1  0  0  0  0
 22 41  1  0  0  0  0
 22 42  1  0  0  0  0
 22 43  1  0  0  0  0
M  CHG  1   5   1
M  CHG  1  12   1
M  CHG  1  15  -1
M  END
> <s_m_source_file>
AV-unprocessed.smi

> <i_m_source_file_index>
1056

> <i_lp_mmshare_version>
43012

> <i_f3d_flags>
0

> <s_epik_input>
W0NIM11jKFtjSF0xKWMoW0NIM10pW2NIXWMoYzEyKW4oW2NIXW4yKVtDSDJdW0NASF0oW09IXSlbQ0gyXU4zW0NIMl1bQ0gyXVtOSF1DKD1PKVtDSDJdMw==

> <s_epik_cmdline>
J2VwaWtfcHl0aG9uJywgJy1waCcsICc3LjAnLCAnLXRuJywgJzgnLCAnLW1hJywgJzIwMCcsICctbWV0YWxfYmluZGluZycsICctaW1hZScsICc8aW5maWxlLm1hZT4nLCAnLW9tYWUnLCAnPG91dGZpbGUubWFlPic=

> <r_epik_Ionization_Penalty>
6.22415

> <r_epik_Ionization_Penalty_Charging>
6.22415

> <r_epik_Ionization_Penalty_Neutral>
4.02797e-07

> <r_epik_State_Penalty>
6.37716

> <r_epik_Charging_Adjusted_Penalty>
12.6013

> <i_epik_Tot_Q>
1

> <i_epik_Tot_abs_Q>
3

> <r_epik_Metal_State_Penalty>
2.53509

> <b_epik_Metal_Only>
1

> <s_lp_Force_Field>
OPLS_2005

> <r_lp_Energy>
27.0798

> <b_lp_Chiralities_Consistent>
1

> <s_lp_Variant>
AV-unprocessed.smi:1056-17

> <Gold.Version>
5.8.1

> <Gold.Id.Protein>
6NUR|6NUR_protein|mol2

> <Gold.PLP.Fitness>
56.4124

> <Gold.PLP.PLP>
-41.7663

> <Gold.PLP.part.hbond>
-4.0000

> <Gold.PLP.part.metal>
0.0000

> <Gold.PLP.part.buried>
-1.6970

> <Gold.PLP.part.nonpolar>
-36.0563

> <Gold.PLP.part.repulsive>
0.3259

> <Gold.PLP.ligand.clash>
0.0000

> <Gold.PLP.ligand.torsion>
0.1008

> <Gold.PLP.Chemscore.Hbond>
4.9425

> <Gold.PLP.Chemscore.CHOScore>
0.0000

> <Gold.PLP.Chemscore.Metal>
0.0000

> <Gold.Chemscore.Hbonds>
donor molecule, donor type, donor heavy atom, donor atom, acceptor molecule, acceptor atom, score
      L1  H     5    45       P1  8028  2.00
      L1  H    10    31       P1  7948  0.99
      L1  H    12    44       P1  7948  2.00

> <Gold.PLP.Chemscore.Internal.Correction>
0.0202

> <Gold.Rescore>
     Score         DG    S(hbond)    S(metal)    S(lipo)     H(rot)  DE(clash)    DE(int)     intcor
     18.87     -20.10       2.64        0.00     101.37       2.37       0.19       1.03       ----

> <Gold.Chemscore.Fitness>
18.8747

> <Gold.Chemscore.DG>
-20.1008

> <Gold.Chemscore.ZeroCoef>
-5.4800

> <Gold.Chemscore.Hbond>
2.6449

> <Gold.Chemscore.Metal>
0.0000

> <Gold.Chemscore.Lipo>
101.3684

> <Gold.Chemscore.Internal_Hbond>
0.0000

> <Gold.Chemscore.DEClash>
0.1948

> <Gold.Chemscore.DEInternal>
1.0313

> <Gold.Chemscore.Rot>
2.3724

> <Gold.Chemscore.Internal.Correction>
   9.000000E+99

> <Gold.Chemscore.Hbonds>
donor molecule, donor type, donor heavy atom, donor atom, acceptor molecule, acceptor atom, score
      L1  H     5    45       P1  8028  0.99
      L1  H    10    31       P1  7948  0.32
      L1  H    12    44       P1  7948  1.00

> <Gold.Chemscore.Hbond.Weighted>
-8.8341

> <Gold.Chemscore.Metal.Weighted>
-0.0000

> <Gold.Chemscore.Lipo.Weighted>
-11.8601

> <Gold.Chemscore.Internal_Hbond.Weighted>
0.0000

> <Gold.Chemscore.DEClash.Weighted>
0.1948

> <Gold.Chemscore.DEInternal.Weighted>
1.0313

> <Gold.Chemscore.Rot.Weighted>
6.0734

> <Gold.Chemscore.Internal.Correction.Weighted>
   9.000000E+99

> <Gold.Protein.RotatedTorsions>
[ 6907 6896 6895 6894 ] final -179.98 input  -60.11 | X-H torsion
[ 7974 7965 7964 7962 ] final   30.79 input  175.53 | X-H torsion
[ 8008 7997 7996 7995 ] final   92.92 input   59.86 | X-H torsion
[ 10167 10162 10161 10158 ] final  119.70 input  -65.29 | X-H torsion
[ 10718 10713 10712 10709 ] final -119.96 input   66.30 | X-H torsion
[ 10763 10752 10751 10750 ] final   55.80 input  -60.55 | X-H torsion
[ 11005 11000 10999 10996 ] final -121.48 input  -57.11 | X-H torsion

> <Gold.Protein.ActiveResidues>
 VAL166  LYS551  ARG553  GLY616  TRP617  ASP618  TYR619  PRO620  LYS621  CYS622 
 ASP623  PHE694  ASN695  SER759  ASP760  ASP761  ALA762  ILE779  LEU786  VAL792 
 PHE793  MET794  SER795  GLU796  ALA797  LYS798  CYS799  TRP800  GLU811  SER814 

> <Gold.Protein.RotatedAtoms>
  151.6623  133.3316  159.3176 H   0  0  0  0  0  0  0  0  0  0  0  0  # atno 6907 bound_to 6896
  150.7907  134.6933  159.6518 H   0  0  0  0  0  0  0  0  0  0  0  0  # atno 6908 bound_to 6896
  152.3986  134.6327  160.0131 H   0  0  0  0  0  0  0  0  0  0  0  0  # atno 6909 bound_to 6896
  146.1590  139.6741  142.9047 H   0  0  0  0  0  0  0  0  0  0  0  0  # atno 7974 bound_to 7965
  156.0408  140.3319  155.7242 H   0  0  0  0  0  0  0  0  0  0  0  0  # atno 8008 bound_to 7997
  155.5746  140.0631  157.2816 H   0  0  0  0  0  0  0  0  0  0  0  0  # atno 8009 bound_to 7997
  154.4392  140.1854  156.0903 H   0  0  0  0  0  0  0  0  0  0  0  0  # atno 8010 bound_to 7997
  139.6029  144.7062  151.3020 H   0  0  0  0  0  0  0  0  0  0  0  0  # atno 10167 bound_to 10162
  156.1221  130.6331  150.9481 H   0  0  0  0  0  0  0  0  0  0  0  0  # atno 10718 bound_to 10713
  152.9822  135.5698  154.5125 H   0  0  0  0  0  0  0  0  0  0  0  0  # atno 10763 bound_to 10752
  154.4627  135.2782  155.1703 H   0  0  0  0  0  0  0  0  0  0  0  0  # atno 10764 bound_to 10752
  154.3284  135.6254  153.5593 H   0  0  0  0  0  0  0  0  0  0  0  0  # atno 10765 bound_to 10752
  141.0067  134.0325  157.3468 H   0  0  0  0  0  0  0  0  0  0  0  0  # atno 11005 bound_to 11000
  145.4636  141.0434  143.2737 LP  0  0  0  0  0  0  0  0  0  0  0  0  # atno 17320 bound_to 7965
  144.8001  139.6157  143.7075 LP  0  0  0  0  0  0  0  0  0  0  0  0  # atno 17321 bound_to 7965
  140.7263  143.6993  150.7858 LP  0  0  0  0  0  0  0  0  0  0  0  0  # atno 17342 bound_to 10162
  140.0573  143.5189  152.2645 LP  0  0  0  0  0  0  0  0  0  0  0  0  # atno 17343 bound_to 10162
  157.6404  131.0911  150.8263 LP  0  0  0  0  0  0  0  0  0  0  0  0  # atno 17370 bound_to 10713
  156.8359  130.5031  149.5326 LP  0  0  0  0  0  0  0  0  0  0  0  0  # atno 17371 bound_to 10713
  139.9067  135.0181  156.7516 LP  0  0  0  0  0  0  0  0  0  0  0  0  # atno 17394 bound_to 11000
  140.6802  133.9482  155.7906 LP  0  0  0  0  0  0  0  0  0  0  0  0  # atno 17395 bound_to 11000

$$$$
