#       Name:                AV-unprocessed.smi:3002
#       Creating user name   scv26
#       Creation time:       Fri Mar 27 16:36:19 2020


#       File generated by GOLD software.
#

@<TRIPOS>MOLECULE
AV-unprocessed.smi:3002
    38    39     1
SMALL
NO_CHARGES


@<TRIPOS>ATOM
      1 ****        -2.7814  -2.1771   0.3286 C.3            1 S1                 0.0000
      2 ****        -2.2774  -0.9778  -0.4996 C.3            1 S1                 0.0000
      3 ****        -0.7435  -0.9018  -0.5498 C.2            1 S1                 0.0000
      4 ****        -0.0629  -1.9277  -0.5223 O.2            1 S1                 0.0000
      5 ****        -0.2098   0.3279  -0.6224 N.am           1 S1                 0.0000
      6 ****         1.2185   0.6199  -0.6822 C.3            1 S1                 0.0000
      7 ****         1.9019   0.5088   0.6959 C.3            1 S1                 0.0000
      8 ****         1.2991   1.4494   1.7609 C.3            1 S1                 0.0000
      9 ****         2.2295   1.4696   2.9773 C.3            1 S1                 0.0000
     10 ****         3.9241   1.3189   2.3011 S.o2           1 S1                 0.0000
     11 ****         4.5347   2.6537   2.2099 O.2            1 S1                 0.0000
     12 ****         4.6165   0.2138   2.9810 O.2            1 S1                 0.0000
     13 ****         3.4123   0.7863   0.6225 C.3            1 S1                 0.0000
     14 ****        -2.8272  -0.9677  -1.8499 N.pl3          1 S1                 0.0000
     15 ****        -3.2961   0.0491  -2.5768 C.2            1 S1                 0.0000
     16 ****        -3.6816  -0.2932  -3.7980 N.2            1 S1                 0.0000
     17 ****        -3.3929  -1.6280  -3.7620 C.2            1 S1                 0.0000
     18 ****        -2.8694  -2.0815  -2.6234 N.2            1 S1                 0.0000
     19 ****        -2.3999  -2.1369   1.3494 H              1 S1                 0.0000
     20 ****        -2.4749  -3.1320  -0.1003 H              1 S1                 0.0000
     21 ****        -3.8702  -2.1773   0.3873 H              1 S1                 0.0000
     22 ****        -2.6350  -0.0740  -0.0032 H              1 S1                 0.0000
     23 ****        -0.8379   1.1180  -0.6418 H              1 S1                 0.0000
     24 ****         1.7006  -0.0483  -1.3980 H              1 S1                 0.0000
     25 ****         1.3379   1.6291  -1.0773 H              1 S1                 0.0000
     26 ****         1.7835  -0.5115   1.0640 H              1 S1                 0.0000
     27 ****         1.2312   2.4581   1.3515 H              1 S1                 0.0000
     28 ****         0.2890   1.1512   2.0435 H              1 S1                 0.0000
     29 ****         2.1383   2.3770   3.5745 H              1 S1                 0.0000
     30 ****         2.0447   0.6079   3.6192 H              1 S1                 0.0000
     31 ****         3.9875  -0.0870   0.3143 H              1 S1                 0.0000
     32 ****         3.6313   1.6039  -0.0647 H              1 S1                 0.0000
     33 ****        -3.3538   1.0620  -2.2061 H              1 S1                 0.0000
     34 ****        -3.5678  -2.2837  -4.6024 H              1 S1                 0.0000
     35 ****        -0.5078  -2.8215  -0.4668 LP             1 S1                 0.0000
     36 ****         0.9347  -1.8669  -0.5555 LP             1 S1                 0.0000
     37 ****        -4.0705   0.2636  -4.5320 LP             1 S1                 0.0000
     38 ****        -2.5798  -3.0112  -2.3959 LP             1 S1                 0.0000
@<TRIPOS>BOND
    1    1    2 1     
    2    1   19 1     
    3    1   20 1     
    4    1   21 1     
    5    2    3 1     
    6    2   14 1     
    7    2   22 1     
    8    3    4 2     
    9    3    5 am    
   10    5    6 1     
   11    5   23 1     
   12    6    7 1     
   13    6   24 1     
   14    6   25 1     
   15    7   13 1     
   16    7    8 1     
   17    7   26 1     
   18    8    9 1     
   19    8   27 1     
   20    8   28 1     
   21    9   10 1     
   22    9   29 1     
   23    9   30 1     
   24   10   11 2     
   25   10   12 2     
   26   10   13 1     
   27   13   31 1     
   28   13   32 1     
   29   14   18 1     
   30   14   15 1     
   31   15   16 2     
   32   15   33 1     
   33   16   17 1     
   34   17   18 2     
   35   17   34 1     
   36    4   35 1     
   37    4   36 1     
   38   16   37 1     
   39   18   38 1     
@<TRIPOS>SUBSTRUCTURE
      1 S1             1
@<TRIPOS>SET
LONE_PAIRS      STATIC     ATOMS    <user>   **** ""
6 35 36 11 12 37 38
DONOR_HYDROGENS      STATIC     ATOMS    <user>   **** ""
1 23
ATOM$BLUE        STATIC     ATOMS    COLORGROUP SYSTEM
6 35 36 11 12 37 38
ATOM$RED        STATIC     ATOMS    COLORGROUP SYSTEM
1 23
