AV-unprocessed.smi:290|AV-procd|sdf|2246|dock7
  -GOLD-   2262022133D 1   1.00000     0.00000
 Structure written by MMmdl.
 59 62  0  0  0  0  0  0  0  0  2 V2000
  152.7613  141.3139  158.9871 C   0  0  0  0  0  0  0  0  0  0  0  0
  151.7692  142.4860  159.0490 C   0  0  1  0  0  0  0  0  0  0  0  0
  152.4735  143.6091  159.5750 O   0  0  0  0  0  0  0  0  0  0  0  0
  151.9610  144.7936  158.9913 C   0  0  0  0  0  0  0  0  0  0  0  0
  151.7225  144.3722  157.5497 C   0  0  0  0  0  0  0  0  0  0  0  0
  151.1646  142.9598  157.6968 C   0  0  2  0  0  0  0  0  0  0  0  0
  149.7605  143.0655  157.8665 O   0  0  0  0  0  0  0  0  0  0  0  0
  151.4279  142.0514  156.4667 C   0  0  0  0  0  0  0  0  0  0  0  0
  151.0404  140.6646  156.6775 N   0  0  0  0  0  0  0  0  0  0  0  0
  150.2937  140.1689  157.7222 C   0  0  0  0  0  0  0  0  0  0  0  0
  150.0749  138.8830  157.6888 N   0  0  0  0  0  0  0  0  0  0  0  0
  150.7265  138.4558  156.5375 C   0  0  0  0  0  0  0  0  0  0  0  0
  150.8951  137.1900  155.9055 C   0  0  0  0  0  0  0  0  0  0  0  0
  150.3467  136.0465  156.3969 N   0  0  0  0  0  0  0  0  0  0  0  0
  149.0721  136.1877  157.1002 C   0  0  0  0  0  0  0  0  0  0  0  0
  148.1487  135.0904  156.5537 C   0  0  0  0  0  0  0  0  0  0  0  0
  148.8343  134.6609  155.2489 C   0  0  2  0  0  0  0  0  0  0  0  0
  148.4445  133.3181  154.7310 N   0  3  2  0  0  0  0  0  0  0  0  0
  149.2234  132.9044  153.5370 C   0  0  0  0  0  0  0  0  0  0  0  0
  146.9774  133.1051  154.5638 C   0  0  0  0  0  0  0  0  0  0  0  0
  146.5140  131.6308  154.5809 C   0  0  0  0  0  0  0  0  0  0  0  0
  145.4955  131.4132  155.5333 O   0  0  0  0  0  0  0  0  0  0  0  0
  150.3223  134.8077  155.6203 C   0  0  2  0  0  0  0  0  0  0  0  0
  150.8884  133.6519  156.4727 C   0  0  0  0  0  0  0  0  0  0  0  0
  151.6342  137.1603  154.7648 N   0  0  0  0  0  0  0  0  0  0  0  0
  152.1661  138.2820  154.2707 C   0  0  0  0  0  0  0  0  0  0  0  0
  152.0845  139.5242  154.7493 N   0  0  0  0  0  0  0  0  0  0  0  0
  151.3479  139.5647  155.8956 C   0  0  0  0  0  0  0  0  0  0  0  0
  148.6076  135.4036  154.4819 H   0  0  0  0  0  0  0  0  0  0  0  0
  150.9214  134.8673  154.7127 H   0  0  0  0  0  0  0  0  0  0  0  0
  152.2876  140.4094  158.6055 H   0  0  0  0  0  0  0  0  0  0  0  0
  153.1467  141.0842  159.9808 H   0  0  0  0  0  0  0  0  0  0  0  0
  153.6165  141.5475  158.3523 H   0  0  0  0  0  0  0  0  0  0  0  0
  150.9757  142.2294  159.7536 H   0  0  0  0  0  0  0  0  0  0  0  0
  151.0270  145.0741  159.4807 H   0  0  0  0  0  0  0  0  0  0  0  0
  152.6627  145.6231  159.0792 H   0  0  0  0  0  0  0  0  0  0  0  0
  151.0686  145.0532  157.0033 H   0  0  0  0  0  0  0  0  0  0  0  0
  152.6818  144.3445  157.0319 H   0  0  0  0  0  0  0  0  0  0  0  0
  149.4537  143.8036  157.3624 H   0  0  0  0  0  0  0  0  0  0  0  0
  150.8851  142.4182  155.5953 H   0  0  0  0  0  0  0  0  0  0  0  0
  152.4858  142.0694  156.2012 H   0  0  0  0  0  0  0  0  0  0  0  0
  149.9093  140.7969  158.5129 H   0  0  0  0  0  0  0  0  0  0  0  0
  149.2126  136.0915  158.1773 H   0  0  0  0  0  0  0  0  0  0  0  0
  148.6291  137.1660  156.9071 H   0  0  0  0  0  0  0  0  0  0  0  0
  148.1060  134.2588  157.2580 H   0  0  0  0  0  0  0  0  0  0  0  0
  147.1313  135.4522  156.4067 H   0  0  0  0  0  0  0  0  0  0  0  0
  149.1289  133.6280  152.7273 H   0  0  0  0  0  0  0  0  0  0  0  0
  148.8878  131.9336  153.1708 H   0  0  0  0  0  0  0  0  0  0  0  0
  150.2835  132.8088  153.7685 H   0  0  0  0  0  0  0  0  0  0  0  0
  146.4890  133.6216  155.3910 H   0  0  0  0  0  0  0  0  0  0  0  0
  146.6135  133.6087  153.6679 H   0  0  0  0  0  0  0  0  0  0  0  0
  146.1896  131.2812  153.6017 H   0  0  0  0  0  0  0  0  0  0  0  0
  147.3552  130.9984  154.8660 H   0  0  0  0  0  0  0  0  0  0  0  0
  144.6984  131.8142  155.2199 H   0  0  0  0  0  0  0  0  0  0  0  0
  150.8714  132.7037  155.9364 H   0  0  0  0  0  0  0  0  0  0  0  0
  150.3377  133.5141  157.4032 H   0  0  0  0  0  0  0  0  0  0  0  0
  151.9273  133.8489  156.7387 H   0  0  0  0  0  0  0  0  0  0  0  0
  152.7375  138.1683  153.3611 H   0  0  0  0  0  0  0  0  0  0  0  0
  148.7115  132.6722  155.4601 H   0  0  0  0  0  0  0  0  0  0  0  0
  1  2  1  0  0  0  0
  1 31  1  0  0  0  0
  1 32  1  0  0  0  0
  1 33  1  0  0  0  0
  2  6  1  0  0  0  0
  2  3  1  0  0  0  0
  2 34  1  0  0  0  0
  3  4  1  0  0  0  0
  4  5  1  0  0  0  0
  4 35  1  0  0  0  0
  4 36  1  0  0  0  0
  5  6  1  0  0  0  0
  5 37  1  0  0  0  0
  5 38  1  0  0  0  0
  6  7  1  0  0  0  0
  6  8  1  0  0  0  0
  7 39  1  0  0  0  0
  8  9  1  0  0  0  0
  8 40  1  0  0  0  0
  8 41  1  0  0  0  0
  9 28  1  0  0  0  0
  9 10  1  0  0  0  0
 10 11  2  0  0  0  0
 10 42  1  0  0  0  0
 11 12  1  0  0  0  0
 12 28  2  0  0  0  0
 12 13  1  0  0  0  0
 13 14  1  0  0  0  0
 13 25  2  0  0  0  0
 14 23  1  0  0  0  0
 14 15  1  0  0  0  0
 15 16  1  0  0  0  0
 15 43  1  0  0  0  0
 15 44  1  0  0  0  0
 16 17  1  0  0  0  0
 16 45  1  0  0  0  0
 16 46  1  0  0  0  0
 17 29  1  0  0  0  0
 17 18  1  0  0  0  0
 17 23  1  0  0  0  0
 18 19  1  0  0  0  0
 18 20  1  0  0  0  0
 18 59  1  0  0  0  0
 19 47  1  0  0  0  0
 19 48  1  0  0  0  0
 19 49  1  0  0  0  0
 20 21  1  0  0  0  0
 20 50  1  0  0  0  0
 20 51  1  0  0  0  0
 21 22  1  0  0  0  0
 21 52  1  0  0  0  0
 21 53  1  0  0  0  0
 22 54  1  0  0  0  0
 23 30  1  0  0  0  0
 23 24  1  0  0  0  0
 24 55  1  0  0  0  0
 24 56  1  0  0  0  0
 24 57  1  0  0  0  0
 25 26  1  0  0  0  0
 26 27  2  0  0  0  0
 26 58  1  0  0  0  0
 27 28  1  0  0  0  0
M  CHG  1  18   1
M  END
> <s_m_source_file>
AV-unprocessed.smi

> <i_m_source_file_index>
290

> <i_lp_mmshare_version>
43012

> <i_f3d_flags>
0

> <s_epik_input>
W0NIMl0xW0NIMl1PW0NAQEhdKFtDSDNdKVtDQEBdMShbT0hdKVtDSDJdbihbY0hdbjIpYyhjMjMpbltjSF1uYzNONFtDSDJdW0NIMl1bQ0BIXShbQ0BIXTRbQ0gzXSlOKFtDSDNdKVtDSDJdW0NIMl1bT0hd

> <s_epik_cmdline>
J2VwaWtfcHl0aG9uJywgJy1waCcsICc3LjAnLCAnLXRuJywgJzgnLCAnLW1hJywgJzIwMCcsICctbWV0YWxfYmluZGluZycsICctaW1hZScsICc8aW5maWxlLm1hZT4nLCAnLW9tYWUnLCAnPG91dGZpbGUubWFlPic=

> <r_lp_tautomer_probability>
1

> <r_epik_Ionization_Penalty>
0.0036983

> <r_epik_Ionization_Penalty_Charging>
0.0032725

> <r_epik_Ionization_Penalty_Neutral>
0.000425798

> <r_epik_State_Penalty>
-0

> <r_epik_Charging_Adjusted_Penalty>
0.0032725

> <i_epik_Tot_Q>
1

> <i_epik_Tot_abs_Q>
1

> <r_epik_Metal_State_Penalty>
-0

> <b_epik_Metal_Only>
0

> <s_lp_Force_Field>
OPLS_2005

> <r_lp_Energy>
63.8525

> <b_lp_Chiralities_Consistent>
1

> <s_lp_Variant>
AV-unprocessed.smi:290-32

> <Gold.Version>
5.8.1

> <Gold.Id.Protein>
6NUR|6NUR_protein|mol2

> <Gold.PLP.Fitness>
49.7613

> <Gold.PLP.PLP>
-41.8389

> <Gold.PLP.part.hbond>
-5.0000

> <Gold.PLP.part.metal>
0.0000

> <Gold.PLP.part.buried>
-8.5448

> <Gold.PLP.part.nonpolar>
-29.1202

> <Gold.PLP.part.repulsive>
0.1924

> <Gold.PLP.ligand.clash>
1.6915

> <Gold.PLP.ligand.torsion>
1.2102

> <Gold.PLP.Chemscore.Hbond>
3.8463

> <Gold.PLP.Chemscore.CHOScore>
0.0000

> <Gold.PLP.Chemscore.Metal>
0.0000

> <Gold.Chemscore.Hbonds>
donor molecule, donor type, donor heavy atom, donor atom, acceptor molecule, acceptor atom, score
      L1  H     7    39       P1  8028  1.00
      L1  H    22    54       P1 10957  0.98
      P1  H  7989  7998       L1    27  0.86
      P1  H 10752 10765       L1    25  1.00

> <Gold.PLP.Chemscore.Internal.Correction>
0.4956

> <Gold.Rescore>
     Score         DG    S(hbond)    S(metal)    S(lipo)     H(rot)  DE(clash)    DE(int)     intcor
      7.36     -14.28       2.13        0.00      94.64       3.67       0.78       6.15       ----

> <Gold.Chemscore.Fitness>
7.3574

> <Gold.Chemscore.DG>
-14.2830

> <Gold.Chemscore.ZeroCoef>
-5.4800

> <Gold.Chemscore.Hbond>
2.1302

> <Gold.Chemscore.Metal>
0.0000

> <Gold.Chemscore.Lipo>
94.6387

> <Gold.Chemscore.Internal_Hbond>
0.0000

> <Gold.Chemscore.DEClash>
0.7761

> <Gold.Chemscore.DEInternal>
6.1495

> <Gold.Chemscore.Rot>
3.6658

> <Gold.Chemscore.Internal.Correction>
   9.000000E+99

> <Gold.Chemscore.Hbonds>
donor molecule, donor type, donor heavy atom, donor atom, acceptor molecule, acceptor atom, score
      L1  H     7    39       P1  8028  0.47
      L1  H    22    54       P1 10957  0.26
      P1  H  7989  7998       L1    27  0.71
      P1  H 10752 10765       L1    25  0.55

> <Gold.Chemscore.Hbond.Weighted>
-7.1147

> <Gold.Chemscore.Metal.Weighted>
-0.0000

> <Gold.Chemscore.Lipo.Weighted>
-11.0727

> <Gold.Chemscore.Internal_Hbond.Weighted>
0.0000

> <Gold.Chemscore.DEClash.Weighted>
0.7761

> <Gold.Chemscore.DEInternal.Weighted>
6.1495

> <Gold.Chemscore.Rot.Weighted>
9.3844

> <Gold.Chemscore.Internal.Correction.Weighted>
   9.000000E+99

> <Gold.Protein.RotatedTorsions>
[ 6907 6896 6895 6894 ] final   41.47 input  -60.11 | X-H torsion
[ 7974 7965 7964 7962 ] final -158.80 input  175.53 | X-H torsion
[ 8008 7997 7996 7995 ] final  -49.61 input   59.86 | X-H torsion
[ 10167 10162 10161 10158 ] final -118.78 input  -65.29 | X-H torsion
[ 10718 10713 10712 10709 ] final   47.56 input   66.30 | X-H torsion
[ 10763 10752 10751 10750 ] final  165.62 input  -60.55 | X-H torsion
[ 11005 11000 10999 10996 ] final   50.47 input  -57.11 | X-H torsion

> <Gold.Protein.ActiveResidues>
 VAL166  LYS551  ARG553  GLY616  TRP617  ASP618  TYR619  PRO620  LYS621  CYS622 
 ASP623  PHE694  ASN695  SER759  ASP760  ASP761  ALA762  ILE779  LEU786  VAL792 
 PHE793  MET794  SER795  GLU796  ALA797  LYS798  CYS799  TRP800  GLU811  SER814 

> <Gold.Protein.RotatedAtoms>
  152.1957  134.8632  160.0512 H   0  0  0  0  0  0  0  0  0  0  0  0  # atno 6907 bound_to 6896
  151.9505  133.3659  159.4006 H   0  0  0  0  0  0  0  0  0  0  0  0  # atno 6908 bound_to 6896
  150.6944  134.4269  159.5274 H   0  0  0  0  0  0  0  0  0  0  0  0  # atno 6909 bound_to 6896
  144.7491  140.3775  143.6062 H   0  0  0  0  0  0  0  0  0  0  0  0  # atno 7974 bound_to 7965
  154.4047  140.1292  156.4530 H   0  0  0  0  0  0  0  0  0  0  0  0  # atno 8008 bound_to 7997
  155.7347  140.3491  155.5056 H   0  0  0  0  0  0  0  0  0  0  0  0  # atno 8009 bound_to 7997
  155.9095  140.1033  157.1280 H   0  0  0  0  0  0  0  0  0  0  0  0  # atno 8010 bound_to 7997
  140.0538  143.5034  152.2068 H   0  0  0  0  0  0  0  0  0  0  0  0  # atno 10167 bound_to 10162
  157.4597  130.8189  149.7873 H   0  0  0  0  0  0  0  0  0  0  0  0  # atno 10718 bound_to 10713
  154.3267  135.2755  155.2492 H   0  0  0  0  0  0  0  0  0  0  0  0  # atno 10763 bound_to 10752
  154.4822  135.5855  153.6401 H   0  0  0  0  0  0  0  0  0  0  0  0  # atno 10764 bound_to 10752
  152.9871  135.6114  154.3457 H   0  0  0  0  0  0  0  0  0  0  0  0  # atno 10765 bound_to 10752
  140.1015  134.5075  155.8759 H   0  0  0  0  0  0  0  0  0  0  0  0  # atno 11005 bound_to 11000
  145.7012  139.1661  143.2592 LP  0  0  0  0  0  0  0  0  0  0  0  0  # atno 17320 bound_to 7965
  146.1414  140.7052  142.9365 LP  0  0  0  0  0  0  0  0  0  0  0  0  # atno 17321 bound_to 7965
  139.5936  144.7559  151.3340 LP  0  0  0  0  0  0  0  0  0  0  0  0  # atno 17342 bound_to 10162
  140.7204  143.7151  150.7739 LP  0  0  0  0  0  0  0  0  0  0  0  0  # atno 17343 bound_to 10162
  156.0023  130.3873  150.2559 LP  0  0  0  0  0  0  0  0  0  0  0  0  # atno 17370 bound_to 10713
  157.0736  131.0123  151.3181 LP  0  0  0  0  0  0  0  0  0  0  0  0  # atno 17371 bound_to 10713
  141.2107  133.6697  156.6526 LP  0  0  0  0  0  0  0  0  0  0  0  0  # atno 17394 bound_to 11000
  140.3214  134.8004  157.4255 LP  0  0  0  0  0  0  0  0  0  0  0  0  # atno 17395 bound_to 11000

$$$$
