#       Name:                AV-unprocessed.smi:1809
#       Creating user name   scv26
#       Creation time:       Fri Mar 27 08:58:21 2020


#       File generated by GOLD software.
#

@<TRIPOS>MOLECULE
AV-unprocessed.smi:1809
    46    48     1
SMALL
NO_CHARGES


@<TRIPOS>ATOM
      1 ****        -6.6545   2.7721  -1.1083 C.3            1 S1                 0.0000
      2 ****        -5.2961   2.6143  -1.7007 C.2            1 S1                 0.0000
      3 ****        -5.0849   2.5553  -3.0176 N.2            1 S1                 0.0000
      4 ****        -3.7405   2.4039  -3.3250 N.2            1 S1                 0.0000
      5 ****        -2.9562   2.3416  -2.2398 C.2            1 S1                 0.0000
      6 ****        -1.6228   2.2012  -2.3242 N.pl3          1 S1                -1.0000
      7 ****        -1.0562   0.9882  -2.1391 C.2            1 S1                 0.0000
      8 ****        -1.6443  -0.0596  -1.8609 O.2            1 S1                 0.0000
      9 ****         0.2770   0.9894  -2.2778 N.am           1 S1                 0.0000
     10 ****         1.1510  -0.1661  -2.1083 C.3            1 S1                 0.0000
     11 ****         1.3908  -0.4772  -0.6212 C.3            1 S1                 0.0000
     12 ****         2.2249  -1.7573  -0.4270 C.3            1 S1                 0.0000
     13 ****         2.5627  -1.9837   0.9978 N.4            1 S1                 1.0000
     14 ****         1.5082  -2.5972   1.8354 C.3            1 S1                 0.0000
     15 ****         1.6979  -2.0320   3.2521 C.3            1 S1                 0.0000
     16 ****         2.9621  -1.1699   3.1808 C.3            1 S1                 0.0000
     17 ****         3.0686  -0.7879   1.7038 C.3            1 S1                 0.0000
     18 ****         2.2320   0.4668   1.3634 C.3            1 S1                 0.0000
     19 ****         2.1077   0.6083  -0.0438 O.3            1 S1                 0.0000
     20 ****        -3.8436   2.4889  -0.7225 S.3            1 S1                 0.0000
     21 ****        -7.1506   1.8032  -1.0527 H              1 S1                 0.0000
     22 ****        -7.2589   3.4422  -1.7202 H              1 S1                 0.0000
     23 ****        -6.5827   3.1883  -0.1033 H              1 S1                 0.0000
     24 ****         0.7181   1.8677  -2.5083 H              1 S1                 0.0000
     25 ****         0.7169  -1.0304  -2.6136 H              1 S1                 0.0000
     26 ****         2.0976   0.0402  -2.6083 H              1 S1                 0.0000
     27 ****         0.4271  -0.5898  -0.1218 H              1 S1                 0.0000
     28 ****         1.7060  -2.6289  -0.8282 H              1 S1                 0.0000
     29 ****         3.1599  -1.6667  -0.9815 H              1 S1                 0.0000
     30 ****         0.5126  -2.3512   1.4640 H              1 S1                 0.0000
     31 ****         1.6099  -3.6827   1.8148 H              1 S1                 0.0000
     32 ****         0.8397  -1.4141   3.5195 H              1 S1                 0.0000
     33 ****         1.7827  -2.8172   4.0040 H              1 S1                 0.0000
     34 ****         2.9274  -0.3076   3.8476 H              1 S1                 0.0000
     35 ****         3.8276  -1.7708   3.4640 H              1 S1                 0.0000
     36 ****         4.1065  -0.6130   1.4177 H              1 S1                 0.0000
     37 ****         1.2394   0.4237   1.8146 H              1 S1                 0.0000
     38 ****         2.7162   1.3570   1.7652 H              1 S1                 0.0000
     39 ****         3.3216  -2.6501   1.0113 H              1 S1                 0.0000
     40 ****        -5.8111   2.6135  -3.7027 LP             1 S1                 0.0000
     41 ****        -3.3922   2.3471  -4.2607 LP             1 S1                 0.0000
     42 ****        -1.0488   2.9952  -2.5243 LP             1 S1                 0.0000
     43 ****        -2.6383  -0.0612  -1.7515 LP             1 S1                 0.0000
     44 ****        -1.1272  -0.9076  -1.7448 LP             1 S1                 0.0000
     45 ****         1.6218   1.4595  -0.2422 LP             1 S1                 0.0000
     46 ****         3.0217   0.6444  -0.4478 LP             1 S1                 0.0000
@<TRIPOS>BOND
    1    1    2 1     
    2    1   21 1     
    3    1   22 1     
    4    1   23 1     
    5    2   20 1     
    6    2    3 2     
    7    3    4 1     
    8    4    5 2     
    9    5    6 1     
   10    5   20 1     
   11    6    7 1     
   12    7    8 2     
   13    7    9 am    
   14    9   10 1     
   15    9   24 1     
   16   10   11 1     
   17   10   25 1     
   18   10   26 1     
   19   11   19 1     
   20   11   12 1     
   21   11   27 1     
   22   12   13 1     
   23   12   28 1     
   24   12   29 1     
   25   13   17 1     
   26   13   14 1     
   27   13   39 1     
   28   14   15 1     
   29   14   30 1     
   30   14   31 1     
   31   15   16 1     
   32   15   32 1     
   33   15   33 1     
   34   16   17 1     
   35   16   34 1     
   36   16   35 1     
   37   17   18 1     
   38   17   36 1     
   39   18   19 1     
   40   18   37 1     
   41   18   38 1     
   42    3   40 1     
   43    4   41 1     
   44    6   42 1     
   45    8   43 1     
   46    8   44 1     
   47   19   45 1     
   48   19   46 1     
@<TRIPOS>SUBSTRUCTURE
      1 S1             1
@<TRIPOS>SET
LONE_PAIRS      STATIC     ATOMS    <user>   **** ""
7 40 41 42 43 44 45 46
DONOR_HYDROGENS      STATIC     ATOMS    <user>   **** ""
2 24 39
ATOM$BLUE        STATIC     ATOMS    COLORGROUP SYSTEM
7 40 41 42 43 44 45 46
ATOM$RED        STATIC     ATOMS    COLORGROUP SYSTEM
2 24 39
