AV-unprocessed.smi:2602|AV-procd|sdf|10184|dock6
  -GOLD-   2272014193D 1   1.00000     0.00000
 Structure written by MMmdl.
 46 47  0  0  0  0  0  0  0  0  1 V2000
  153.2104  138.2827  154.7288 C   0  0  0  0  0  0  0  0  0  0  0  0
  152.6726  139.4798  155.2839 O   0  0  0  0  0  0  0  0  0  0  0  0
  151.4061  139.8319  154.9607 C   0  0  0  0  0  0  0  0  0  0  0  0
  151.0522  141.0529  155.3647 N   0  0  0  0  0  0  0  0  0  0  0  0
  149.7967  141.4491  155.0701 C   0  0  0  0  0  0  0  0  0  0  0  0
  148.8994  140.6180  154.3693 C   0  0  0  0  0  0  0  0  0  0  0  0
  149.3676  139.3429  153.9819 C   0  0  0  0  0  0  0  0  0  0  0  0
  148.4413  138.5278  153.2796 N   0  0  0  0  0  0  0  0  0  0  0  0
  147.1031  138.6477  153.2358 C   0  0  0  0  0  0  0  0  0  0  0  0
  146.4455  139.4935  153.8426 O   0  0  0  0  0  0  0  0  0  0  0  0
  146.5596  137.7225  152.4310 N   0  0  0  0  0  0  0  0  0  0  0  0
  145.1366  137.5896  152.1158 C   0  0  0  0  0  0  0  0  0  0  0  0
  144.5232  136.2528  152.6367 C   0  0  0  0  0  0  0  0  0  0  0  0
  145.0409  135.8766  154.0665 C   0  0  0  0  0  0  0  0  0  0  0  0
  145.6585  134.8166  154.1978 O   0  0  0  0  0  0  0  0  0  0  0  0
  144.8096  136.6611  155.1544 N   0  0  0  0  0  0  0  0  0  0  0  0
  144.1329  137.9507  154.9814 C   0  0  0  0  0  0  0  0  0  0  0  0
  145.1740  136.4006  156.5508 C   0  0  0  0  0  0  0  0  0  0  0  0
  142.9751  136.3990  152.6197 C   0  0  0  0  0  0  0  0  0  0  0  0
  142.3850  134.9884  152.5262 C   0  0  0  0  0  0  0  0  0  0  0  0
  143.4755  134.1334  151.8780 C   0  0  0  0  0  0  0  0  0  0  0  0
  144.6748  135.0650  151.6531 C   0  0  0  0  0  0  0  0  0  0  0  0
  150.6330  138.9665  154.2899 N   0  0  0  0  0  0  0  0  0  0  0  0
  154.2295  138.1441  155.0894 H   0  0  0  0  0  0  0  0  0  0  0  0
  153.2485  138.3292  153.6391 H   0  0  0  0  0  0  0  0  0  0  0  0
  152.6321  137.4075  155.0290 H   0  0  0  0  0  0  0  0  0  0  0  0
  149.5041  142.4363  155.3956 H   0  0  0  0  0  0  0  0  0  0  0  0
  147.8969  140.9501  154.1424 H   0  0  0  0  0  0  0  0  0  0  0  0
  148.8446  137.7785  152.7371 H   0  0  0  0  0  0  0  0  0  0  0  0
  147.1816  137.0693  151.9776 H   0  0  0  0  0  0  0  0  0  0  0  0
  144.6329  138.4299  152.5942 H   0  0  0  0  0  0  0  0  0  0  0  0
  144.9662  137.7503  151.0541 H   0  0  0  0  0  0  0  0  0  0  0  0
  144.6655  138.5733  154.2604 H   0  0  0  0  0  0  0  0  0  0  0  0
  144.0743  138.5193  155.9106 H   0  0  0  0  0  0  0  0  0  0  0  0
  143.1135  137.8044  154.6213 H   0  0  0  0  0  0  0  0  0  0  0  0
  145.5056  135.3919  156.7712 H   0  0  0  0  0  0  0  0  0  0  0  0
  144.3175  136.5849  157.2002 H   0  0  0  0  0  0  0  0  0  0  0  0
  145.9704  137.0790  156.8575 H   0  0  0  0  0  0  0  0  0  0  0  0
  142.5724  136.9558  153.4670 H   0  0  0  0  0  0  0  0  0  0  0  0
  142.6671  136.9507  151.7300 H   0  0  0  0  0  0  0  0  0  0  0  0
  142.1543  134.6052  153.5209 H   0  0  0  0  0  0  0  0  0  0  0  0
  141.4590  134.9792  151.9504 H   0  0  0  0  0  0  0  0  0  0  0  0
  143.7503  133.3178  152.5480 H   0  0  0  0  0  0  0  0  0  0  0  0
  143.1404  133.6867  150.9414 H   0  0  0  0  0  0  0  0  0  0  0  0
  144.6512  135.4350  150.6272 H   0  0  0  0  0  0  0  0  0  0  0  0
  145.5968  134.4973  151.7566 H   0  0  0  0  0  0  0  0  0  0  0  0
  1  2  1  0  0  0  0
  1 24  1  0  0  0  0
  1 25  1  0  0  0  0
  1 26  1  0  0  0  0
  2  3  1  0  0  0  0
  3 23  1  0  0  0  0
  3  4  2  0  0  0  0
  4  5  1  0  0  0  0
  5  6  2  0  0  0  0
  5 27  1  0  0  0  0
  6  7  1  0  0  0  0
  6 28  1  0  0  0  0
  7  8  1  0  0  0  0
  7 23  2  0  0  0  0
  8  9  1  0  0  0  0
  8 29  1  0  0  0  0
  9 10  2  0  0  0  0
  9 11  1  0  0  0  0
 11 12  1  0  0  0  0
 11 30  1  0  0  0  0
 12 13  1  0  0  0  0
 12 31  1  0  0  0  0
 12 32  1  0  0  0  0
 13 22  1  0  0  0  0
 13 14  1  0  0  0  0
 13 19  1  0  0  0  0
 14 15  2  0  0  0  0
 14 16  1  0  0  0  0
 16 17  1  0  0  0  0
 16 18  1  0  0  0  0
 17 33  1  0  0  0  0
 17 34  1  0  0  0  0
 17 35  1  0  0  0  0
 18 36  1  0  0  0  0
 18 37  1  0  0  0  0
 18 38  1  0  0  0  0
 19 20  1  0  0  0  0
 19 39  1  0  0  0  0
 19 40  1  0  0  0  0
 20 21  1  0  0  0  0
 20 41  1  0  0  0  0
 20 42  1  0  0  0  0
 21 22  1  0  0  0  0
 21 43  1  0  0  0  0
 21 44  1  0  0  0  0
 22 45  1  0  0  0  0
 22 46  1  0  0  0  0
M  END
> <s_m_source_file>
AV-unprocessed.smi

> <i_m_source_file_index>
2602

> <i_lp_mmshare_version>
43012

> <i_f3d_flags>
0

> <s_epik_input>
W0NIM11PYzFuW2NIXVtjSF1jKG4xKVtOSF1DKD1PKVtOSF1bQ0gyXUMyKEMoPU8pTihbQ0gzXSlbQ0gzXSlbQ0gyXVtDSDJdW0NIMl1bQ0gyXTI=

> <s_epik_cmdline>
J2VwaWtfcHl0aG9uJywgJy1waCcsICc3LjAnLCAnLXRuJywgJzgnLCAnLW1hJywgJzIwMCcsICctbWV0YWxfYmluZGluZycsICctaW1hZScsICc8aW5maWxlLm1hZT4nLCAnLW9tYWUnLCAnPG91dGZpbGUubWFlPic=

> <r_lp_tautomer_probability>
1

> <r_epik_Ionization_Penalty>
0.00154328

> <r_epik_Ionization_Penalty_Charging>
0

> <r_epik_Ionization_Penalty_Neutral>
0.00154328

> <r_epik_State_Penalty>
-0

> <r_epik_Charging_Adjusted_Penalty>
0

> <i_epik_Tot_Q>
0

> <i_epik_Tot_abs_Q>
0

> <r_epik_Metal_State_Penalty>
-0

> <b_epik_Metal_Only>
0

> <s_lp_Force_Field>
OPLS_2005

> <r_lp_Energy>
36.1441

> <b_lp_Chiralities_Consistent>
1

> <s_lp_Variant>
AV-unprocessed.smi:2602-1

> <Gold.Version>
5.8.1

> <Gold.Id.Protein>
6NUR|6NUR_protein|mol2

> <Gold.PLP.Fitness>
40.7365

> <Gold.PLP.PLP>
-29.7391

> <Gold.PLP.part.hbond>
-5.5184

> <Gold.PLP.part.metal>
0.0000

> <Gold.PLP.part.buried>
0.5263

> <Gold.PLP.part.nonpolar>
-25.9783

> <Gold.PLP.part.repulsive>
0.5300

> <Gold.PLP.ligand.clash>
0.0000

> <Gold.PLP.ligand.torsion>
0.5959

> <Gold.PLP.Chemscore.Hbond>
3.0000

> <Gold.PLP.Chemscore.CHOScore>
1.0000

> <Gold.PLP.Chemscore.Metal>
0.0000

> <Gold.Chemscore.Hbonds>
donor molecule, donor type, donor heavy atom, donor atom, acceptor molecule, acceptor atom, score
      L1  H     8    29       P1  7948  1.00
      L1  H    11    30       P1  7948  1.00
      P1  H  7997  8008       L1     2  0.86
      L1  C     5    27       P1  8028  1.00

> <Gold.PLP.Chemscore.Internal.Correction>
0.1892

> <Gold.Rescore>
     Score         DG    S(hbond)    S(metal)    S(lipo)     H(rot)  DE(clash)    DE(int)     intcor
      8.71     -14.09       2.18        0.00      53.11       1.91       0.75       4.63       ----

> <Gold.Chemscore.Fitness>
8.7082

> <Gold.Chemscore.DG>
-14.0874

> <Gold.Chemscore.ZeroCoef>
-5.4800

> <Gold.Chemscore.Hbond>
2.1785

> <Gold.Chemscore.Metal>
0.0000

> <Gold.Chemscore.Lipo>
53.1071

> <Gold.Chemscore.Internal_Hbond>
0.0000

> <Gold.Chemscore.DEClash>
0.7540

> <Gold.Chemscore.DEInternal>
4.6251

> <Gold.Chemscore.Rot>
1.9072

> <Gold.Chemscore.Internal.Correction>
   9.000000E+99

> <Gold.Chemscore.Hbonds>
donor molecule, donor type, donor heavy atom, donor atom, acceptor molecule, acceptor atom, score
      L1  H     8    29       P1  7948  1.00
      L1  H    11    30       P1  7948  0.94
      P1  H  7997  8008       L1     2  0.19

> <Gold.Chemscore.Hbond.Weighted>
-7.2762

> <Gold.Chemscore.Metal.Weighted>
-0.0000

> <Gold.Chemscore.Lipo.Weighted>
-6.2135

> <Gold.Chemscore.Internal_Hbond.Weighted>
0.0000

> <Gold.Chemscore.DEClash.Weighted>
0.7540

> <Gold.Chemscore.DEInternal.Weighted>
4.6251

> <Gold.Chemscore.Rot.Weighted>
4.8824

> <Gold.Chemscore.Internal.Correction.Weighted>
   9.000000E+99

> <Gold.Protein.RotatedTorsions>
[ 6907 6896 6895 6894 ] final  -87.70 input  -60.11 | X-H torsion
[ 7974 7965 7964 7962 ] final -115.69 input  175.53 | X-H torsion
[ 8008 7997 7996 7995 ] final  -42.97 input   59.86 | X-H torsion
[ 10167 10162 10161 10158 ] final -138.40 input  -65.29 | X-H torsion
[ 10718 10713 10712 10709 ] final -109.74 input   66.30 | X-H torsion
[ 10763 10752 10751 10750 ] final -174.43 input  -60.55 | X-H torsion
[ 11005 11000 10999 10996 ] final   -4.16 input  -57.11 | X-H torsion

> <Gold.Protein.ActiveResidues>
 VAL166  LYS551  ARG553  GLY616  TRP617  ASP618  TYR619  PRO620  LYS621  CYS622 
 ASP623  PHE694  ASN695  SER759  ASP760  ASP761  ALA762  ILE779  LEU786  VAL792 
 PHE793  MET794  SER795  GLU796  ALA797  LYS798  CYS799  TRP800  GLU811  SER814 

> <Gold.Protein.RotatedAtoms>
  150.6867  134.2856  159.4644 H   0  0  0  0  0  0  0  0  0  0  0  0  # atno 6907 bound_to 6896
  152.0765  134.9496  160.0583 H   0  0  0  0  0  0  0  0  0  0  0  0  # atno 6908 bound_to 6896
  152.0866  133.4144  159.4562 H   0  0  0  0  0  0  0  0  0  0  0  0  # atno 6909 bound_to 6896
  145.1054  140.8578  143.3901 H   0  0  0  0  0  0  0  0  0  0  0  0  # atno 7974 bound_to 7965
  154.3997  140.1459  156.3443 H   0  0  0  0  0  0  0  0  0  0  0  0  # atno 8008 bound_to 7997
  155.8327  140.3465  155.5561 H   0  0  0  0  0  0  0  0  0  0  0  0  # atno 8009 bound_to 7997
  155.8170  140.0892  157.1861 H   0  0  0  0  0  0  0  0  0  0  0  0  # atno 8010 bound_to 7997
  139.8482  143.7233  152.2659 H   0  0  0  0  0  0  0  0  0  0  0  0  # atno 10167 bound_to 10162
  156.0553  130.5779  150.8142 H   0  0  0  0  0  0  0  0  0  0  0  0  # atno 10718 bound_to 10713
  154.5963  135.2850  155.0582 H   0  0  0  0  0  0  0  0  0  0  0  0  # atno 10763 bound_to 10752
  154.1864  135.6448  153.5052 H   0  0  0  0  0  0  0  0  0  0  0  0  # atno 10764 bound_to 10752
  153.0140  135.5436  154.6667 H   0  0  0  0  0  0  0  0  0  0  0  0  # atno 10765 bound_to 10752
  140.6773  133.9184  155.8532 H   0  0  0  0  0  0  0  0  0  0  0  0  # atno 11005 bound_to 11000
  145.0907  139.2892  143.5736 LP  0  0  0  0  0  0  0  0  0  0  0  0  # atno 17320 bound_to 7965
  146.3528  140.0444  142.8640 LP  0  0  0  0  0  0  0  0  0  0  0  0  # atno 17321 bound_to 7965
  139.7492  144.7539  151.0533 LP  0  0  0  0  0  0  0  0  0  0  0  0  # atno 17342 bound_to 10162
  140.7790  143.4880  150.9930 LP  0  0  0  0  0  0  0  0  0  0  0  0  # atno 17343 bound_to 10162
  157.5518  131.0944  150.9685 LP  0  0  0  0  0  0  0  0  0  0  0  0  # atno 17370 bound_to 10713
  156.9943  130.5575  149.5306 LP  0  0  0  0  0  0  0  0  0  0  0  0  # atno 17371 bound_to 10713
  141.0346  134.0708  157.3975 LP  0  0  0  0  0  0  0  0  0  0  0  0  # atno 17394 bound_to 11000
  139.8963  135.0145  156.7043 LP  0  0  0  0  0  0  0  0  0  0  0  0  # atno 17395 bound_to 11000

$$$$
