AV-unprocessed.smi:3056|AV-procd|sdf|11653|dock7
  -GOLD-   2272017 53D 1   1.00000     0.00000
 Structure written by MMmdl.
 47 48  0  0  0  0  0  0  0  0  1 V2000
  151.7119  144.8530  159.8675 C   0  0  0  0  0  0  0  0  0  0  0  0
  151.7994  143.6062  159.0357 C   0  0  0  0  0  0  0  0  0  0  0  0
  152.5321  142.4172  159.3124 C   0  0  0  0  0  0  0  0  0  0  0  0
  152.3956  141.4979  158.3709 N   0  0  0  0  0  0  0  0  0  0  0  0
  151.5712  142.0618  157.4619 N   0  0  0  0  0  0  0  0  0  0  0  0
  151.1958  141.3223  156.2633 C   0  0  2  0  0  0  0  0  0  0  0  0
  149.6727  141.0918  156.2624 C   0  0  0  0  0  0  0  0  0  0  0  0
  152.0044  140.0045  156.1277 C   0  0  2  0  0  0  0  0  0  0  0  0
  151.6390  139.1976  154.8635 C   0  0  0  0  0  0  0  0  0  0  0  0
  151.7437  139.1744  157.3056 N   0  0  0  0  0  0  0  0  0  0  0  0
  152.9035  138.3923  157.7738 C   0  0  0  0  0  0  0  0  0  0  0  0
  152.7246  137.7300  159.1556 C   0  0  0  0  0  0  0  0  0  0  0  0
  151.7563  136.9900  159.3393 O   0  0  0  0  0  0  0  0  0  0  0  0
  153.6326  137.9762  160.1300 N   0  0  0  0  0  0  0  0  0  0  0  0
  154.8742  138.7178  159.8995 C   0  0  0  0  0  0  0  0  0  0  0  0
  156.0473  137.7353  160.0690 C   0  0  0  0  0  0  0  0  0  0  0  0
  156.0018  137.1466  161.3683 O   0  0  0  0  0  0  0  0  0  0  0  0
  154.7815  136.4579  161.6437 C   0  0  1  0  0  0  0  0  0  0  0  0
  154.8706  135.8700  163.0560 C   0  0  0  0  0  0  0  0  0  0  0  0
  153.6080  137.4465  161.4957 C   0  0  0  0  0  0  0  0  0  0  0  0
  151.2010  143.3374  157.8377 C   0  0  0  0  0  0  0  0  0  0  0  0
  152.3534  144.7995  160.7473 H   0  0  0  0  0  0  0  0  0  0  0  0
  150.6958  145.0289  160.2207 H   0  0  0  0  0  0  0  0  0  0  0  0
  152.0144  145.7351  159.3028 H   0  0  0  0  0  0  0  0  0  0  0  0
  153.1560  142.1965  160.1658 H   0  0  0  0  0  0  0  0  0  0  0  0
  151.4328  141.9536  155.4040 H   0  0  0  0  0  0  0  0  0  0  0  0
  149.3345  140.6423  155.3289 H   0  0  0  0  0  0  0  0  0  0  0  0
  149.1354  142.0334  156.3797 H   0  0  0  0  0  0  0  0  0  0  0  0
  149.3684  140.4322  157.0757 H   0  0  0  0  0  0  0  0  0  0  0  0
  153.0605  140.2689  156.0694 H   0  0  0  0  0  0  0  0  0  0  0  0
  151.8527  139.7571  153.9529 H   0  0  0  0  0  0  0  0  0  0  0  0
  150.5788  138.9429  154.8516 H   0  0  0  0  0  0  0  0  0  0  0  0
  152.2032  138.2681  154.7937 H   0  0  0  0  0  0  0  0  0  0  0  0
  151.3795  139.7539  158.0488 H   0  0  0  0  0  0  0  0  0  0  0  0
  153.0994  137.6028  157.0480 H   0  0  0  0  0  0  0  0  0  0  0  0
  153.7788  139.0401  157.7781 H   0  0  0  0  0  0  0  0  0  0  0  0
  154.9202  139.1793  158.9124 H   0  0  0  0  0  0  0  0  0  0  0  0
  154.9548  139.5330  160.6199 H   0  0  0  0  0  0  0  0  0  0  0  0
  156.0120  136.9550  159.3069 H   0  0  0  0  0  0  0  0  0  0  0  0
  156.9973  138.2559  159.9497 H   0  0  0  0  0  0  0  0  0  0  0  0
  154.6658  135.6391  160.9310 H   0  0  0  0  0  0  0  0  0  0  0  0
  153.9634  135.3214  163.3104 H   0  0  0  0  0  0  0  0  0  0  0  0
  155.0095  136.6534  163.8014 H   0  0  0  0  0  0  0  0  0  0  0  0
  155.7100  135.1791  163.1379 H   0  0  0  0  0  0  0  0  0  0  0  0
  153.7237  138.2718  162.2002 H   0  0  0  0  0  0  0  0  0  0  0  0
  152.6663  136.9710  161.7653 H   0  0  0  0  0  0  0  0  0  0  0  0
  150.5451  143.9415  157.2279 H   0  0  0  0  0  0  0  0  0  0  0  0
  1  2  1  0  0  0  0
  1 22  1  0  0  0  0
  1 23  1  0  0  0  0
  1 24  1  0  0  0  0
  2 21  2  0  0  0  0
  2  3  1  0  0  0  0
  3  4  2  0  0  0  0
  3 25  1  0  0  0  0
  4  5  1  0  0  0  0
  5  6  1  0  0  0  0
  5 21  1  0  0  0  0
  6  7  1  0  0  0  0
  6  8  1  0  0  0  0
  6 26  1  0  0  0  0
  7 27  1  0  0  0  0
  7 28  1  0  0  0  0
  7 29  1  0  0  0  0
  8  9  1  0  0  0  0
  8 10  1  0  0  0  0
  8 30  1  0  0  0  0
  9 31  1  0  0  0  0
  9 32  1  0  0  0  0
  9 33  1  0  0  0  0
 10 11  1  0  0  0  0
 10 34  1  0  0  0  0
 11 12  1  0  0  0  0
 11 35  1  0  0  0  0
 11 36  1  0  0  0  0
 12 13  2  0  0  0  0
 12 14  1  0  0  0  0
 14 20  1  0  0  0  0
 14 15  1  0  0  0  0
 15 16  1  0  0  0  0
 15 37  1  0  0  0  0
 15 38  1  0  0  0  0
 16 17  1  0  0  0  0
 16 39  1  0  0  0  0
 16 40  1  0  0  0  0
 17 18  1  0  0  0  0
 18 19  1  0  0  0  0
 18 20  1  0  0  0  0
 18 41  1  0  0  0  0
 19 42  1  0  0  0  0
 19 43  1  0  0  0  0
 19 44  1  0  0  0  0
 20 45  1  0  0  0  0
 20 46  1  0  0  0  0
 21 47  1  0  0  0  0
M  END
> <s_m_source_file>
AV-unprocessed.smi

> <i_m_source_file_index>
3056

> <i_lp_mmshare_version>
43012

> <i_f3d_flags>
0

> <s_epik_input>
W0NIM11jMVtjSF1ubihbY0hdMSlbQ0BIXShbQ0gzXSlbQ0BIXShbQ0gzXSlbTkhdW0NIMl1DKD1PKU4yW0NIMl1bQ0gyXU9bQ0BASF0oW0NIM10pW0NIMl0y

> <s_epik_cmdline>
J2VwaWtfcHl0aG9uJywgJy1waCcsICc3LjAnLCAnLXRuJywgJzgnLCAnLW1hJywgJzIwMCcsICctbWV0YWxfYmluZGluZycsICctaW1hZScsICc8aW5maWxlLm1hZT4nLCAnLW9tYWUnLCAnPG91dGZpbGUubWFlPic=

> <r_lp_tautomer_probability>
1

> <r_epik_Ionization_Penalty>
0.667689

> <r_epik_Ionization_Penalty_Charging>
0

> <r_epik_Ionization_Penalty_Neutral>
0.667689

> <r_epik_State_Penalty>
0.684601

> <r_epik_Charging_Adjusted_Penalty>
0.684601

> <i_epik_Tot_Q>
0

> <i_epik_Tot_abs_Q>
0

> <r_epik_Metal_State_Penalty>
0.681448

> <b_epik_Metal_Only>
0

> <s_lp_Force_Field>
OPLS_2005

> <r_lp_Energy>
29.7123

> <b_lp_Chiralities_Consistent>
1

> <s_lp_Variant>
AV-unprocessed.smi:3056-9

> <Gold.Version>
5.8.1

> <Gold.Id.Protein>
6NUR|6NUR_protein|mol2

> <Gold.PLP.Fitness>
43.5096

> <Gold.PLP.PLP>
-38.6430

> <Gold.PLP.part.hbond>
-1.0000

> <Gold.PLP.part.metal>
0.0000

> <Gold.PLP.part.buried>
-5.1385

> <Gold.PLP.part.nonpolar>
-32.5131

> <Gold.PLP.part.repulsive>
0.0000

> <Gold.PLP.ligand.clash>
0.0000

> <Gold.PLP.ligand.torsion>
0.6058

> <Gold.PLP.Chemscore.Hbond>
1.0000

> <Gold.PLP.Chemscore.CHOScore>
1.0000

> <Gold.PLP.Chemscore.Metal>
0.0000

> <Gold.Chemscore.Hbonds>
donor molecule, donor type, donor heavy atom, donor atom, acceptor molecule, acceptor atom, score
      P1  H  6896  6909       L1    13  1.00
      L1  C    21    47       P1  8028  1.00

> <Gold.PLP.Chemscore.Internal.Correction>
0.0782

> <Gold.Rescore>
     Score         DG    S(hbond)    S(metal)    S(lipo)     H(rot)  DE(clash)    DE(int)     intcor
     16.04     -16.72       0.99        0.00     104.41       1.68       0.11       0.56       ----

> <Gold.Chemscore.Fitness>
16.0442

> <Gold.Chemscore.DG>
-16.7164

> <Gold.Chemscore.ZeroCoef>
-5.4800

> <Gold.Chemscore.Hbond>
0.9937

> <Gold.Chemscore.Metal>
0.0000

> <Gold.Chemscore.Lipo>
104.4142

> <Gold.Chemscore.Internal_Hbond>
0.0000

> <Gold.Chemscore.DEClash>
0.1100

> <Gold.Chemscore.DEInternal>
0.5622

> <Gold.Chemscore.Rot>
1.6793

> <Gold.Chemscore.Internal.Correction>
   9.000000E+99

> <Gold.Chemscore.Hbonds>
donor molecule, donor type, donor heavy atom, donor atom, acceptor molecule, acceptor atom, score
      P1  H  6896  6909       L1    13  0.96

> <Gold.Chemscore.Hbond.Weighted>
-3.3190

> <Gold.Chemscore.Metal.Weighted>
-0.0000

> <Gold.Chemscore.Lipo.Weighted>
-12.2165

> <Gold.Chemscore.Internal_Hbond.Weighted>
0.0000

> <Gold.Chemscore.DEClash.Weighted>
0.1100

> <Gold.Chemscore.DEInternal.Weighted>
0.5622

> <Gold.Chemscore.Rot.Weighted>
4.2990

> <Gold.Chemscore.Internal.Correction.Weighted>
   9.000000E+99

> <Gold.Protein.RotatedTorsions>
[ 6907 6896 6895 6894 ] final  107.78 input  -60.11 | X-H torsion
[ 7974 7965 7964 7962 ] final   -0.17 input  175.53 | X-H torsion
[ 8008 7997 7996 7995 ] final  -63.04 input   59.86 | X-H torsion
[ 10167 10162 10161 10158 ] final   46.82 input  -65.29 | X-H torsion
[ 10718 10713 10712 10709 ] final   54.87 input   66.30 | X-H torsion
[ 10763 10752 10751 10750 ] final -147.10 input  -60.55 | X-H torsion
[ 11005 11000 10999 10996 ] final  108.27 input  -57.11 | X-H torsion

> <Gold.Protein.ActiveResidues>
 VAL166  LYS551  ARG553  GLY616  TRP617  ASP618  TYR619  PRO620  LYS621  CYS622 
 ASP623  PHE694  ASN695  SER759  ASP760  ASP761  ALA762  ILE779  LEU786  VAL792 
 PHE793  MET794  SER795  GLU796  ALA797  LYS798  CYS799  TRP800  GLU811  SER814 

> <Gold.Protein.RotatedAtoms>
  152.5140  133.9184  159.7521 H   0  0  0  0  0  0  0  0  0  0  0  0  # atno 6907 bound_to 6896
  150.9561  133.6487  159.2770 H   0  0  0  0  0  0  0  0  0  0  0  0  # atno 6908 bound_to 6896
  151.3748  135.0934  159.9530 H   0  0  0  0  0  0  0  0  0  0  0  0  # atno 6909 bound_to 6896
  146.2429  140.1229  142.8340 H   0  0  0  0  0  0  0  0  0  0  0  0  # atno 7974 bound_to 7965
  154.4532  140.0983  156.6680 H   0  0  0  0  0  0  0  0  0  0  0  0  # atno 8008 bound_to 7997
  155.5219  140.3479  155.4390 H   0  0  0  0  0  0  0  0  0  0  0  0  # atno 8009 bound_to 7997
  156.0724  140.1353  156.9801 H   0  0  0  0  0  0  0  0  0  0  0  0  # atno 8010 bound_to 7997
  140.3100  144.2831  150.6201 H   0  0  0  0  0  0  0  0  0  0  0  0  # atno 10167 bound_to 10162
  157.5295  130.8621  149.8668 H   0  0  0  0  0  0  0  0  0  0  0  0  # atno 10718 bound_to 10713
  154.8303  135.3369  154.6765 H   0  0  0  0  0  0  0  0  0  0  0  0  # atno 10763 bound_to 10752
  153.7385  135.6947  153.4977 H   0  0  0  0  0  0  0  0  0  0  0  0  # atno 10764 bound_to 10752
  153.2261  135.4432  155.0494 H   0  0  0  0  0  0  0  0  0  0  0  0  # atno 10765 bound_to 10752
  139.8841  134.9425  156.5946 H   0  0  0  0  0  0  0  0  0  0  0  0  # atno 11005 bound_to 11000
  145.0391  140.8931  143.5063 LP  0  0  0  0  0  0  0  0  0  0  0  0  # atno 17320 bound_to 7965
  145.1307  139.2634  143.5541 LP  0  0  0  0  0  0  0  0  0  0  0  0  # atno 17321 bound_to 7965
  140.5576  143.2196  151.7820 LP  0  0  0  0  0  0  0  0  0  0  0  0  # atno 17342 bound_to 10162
  139.4896  144.4392  151.9784 LP  0  0  0  0  0  0  0  0  0  0  0  0  # atno 17343 bound_to 10162
  156.0412  130.3738  150.1431 LP  0  0  0  0  0  0  0  0  0  0  0  0  # atno 17370 bound_to 10713
  156.9616  130.9806  151.3478 LP  0  0  0  0  0  0  0  0  0  0  0  0  # atno 17371 bound_to 10713
  140.7929  133.8567  155.8661 LP  0  0  0  0  0  0  0  0  0  0  0  0  # atno 17394 bound_to 11000
  140.9661  134.1592  157.4615 LP  0  0  0  0  0  0  0  0  0  0  0  0  # atno 17395 bound_to 11000

$$$$
