AV-unprocessed.smi:916|AV-procd|sdf|4160|dock2
  -GOLD-   22720 2 63D 1   1.00000     0.00000
 Structure written by MMmdl.
 43 44  0  0  0  0  0  0  0  0  1 V2000
  144.6960  131.7022  151.1797 C   0  0  0  0  0  0  0  0  0  0  0  0
  143.8446  132.8789  150.6894 C   0  0  0  0  0  0  0  0  0  0  0  0
  144.0389  134.1085  151.5236 C   0  0  0  0  0  0  0  0  0  0  0  0
  143.0941  134.7394  152.2960 C   0  0  0  0  0  0  0  0  0  0  0  0
  143.7429  136.1376  153.1107 S   0  0  0  0  0  0  0  0  0  0  0  0
  145.2969  135.8040  152.3627 C   0  0  0  0  0  0  0  0  0  0  0  0
  146.4377  136.6127  152.6063 N   0  0  0  0  0  0  0  0  0  0  0  0
  146.4841  137.8348  153.1649 C   0  0  0  0  0  0  0  0  0  0  0  0
  145.5177  138.4483  153.6192 O   0  0  0  0  0  0  0  0  0  0  0  0
  147.7339  138.3204  153.1669 N   0  0  0  0  0  0  0  0  0  0  0  0
  148.1205  139.6330  153.6746 C   0  0  0  0  0  0  0  0  0  0  0  0
  148.5867  139.5807  155.1519 C   0  0  2  0  0  0  0  0  0  0  0  0
  148.5525  140.9466  155.8239 C   0  0  0  0  0  0  0  0  0  0  0  0
  149.9283  141.5382  155.5062 C   0  0  0  0  0  0  0  0  0  0  0  0
  150.7274  140.4539  155.0417 O   0  0  0  0  0  0  0  0  0  0  0  0
  150.0720  139.2290  155.3417 C   0  0  2  0  0  0  0  0  0  0  0  0
  150.6394  138.0579  154.5078 C   0  0  0  0  0  0  0  0  0  0  0  0
  150.1390  136.6976  155.0235 C   0  0  0  0  0  0  0  0  0  0  0  0
  152.1764  138.0819  154.4981 C   0  0  0  0  0  0  0  0  0  0  0  0
  145.2916  134.7278  151.5682 N   0  0  0  0  0  0  0  0  0  0  0  0
  144.5373  130.8218  150.5569 H   0  0  0  0  0  0  0  0  0  0  0  0
  144.4432  131.4352  152.2061 H   0  0  0  0  0  0  0  0  0  0  0  0
  145.7588  131.9444  151.1483 H   0  0  0  0  0  0  0  0  0  0  0  0
  144.0904  133.0920  149.6485 H   0  0  0  0  0  0  0  0  0  0  0  0
  142.7941  132.5864  150.6943 H   0  0  0  0  0  0  0  0  0  0  0  0
  142.0590  134.4654  152.4359 H   0  0  0  0  0  0  0  0  0  0  0  0
  147.3166  136.2276  152.2935 H   0  0  0  0  0  0  0  0  0  0  0  0
  148.4693  137.7489  152.7778 H   0  0  0  0  0  0  0  0  0  0  0  0
  148.9026  140.0355  153.0308 H   0  0  0  0  0  0  0  0  0  0  0  0
  147.2655  140.3015  153.5696 H   0  0  0  0  0  0  0  0  0  0  0  0
  147.9629  138.8732  155.6992 H   0  0  0  0  0  0  0  0  0  0  0  0
  147.7323  141.5859  155.4970 H   0  0  0  0  0  0  0  0  0  0  0  0
  148.4530  140.8172  156.9025 H   0  0  0  0  0  0  0  0  0  0  0  0
  149.8668  142.2953  154.7243 H   0  0  0  0  0  0  0  0  0  0  0  0
  150.3754  141.9969  156.3886 H   0  0  0  0  0  0  0  0  0  0  0  0
  150.2451  139.0195  156.3997 H   0  0  0  0  0  0  0  0  0  0  0  0
  150.3133  138.1704  153.4736 H   0  0  0  0  0  0  0  0  0  0  0  0
  150.4416  136.5324  156.0580 H   0  0  0  0  0  0  0  0  0  0  0  0
  150.5413  135.8793  154.4257 H   0  0  0  0  0  0  0  0  0  0  0  0
  149.0525  136.6236  154.9816 H   0  0  0  0  0  0  0  0  0  0  0  0
  152.5816  137.9824  155.5057 H   0  0  0  0  0  0  0  0  0  0  0  0
  152.5563  139.0134  154.0776 H   0  0  0  0  0  0  0  0  0  0  0  0
  152.5786  137.2663  153.8962 H   0  0  0  0  0  0  0  0  0  0  0  0
  1  2  1  0  0  0  0
  1 21  1  0  0  0  0
  1 22  1  0  0  0  0
  1 23  1  0  0  0  0
  2  3  1  0  0  0  0
  2 24  1  0  0  0  0
  2 25  1  0  0  0  0
  3 20  1  0  0  0  0
  3  4  2  0  0  0  0
  4  5  1  0  0  0  0
  4 26  1  0  0  0  0
  5  6  1  0  0  0  0
  6  7  1  0  0  0  0
  6 20  2  0  0  0  0
  7  8  1  0  0  0  0
  7 27  1  0  0  0  0
  8  9  2  0  0  0  0
  8 10  1  0  0  0  0
 10 11  1  0  0  0  0
 10 28  1  0  0  0  0
 11 12  1  0  0  0  0
 11 29  1  0  0  0  0
 11 30  1  0  0  0  0
 12 16  1  0  0  0  0
 12 13  1  0  0  0  0
 12 31  1  0  0  0  0
 13 14  1  0  0  0  0
 13 32  1  0  0  0  0
 13 33  1  0  0  0  0
 14 15  1  0  0  0  0
 14 34  1  0  0  0  0
 14 35  1  0  0  0  0
 15 16  1  0  0  0  0
 16 17  1  0  0  0  0
 16 36  1  0  0  0  0
 17 18  1  0  0  0  0
 17 19  1  0  0  0  0
 17 37  1  0  0  0  0
 18 38  1  0  0  0  0
 18 39  1  0  0  0  0
 18 40  1  0  0  0  0
 19 41  1  0  0  0  0
 19 42  1  0  0  0  0
 19 43  1  0  0  0  0
M  END
> <s_m_source_file>
AV-unprocessed.smi

> <i_m_source_file_index>
916

> <i_lp_mmshare_version>
43012

> <i_f3d_flags>
0

> <s_epik_input>
W0NIM11bQ0gyXWMxW2NIXXNjKG4xKVtOSF1DKD1PKVtOSF1bQ0gyXVtDQEBIXTJbQ0gyXVtDSDJdT1tDQEhdMltDSF0oW0NIM10pW0NIM10=

> <s_epik_cmdline>
J2VwaWtfcHl0aG9uJywgJy1waCcsICc3LjAnLCAnLXRuJywgJzgnLCAnLW1hJywgJzIwMCcsICctbWV0YWxfYmluZGluZycsICctaW1hZScsICc8aW5maWxlLm1hZT4nLCAnLW9tYWUnLCAnPG91dGZpbGUubWFlPic=

> <r_lp_tautomer_probability>
0.999

> <r_epik_Ionization_Penalty>
0.000518907

> <r_epik_Ionization_Penalty_Charging>
0

> <r_epik_Ionization_Penalty_Neutral>
0.000518907

> <r_epik_State_Penalty>
0.000177984

> <r_epik_Charging_Adjusted_Penalty>
0.000177984

> <i_epik_Tot_Q>
0

> <i_epik_Tot_abs_Q>
0

> <r_epik_Metal_State_Penalty>
-0

> <b_epik_Metal_Only>
0

> <s_lp_Force_Field>
OPLS_2005

> <r_lp_Energy>
18.5448

> <b_lp_Chiralities_Consistent>
1

> <s_lp_Variant>
AV-unprocessed.smi:916-3

> <Gold.Version>
5.8.1

> <Gold.Id.Protein>
6NUR|6NUR_protein|mol2

> <Gold.PLP.Fitness>
39.0788

> <Gold.PLP.PLP>
-31.3269

> <Gold.PLP.part.hbond>
-3.2584

> <Gold.PLP.part.metal>
0.0000

> <Gold.PLP.part.buried>
-5.0948

> <Gold.PLP.part.nonpolar>
-24.9637

> <Gold.PLP.part.repulsive>
1.0382

> <Gold.PLP.ligand.clash>
0.0000

> <Gold.PLP.ligand.torsion>
0.6576

> <Gold.PLP.Chemscore.Hbond>
3.0000

> <Gold.PLP.Chemscore.CHOScore>
0.0000

> <Gold.PLP.Chemscore.Metal>
0.0000

> <Gold.Chemscore.Hbonds>
donor molecule, donor type, donor heavy atom, donor atom, acceptor molecule, acceptor atom, score
      L1  H     7    27       P1  7948  1.00
      L1  H    10    28       P1  7948  0.99
      P1  H  7989  7998       L1    15  1.00

> <Gold.PLP.Chemscore.Internal.Correction>
0.0670

> <Gold.Rescore>
     Score         DG    S(hbond)    S(metal)    S(lipo)     H(rot)  DE(clash)    DE(int)     intcor
     18.49     -20.24       2.84        0.00      78.58       1.52       0.20       1.55       ----

> <Gold.Chemscore.Fitness>
18.4948

> <Gold.Chemscore.DG>
-20.2447

> <Gold.Chemscore.ZeroCoef>
-5.4800

> <Gold.Chemscore.Hbond>
2.8357

> <Gold.Chemscore.Metal>
0.0000

> <Gold.Chemscore.Lipo>
78.5841

> <Gold.Chemscore.Internal_Hbond>
0.0000

> <Gold.Chemscore.DEClash>
0.2034

> <Gold.Chemscore.DEInternal>
1.5465

> <Gold.Chemscore.Rot>
1.5238

> <Gold.Chemscore.Internal.Correction>
   9.000000E+99

> <Gold.Chemscore.Hbonds>
donor molecule, donor type, donor heavy atom, donor atom, acceptor molecule, acceptor atom, score
      L1  H     7    27       P1  7948  0.99
      L1  H    10    28       P1  7948  0.93
      P1  H  7989  7998       L1    15  0.79

> <Gold.Chemscore.Hbond.Weighted>
-9.4712

> <Gold.Chemscore.Metal.Weighted>
-0.0000

> <Gold.Chemscore.Lipo.Weighted>
-9.1943

> <Gold.Chemscore.Internal_Hbond.Weighted>
0.0000

> <Gold.Chemscore.DEClash.Weighted>
0.2034

> <Gold.Chemscore.DEInternal.Weighted>
1.5465

> <Gold.Chemscore.Rot.Weighted>
3.9008

> <Gold.Chemscore.Internal.Correction.Weighted>
   9.000000E+99

> <Gold.Protein.RotatedTorsions>
[ 6907 6896 6895 6894 ] final   -3.65 input  -60.11 | X-H torsion
[ 7974 7965 7964 7962 ] final  -22.32 input  175.53 | X-H torsion
[ 8008 7997 7996 7995 ] final   59.38 input   59.86 | X-H torsion
[ 10167 10162 10161 10158 ] final   12.53 input  -65.29 | X-H torsion
[ 10718 10713 10712 10709 ] final    2.67 input   66.30 | X-H torsion
[ 10763 10752 10751 10750 ] final  -66.67 input  -60.55 | X-H torsion
[ 11005 11000 10999 10996 ] final   34.98 input  -57.11 | X-H torsion

> <Gold.Protein.ActiveResidues>
 VAL166  LYS551  ARG553  GLY616  TRP617  ASP618  TYR619  PRO620  LYS621  CYS622 
 ASP623  PHE694  ASN695  SER759  ASP760  ASP761  ALA762  ILE779  LEU786  VAL792 
 PHE793  MET794  SER795  GLU796  ALA797  LYS798  CYS799  TRP800  GLU811  SER814 

> <Gold.Protein.RotatedAtoms>
  151.5103  135.1065  159.9851 H   0  0  0  0  0  0  0  0  0  0  0  0  # atno 6907 bound_to 6896
  152.4664  133.7929  159.6922 H   0  0  0  0  0  0  0  0  0  0  0  0  # atno 6908 bound_to 6896
  150.8650  133.7524  159.3005 H   0  0  0  0  0  0  0  0  0  0  0  0  # atno 6909 bound_to 6896
  146.1682  140.4463  142.8543 H   0  0  0  0  0  0  0  0  0  0  0  0  # atno 7974 bound_to 7965
  155.5653  140.3489  155.4501 H   0  0  0  0  0  0  0  0  0  0  0  0  # atno 8008 bound_to 7997
  156.0484  140.1312  157.0103 H   0  0  0  0  0  0  0  0  0  0  0  0  # atno 8009 bound_to 7997
  154.4423  140.1010  156.6325 H   0  0  0  0  0  0  0  0  0  0  0  0  # atno 8010 bound_to 7997
  140.6062  143.8503  150.7016 H   0  0  0  0  0  0  0  0  0  0  0  0  # atno 10167 bound_to 10162
  156.8665  130.5605  149.5660 H   0  0  0  0  0  0  0  0  0  0  0  0  # atno 10718 bound_to 10713
  154.3632  135.6111  153.5701 H   0  0  0  0  0  0  0  0  0  0  0  0  # atno 10763 bound_to 10752
  152.9793  135.5820  154.4609 H   0  0  0  0  0  0  0  0  0  0  0  0  # atno 10764 bound_to 10752
  154.4350  135.2849  155.1864 H   0  0  0  0  0  0  0  0  0  0  0  0  # atno 10765 bound_to 10752
  140.2473  134.3344  155.7903 H   0  0  0  0  0  0  0  0  0  0  0  0  # atno 11005 bound_to 11000
  144.8124  140.6409  143.6406 LP  0  0  0  0  0  0  0  0  0  0  0  0  # atno 17320 bound_to 7965
  145.4410  139.1536  143.3970 LP  0  0  0  0  0  0  0  0  0  0  0  0  # atno 17321 bound_to 7965
  140.2061  143.3920  152.1754 LP  0  0  0  0  0  0  0  0  0  0  0  0  # atno 17342 bound_to 10162
  139.5326  144.7176  151.5001 LP  0  0  0  0  0  0  0  0  0  0  0  0  # atno 17343 bound_to 10162
  156.0749  130.5773  150.9454 LP  0  0  0  0  0  0  0  0  0  0  0  0  # atno 17370 bound_to 10713
  157.6220  131.0929  150.8604 LP  0  0  0  0  0  0  0  0  0  0  0  0  # atno 17371 bound_to 10713
  141.2205  133.7333  156.8981 LP  0  0  0  0  0  0  0  0  0  0  0  0  # atno 17394 bound_to 11000
  140.1593  134.9177  157.2694 LP  0  0  0  0  0  0  0  0  0  0  0  0  # atno 17395 bound_to 11000

$$$$
