AV-unprocessed.smi:2428|AV-procd|sdf|9580|dock2
  -GOLD-   2272013213D 1   1.00000     0.00000
 Structure written by MMmdl.
 30 31  0  0  0  0  0  0  0  0  1 V2000
  154.9332  140.2992  162.2496 F   0  0  0  0  0  0  0  0  0  0  0  0
  154.6937  140.2860  160.9382 C   0  0  0  0  0  0  0  0  0  0  0  0
  155.8573  140.3968  160.2967 F   0  0  0  0  0  0  0  0  0  0  0  0
  154.1364  139.1196  160.6151 F   0  0  0  0  0  0  0  0  0  0  0  0
  153.7429  141.4147  160.5743 C   0  0  0  0  0  0  0  0  0  0  0  0
  153.2539  142.2854  161.5694 C   0  0  0  0  0  0  0  0  0  0  0  0
  152.3712  143.3192  161.2013 C   0  0  0  0  0  0  0  0  0  0  0  0
  152.0048  143.4502  159.8458 C   0  0  0  0  0  0  0  0  0  0  0  0
  151.1261  144.4828  159.4870 N   0  0  0  0  0  0  0  0  0  0  0  0
  150.3361  145.1830  160.4926 C   0  0  0  0  0  0  0  0  0  0  0  0
  148.8444  145.2446  160.1243 C   0  0  2  0  0  0  0  0  0  0  0  0
  147.9668  145.8104  161.2373 C   0  0  0  0  0  0  0  0  0  0  0  0
  146.5897  145.2585  160.9092 C   0  0  0  0  0  0  0  0  0  0  0  0
  146.8788  144.0597  160.0006 C   0  0  0  0  0  0  0  0  0  0  0  0
  148.2951  143.9467  159.9594 O   0  0  0  0  0  0  0  0  0  0  0  0
  152.4629  142.6104  158.8876 N   0  0  0  0  0  0  0  0  0  0  0  0
  153.3102  141.6224  159.2466 C   0  0  0  0  0  0  0  0  0  0  0  0
  153.5500  142.1637  162.6010 H   0  0  0  0  0  0  0  0  0  0  0  0
  151.9872  143.9982  161.9487 H   0  0  0  0  0  0  0  0  0  0  0  0
  150.8154  144.5348  158.5278 H   0  0  0  0  0  0  0  0  0  0  0  0
  150.4782  144.7504  161.4835 H   0  0  0  0  0  0  0  0  0  0  0  0
  150.7288  146.1983  160.5495 H   0  0  0  0  0  0  0  0  0  0  0  0
  148.6949  145.8219  159.2096 H   0  0  0  0  0  0  0  0  0  0  0  0
  148.2938  145.4266  162.2048 H   0  0  0  0  0  0  0  0  0  0  0  0
  147.9892  146.8994  161.2813 H   0  0  0  0  0  0  0  0  0  0  0  0
  146.0501  144.9707  161.8119 H   0  0  0  0  0  0  0  0  0  0  0  0
  145.9886  145.9978  160.3792 H   0  0  0  0  0  0  0  0  0  0  0  0
  146.4304  143.1378  160.3712 H   0  0  0  0  0  0  0  0  0  0  0  0
  146.5008  144.2415  158.9936 H   0  0  0  0  0  0  0  0  0  0  0  0
  153.6457  140.9813  158.4451 H   0  0  0  0  0  0  0  0  0  0  0  0
  1  2  1  0  0  0  0
  2  3  1  0  0  0  0
  2  4  1  0  0  0  0
  2  5  1  0  0  0  0
  5 17  1  0  0  0  0
  5  6  2  0  0  0  0
  6  7  1  0  0  0  0
  6 18  1  0  0  0  0
  7  8  2  0  0  0  0
  7 19  1  0  0  0  0
  8  9  1  0  0  0  0
  8 16  1  0  0  0  0
  9 10  1  0  0  0  0
  9 20  1  0  0  0  0
 10 11  1  0  0  0  0
 10 21  1  0  0  0  0
 10 22  1  0  0  0  0
 11 15  1  0  0  0  0
 11 12  1  0  0  0  0
 11 23  1  0  0  0  0
 12 13  1  0  0  0  0
 12 24  1  0  0  0  0
 12 25  1  0  0  0  0
 13 14  1  0  0  0  0
 13 26  1  0  0  0  0
 13 27  1  0  0  0  0
 14 15  1  0  0  0  0
 14 28  1  0  0  0  0
 14 29  1  0  0  0  0
 16 17  2  0  0  0  0
 17 30  1  0  0  0  0
M  END
> <s_m_source_file>
AV-unprocessed.smi

> <i_m_source_file_index>
2428

> <i_lp_mmshare_version>
43012

> <i_f3d_flags>
0

> <s_epik_input>
RkMoRikoRiljMVtjSF1bY0hdYyhuW2NIXTEpW05IXVtDSDJdW0NAQEhdMltDSDJdW0NIMl1bQ0gyXU8y

> <s_epik_cmdline>
J2VwaWtfcHl0aG9uJywgJy1waCcsICc3LjAnLCAnLXRuJywgJzgnLCAnLW1hJywgJzIwMCcsICctbWV0YWxfYmluZGluZycsICctaW1hZScsICc8aW5maWxlLm1hZT4nLCAnLW9tYWUnLCAnPG91dGZpbGUubWFlPic=

> <r_lp_tautomer_probability>
1

> <r_epik_Ionization_Penalty>
0.000819842

> <r_epik_Ionization_Penalty_Charging>
0

> <r_epik_Ionization_Penalty_Neutral>
0.000819842

> <r_epik_State_Penalty>
0.000527207

> <r_epik_Charging_Adjusted_Penalty>
0.000527207

> <i_epik_Tot_Q>
0

> <i_epik_Tot_abs_Q>
0

> <r_epik_Metal_State_Penalty>
-0

> <b_epik_Metal_Only>
0

> <s_lp_Force_Field>
OPLS_2005

> <r_lp_Energy>
19.3564

> <b_lp_Chiralities_Consistent>
1

> <s_lp_Variant>
AV-unprocessed.smi:2428-1

> <Gold.Version>
5.8.1

> <Gold.Id.Protein>
6NUR|6NUR_protein|mol2

> <Gold.PLP.Fitness>
39.9199

> <Gold.PLP.PLP>
-39.3790

> <Gold.PLP.part.hbond>
-1.0000

> <Gold.PLP.part.metal>
0.0000

> <Gold.PLP.part.buried>
-5.0604

> <Gold.PLP.part.nonpolar>
-33.5479

> <Gold.PLP.part.repulsive>
0.2218

> <Gold.PLP.ligand.clash>
2.2146

> <Gold.PLP.ligand.torsion>
0.1128

> <Gold.PLP.Chemscore.Hbond>
0.9760

> <Gold.PLP.Chemscore.CHOScore>
0.0000

> <Gold.PLP.Chemscore.Metal>
0.0000

> <Gold.Chemscore.Hbonds>
donor molecule, donor type, donor heavy atom, donor atom, acceptor molecule, acceptor atom, score
      P1  H  6933  6944       L1    15  0.54

> <Gold.PLP.Chemscore.Internal.Correction>
0.0532

> <Gold.Rescore>
     Score         DG    S(hbond)    S(metal)    S(lipo)     H(rot)  DE(clash)    DE(int)     intcor
     13.78     -14.25       0.88        0.00      77.15       1.25       0.02       0.45       ----

> <Gold.Chemscore.Fitness>
13.7830

> <Gold.Chemscore.DG>
-14.2464

> <Gold.Chemscore.ZeroCoef>
-5.4800

> <Gold.Chemscore.Hbond>
0.8814

> <Gold.Chemscore.Metal>
0.0000

> <Gold.Chemscore.Lipo>
77.1452

> <Gold.Chemscore.Internal_Hbond>
0.0000

> <Gold.Chemscore.DEClash>
0.0182

> <Gold.Chemscore.DEInternal>
0.4452

> <Gold.Chemscore.Rot>
1.2514

> <Gold.Chemscore.Internal.Correction>
   9.000000E+99

> <Gold.Chemscore.Hbonds>
donor molecule, donor type, donor heavy atom, donor atom, acceptor molecule, acceptor atom, score
      P1  H  6933  6944       L1    15  0.10

> <Gold.Chemscore.Hbond.Weighted>
-2.9440

> <Gold.Chemscore.Metal.Weighted>
-0.0000

> <Gold.Chemscore.Lipo.Weighted>
-9.0260

> <Gold.Chemscore.Internal_Hbond.Weighted>
0.0000

> <Gold.Chemscore.DEClash.Weighted>
0.0182

> <Gold.Chemscore.DEInternal.Weighted>
0.4452

> <Gold.Chemscore.Rot.Weighted>
3.2036

> <Gold.Chemscore.Internal.Correction.Weighted>
   9.000000E+99

> <Gold.Protein.RotatedTorsions>
[ 6907 6896 6895 6894 ] final  -51.42 input  -60.11 | X-H torsion
[ 7974 7965 7964 7962 ] final   60.48 input  175.53 | X-H torsion
[ 8008 7997 7996 7995 ] final -106.21 input   59.86 | X-H torsion
[ 10167 10162 10161 10158 ] final  124.92 input  -65.29 | X-H torsion
[ 10718 10713 10712 10709 ] final   90.58 input   66.30 | X-H torsion
[ 10763 10752 10751 10750 ] final -129.57 input  -60.55 | X-H torsion
[ 11005 11000 10999 10996 ] final   64.54 input  -57.11 | X-H torsion

> <Gold.Protein.ActiveResidues>
 VAL166  LYS551  ARG553  GLY616  TRP617  ASP618  TYR619  PRO620  LYS621  CYS622 
 ASP623  PHE694  ASN695  SER759  ASP760  ASP761  ALA762  ILE779  LEU786  VAL792 
 PHE793  MET794  SER795  GLU796  ALA797  LYS798  CYS799  TRP800  GLU811  SER814 

> <Gold.Protein.RotatedAtoms>
  150.8613  134.7966  159.7084 H   0  0  0  0  0  0  0  0  0  0  0  0  # atno 6907 bound_to 6896
  152.4649  134.5095  159.9759 H   0  0  0  0  0  0  0  0  0  0  0  0  # atno 6908 bound_to 6896
  151.5199  133.3430  159.2935 H   0  0  0  0  0  0  0  0  0  0  0  0  # atno 6909 bound_to 6896
  145.8955  139.3543  143.0623 H   0  0  0  0  0  0  0  0  0  0  0  0  # atno 7974 bound_to 7965
  154.9112  140.0410  157.1947 H   0  0  0  0  0  0  0  0  0  0  0  0  # atno 8008 bound_to 7997
  154.8346  140.2904  155.5678 H   0  0  0  0  0  0  0  0  0  0  0  0  # atno 8009 bound_to 7997
  156.2989  140.2494  156.3278 H   0  0  0  0  0  0  0  0  0  0  0  0  # atno 8010 bound_to 7997
  139.5715  144.6941  151.3767 H   0  0  0  0  0  0  0  0  0  0  0  0  # atno 10167 bound_to 10162
  157.6959  131.0376  150.3599 H   0  0  0  0  0  0  0  0  0  0  0  0  # atno 10718 bound_to 10713
  154.8757  135.3891  154.3942 H   0  0  0  0  0  0  0  0  0  0  0  0  # atno 10763 bound_to 10752
  153.4674  135.7029  153.6019 H   0  0  0  0  0  0  0  0  0  0  0  0  # atno 10764 bound_to 10752
  153.4491  135.3838  155.2241 H   0  0  0  0  0  0  0  0  0  0  0  0  # atno 10765 bound_to 10752
  139.9952  134.6529  156.0023 H   0  0  0  0  0  0  0  0  0  0  0  0  # atno 11005 bound_to 11000
  145.8855  140.9336  143.0579 LP  0  0  0  0  0  0  0  0  0  0  0  0  # atno 17320 bound_to 7965
  144.6732  140.0836  143.7468 LP  0  0  0  0  0  0  0  0  0  0  0  0  # atno 17321 bound_to 7965
  140.6999  143.7658  150.7386 LP  0  0  0  0  0  0  0  0  0  0  0  0  # atno 17342 bound_to 10162
  140.1165  143.4651  152.2339 LP  0  0  0  0  0  0  0  0  0  0  0  0  # atno 17343 bound_to 10162
  156.4037  130.3920  149.6941 LP  0  0  0  0  0  0  0  0  0  0  0  0  # atno 17370 bound_to 10713
  156.4250  130.7787  151.2805 LP  0  0  0  0  0  0  0  0  0  0  0  0  # atno 17371 bound_to 10713
  141.1598  133.6539  156.4282 LP  0  0  0  0  0  0  0  0  0  0  0  0  # atno 17394 bound_to 11000
  140.4832  134.6645  157.5180 LP  0  0  0  0  0  0  0  0  0  0  0  0  # atno 17395 bound_to 11000

$$$$
