AV-unprocessed.smi:960|AV-procd|sdf|4271|dock6
  -GOLD-   22720 2183D 1   1.00000     0.00000
 Structure written by MMmdl.
 46 47  0  0  0  0  0  0  0  0  2 V2000
  145.5885  128.9342  152.3233 C   0  0  0  0  0  0  0  0  0  0  0  0
  146.8731  128.6085  152.1028 C   0  0  0  0  0  0  0  0  0  0  0  0
  147.3326  128.0030  150.7888 C   0  0  0  0  0  0  0  0  0  0  0  0
  147.9511  128.8569  153.1465 C   0  0  0  0  0  0  0  0  0  0  0  0
  148.4005  130.2735  153.1875 N   0  3  2  0  0  0  0  0  0  0  0  0
  149.4516  130.4819  154.2168 C   0  0  0  0  0  0  0  0  0  0  0  0
  150.0257  131.9061  154.1542 C   0  0  0  0  0  0  0  0  0  0  0  0
  148.9138  132.9592  154.3085 C   0  0  1  0  0  0  0  0  0  0  0  0
  149.4459  134.3099  154.1533 N   0  0  0  0  0  0  0  0  0  0  0  0
  149.7802  135.1277  155.1618 C   0  0  0  0  0  0  0  0  0  0  0  0
  149.6685  134.8249  156.3493 O   0  0  0  0  0  0  0  0  0  0  0  0
  150.2262  136.3089  154.7083 N   0  0  0  0  0  0  0  0  0  0  0  0
  150.6737  137.4047  155.4884 C   0  0  0  0  0  0  0  0  0  0  0  0
  150.1684  137.9061  156.7241 C   0  0  0  0  0  0  0  0  0  0  0  0
  149.0249  137.4446  157.5838 C   0  0  0  0  0  0  0  0  0  0  0  0
  150.9082  138.9269  157.1318 N   0  0  0  0  0  0  0  0  0  0  0  0
  151.9310  139.0880  156.1847 O   0  0  0  0  0  0  0  0  0  0  0  0
  151.7824  138.1496  155.2138 C   0  0  0  0  0  0  0  0  0  0  0  0
  152.7934  138.1424  154.1176 C   0  0  0  0  0  0  0  0  0  0  0  0
  147.8237  132.7050  153.2563 C   0  0  0  0  0  0  0  0  0  0  0  0
  147.2968  131.2612  153.3253 C   0  0  0  0  0  0  0  0  0  0  0  0
  144.8296  128.7657  151.5729 H   0  0  0  0  0  0  0  0  0  0  0  0
  145.2758  129.3751  153.2587 H   0  0  0  0  0  0  0  0  0  0  0  0
  148.0009  128.6944  150.2751 H   0  0  0  0  0  0  0  0  0  0  0  0
  146.4884  127.7999  150.1292 H   0  0  0  0  0  0  0  0  0  0  0  0
  147.8709  127.0693  150.9439 H   0  0  0  0  0  0  0  0  0  0  0  0
  147.6079  128.5361  154.1314 H   0  0  0  0  0  0  0  0  0  0  0  0
  148.8020  128.2221  152.8943 H   0  0  0  0  0  0  0  0  0  0  0  0
  149.0355  130.2888  155.2069 H   0  0  0  0  0  0  0  0  0  0  0  0
  150.2601  129.7649  154.0685 H   0  0  0  0  0  0  0  0  0  0  0  0
  150.7757  132.0299  154.9363 H   0  0  0  0  0  0  0  0  0  0  0  0
  150.5438  132.0477  153.2044 H   0  0  0  0  0  0  0  0  0  0  0  0
  148.4651  132.8657  155.2996 H   0  0  0  0  0  0  0  0  0  0  0  0
  149.5646  134.6487  153.2096 H   0  0  0  0  0  0  0  0  0  0  0  0
  150.1521  136.4740  153.7153 H   0  0  0  0  0  0  0  0  0  0  0  0
  148.9103  136.3615  157.5388 H   0  0  0  0  0  0  0  0  0  0  0  0
  148.0865  137.8972  157.2639 H   0  0  0  0  0  0  0  0  0  0  0  0
  149.1786  137.7105  158.6302 H   0  0  0  0  0  0  0  0  0  0  0  0
  152.6950  137.2506  153.4986 H   0  0  0  0  0  0  0  0  0  0  0  0
  153.8045  138.1604  154.5239 H   0  0  0  0  0  0  0  0  0  0  0  0
  152.6706  139.0143  153.4754 H   0  0  0  0  0  0  0  0  0  0  0  0
  146.9981  133.4037  153.3967 H   0  0  0  0  0  0  0  0  0  0  0  0
  148.2214  132.8941  152.2578 H   0  0  0  0  0  0  0  0  0  0  0  0
  146.5732  131.1312  152.5224 H   0  0  0  0  0  0  0  0  0  0  0  0
  146.7694  131.0941  154.2659 H   0  0  0  0  0  0  0  0  0  0  0  0
  148.8385  130.4547  152.2956 H   0  0  0  0  0  0  0  0  0  0  0  0
  1  2  2  0  0  0  0
  1 22  1  0  0  0  0
  1 23  1  0  0  0  0
  2  3  1  0  0  0  0
  2  4  1  0  0  0  0
  3 24  1  0  0  0  0
  3 25  1  0  0  0  0
  3 26  1  0  0  0  0
  4  5  1  0  0  0  0
  4 27  1  0  0  0  0
  4 28  1  0  0  0  0
  5 21  1  0  0  0  0
  5  6  1  0  0  0  0
  5 46  1  0  0  0  0
  6  7  1  0  0  0  0
  6 29  1  0  0  0  0
  6 30  1  0  0  0  0
  7  8  1  0  0  0  0
  7 31  1  0  0  0  0
  7 32  1  0  0  0  0
  8  9  1  0  0  0  0
  8 20  1  0  0  0  0
  8 33  1  0  0  0  0
  9 10  1  0  0  0  0
  9 34  1  0  0  0  0
 10 11  2  0  0  0  0
 10 12  1  0  0  0  0
 12 13  1  0  0  0  0
 12 35  1  0  0  0  0
 13 18  2  0  0  0  0
 13 14  1  0  0  0  0
 14 15  1  0  0  0  0
 14 16  2  0  0  0  0
 15 36  1  0  0  0  0
 15 37  1  0  0  0  0
 15 38  1  0  0  0  0
 16 17  1  0  0  0  0
 17 18  1  0  0  0  0
 18 19  1  0  0  0  0
 19 39  1  0  0  0  0
 19 40  1  0  0  0  0
 19 41  1  0  0  0  0
 20 21  1  0  0  0  0
 20 42  1  0  0  0  0
 20 43  1  0  0  0  0
 21 44  1  0  0  0  0
 21 45  1  0  0  0  0
M  CHG  1   5   1
M  END
> <s_m_source_file>
AV-unprocessed.smi

> <i_m_source_file_index>
960

> <i_lp_mmshare_version>
43012

> <i_f3d_flags>
0

> <s_epik_input>
W0NIMl09QyhbQ0gzXSlbQ0gyXU4xW0NIMl1bQ0gyXVtDSF0oW0NIMl1bQ0gyXTEpW05IXUMoPU8pW05IXWMyYyhbQ0gzXSlub2MyW0NIM10=

> <s_epik_cmdline>
J2VwaWtfcHl0aG9uJywgJy1waCcsICc3LjAnLCAnLXRuJywgJzgnLCAnLW1hJywgJzIwMCcsICctbWV0YWxfYmluZGluZycsICctaW1hZScsICc8aW5maWxlLm1hZT4nLCAnLW9tYWUnLCAnPG91dGZpbGUubWFlPic=

> <r_epik_Ionization_Penalty>
0.01938

> <r_epik_Ionization_Penalty_Charging>
0.0193505

> <r_epik_Ionization_Penalty_Neutral>
2.94909e-05

> <r_epik_State_Penalty>
0.0154499

> <r_epik_Charging_Adjusted_Penalty>
0.0348004

> <i_epik_Tot_Q>
1

> <i_epik_Tot_abs_Q>
1

> <r_epik_Metal_State_Penalty>
0.0154499

> <b_epik_Metal_Only>
0

> <s_lp_Force_Field>
OPLS_2005

> <r_lp_Energy>
20.2595

> <b_lp_Chiralities_Consistent>
1

> <s_lp_Variant>
AV-unprocessed.smi:960-1

> <Gold.Version>
5.8.1

> <Gold.Id.Protein>
6NUR|6NUR_protein|mol2

> <Gold.PLP.Fitness>
39.5822

> <Gold.PLP.PLP>
-34.0680

> <Gold.PLP.part.hbond>
-3.0000

> <Gold.PLP.part.metal>
0.0000

> <Gold.PLP.part.buried>
-5.2966

> <Gold.PLP.part.nonpolar>
-25.7161

> <Gold.PLP.part.repulsive>
0.0797

> <Gold.PLP.ligand.clash>
0.0000

> <Gold.PLP.ligand.torsion>
0.9151

> <Gold.PLP.Chemscore.Hbond>
2.3417

> <Gold.PLP.Chemscore.CHOScore>
0.0000

> <Gold.PLP.Chemscore.Metal>
0.0000

> <Gold.Chemscore.Hbonds>
donor molecule, donor type, donor heavy atom, donor atom, acceptor molecule, acceptor atom, score
      L1  H     5    46       P1 10747  1.00
      L1  H     9    34       P1  7948  0.07
      L1  H    12    35       P1  7948  0.46

> <Gold.PLP.Chemscore.Internal.Correction>
0.3195

> <Gold.Rescore>
     Score         DG    S(hbond)    S(metal)    S(lipo)     H(rot)  DE(clash)    DE(int)     intcor
     16.75     -20.11       2.58        0.00      81.01       1.35       1.39       1.97       ----

> <Gold.Chemscore.Fitness>
16.7472

> <Gold.Chemscore.DG>
-20.1142

> <Gold.Chemscore.ZeroCoef>
-5.4800

> <Gold.Chemscore.Hbond>
2.5767

> <Gold.Chemscore.Metal>
0.0000

> <Gold.Chemscore.Lipo>
81.0149

> <Gold.Chemscore.Internal_Hbond>
0.0000

> <Gold.Chemscore.DEClash>
1.3929

> <Gold.Chemscore.DEInternal>
1.9742

> <Gold.Chemscore.Rot>
1.3480

> <Gold.Chemscore.Internal.Correction>
   9.000000E+99

> <Gold.Chemscore.Hbonds>
donor molecule, donor type, donor heavy atom, donor atom, acceptor molecule, acceptor atom, score
      L1  H     5    46       P1 10747  0.37
      L1  H    12    35       P1  7948  0.06

> <Gold.Chemscore.Hbond.Weighted>
-8.6063

> <Gold.Chemscore.Metal.Weighted>
-0.0000

> <Gold.Chemscore.Lipo.Weighted>
-9.4787

> <Gold.Chemscore.Internal_Hbond.Weighted>
0.0000

> <Gold.Chemscore.DEClash.Weighted>
1.3929

> <Gold.Chemscore.DEInternal.Weighted>
1.9742

> <Gold.Chemscore.Rot.Weighted>
3.4509

> <Gold.Chemscore.Internal.Correction.Weighted>
   9.000000E+99

> <Gold.Protein.RotatedTorsions>
[ 6907 6896 6895 6894 ] final   50.02 input  -60.11 | X-H torsion
[ 7974 7965 7964 7962 ] final  -46.69 input  175.53 | X-H torsion
[ 8008 7997 7996 7995 ] final  -72.32 input   59.86 | X-H torsion
[ 10167 10162 10161 10158 ] final -126.59 input  -65.29 | X-H torsion
[ 10718 10713 10712 10709 ] final  113.00 input   66.30 | X-H torsion
[ 10763 10752 10751 10750 ] final   11.28 input  -60.55 | X-H torsion
[ 11005 11000 10999 10996 ] final -116.11 input  -57.11 | X-H torsion

> <Gold.Protein.ActiveResidues>
 VAL166  LYS551  ARG553  GLY616  TRP617  ASP618  TYR619  PRO620  LYS621  CYS622 
 ASP623  PHE694  ASN695  SER759  ASP760  ASP761  ALA762  ILE779  LEU786  VAL792 
 PHE793  MET794  SER795  GLU796  ALA797  LYS798  CYS799  TRP800  GLU811  SER814 

> <Gold.Protein.RotatedAtoms>
  152.2972  134.7654  160.0365 H   0  0  0  0  0  0  0  0  0  0  0  0  # atno 6907 bound_to 6896
  151.8179  133.3385  159.3583 H   0  0  0  0  0  0  0  0  0  0  0  0  # atno 6908 bound_to 6896
  150.7257  134.5531  159.5849 H   0  0  0  0  0  0  0  0  0  0  0  0  # atno 6909 bound_to 6896
  145.9693  140.7399  142.9418 H   0  0  0  0  0  0  0  0  0  0  0  0  # atno 7974 bound_to 7965
  154.5157  140.0799  156.8076 H   0  0  0  0  0  0  0  0  0  0  0  0  # atno 8008 bound_to 7997
  155.3686  140.3421  155.4224 H   0  0  0  0  0  0  0  0  0  0  0  0  # atno 8009 bound_to 7997
  156.1625  140.1593  156.8576 H   0  0  0  0  0  0  0  0  0  0  0  0  # atno 8010 bound_to 7997
  139.9698  143.5857  152.2416 H   0  0  0  0  0  0  0  0  0  0  0  0  # atno 10167 bound_to 10162
  157.6362  131.0977  150.6977 H   0  0  0  0  0  0  0  0  0  0  0  0  # atno 10718 bound_to 10713
  153.1943  135.6847  153.8312 H   0  0  0  0  0  0  0  0  0  0  0  0  # atno 10763 bound_to 10752
  153.7601  135.3211  155.3336 H   0  0  0  0  0  0  0  0  0  0  0  0  # atno 10764 bound_to 10752
  154.8135  135.4701  154.0680 H   0  0  0  0  0  0  0  0  0  0  0  0  # atno 10765 bound_to 10752
  141.0444  133.9786  157.2942 H   0  0  0  0  0  0  0  0  0  0  0  0  # atno 11005 bound_to 11000
  144.6833  140.2722  143.7304 LP  0  0  0  0  0  0  0  0  0  0  0  0  # atno 17320 bound_to 7965
  145.7929  139.1934  143.2092 LP  0  0  0  0  0  0  0  0  0  0  0  0  # atno 17321 bound_to 7965
  139.6489  144.7660  151.2187 LP  0  0  0  0  0  0  0  0  0  0  0  0  # atno 17342 bound_to 10162
  140.7525  143.6193  150.8529 LP  0  0  0  0  0  0  0  0  0  0  0  0  # atno 17343 bound_to 10162
  156.7308  130.4709  149.5500 LP  0  0  0  0  0  0  0  0  0  0  0  0  # atno 17370 bound_to 10713
  156.1603  130.6370  151.0710 LP  0  0  0  0  0  0  0  0  0  0  0  0  # atno 17371 bound_to 10713
  139.9300  135.0200  156.8368 LP  0  0  0  0  0  0  0  0  0  0  0  0  # atno 17394 bound_to 11000
  140.6175  134.0025  155.7603 LP  0  0  0  0  0  0  0  0  0  0  0  0  # atno 17395 bound_to 11000

$$$$
