AV-unprocessed.smi:1865|AV-procd|sdf|7555|dock1
  -GOLD-   22720 9273D 1   1.00000     0.00000
 Structure written by MMmdl.
 41 42  0  0  0  0  0  0  0  0  2 V2000
  151.0432  138.4542  158.8174 O   0  0  0  0  0  0  0  0  0  0  0  0
  151.2711  139.5086  158.2237 C   0  0  0  0  0  0  0  0  0  0  0  0
  151.7015  140.7598  158.9953 C   0  0  0  0  0  0  0  0  0  0  0  0
  152.0289  141.9521  158.0761 C   0  0  0  0  0  0  0  0  0  0  0  0
  152.4615  143.2096  158.8513 C   0  0  0  0  0  0  0  0  0  0  0  0
  152.0942  143.1672  160.3360 C   0  0  0  0  0  0  0  0  0  0  0  0
  152.1788  144.6243  160.7973 C   0  0  0  0  0  0  0  0  0  0  0  0
  151.8917  145.4797  159.5545 C   0  0  0  0  0  0  0  0  0  0  0  0
  151.8049  144.5085  158.3696 C   0  0  0  0  0  0  0  0  0  0  0  0
  151.1529  139.6412  156.8935 N   0  0  0  0  0  0  0  0  0  0  0  0
  150.7257  138.5859  155.9824 C   0  0  0  0  0  0  0  0  0  0  0  0
  150.5462  139.1071  154.5467 C   0  0  0  0  0  0  0  0  0  0  0  0
  149.3871  140.0781  154.4351 C   0  0  0  0  0  0  0  0  0  0  0  0
  148.2233  139.7316  153.7137 C   0  0  0  0  0  0  0  0  0  0  0  0
  147.1645  140.6592  153.6230 C   0  0  0  0  0  0  0  0  0  0  0  0
  147.2937  141.9127  154.2556 C   0  0  0  0  0  0  0  0  0  0  0  0
  148.4226  142.2091  154.9365 N   0  3  0  0  0  0  0  0  0  0  0  0
  149.4585  141.3487  155.0468 C   0  0  0  0  0  0  0  0  0  0  0  0
  150.9125  141.0440  159.6934 H   0  0  0  0  0  0  0  0  0  0  0  0
  152.5725  140.4995  159.5972 H   0  0  0  0  0  0  0  0  0  0  0  0
  152.8113  141.6761  157.3673 H   0  0  0  0  0  0  0  0  0  0  0  0
  151.1484  142.1931  157.4786 H   0  0  0  0  0  0  0  0  0  0  0  0
  153.5446  143.3209  158.7771 H   0  0  0  0  0  0  0  0  0  0  0  0
  151.0719  142.8059  160.4571 H   0  0  0  0  0  0  0  0  0  0  0  0
  152.7473  142.5103  160.9111 H   0  0  0  0  0  0  0  0  0  0  0  0
  151.4847  144.8329  161.6119 H   0  0  0  0  0  0  0  0  0  0  0  0
  153.1843  144.8374  161.1621 H   0  0  0  0  0  0  0  0  0  0  0  0
  150.9643  146.0434  159.6619 H   0  0  0  0  0  0  0  0  0  0  0  0
  152.6952  146.2015  159.4031 H   0  0  0  0  0  0  0  0  0  0  0  0
  152.2807  144.9082  157.4735 H   0  0  0  0  0  0  0  0  0  0  0  0
  150.7562  144.3271  158.1301 H   0  0  0  0  0  0  0  0  0  0  0  0
  151.3572  140.5427  156.4868 H   0  0  0  0  0  0  0  0  0  0  0  0
  151.4449  137.7653  156.0056 H   0  0  0  0  0  0  0  0  0  0  0  0
  149.7824  138.1821  156.3516 H   0  0  0  0  0  0  0  0  0  0  0  0
  151.4600  139.5983  154.2090 H   0  0  0  0  0  0  0  0  0  0  0  0
  150.3726  138.2775  153.8599 H   0  0  0  0  0  0  0  0  0  0  0  0
  148.1418  138.7677  153.2325 H   0  0  0  0  0  0  0  0  0  0  0  0
  146.2668  140.4127  153.0750 H   0  0  0  0  0  0  0  0  0  0  0  0
  146.5348  142.6813  154.2370 H   0  0  0  0  0  0  0  0  0  0  0  0
  150.3076  141.7011  155.6145 H   0  0  0  0  0  0  0  0  0  0  0  0
  148.4962  143.1223  155.3860 H   0  0  0  0  0  0  0  0  0  0  0  0
  1  2  2  0  0  0  0
  2  3  1  0  0  0  0
  2 10  1  0  0  0  0
  3  4  1  0  0  0  0
  3 19  1  0  0  0  0
  3 20  1  0  0  0  0
  4  5  1  0  0  0  0
  4 21  1  0  0  0  0
  4 22  1  0  0  0  0
  5  9  1  0  0  0  0
  5  6  1  0  0  0  0
  5 23  1  0  0  0  0
  6  7  1  0  0  0  0
  6 24  1  0  0  0  0
  6 25  1  0  0  0  0
  7  8  1  0  0  0  0
  7 26  1  0  0  0  0
  7 27  1  0  0  0  0
  8  9  1  0  0  0  0
  8 28  1  0  0  0  0
  8 29  1  0  0  0  0
  9 30  1  0  0  0  0
  9 31  1  0  0  0  0
 10 11  1  0  0  0  0
 10 32  1  0  0  0  0
 11 12  1  0  0  0  0
 11 33  1  0  0  0  0
 11 34  1  0  0  0  0
 12 13  1  0  0  0  0
 12 35  1  0  0  0  0
 12 36  1  0  0  0  0
 13 18  1  0  0  0  0
 13 14  2  0  0  0  0
 14 15  1  0  0  0  0
 14 37  1  0  0  0  0
 15 16  2  0  0  0  0
 15 38  1  0  0  0  0
 16 17  1  0  0  0  0
 16 39  1  0  0  0  0
 17 18  2  0  0  0  0
 17 41  1  0  0  0  0
 18 40  1  0  0  0  0
M  CHG  1  17   1
M  END
> <s_m_source_file>
AV-unprocessed.smi

> <i_m_source_file_index>
1865

> <i_lp_mmshare_version>
43012

> <i_f3d_flags>
0

> <s_epik_input>
W0NIMl0xW0NIMl1bQ0gyXVtDSDJdW0NIXTFbQ0gyXVtDSDJdQyg9TylbTkhdW0NIMl1bQ0gyXWMyW2NIXVtjSF1bY0hdbltjSF0y

> <s_epik_cmdline>
J2VwaWtfcHl0aG9uJywgJy1waCcsICc3LjAnLCAnLXRuJywgJzgnLCAnLW1hJywgJzIwMCcsICctbWV0YWxfYmluZGluZycsICctaW1hZScsICc8aW5maWxlLm1hZT4nLCAnLW9tYWUnLCAnPG91dGZpbGUubWFlPic=

> <r_epik_Ionization_Penalty>
2.25234

> <r_epik_Ionization_Penalty_Charging>
2.25234

> <r_epik_Ionization_Penalty_Neutral>
2.26352e-08

> <r_epik_State_Penalty>
2.39956

> <r_epik_Charging_Adjusted_Penalty>
4.6519

> <i_epik_Tot_Q>
1

> <i_epik_Tot_abs_Q>
1

> <r_epik_Metal_State_Penalty>
2.41271

> <b_epik_Metal_Only>
0

> <s_lp_Force_Field>
OPLS_2005

> <r_lp_Energy>
27.3415

> <b_lp_Chiralities_Consistent>
1

> <s_lp_Variant>
AV-unprocessed.smi:1865-2

> <Gold.Version>
5.8.1

> <Gold.Id.Protein>
6NUR|6NUR_protein|mol2

> <Gold.PLP.Fitness>
47.2896

> <Gold.PLP.PLP>
-43.0656

> <Gold.PLP.part.hbond>
-1.0000

> <Gold.PLP.part.metal>
0.0000

> <Gold.PLP.part.buried>
-3.2531

> <Gold.PLP.part.nonpolar>
-39.0688

> <Gold.PLP.part.repulsive>
0.2575

> <Gold.PLP.ligand.clash>
0.3733

> <Gold.PLP.ligand.torsion>
0.7415

> <Gold.PLP.Chemscore.Hbond>
2.0000

> <Gold.PLP.Chemscore.CHOScore>
0.0000

> <Gold.PLP.Chemscore.Metal>
0.0000

> <Gold.Chemscore.Hbonds>
donor molecule, donor type, donor heavy atom, donor atom, acceptor molecule, acceptor atom, score
      L1  H    17    41       P1  8028  2.00

> <Gold.PLP.Chemscore.Internal.Correction>
0.0804

> <Gold.Rescore>
     Score         DG    S(hbond)    S(metal)    S(lipo)     H(rot)  DE(clash)    DE(int)     intcor
     17.66     -19.14       0.99        0.00     125.32       1.69       0.60       0.88       ----

> <Gold.Chemscore.Fitness>
17.6629

> <Gold.Chemscore.DG>
-19.1445

> <Gold.Chemscore.ZeroCoef>
-5.4800

> <Gold.Chemscore.Hbond>
0.9942

> <Gold.Chemscore.Metal>
0.0000

> <Gold.Chemscore.Lipo>
125.3164

> <Gold.Chemscore.Internal_Hbond>
0.0000

> <Gold.Chemscore.DEClash>
0.6039

> <Gold.Chemscore.DEInternal>
0.8776

> <Gold.Chemscore.Rot>
1.6868

> <Gold.Chemscore.Internal.Correction>
   9.000000E+99

> <Gold.Chemscore.Hbonds>
donor molecule, donor type, donor heavy atom, donor atom, acceptor molecule, acceptor atom, score
      L1  H    17    41       P1  8028  0.99

> <Gold.Chemscore.Hbond.Weighted>
-3.3208

> <Gold.Chemscore.Metal.Weighted>
-0.0000

> <Gold.Chemscore.Lipo.Weighted>
-14.6620

> <Gold.Chemscore.Internal_Hbond.Weighted>
0.0000

> <Gold.Chemscore.DEClash.Weighted>
0.6039

> <Gold.Chemscore.DEInternal.Weighted>
0.8776

> <Gold.Chemscore.Rot.Weighted>
4.3183

> <Gold.Chemscore.Internal.Correction.Weighted>
   9.000000E+99

> <Gold.Protein.RotatedTorsions>
[ 6907 6896 6895 6894 ] final   97.40 input  -60.11 | X-H torsion
[ 7974 7965 7964 7962 ] final -148.03 input  175.53 | X-H torsion
[ 8008 7997 7996 7995 ] final -135.18 input   59.86 | X-H torsion
[ 10167 10162 10161 10158 ] final   -6.21 input  -65.29 | X-H torsion
[ 10718 10713 10712 10709 ] final -153.16 input   66.30 | X-H torsion
[ 10763 10752 10751 10750 ] final   26.19 input  -60.55 | X-H torsion
[ 11005 11000 10999 10996 ] final -179.98 input  -57.11 | X-H torsion

> <Gold.Protein.ActiveResidues>
 VAL166  LYS551  ARG553  GLY616  TRP617  ASP618  TYR619  PRO620  LYS621  CYS622 
 ASP623  PHE694  ASN695  SER759  ASP760  ASP761  ALA762  ILE779  LEU786  VAL792 
 PHE793  MET794  SER795  GLU796  ALA797  LYS798  CYS799  TRP800  GLU811  SER814 

> <Gold.Protein.RotatedAtoms>
  152.5424  134.0739  159.8205 H   0  0  0  0  0  0  0  0  0  0  0  0  # atno 6907 bound_to 6896
  151.0850  133.5353  159.2625 H   0  0  0  0  0  0  0  0  0  0  0  0  # atno 6908 bound_to 6896
  151.2166  135.0511  159.8987 H   0  0  0  0  0  0  0  0  0  0  0  0  # atno 6909 bound_to 6896
  144.8055  140.5249  143.5678 H   0  0  0  0  0  0  0  0  0  0  0  0  # atno 7974 bound_to 7965
  155.3744  140.0490  157.3045 H   0  0  0  0  0  0  0  0  0  0  0  0  # atno 8008 bound_to 7997
  154.5114  140.2193  155.9112 H   0  0  0  0  0  0  0  0  0  0  0  0  # atno 8009 bound_to 7997
  156.1586  140.3121  155.8774 H   0  0  0  0  0  0  0  0  0  0  0  0  # atno 8010 bound_to 7997
  140.6989  143.6220  150.8603 H   0  0  0  0  0  0  0  0  0  0  0  0  # atno 10167 bound_to 10162
  156.4821  130.8308  151.2534 H   0  0  0  0  0  0  0  0  0  0  0  0  # atno 10718 bound_to 10713
  153.0639  135.6566  154.0398 H   0  0  0  0  0  0  0  0  0  0  0  0  # atno 10763 bound_to 10752
  154.0060  135.2933  155.3399 H   0  0  0  0  0  0  0  0  0  0  0  0  # atno 10764 bound_to 10752
  154.6989  135.5252  153.8567 H   0  0  0  0  0  0  0  0  0  0  0  0  # atno 10765 bound_to 10752
  140.4126  134.6678  157.4622 H   0  0  0  0  0  0  0  0  0  0  0  0  # atno 11005 bound_to 11000
  145.5449  139.1476  143.3426 LP  0  0  0  0  0  0  0  0  0  0  0  0  # atno 17320 bound_to 7965
  146.2345  140.5588  142.8961 LP  0  0  0  0  0  0  0  0  0  0  0  0  # atno 17321 bound_to 7965
  139.9941  143.5815  152.2899 LP  0  0  0  0  0  0  0  0  0  0  0  0  # atno 17342 bound_to 10162
  139.6481  144.7659  151.2203 LP  0  0  0  0  0  0  0  0  0  0  0  0  # atno 17343 bound_to 10162
  157.7482  131.0041  150.3065 LP  0  0  0  0  0  0  0  0  0  0  0  0  # atno 17370 bound_to 10713
  156.3511  130.3831  149.7328 LP  0  0  0  0  0  0  0  0  0  0  0  0  # atno 17371 bound_to 10713
  140.0257  134.6481  155.9177 LP  0  0  0  0  0  0  0  0  0  0  0  0  # atno 17394 bound_to 11000
  141.1815  133.6547  156.5040 LP  0  0  0  0  0  0  0  0  0  0  0  0  # atno 17395 bound_to 11000

$$$$
