#       Name:                AV-unprocessed.smi:676
#       Creating user name   scv26
#       Creation time:       Fri Mar 27 00:27:14 2020


#       File generated by GOLD software.
#

@<TRIPOS>MOLECULE
AV-unprocessed.smi:676
    48    49     1
SMALL
NO_CHARGES


@<TRIPOS>ATOM
      1 ****        -4.5952   1.0261  -1.8120 C.3            1 S1                 0.0000
      2 ****        -3.7108   0.4612  -0.8520 O.3            1 S1                 0.0000
      3 ****        -2.8180  -0.5666  -1.3035 C.3            1 S1                 0.0000
      4 ****        -3.6040  -1.7267  -1.9272 C.3            1 S1                 0.0000
      5 ****        -1.6420   0.0546  -2.0817 C.3            1 S1                 0.0000
      6 ****        -0.9816   0.3151  -0.7294 C.3            1 S1                 0.0000
      7 ****         0.4632   0.1147  -0.7600 N.am           1 S1                 0.0000
      8 ****         1.2821   0.3491   0.2752 C.2            1 S1                 0.0000
      9 ****         0.8848   0.7526   1.3692 O.2            1 S1                 0.0000
     10 ****         2.7699   0.0579   0.0334 C.3            1 S1                 0.0000
     11 ****         3.6593   0.7103   1.0086 N.am           1 S1                 0.0000
     12 ****         4.1008  -0.0697   2.0960 C.2            1 S1                 0.0000
     13 ****         4.9113   0.4275   3.0435 C.2            1 S1                 0.0000
     14 ****         5.3327   1.8035   2.9280 C.2            1 S1                 0.0000
     15 ****         4.9134   2.5594   1.8939 C.2            1 S1                 0.0000
     16 ****         4.0255   2.0207   0.8570 C.2            1 S1                 0.0000
     17 ****         3.6357   2.7048  -0.0896 O.2            1 S1                 0.0000
     18 ****        -1.7978  -0.8731  -0.1580 C.3            1 S1                 0.0000
     19 ****        -2.3084  -0.7067   1.2775 C.3            1 S1                 0.0000
     20 ****        -1.1278  -2.2595  -0.2047 C.3            1 S1                 0.0000
     21 ****        -5.0891   1.8926  -1.3730 H              1 S1                 0.0000
     22 ****        -5.3767   0.3234  -2.1002 H              1 S1                 0.0000
     23 ****        -4.0769   1.3615  -2.7096 H              1 S1                 0.0000
     24 ****        -2.9550  -2.5617  -2.1887 H              1 S1                 0.0000
     25 ****        -4.1027  -1.4328  -2.8503 H              1 S1                 0.0000
     26 ****        -4.3624  -2.1044  -1.2412 H              1 S1                 0.0000
     27 ****        -1.1090  -0.6734  -2.6958 H              1 S1                 0.0000
     28 ****        -1.8642   0.9564  -2.6510 H              1 S1                 0.0000
     29 ****        -1.2851   1.2789  -0.3134 H              1 S1                 0.0000
     30 ****         0.8643  -0.2206  -1.6237 H              1 S1                 0.0000
     31 ****         2.9103  -1.0237   0.0528 H              1 S1                 0.0000
     32 ****         3.0380   0.3619  -0.9802 H              1 S1                 0.0000
     33 ****         3.7344  -1.0859   2.1129 H              1 S1                 0.0000
     34 ****         5.2360  -0.1840   3.8725 H              1 S1                 0.0000
     35 ****         5.9866   2.2292   3.6749 H              1 S1                 0.0000
     36 ****         5.2380   3.5872   1.8245 H              1 S1                 0.0000
     37 ****        -1.5139  -0.8662   2.0074 H              1 S1                 0.0000
     38 ****        -3.1084  -1.4133   1.5000 H              1 S1                 0.0000
     39 ****        -2.6998   0.2945   1.4586 H              1 S1                 0.0000
     40 ****        -0.3092  -2.3358   0.5118 H              1 S1                 0.0000
     41 ****        -0.7116  -2.4839  -1.1869 H              1 S1                 0.0000
     42 ****        -1.8365  -3.0535   0.0328 H              1 S1                 0.0000
     43 ****        -4.2706   0.0724  -0.1202 LP             1 S1                 0.0000
     44 ****        -3.1517   1.2045  -0.4848 LP             1 S1                 0.0000
     45 ****        -0.0900   0.9205   1.5163 LP             1 S1                 0.0000
     46 ****         1.5370   0.9122   2.1102 LP             1 S1                 0.0000
     47 ****         3.0314   2.3059  -0.7793 LP             1 S1                 0.0000
     48 ****         3.9234   3.6592  -0.1686 LP             1 S1                 0.0000
@<TRIPOS>BOND
    1    1    2 1     
    2    1   21 1     
    3    1   22 1     
    4    1   23 1     
    5    2    3 1     
    6    3   18 1     
    7    3    4 1     
    8    3    5 1     
    9    4   24 1     
   10    4   25 1     
   11    4   26 1     
   12    5    6 1     
   13    5   27 1     
   14    5   28 1     
   15    6    7 1     
   16    6   18 1     
   17    6   29 1     
   18    7    8 am    
   19    7   30 1     
   20    8    9 2     
   21    8   10 1     
   22   10   11 1     
   23   10   31 1     
   24   10   32 1     
   25   11   16 am    
   26   11   12 1     
   27   12   13 2     
   28   12   33 1     
   29   13   14 1     
   30   13   34 1     
   31   14   15 2     
   32   14   35 1     
   33   15   16 1     
   34   15   36 1     
   35   16   17 2     
   36   18   19 1     
   37   18   20 1     
   38   19   37 1     
   39   19   38 1     
   40   19   39 1     
   41   20   40 1     
   42   20   41 1     
   43   20   42 1     
   44    2   43 1     
   45    2   44 1     
   46    9   45 1     
   47    9   46 1     
   48   17   47 1     
   49   17   48 1     
@<TRIPOS>SUBSTRUCTURE
      1 S1             1
@<TRIPOS>SET
LONE_PAIRS      STATIC     ATOMS    <user>   **** ""
6 43 44 45 46 47 48
DONOR_HYDROGENS      STATIC     ATOMS    <user>   **** ""
1 30
ATOM$BLUE        STATIC     ATOMS    COLORGROUP SYSTEM
6 43 44 45 46 47 48
ATOM$RED        STATIC     ATOMS    COLORGROUP SYSTEM
1 30
