AV-unprocessed.smi:1918|AV-procd|sdf|7772|dock1
  -GOLD-   22720 9513D 1   1.00000     0.00000
 Structure written by MMmdl.
 36 38  0  0  0  0  0  0  0  0  2 V2000
  151.9271  138.0156  154.5013 C   0  0  0  0  0  0  0  0  0  0  0  0
  150.7178  138.8832  154.4026 C   0  0  0  0  0  0  0  0  0  0  0  0
  149.6648  138.6988  153.5569 N   0  3  0  0  0  0  0  0  0  0  0  0
  148.7222  139.7104  153.7489 C   0  0  0  0  0  0  0  0  0  0  0  0
  147.4988  139.9472  153.1298 C   0  0  0  0  0  0  0  0  0  0  0  0
  146.7784  141.0792  153.5646 C   0  0  0  0  0  0  0  0  0  0  0  0
  147.2786  141.9244  154.5768 C   0  0  0  0  0  0  0  0  0  0  0  0
  148.5203  141.6743  155.1973 C   0  0  0  0  0  0  0  0  0  0  0  0
  149.2254  140.5533  154.7609 C   0  0  0  0  0  0  0  0  0  0  0  0
  150.4560  140.0036  155.1345 N   0  0  0  0  0  0  0  0  0  0  0  0
  151.2435  140.6596  156.1887 C   0  0  0  0  0  0  0  0  0  0  0  0
  150.4888  140.7598  157.5293 C   0  0  1  0  0  0  0  0  0  0  0  0
  150.7269  139.5972  158.3007 O   0  0  0  0  0  0  0  0  0  0  0  0
  150.8526  142.0408  158.2678 C   0  0  0  0  0  0  0  0  0  0  0  0
  149.9378  143.1160  158.3381 C   0  0  0  0  0  0  0  0  0  0  0  0
  150.2765  144.2946  159.0306 C   0  0  0  0  0  0  0  0  0  0  0  0
  151.5299  144.4055  159.6615 C   0  0  0  0  0  0  0  0  0  0  0  0
  151.8550  145.5383  160.3281 F   0  0  0  0  0  0  0  0  0  0  0  0
  152.4431  143.3358  159.6023 C   0  0  0  0  0  0  0  0  0  0  0  0
  152.1062  142.1556  158.9110 C   0  0  0  0  0  0  0  0  0  0  0  0
  152.9922  141.1308  158.8729 F   0  0  0  0  0  0  0  0  0  0  0  0
  151.8188  137.1332  153.8702 H   0  0  0  0  0  0  0  0  0  0  0  0
  152.0745  137.6890  155.5308 H   0  0  0  0  0  0  0  0  0  0  0  0
  152.8111  138.5668  154.1802 H   0  0  0  0  0  0  0  0  0  0  0  0
  147.1136  139.3012  152.3545 H   0  0  0  0  0  0  0  0  0  0  0  0
  145.8232  141.3038  153.1127 H   0  0  0  0  0  0  0  0  0  0  0  0
  146.6983  142.7825  154.8839 H   0  0  0  0  0  0  0  0  0  0  0  0
  148.8954  142.3270  155.9721 H   0  0  0  0  0  0  0  0  0  0  0  0
  152.1683  140.0954  156.3148 H   0  0  0  0  0  0  0  0  0  0  0  0
  151.5352  141.6482  155.8311 H   0  0  0  0  0  0  0  0  0  0  0  0
  149.4164  140.7726  157.3338 H   0  0  0  0  0  0  0  0  0  0  0  0
  151.1646  138.9607  157.7558 H   0  0  0  0  0  0  0  0  0  0  0  0
  148.9696  143.0419  157.8648 H   0  0  0  0  0  0  0  0  0  0  0  0
  149.5734  145.1132  159.0793 H   0  0  0  0  0  0  0  0  0  0  0  0
  153.4032  143.4194  160.0900 H   0  0  0  0  0  0  0  0  0  0  0  0
  149.5984  137.9345  152.8971 H   0  0  0  0  0  0  0  0  0  0  0  0
  1  2  1  0  0  0  0
  1 22  1  0  0  0  0
  1 23  1  0  0  0  0
  1 24  1  0  0  0  0
  2 10  1  0  0  0  0
  2  3  2  0  0  0  0
  3  4  1  0  0  0  0
  3 36  1  0  0  0  0
  4  9  2  0  0  0  0
  4  5  1  0  0  0  0
  5  6  2  0  0  0  0
  5 25  1  0  0  0  0
  6  7  1  0  0  0  0
  6 26  1  0  0  0  0
  7  8  2  0  0  0  0
  7 27  1  0  0  0  0
  8  9  1  0  0  0  0
  8 28  1  0  0  0  0
  9 10  1  0  0  0  0
 10 11  1  0  0  0  0
 11 12  1  0  0  0  0
 11 29  1  0  0  0  0
 11 30  1  0  0  0  0
 12 13  1  0  0  0  0
 12 14  1  0  0  0  0
 12 31  1  0  0  0  0
 13 32  1  0  0  0  0
 14 20  1  0  0  0  0
 14 15  2  0  0  0  0
 15 16  1  0  0  0  0
 15 33  1  0  0  0  0
 16 17  2  0  0  0  0
 16 34  1  0  0  0  0
 17 18  1  0  0  0  0
 17 19  1  0  0  0  0
 19 20  2  0  0  0  0
 19 35  1  0  0  0  0
 20 21  1  0  0  0  0
M  CHG  1   3   1
M  END
> <s_m_source_file>
AV-unprocessed.smi

> <i_m_source_file_index>
1918

> <i_lp_mmshare_version>
43012

> <i_f3d_flags>
0

> <s_epik_input>
W2NIXTFbY0hdW2NIXVtjSF1jKGMxMiluKGMobjIpW0NIM10pW0NIMl1bQ0BIXShbT0hdKWMzW2NIXVtjSF1jKEYpW2NIXWMzRg==

> <s_epik_cmdline>
J2VwaWtfcHl0aG9uJywgJy1waCcsICc3LjAnLCAnLXRuJywgJzgnLCAnLW1hJywgJzIwMCcsICctbWV0YWxfYmluZGluZycsICctaW1hZScsICc8aW5maWxlLm1hZT4nLCAnLW9tYWUnLCAnPG91dGZpbGUubWFlPic=

> <r_epik_Ionization_Penalty>
0.963869

> <r_epik_Ionization_Penalty_Charging>
0.963868

> <r_epik_Ionization_Penalty_Neutral>
1.79538e-06

> <r_epik_State_Penalty>
1.00924

> <r_epik_Charging_Adjusted_Penalty>
1.9731

> <i_epik_Tot_Q>
1

> <i_epik_Tot_abs_Q>
1

> <r_epik_Metal_State_Penalty>
4.98304

> <b_epik_Metal_Only>
0

> <s_lp_Force_Field>
OPLS_2005

> <r_lp_Energy>
14.6769

> <b_lp_Chiralities_Consistent>
1

> <s_lp_Variant>
AV-unprocessed.smi:1918-4

> <Gold.Version>
5.8.1

> <Gold.Id.Protein>
6NUR|6NUR_protein|mol2

> <Gold.PLP.Fitness>
52.1823

> <Gold.PLP.PLP>
-47.5133

> <Gold.PLP.part.hbond>
-2.0000

> <Gold.PLP.part.metal>
0.0000

> <Gold.PLP.part.buried>
1.1632

> <Gold.PLP.part.nonpolar>
-47.3108

> <Gold.PLP.part.repulsive>
0.0849

> <Gold.PLP.ligand.clash>
0.0000

> <Gold.PLP.ligand.torsion>
0.6781

> <Gold.PLP.Chemscore.Hbond>
2.0000

> <Gold.PLP.Chemscore.CHOScore>
0.0000

> <Gold.PLP.Chemscore.Metal>
0.0000

> <Gold.Chemscore.Hbonds>
donor molecule, donor type, donor heavy atom, donor atom, acceptor molecule, acceptor atom, score
      L1  H     3    36       P1  7948  1.89

> <Gold.PLP.Chemscore.Internal.Correction>
0.0252

> <Gold.Rescore>
     Score         DG    S(hbond)    S(metal)    S(lipo)     H(rot)  DE(clash)    DE(int)     intcor
     15.05     -17.20       0.96        0.00     115.07       1.94       0.25       1.91       ----

> <Gold.Chemscore.Fitness>
15.0456

> <Gold.Chemscore.DG>
-17.2015

> <Gold.Chemscore.ZeroCoef>
-5.4800

> <Gold.Chemscore.Hbond>
0.9634

> <Gold.Chemscore.Metal>
0.0000

> <Gold.Chemscore.Lipo>
115.0725

> <Gold.Chemscore.Internal_Hbond>
0.0000

> <Gold.Chemscore.DEClash>
0.2491

> <Gold.Chemscore.DEInternal>
1.9067

> <Gold.Chemscore.Rot>
1.9375

> <Gold.Chemscore.Internal.Correction>
   9.000000E+99

> <Gold.Chemscore.Hbonds>
donor molecule, donor type, donor heavy atom, donor atom, acceptor molecule, acceptor atom, score
      L1  H     3    36       P1  7948  0.67

> <Gold.Chemscore.Hbond.Weighted>
-3.2179

> <Gold.Chemscore.Metal.Weighted>
-0.0000

> <Gold.Chemscore.Lipo.Weighted>
-13.4635

> <Gold.Chemscore.Internal_Hbond.Weighted>
0.0000

> <Gold.Chemscore.DEClash.Weighted>
0.2491

> <Gold.Chemscore.DEInternal.Weighted>
1.9067

> <Gold.Chemscore.Rot.Weighted>
4.9599

> <Gold.Chemscore.Internal.Correction.Weighted>
   9.000000E+99

> <Gold.Protein.RotatedTorsions>
[ 6907 6896 6895 6894 ] final  163.55 input  -60.11 | X-H torsion
[ 7974 7965 7964 7962 ] final   14.54 input  175.53 | X-H torsion
[ 8008 7997 7996 7995 ] final  -90.11 input   59.86 | X-H torsion
[ 10167 10162 10161 10158 ] final   94.83 input  -65.29 | X-H torsion
[ 10718 10713 10712 10709 ] final   -8.39 input   66.30 | X-H torsion
[ 10763 10752 10751 10750 ] final   48.79 input  -60.55 | X-H torsion
[ 11005 11000 10999 10996 ] final    3.97 input  -57.11 | X-H torsion

> <Gold.Protein.ActiveResidues>
 VAL166  LYS551  ARG553  GLY616  TRP617  ASP618  TYR619  PRO620  LYS621  CYS622 
 ASP623  PHE694  ASN695  SER759  ASP760  ASP761  ALA762  ILE779  LEU786  VAL792 
 PHE793  MET794  SER795  GLU796  ALA797  LYS798  CYS799  TRP800  GLU811  SER814 

> <Gold.Protein.RotatedAtoms>
  151.9235  133.3592  159.3905 H   0  0  0  0  0  0  0  0  0  0  0  0  # atno 6907 bound_to 6896
  150.7032  134.4610  159.5390 H   0  0  0  0  0  0  0  0  0  0  0  0  # atno 6908 bound_to 6896
  152.2238  134.8387  160.0533 H   0  0  0  0  0  0  0  0  0  0  0  0  # atno 6909 bound_to 6896
  146.2302  139.9027  142.8537 H   0  0  0  0  0  0  0  0  0  0  0  0  # atno 7974 bound_to 7965
  154.6947  140.0534  157.0398 H   0  0  0  0  0  0  0  0  0  0  0  0  # atno 8008 bound_to 7997
  155.0768  140.3205  155.4594 H   0  0  0  0  0  0  0  0  0  0  0  0  # atno 8009 bound_to 7997
  156.2740  140.2072  156.5896 H   0  0  0  0  0  0  0  0  0  0  0  0  # atno 8010 bound_to 7997
  139.8046  144.6799  150.9719 H   0  0  0  0  0  0  0  0  0  0  0  0  # atno 10167 bound_to 10162
  156.7033  130.5100  149.5911 H   0  0  0  0  0  0  0  0  0  0  0  0  # atno 10718 bound_to 10713
  152.9790  135.5933  154.3983 H   0  0  0  0  0  0  0  0  0  0  0  0  # atno 10763 bound_to 10752
  154.3631  135.2767  155.2310 H   0  0  0  0  0  0  0  0  0  0  0  0  # atno 10764 bound_to 10752
  154.4299  135.6039  153.6117 H   0  0  0  0  0  0  0  0  0  0  0  0  # atno 10765 bound_to 10752
  140.5872  133.9958  155.8073 H   0  0  0  0  0  0  0  0  0  0  0  0  # atno 11005 bound_to 11000
  145.2308  140.9972  143.3992 LP  0  0  0  0  0  0  0  0  0  0  0  0  # atno 17320 bound_to 7965
  144.9532  139.4060  143.6392 LP  0  0  0  0  0  0  0  0  0  0  0  0  # atno 17321 bound_to 7965
  140.7819  143.4246  151.0788 LP  0  0  0  0  0  0  0  0  0  0  0  0  # atno 17342 bound_to 10162
  139.7916  143.8210  152.3152 LP  0  0  0  0  0  0  0  0  0  0  0  0  # atno 17343 bound_to 10162
  156.1713  130.6439  151.0841 LP  0  0  0  0  0  0  0  0  0  0  0  0  # atno 17370 bound_to 10713
  157.6965  131.0792  150.6954 LP  0  0  0  0  0  0  0  0  0  0  0  0  # atno 17371 bound_to 10713
  141.0958  133.9845  157.3161 LP  0  0  0  0  0  0  0  0  0  0  0  0  # atno 17394 bound_to 11000
  139.9290  135.0200  156.8336 LP  0  0  0  0  0  0  0  0  0  0  0  0  # atno 17395 bound_to 11000

$$$$
