AV-unprocessed.smi:1815|AV-procd|sdf|7352|dock2
  -GOLD-   22720 9 13D 1   1.00000     0.00000
 Structure written by MMmdl.
 39 40  0  0  0  0  0  0  0  0  1 V2000
  152.3747  145.0106  158.6663 C   0  0  0  0  0  0  0  0  0  0  0  0
  151.4231  144.0557  159.4073 C   0  0  1  0  0  0  0  0  0  0  0  0
  151.0310  142.8190  158.5745 C   0  0  0  0  0  0  0  0  0  0  0  0
  152.1164  141.8473  158.4646 N   0  0  0  0  0  0  0  0  0  0  0  0
  151.7359  140.6634  157.6932 C   0  0  0  0  0  0  0  0  0  0  0  0
  151.3017  140.9346  156.2390 C   0  0  0  0  0  0  0  0  0  0  0  0
  150.2705  140.0021  155.7947 N   0  0  0  0  0  0  0  0  0  0  0  0
  149.5561  140.1255  154.6672 C   0  0  0  0  0  0  0  0  0  0  0  0
  149.7108  141.0454  153.8631 O   0  0  0  0  0  0  0  0  0  0  0  0
  148.6641  139.1269  154.5444 N   0  0  0  0  0  0  0  0  0  0  0  0
  147.7378  138.9020  153.4922 C   0  0  0  0  0  0  0  0  0  0  0  0
  146.8969  137.8623  153.4358 N   0  0  0  0  0  0  0  0  0  0  0  0
  146.0973  137.8956  152.2906 C   0  0  0  0  0  0  0  0  0  0  0  0
  146.3444  138.9754  151.4797 C   0  0  0  0  0  0  0  0  0  0  0  0
  147.5975  140.0004  152.1271 S   0  0  0  0  0  0  0  0  0  0  0  0
  152.5620  141.4797  159.8019 C   0  0  0  0  0  0  0  0  0  0  0  0
  153.0155  142.7059  160.6143 C   0  0  2  0  0  0  0  0  0  0  0  0
  153.4002  142.3359  162.0506 C   0  0  0  0  0  0  0  0  0  0  0  0
  151.9525  143.6555  160.6723 O   0  0  0  0  0  0  0  0  0  0  0  0
  151.9078  145.3955  157.7594 H   0  0  0  0  0  0  0  0  0  0  0  0
  153.3016  144.5193  158.3711 H   0  0  0  0  0  0  0  0  0  0  0  0
  152.6331  145.8647  159.2924 H   0  0  0  0  0  0  0  0  0  0  0  0
  150.5130  144.6170  159.6209 H   0  0  0  0  0  0  0  0  0  0  0  0
  150.1653  142.3427  159.0371 H   0  0  0  0  0  0  0  0  0  0  0  0
  150.7102  143.1473  157.5865 H   0  0  0  0  0  0  0  0  0  0  0  0
  152.5809  139.9739  157.6646 H   0  0  0  0  0  0  0  0  0  0  0  0
  150.9386  140.1289  158.2116 H   0  0  0  0  0  0  0  0  0  0  0  0
  150.9364  141.9586  156.1485 H   0  0  0  0  0  0  0  0  0  0  0  0
  152.1502  140.8631  155.5593 H   0  0  0  0  0  0  0  0  0  0  0  0
  150.0750  139.2193  156.4010 H   0  0  0  0  0  0  0  0  0  0  0  0
  148.6465  138.4466  155.2897 H   0  0  0  0  0  0  0  0  0  0  0  0
  145.3763  137.1076  152.1309 H   0  0  0  0  0  0  0  0  0  0  0  0
  145.8665  139.2285  150.5449 H   0  0  0  0  0  0  0  0  0  0  0  0
  151.7568  140.9674  160.3312 H   0  0  0  0  0  0  0  0  0  0  0  0
  153.3888  140.7714  159.7325 H   0  0  0  0  0  0  0  0  0  0  0  0
  153.8820  143.1609  160.1336 H   0  0  0  0  0  0  0  0  0  0  0  0
  154.2203  141.6177  162.0651 H   0  0  0  0  0  0  0  0  0  0  0  0
  152.5578  141.8934  162.5829 H   0  0  0  0  0  0  0  0  0  0  0  0
  153.7200  143.2171  162.6071 H   0  0  0  0  0  0  0  0  0  0  0  0
  1  2  1  0  0  0  0
  1 20  1  0  0  0  0
  1 21  1  0  0  0  0
  1 22  1  0  0  0  0
  2 19  1  0  0  0  0
  2  3  1  0  0  0  0
  2 23  1  0  0  0  0
  3  4  1  0  0  0  0
  3 24  1  0  0  0  0
  3 25  1  0  0  0  0
  4  5  1  0  0  0  0
  4 16  1  0  0  0  0
  5  6  1  0  0  0  0
  5 26  1  0  0  0  0
  5 27  1  0  0  0  0
  6  7  1  0  0  0  0
  6 28  1  0  0  0  0
  6 29  1  0  0  0  0
  7  8  1  0  0  0  0
  7 30  1  0  0  0  0
  8  9  2  0  0  0  0
  8 10  1  0  0  0  0
 10 11  1  0  0  0  0
 10 31  1  0  0  0  0
 11 15  1  0  0  0  0
 11 12  2  0  0  0  0
 12 13  1  0  0  0  0
 13 14  2  0  0  0  0
 13 32  1  0  0  0  0
 14 15  1  0  0  0  0
 14 33  1  0  0  0  0
 16 17  1  0  0  0  0
 16 34  1  0  0  0  0
 16 35  1  0  0  0  0
 17 18  1  0  0  0  0
 17 19  1  0  0  0  0
 17 36  1  0  0  0  0
 18 37  1  0  0  0  0
 18 38  1  0  0  0  0
 18 39  1  0  0  0  0
M  END
> <s_m_source_file>
AV-unprocessed.smi

> <i_m_source_file_index>
1815

> <i_lp_mmshare_version>
43012

> <i_f3d_flags>
0

> <s_epik_input>
W0NIM11bQ0BASF0xW0NIMl1OKFtDSDJdW0NASF0oTzEpW0NIM10pW0NIMl1bQ0gyXVtOSF1DKD1PKVtOSF1jMm5bY0hdW2NIXXMy

> <s_epik_cmdline>
J2VwaWtfcHl0aG9uJywgJy1waCcsICc3LjAnLCAnLXRuJywgJzgnLCAnLW1hJywgJzIwMCcsICctbWV0YWxfYmluZGluZycsICctaW1hZScsICc8aW5maWxlLm1hZT4nLCAnLW9tYWUnLCAnPG91dGZpbGUubWFlPic=

> <r_lp_tautomer_probability>
0.999

> <r_epik_Ionization_Penalty>
0.219201

> <r_epik_Ionization_Penalty_Charging>
0

> <r_epik_Ionization_Penalty_Neutral>
0.219201

> <r_epik_State_Penalty>
0.209349

> <r_epik_Charging_Adjusted_Penalty>
0.209349

> <i_epik_Tot_Q>
0

> <i_epik_Tot_abs_Q>
0

> <r_epik_Metal_State_Penalty>
0.247737

> <b_epik_Metal_Only>
0

> <s_lp_Force_Field>
OPLS_2005

> <r_lp_Energy>
25.7567

> <b_lp_Chiralities_Consistent>
1

> <s_lp_Variant>
AV-unprocessed.smi:1815-3

> <Gold.Version>
5.8.1

> <Gold.Id.Protein>
6NUR|6NUR_protein|mol2

> <Gold.PLP.Fitness>
40.2768

> <Gold.PLP.PLP>
-34.1686

> <Gold.PLP.part.hbond>
-2.0000

> <Gold.PLP.part.metal>
0.0000

> <Gold.PLP.part.buried>
3.9317

> <Gold.PLP.part.nonpolar>
-38.1144

> <Gold.PLP.part.repulsive>
2.2213

> <Gold.PLP.ligand.clash>
0.0000

> <Gold.PLP.ligand.torsion>
0.2782

> <Gold.PLP.Chemscore.Hbond>
1.2285

> <Gold.PLP.Chemscore.CHOScore>
0.9921

> <Gold.PLP.Chemscore.Metal>
0.0000

> <Gold.Chemscore.Hbonds>
donor molecule, donor type, donor heavy atom, donor atom, acceptor molecule, acceptor atom, score
      P1  H  7989  7998       L1     9  0.38
      P1  H  8011  8017       L1     9  0.84
      L1  C    14    33       P1 10171  0.99

> <Gold.PLP.Chemscore.Internal.Correction>
0.0028

> <Gold.Rescore>
     Score         DG    S(hbond)    S(metal)    S(lipo)     H(rot)  DE(clash)    DE(int)     intcor
     12.39     -17.02       0.91        0.00     107.81       1.60       3.15       1.48       ----

> <Gold.Chemscore.Fitness>
12.3869

> <Gold.Chemscore.DG>
-17.0233

> <Gold.Chemscore.ZeroCoef>
-5.4800

> <Gold.Chemscore.Hbond>
0.9058

> <Gold.Chemscore.Metal>
0.0000

> <Gold.Chemscore.Lipo>
107.8127

> <Gold.Chemscore.Internal_Hbond>
0.0000

> <Gold.Chemscore.DEClash>
3.1516

> <Gold.Chemscore.DEInternal>
1.4848

> <Gold.Chemscore.Rot>
1.6001

> <Gold.Chemscore.Internal.Correction>
   9.000000E+99

> <Gold.Chemscore.Hbonds>
donor molecule, donor type, donor heavy atom, donor atom, acceptor molecule, acceptor atom, score
      P1  H  7989  7998       L1     9  0.13
      P1  H  8011  8017       L1     9  0.79

> <Gold.Chemscore.Hbond.Weighted>
-3.0255

> <Gold.Chemscore.Metal.Weighted>
-0.0000

> <Gold.Chemscore.Lipo.Weighted>
-12.6141

> <Gold.Chemscore.Internal_Hbond.Weighted>
0.0000

> <Gold.Chemscore.DEClash.Weighted>
3.1516

> <Gold.Chemscore.DEInternal.Weighted>
1.4848

> <Gold.Chemscore.Rot.Weighted>
4.0963

> <Gold.Chemscore.Internal.Correction.Weighted>
   9.000000E+99

> <Gold.Protein.RotatedTorsions>
[ 6907 6896 6895 6894 ] final  142.06 input  -60.11 | X-H torsion
[ 7974 7965 7964 7962 ] final -157.68 input  175.53 | X-H torsion
[ 8008 7997 7996 7995 ] final   15.74 input   59.86 | X-H torsion
[ 10167 10162 10161 10158 ] final -123.36 input  -65.29 | X-H torsion
[ 10718 10713 10712 10709 ] final -144.55 input   66.30 | X-H torsion
[ 10763 10752 10751 10750 ] final  111.17 input  -60.55 | X-H torsion
[ 11005 11000 10999 10996 ] final  162.19 input  -57.11 | X-H torsion

> <Gold.Protein.ActiveResidues>
 VAL166  LYS551  ARG553  GLY616  TRP617  ASP618  TYR619  PRO620  LYS621  CYS622 
 ASP623  PHE694  ASN695  SER759  ASP760  ASP761  ALA762  ILE779  LEU786  VAL792 
 PHE793  MET794  SER795  GLU796  ALA797  LYS798  CYS799  TRP800  GLU811  SER814 

> <Gold.Protein.RotatedAtoms>
  152.2234  133.5001  159.5174 H   0  0  0  0  0  0  0  0  0  0  0  0  # atno 6907 bound_to 6896
  150.7018  134.1313  159.4079 H   0  0  0  0  0  0  0  0  0  0  0  0  # atno 6908 bound_to 6896
  151.9233  135.0288  160.0574 H   0  0  0  0  0  0  0  0  0  0  0  0  # atno 6909 bound_to 6896
  144.7538  140.3934  143.6028 H   0  0  0  0  0  0  0  0  0  0  0  0  # atno 7974 bound_to 7965
  154.8670  140.2953  155.5504 H   0  0  0  0  0  0  0  0  0  0  0  0  # atno 8008 bound_to 7997
  156.3021  140.2467  156.3586 H   0  0  0  0  0  0  0  0  0  0  0  0  # atno 8009 bound_to 7997
  154.8858  140.0396  157.1798 H   0  0  0  0  0  0  0  0  0  0  0  0  # atno 8010 bound_to 7997
  140.0043  143.5508  152.2290 H   0  0  0  0  0  0  0  0  0  0  0  0  # atno 10167 bound_to 10162
  156.3715  130.7790  151.1972 H   0  0  0  0  0  0  0  0  0  0  0  0  # atno 10718 bound_to 10713
  153.4594  135.3725  155.2329 H   0  0  0  0  0  0  0  0  0  0  0  0  # atno 10763 bound_to 10752
  154.8757  135.3905  154.3943 H   0  0  0  0  0  0  0  0  0  0  0  0  # atno 10764 bound_to 10752
  153.4514  135.7085  153.6171 H   0  0  0  0  0  0  0  0  0  0  0  0  # atno 10765 bound_to 10752
  140.2232  134.8180  157.3242 H   0  0  0  0  0  0  0  0  0  0  0  0  # atno 11005 bound_to 11000
  145.6852  139.1627  143.2678 LP  0  0  0  0  0  0  0  0  0  0  0  0  # atno 17320 bound_to 7965
  146.1522  140.6909  142.9317 LP  0  0  0  0  0  0  0  0  0  0  0  0  # atno 17321 bound_to 7965
  139.6249  144.7635  151.2659 LP  0  0  0  0  0  0  0  0  0  0  0  0  # atno 17342 bound_to 10162
  140.7406  143.6581  150.8188 LP  0  0  0  0  0  0  0  0  0  0  0  0  # atno 17343 bound_to 10162
  157.7484  131.0371  150.4439 LP  0  0  0  0  0  0  0  0  0  0  0  0  # atno 17370 bound_to 10713
  156.4667  130.4043  149.6543 LP  0  0  0  0  0  0  0  0  0  0  0  0  # atno 17371 bound_to 10713
  140.1827  134.4469  155.7762 LP  0  0  0  0  0  0  0  0  0  0  0  0  # atno 17394 bound_to 11000
  141.2222  133.6991  156.7896 LP  0  0  0  0  0  0  0  0  0  0  0  0  # atno 17395 bound_to 11000

$$$$
