AV-unprocessed.smi:526|AV-procd|sdf|2814|dock2
  -GOLD-   2262023293D 1   1.00000     0.00000
 Structure written by MMmdl.
 29 29  0  0  0  0  0  0  0  0  3 V2000
  151.7967  144.9525  160.1561 C   0  0  0  0  0  0  0  0  0  0  0  0
  151.9741  143.6488  160.4272 C   0  0  0  0  0  0  0  0  0  0  0  0
  152.3505  143.1640  161.8146 C   0  0  0  0  0  0  0  0  0  0  0  0
  151.8104  142.5729  159.3655 C   0  0  0  0  0  0  0  0  0  0  0  0
  151.2163  143.2139  157.7669 S   0  0  0  0  0  0  0  0  0  0  0  0
  151.0878  141.7737  156.6850 C   0  0  0  0  0  0  0  0  0  0  0  0
  150.0802  141.7251  155.9017 N   0  0  0  0  0  0  0  0  0  0  0  0
  149.9323  140.6348  155.0275 C   0  0  0  0  0  0  0  0  0  0  0  0
  148.7008  140.6608  154.1393 C   0  0  0  0  0  0  0  0  0  0  0  0
  150.8500  139.6262  154.9943 C   0  0  0  0  0  0  0  0  0  0  0  0
  150.7293  138.4126  154.0682 C   0  0  0  0  0  0  0  0  0  0  0  0
  150.4165  137.0857  154.7711 C   0  0  0  0  0  0  0  0  0  0  0  0
  149.2972  136.9997  155.3224 O   0  0  0  0  0  0  0  0  0  0  0  0
  151.2818  136.1820  154.7562 O   0  5  0  0  0  0  0  0  0  0  0  0
  151.9987  139.7189  155.9133 C   0  0  0  0  0  0  0  0  0  0  0  0
  152.8645  138.8446  155.9205 O   0  0  0  0  0  0  0  0  0  0  0  0
  152.0581  140.7986  156.7443 N   0  5  0  0  0  0  0  0  0  0  0  0
  151.9151  145.7070  160.9193 H   0  0  0  0  0  0  0  0  0  0  0  0
  151.5258  145.2845  159.1643 H   0  0  0  0  0  0  0  0  0  0  0  0
  151.5668  142.5260  162.2232 H   0  0  0  0  0  0  0  0  0  0  0  0
  152.4957  143.9989  162.5008 H   0  0  0  0  0  0  0  0  0  0  0  0
  153.2768  142.5903  161.7773 H   0  0  0  0  0  0  0  0  0  0  0  0
  152.7417  142.0250  159.2188 H   0  0  0  0  0  0  0  0  0  0  0  0
  151.0847  141.8454  159.7288 H   0  0  0  0  0  0  0  0  0  0  0  0
  148.0548  139.8102  154.3561 H   0  0  0  0  0  0  0  0  0  0  0  0
  148.9863  140.6223  153.0881 H   0  0  0  0  0  0  0  0  0  0  0  0
  148.1208  141.5709  154.2947 H   0  0  0  0  0  0  0  0  0  0  0  0
  149.9760  138.5832  153.2986 H   0  0  0  0  0  0  0  0  0  0  0  0
  151.6660  138.2943  153.5236 H   0  0  0  0  0  0  0  0  0  0  0  0
  1  2  2  0  0  0  0
  1 18  1  0  0  0  0
  1 19  1  0  0  0  0
  2  3  1  0  0  0  0
  2  4  1  0  0  0  0
  3 20  1  0  0  0  0
  3 21  1  0  0  0  0
  3 22  1  0  0  0  0
  4  5  1  0  0  0  0
  4 23  1  0  0  0  0
  4 24  1  0  0  0  0
  5  6  1  0  0  0  0
  6 17  1  0  0  0  0
  6  7  2  0  0  0  0
  7  8  1  0  0  0  0
  8  9  1  0  0  0  0
  8 10  2  0  0  0  0
  9 25  1  0  0  0  0
  9 26  1  0  0  0  0
  9 27  1  0  0  0  0
 10 11  1  0  0  0  0
 10 15  1  0  0  0  0
 11 12  1  0  0  0  0
 11 28  1  0  0  0  0
 11 29  1  0  0  0  0
 12 13  2  0  0  0  0
 12 14  1  0  0  0  0
 15 16  2  0  0  0  0
 15 17  1  0  0  0  0
M  CHG  1  14  -1
M  CHG  1  17  -1
M  END
> <s_m_source_file>
AV-unprocessed.smi

> <i_m_source_file_index>
526

> <i_lp_mmshare_version>
43012

> <i_f3d_flags>
0

> <s_epik_input>
W0NIMl09QyhbQ0gzXSlbQ0gyXVNjMW5jKFtDSDNdKWMoYyg9TylbbkhdMSlbQ0gyXUMoPU8pW09IXQ==

> <s_epik_cmdline>
J2VwaWtfcHl0aG9uJywgJy1waCcsICc3LjAnLCAnLXRuJywgJzgnLCAnLW1hJywgJzIwMCcsICctbWV0YWxfYmluZGluZycsICctaW1hZScsICc8aW5maWxlLm1hZT4nLCAnLW9tYWUnLCAnPG91dGZpbGUubWFlPic=

> <r_lp_tautomer_probability>
0.660323

> <r_epik_Ionization_Penalty>
6.90042

> <r_epik_Ionization_Penalty_Charging>
0.0120653

> <r_epik_Ionization_Penalty_Neutral>
6.88835

> <r_epik_State_Penalty>
4.79278

> <r_epik_Charging_Adjusted_Penalty>
4.80485

> <i_epik_Tot_Q>
-2

> <i_epik_Tot_abs_Q>
2

> <r_epik_Metal_State_Penalty>
1.03474

> <b_epik_Metal_Only>
1

> <s_lp_Force_Field>
OPLS_2005

> <r_lp_Energy>
11.6225

> <b_lp_Chiralities_Consistent>
1

> <s_lp_Variant>
AV-unprocessed.smi:526-4

> <Gold.Version>
5.8.1

> <Gold.Id.Protein>
6NUR|6NUR_protein|mol2

> <Gold.PLP.Fitness>
44.8998

> <Gold.PLP.PLP>
-37.3030

> <Gold.PLP.part.hbond>
-2.4138

> <Gold.PLP.part.metal>
0.0000

> <Gold.PLP.part.buried>
-1.7861

> <Gold.PLP.part.nonpolar>
-33.2919

> <Gold.PLP.part.repulsive>
0.3555

> <Gold.PLP.ligand.clash>
0.0000

> <Gold.PLP.ligand.torsion>
0.4355

> <Gold.PLP.Chemscore.Hbond>
2.8000

> <Gold.PLP.Chemscore.CHOScore>
0.0000

> <Gold.PLP.Chemscore.Metal>
0.0000

> <Gold.Chemscore.Hbonds>
donor molecule, donor type, donor heavy atom, donor atom, acceptor molecule, acceptor atom, score
      P1  H  7997  8009       L1    16  0.74
      P1  H 10752 10765       L1    14  2.00

> <Gold.PLP.Chemscore.Internal.Correction>
0.0679

> <Gold.Rescore>
     Score         DG    S(hbond)    S(metal)    S(lipo)     H(rot)  DE(clash)    DE(int)     intcor
     14.54     -15.15       1.85        0.00      79.75       2.28       0.29       0.32       ----

> <Gold.Chemscore.Fitness>
14.5390

> <Gold.Chemscore.DG>
-15.1494

> <Gold.Chemscore.ZeroCoef>
-5.4800

> <Gold.Chemscore.Hbond>
1.8508

> <Gold.Chemscore.Metal>
0.0000

> <Gold.Chemscore.Lipo>
79.7470

> <Gold.Chemscore.Internal_Hbond>
0.0000

> <Gold.Chemscore.DEClash>
0.2899

> <Gold.Chemscore.DEInternal>
0.3204

> <Gold.Chemscore.Rot>
2.2823

> <Gold.Chemscore.Internal.Correction>
   9.000000E+99

> <Gold.Chemscore.Hbonds>
donor molecule, donor type, donor heavy atom, donor atom, acceptor molecule, acceptor atom, score
      P1  H  7997  8009       L1    16  0.08
      P1  H 10752 10765       L1    14  1.00

> <Gold.Chemscore.Hbond.Weighted>
-6.1816

> <Gold.Chemscore.Metal.Weighted>
-0.0000

> <Gold.Chemscore.Lipo.Weighted>
-9.3304

> <Gold.Chemscore.Internal_Hbond.Weighted>
0.0000

> <Gold.Chemscore.DEClash.Weighted>
0.2899

> <Gold.Chemscore.DEInternal.Weighted>
0.3204

> <Gold.Chemscore.Rot.Weighted>
5.8426

> <Gold.Chemscore.Internal.Correction.Weighted>
   9.000000E+99

> <Gold.Protein.RotatedTorsions>
[ 6907 6896 6895 6894 ] final   27.04 input  -60.11 | X-H torsion
[ 7974 7965 7964 7962 ] final   -5.03 input  175.53 | X-H torsion
[ 8008 7997 7996 7995 ] final -174.84 input   59.86 | X-H torsion
[ 10167 10162 10161 10158 ] final   80.91 input  -65.29 | X-H torsion
[ 10718 10713 10712 10709 ] final  139.39 input   66.30 | X-H torsion
[ 10763 10752 10751 10750 ] final  167.46 input  -60.55 | X-H torsion
[ 11005 11000 10999 10996 ] final   94.29 input  -57.11 | X-H torsion

> <Gold.Protein.ActiveResidues>
 VAL166  LYS551  ARG553  GLY616  TRP617  ASP618  TYR619  PRO620  LYS621  CYS622 
 ASP623  PHE694  ASN695  SER759  ASP760  ASP761  ALA762  ILE779  LEU786  VAL792 
 PHE793  MET794  SER795  GLU796  ALA797  LYS798  CYS799  TRP800  GLU811  SER814 

> <Gold.Protein.RotatedAtoms>
  151.9964  134.9952  160.0563 H   0  0  0  0  0  0  0  0  0  0  0  0  # atno 6907 bound_to 6896
  152.1560  133.4547  159.4845 H   0  0  0  0  0  0  0  0  0  0  0  0  # atno 6908 bound_to 6896
  150.6881  134.2048  159.4379 H   0  0  0  0  0  0  0  0  0  0  0  0  # atno 6909 bound_to 6896
  146.2361  140.1960  142.8333 H   0  0  0  0  0  0  0  0  0  0  0  0  # atno 7974 bound_to 7965
  155.9751  140.1170  157.0777 H   0  0  0  0  0  0  0  0  0  0  0  0  # atno 8008 bound_to 7997
  154.4167  140.1155  156.5427 H   0  0  0  0  0  0  0  0  0  0  0  0  # atno 8009 bound_to 7997
  155.6545  140.3473  155.4762 H   0  0  0  0  0  0  0  0  0  0  0  0  # atno 8010 bound_to 7997
  139.9448  144.6065  150.8217 H   0  0  0  0  0  0  0  0  0  0  0  0  # atno 10167 bound_to 10162
  157.4149  131.1032  151.0415 H   0  0  0  0  0  0  0  0  0  0  0  0  # atno 10718 bound_to 10713
  154.3542  135.2753  155.2355 H   0  0  0  0  0  0  0  0  0  0  0  0  # atno 10763 bound_to 10752
  154.4571  135.5916  153.6234 H   0  0  0  0  0  0  0  0  0  0  0  0  # atno 10764 bound_to 10752
  152.9848  135.6056  154.3756 H   0  0  0  0  0  0  0  0  0  0  0  0  # atno 10765 bound_to 10752
  139.8800  134.8837  156.3842 H   0  0  0  0  0  0  0  0  0  0  0  0  # atno 11005 bound_to 11000
  144.9819  140.8467  143.5392 LP  0  0  0  0  0  0  0  0  0  0  0  0  # atno 17320 bound_to 7965
  145.1955  139.2279  143.5220 LP  0  0  0  0  0  0  0  0  0  0  0  0  # atno 17321 bound_to 7965
  140.7600  143.3142  151.2773 LP  0  0  0  0  0  0  0  0  0  0  0  0  # atno 17342 bound_to 10162
  139.6675  144.0078  152.2732 LP  0  0  0  0  0  0  0  0  0  0  0  0  # atno 17343 bound_to 10162
  157.1366  130.6125  149.5544 LP  0  0  0  0  0  0  0  0  0  0  0  0  # atno 17370 bound_to 10713
  155.9862  130.4896  150.7068 LP  0  0  0  0  0  0  0  0  0  0  0  0  # atno 17371 bound_to 10713
  140.9378  133.7535  156.0107 LP  0  0  0  0  0  0  0  0  0  0  0  0  # atno 17394 bound_to 11000
  140.8255  134.3239  157.5367 LP  0  0  0  0  0  0  0  0  0  0  0  0  # atno 17395 bound_to 11000

$$$$
