AV-unprocessed.smi:2124|AV-procd|sdf|8657|dock4
  -GOLD-   2272011403D 1   1.00000     0.00000
 Structure written by MMmdl.
 47 49  0  0  0  0  0  0  0  0  1 V2000
  147.3979  130.9941  161.5784 C   0  0  0  0  0  0  0  0  0  0  0  0
  147.5119  132.4699  161.2586 C   0  0  0  0  0  0  0  0  0  0  0  0
  147.5468  133.4015  162.1539 N   0  0  0  0  0  0  0  0  0  0  0  0
  147.6517  134.7351  161.7347 C   0  0  0  0  0  0  0  0  0  0  0  0
  147.6809  135.7718  162.8449 C   0  0  0  0  0  0  0  0  0  0  0  0
  147.7187  135.0667  160.4119 C   0  0  0  0  0  0  0  0  0  0  0  0
  147.8255  136.5116  159.9263 C   0  0  0  0  0  0  0  0  0  0  0  0
  148.8948  136.7723  158.8626 C   0  0  0  0  0  0  0  0  0  0  0  0
  150.0626  136.4401  159.0662 O   0  0  0  0  0  0  0  0  0  0  0  0
  148.4757  137.3607  157.7309 N   0  0  0  0  0  0  0  0  0  0  0  0
  149.2987  137.6691  156.5619 C   0  0  1  0  0  0  0  0  0  0  0  0
  149.0318  136.6079  155.4832 C   0  0  0  0  0  0  0  0  0  0  0  0
  148.9960  139.1049  156.0674 C   0  0  1  0  0  0  0  0  0  0  0  0
  149.3659  140.2314  157.0606 C   0  0  0  0  0  0  0  0  0  0  0  0
  150.1688  141.2145  156.1892 C   0  0  1  0  0  0  0  0  0  0  0  0
  151.5600  140.6161  155.9114 C   0  0  0  0  0  0  0  0  0  0  0  0
  151.2488  139.4919  154.9071 C   0  0  0  0  0  0  0  0  0  0  0  0
  149.7135  139.5665  154.7737 C   0  0  2  0  0  0  0  0  0  0  0  0
  149.4874  141.0740  154.8332 C   0  0  0  0  0  0  0  0  0  0  0  0
  147.6797  133.9946  159.3983 C   0  0  0  0  0  0  0  0  0  0  0  0
  147.7292  134.1796  158.1834 O   0  0  0  0  0  0  0  0  0  0  0  0
  147.5776  132.7407  159.8929 N   0  0  0  0  0  0  0  0  0  0  0  0
  147.5457  131.9721  159.2393 H   0  0  0  0  0  0  0  0  0  0  0  0
  146.4665  130.7963  162.1093 H   0  0  0  0  0  0  0  0  0  0  0  0
  148.2276  130.6824  162.2131 H   0  0  0  0  0  0  0  0  0  0  0  0
  147.4117  130.3836  160.6746 H   0  0  0  0  0  0  0  0  0  0  0  0
  148.6192  136.3264  162.8272 H   0  0  0  0  0  0  0  0  0  0  0  0
  147.5881  135.3044  163.8260 H   0  0  0  0  0  0  0  0  0  0  0  0
  146.8574  136.4774  162.7338 H   0  0  0  0  0  0  0  0  0  0  0  0
  146.8533  136.8144  159.5355 H   0  0  0  0  0  0  0  0  0  0  0  0
  148.0095  137.1866  160.7624 H   0  0  0  0  0  0  0  0  0  0  0  0
  147.4970  137.6007  157.6652 H   0  0  0  0  0  0  0  0  0  0  0  0
  150.3511  137.5987  156.8372 H   0  0  0  0  0  0  0  0  0  0  0  0
  149.6760  136.7518  154.6158 H   0  0  0  0  0  0  0  0  0  0  0  0
  147.9975  136.6414  155.1394 H   0  0  0  0  0  0  0  0  0  0  0  0
  149.2240  135.6045  155.8650 H   0  0  0  0  0  0  0  0  0  0  0  0
  147.9223  139.1662  155.8786 H   0  0  0  0  0  0  0  0  0  0  0  0
  148.4651  140.7019  157.4565 H   0  0  0  0  0  0  0  0  0  0  0  0
  149.9542  139.8812  157.9092 H   0  0  0  0  0  0  0  0  0  0  0  0
  150.2015  142.2281  156.5895 H   0  0  0  0  0  0  0  0  0  0  0  0
  152.2236  141.3575  155.4646 H   0  0  0  0  0  0  0  0  0  0  0  0
  152.0378  140.2430  156.8181 H   0  0  0  0  0  0  0  0  0  0  0  0
  151.7222  139.7041  153.9475 H   0  0  0  0  0  0  0  0  0  0  0  0
  151.6114  138.5188  155.2350 H   0  0  0  0  0  0  0  0  0  0  0  0
  149.3311  139.0924  153.8692 H   0  0  0  0  0  0  0  0  0  0  0  0
  148.4333  141.3570  154.8475 H   0  0  0  0  0  0  0  0  0  0  0  0
  149.9935  141.6213  154.0357 H   0  0  0  0  0  0  0  0  0  0  0  0
  1  2  1  0  0  0  0
  1 24  1  0  0  0  0
  1 25  1  0  0  0  0
  1 26  1  0  0  0  0
  2 22  1  0  0  0  0
  2  3  2  0  0  0  0
  3  4  1  0  0  0  0
  4  5  1  0  0  0  0
  4  6  2  0  0  0  0
  5 27  1  0  0  0  0
  5 28  1  0  0  0  0
  5 29  1  0  0  0  0
  6  7  1  0  0  0  0
  6 20  1  0  0  0  0
  7  8  1  0  0  0  0
  7 30  1  0  0  0  0
  7 31  1  0  0  0  0
  8  9  2  0  0  0  0
  8 10  1  0  0  0  0
 10 11  1  0  0  0  0
 10 32  1  0  0  0  0
 11 12  1  0  0  0  0
 11 13  1  0  0  0  0
 11 33  1  0  0  0  0
 12 34  1  0  0  0  0
 12 35  1  0  0  0  0
 12 36  1  0  0  0  0
 13 18  1  0  0  0  0
 13 14  1  0  0  0  0
 13 37  1  0  0  0  0
 14 15  1  0  0  0  0
 14 38  1  0  0  0  0
 14 39  1  0  0  0  0
 15 19  1  0  0  0  0
 15 16  1  0  0  0  0
 15 40  1  0  0  0  0
 16 17  1  0  0  0  0
 16 41  1  0  0  0  0
 16 42  1  0  0  0  0
 17 18  1  0  0  0  0
 17 43  1  0  0  0  0
 17 44  1  0  0  0  0
 18 19  1  0  0  0  0
 18 45  1  0  0  0  0
 19 46  1  0  0  0  0
 19 47  1  0  0  0  0
 20 21  2  0  0  0  0
 20 22  1  0  0  0  0
 22 23  1  0  0  0  0
M  END
> <s_m_source_file>
AV-unprocessed.smi

> <i_m_source_file_index>
2124

> <i_lp_mmshare_version>
43012

> <i_f3d_flags>
0

> <s_epik_input>
W0NIM11jMW5jKFtDSDNdKWMoYyg9TylbbkhdMSlbQ0gyXUMoPU8pW05IXVtDQEhdKFtDSDNdKVtDQEhdKFtDSDJdW0NASF0yMylbQ0BIXShbQ0gyXTMpW0NIMl1bQ0gyXTI=

> <s_epik_cmdline>
J2VwaWtfcHl0aG9uJywgJy1waCcsICc3LjAnLCAnLXRuJywgJzgnLCAnLW1hJywgJzIwMCcsICctbWV0YWxfYmluZGluZycsICctaW1hZScsICc8aW5maWxlLm1hZT4nLCAnLW9tYWUnLCAnPG91dGZpbGUubWFlPic=

> <r_lp_tautomer_probability>
0.839158

> <r_epik_Ionization_Penalty>
0.000383628

> <r_epik_Ionization_Penalty_Charging>
0.00035045

> <r_epik_Ionization_Penalty_Neutral>
3.31781e-05

> <r_epik_State_Penalty>
0.09125

> <r_epik_Charging_Adjusted_Penalty>
0.0916005

> <i_epik_Tot_Q>
0

> <i_epik_Tot_abs_Q>
0

> <r_epik_Metal_State_Penalty>
0.255229

> <b_epik_Metal_Only>
0

> <s_lp_Force_Field>
OPLS_2005

> <r_lp_Energy>
52.5586

> <b_lp_Chiralities_Consistent>
1

> <s_lp_Variant>
AV-unprocessed.smi:2124-8

> <Gold.Version>
5.8.1

> <Gold.Id.Protein>
6NUR|6NUR_protein|mol2

> <Gold.PLP.Fitness>
35.5117

> <Gold.PLP.PLP>
-33.3258

> <Gold.PLP.part.hbond>
-1.0000

> <Gold.PLP.part.metal>
0.0000

> <Gold.PLP.part.buried>
-3.8874

> <Gold.PLP.part.nonpolar>
-28.6163

> <Gold.PLP.part.repulsive>
0.1094

> <Gold.PLP.ligand.clash>
0.0000

> <Gold.PLP.ligand.torsion>
0.4162

> <Gold.PLP.Chemscore.Hbond>
1.0000

> <Gold.PLP.Chemscore.CHOScore>
0.0000

> <Gold.PLP.Chemscore.Metal>
0.0000

> <Gold.Chemscore.Hbonds>
donor molecule, donor type, donor heavy atom, donor atom, acceptor molecule, acceptor atom, score
      P1  H  6896  6908       L1     9  1.00

> <Gold.PLP.Chemscore.Internal.Correction>
0.0182

> <Gold.Rescore>
     Score         DG    S(hbond)    S(metal)    S(lipo)     H(rot)  DE(clash)    DE(int)     intcor
     13.35     -13.71       1.00        0.00      78.13       1.65       0.14       0.23       ----

> <Gold.Chemscore.Fitness>
13.3471

> <Gold.Chemscore.DG>
-13.7131

> <Gold.Chemscore.ZeroCoef>
-5.4800

> <Gold.Chemscore.Hbond>
0.9953

> <Gold.Chemscore.Metal>
0.0000

> <Gold.Chemscore.Lipo>
78.1308

> <Gold.Chemscore.Internal_Hbond>
0.0000

> <Gold.Chemscore.DEClash>
0.1354

> <Gold.Chemscore.DEInternal>
0.2307

> <Gold.Chemscore.Rot>
1.6534

> <Gold.Chemscore.Internal.Correction>
   9.000000E+99

> <Gold.Chemscore.Hbonds>
donor molecule, donor type, donor heavy atom, donor atom, acceptor molecule, acceptor atom, score
      P1  H  6896  6908       L1     9  1.00

> <Gold.Chemscore.Hbond.Weighted>
-3.3244

> <Gold.Chemscore.Metal.Weighted>
-0.0000

> <Gold.Chemscore.Lipo.Weighted>
-9.1413

> <Gold.Chemscore.Internal_Hbond.Weighted>
0.0000

> <Gold.Chemscore.DEClash.Weighted>
0.1354

> <Gold.Chemscore.DEInternal.Weighted>
0.2307

> <Gold.Chemscore.Rot.Weighted>
4.2326

> <Gold.Chemscore.Internal.Correction.Weighted>
   9.000000E+99

> <Gold.Protein.RotatedTorsions>
[ 6907 6896 6895 6894 ] final -159.49 input  -60.11 | X-H torsion
[ 7974 7965 7964 7962 ] final  -81.93 input  175.53 | X-H torsion
[ 8008 7997 7996 7995 ] final    4.79 input   59.86 | X-H torsion
[ 10167 10162 10161 10158 ] final -163.96 input  -65.29 | X-H torsion
[ 10718 10713 10712 10709 ] final   -3.07 input   66.30 | X-H torsion
[ 10763 10752 10751 10750 ] final   77.72 input  -60.55 | X-H torsion
[ 11005 11000 10999 10996 ] final -163.81 input  -57.11 | X-H torsion

> <Gold.Protein.ActiveResidues>
 VAL166  LYS551  ARG553  GLY616  TRP617  ASP618  TYR619  PRO620  LYS621  CYS622 
 ASP623  PHE694  ASN695  SER759  ASP760  ASP761  ALA762  ILE779  LEU786  VAL792 
 PHE793  MET794  SER795  GLU796  ALA797  LYS798  CYS799  TRP800  GLU811  SER814 

> <Gold.Protein.RotatedAtoms>
  151.3344  133.3987  159.2665 H   0  0  0  0  0  0  0  0  0  0  0  0  # atno 6907 bound_to 6896
  150.9929  134.9260  159.7920 H   0  0  0  0  0  0  0  0  0  0  0  0  # atno 6908 bound_to 6896
  152.5252  134.3309  159.9235 H   0  0  0  0  0  0  0  0  0  0  0  0  # atno 6909 bound_to 6896
  145.5401  140.9510  143.1555 H   0  0  0  0  0  0  0  0  0  0  0  0  # atno 7974 bound_to 7965
  154.7203  140.2710  155.6547 H   0  0  0  0  0  0  0  0  0  0  0  0  # atno 8008 bound_to 7997
  156.2822  140.2735  156.1798 H   0  0  0  0  0  0  0  0  0  0  0  0  # atno 8009 bound_to 7997
  155.0515  140.0371  157.2535 H   0  0  0  0  0  0  0  0  0  0  0  0  # atno 8010 bound_to 7997
  139.6284  144.0487  152.1995 H   0  0  0  0  0  0  0  0  0  0  0  0  # atno 10167 bound_to 10162
  156.7814  130.5332  149.5750 H   0  0  0  0  0  0  0  0  0  0  0  0  # atno 10718 bound_to 10713
  153.0820  135.4903  154.8522 H   0  0  0  0  0  0  0  0  0  0  0  0  # atno 10763 bound_to 10752
  154.7163  135.3030  154.9121 H   0  0  0  0  0  0  0  0  0  0  0  0  # atno 10764 bound_to 10752
  153.9799  135.6791  153.4803 H   0  0  0  0  0  0  0  0  0  0  0  0  # atno 10765 bound_to 10752
  140.5940  134.5016  157.5196 H   0  0  0  0  0  0  0  0  0  0  0  0  # atno 11005 bound_to 11000
  144.7581  139.7024  143.7245 LP  0  0  0  0  0  0  0  0  0  0  0  0  # atno 17320 bound_to 7965
  146.1986  139.5268  142.9758 LP  0  0  0  0  0  0  0  0  0  0  0  0  # atno 17321 bound_to 7965
  140.0146  144.6198  150.7618 LP  0  0  0  0  0  0  0  0  0  0  0  0  # atno 17342 bound_to 10162
  140.7425  143.2832  151.3538 LP  0  0  0  0  0  0  0  0  0  0  0  0  # atno 17343 bound_to 10162
  156.1215  130.6113  151.0201 LP  0  0  0  0  0  0  0  0  0  0  0  0  # atno 17370 bound_to 10713
  157.6644  131.0874  150.7762 LP  0  0  0  0  0  0  0  0  0  0  0  0  # atno 17371 bound_to 10713
  139.9262  134.8052  156.1063 LP  0  0  0  0  0  0  0  0  0  0  0  0  # atno 17394 bound_to 11000
  141.0916  133.6712  156.2554 LP  0  0  0  0  0  0  0  0  0  0  0  0  # atno 17395 bound_to 11000

$$$$
