AV-unprocessed.smi:1809|AV-procd|sdf|7319|dock5
  -GOLD-   22720 8573D 1   1.00000     0.00000
 Structure written by MMmdl.
 39 41  0  0  0  0  0  0  0  0  1 V2000
  150.6252  129.4890  154.6620 C   0  0  0  0  0  0  0  0  0  0  0  0
  150.5486  130.9643  154.8607 C   0  0  0  0  0  0  0  0  0  0  0  0
  151.1563  131.5928  155.8745 N   0  0  0  0  0  0  0  0  0  0  0  0
  150.9354  132.9628  155.8526 N   0  0  0  0  0  0  0  0  0  0  0  0
  150.1636  133.3281  154.8197 C   0  0  0  0  0  0  0  0  0  0  0  0
  149.7787  134.6696  154.5574 N   0  0  0  0  0  0  0  0  0  0  0  0
  149.9534  135.7538  155.3334 C   0  0  0  0  0  0  0  0  0  0  0  0
  150.4973  135.7575  156.4379 O   0  0  0  0  0  0  0  0  0  0  0  0
  149.4505  136.8510  154.7500 N   0  0  0  0  0  0  0  0  0  0  0  0
  149.4332  138.1880  155.3348 C   0  0  0  0  0  0  0  0  0  0  0  0
  150.7076  138.9773  154.9686 C   0  0  2  0  0  0  0  0  0  0  0  0
  151.6847  139.1301  156.1590 C   0  0  0  0  0  0  0  0  0  0  0  0
  151.2071  140.1315  157.0936 N   0  0  0  0  0  0  0  0  0  0  0  0
  152.0714  140.4456  158.2079 C   0  0  0  0  0  0  0  0  0  0  0  0
  151.5189  141.7730  158.7543 C   0  0  0  0  0  0  0  0  0  0  0  0
  150.7108  142.3661  157.5791 C   0  0  0  0  0  0  0  0  0  0  0  0
  151.0083  141.3938  156.4357 C   0  0  2  0  0  0  0  0  0  0  0  0
  149.9568  141.2649  155.3264 C   0  0  0  0  0  0  0  0  0  0  0  0
  150.3947  140.2613  154.4043 O   0  0  0  0  0  0  0  0  0  0  0  0
  149.6434  132.0148  153.7777 S   0  0  0  0  0  0  0  0  0  0  0  0
  151.3814  129.0512  155.3144 H   0  0  0  0  0  0  0  0  0  0  0  0
  150.8853  129.2643  153.6276 H   0  0  0  0  0  0  0  0  0  0  0  0
  149.6612  129.0334  154.8884 H   0  0  0  0  0  0  0  0  0  0  0  0
  149.3064  134.8199  153.6785 H   0  0  0  0  0  0  0  0  0  0  0  0
  149.0246  136.7512  153.8403 H   0  0  0  0  0  0  0  0  0  0  0  0
  148.5310  138.7331  155.0540 H   0  0  0  0  0  0  0  0  0  0  0  0
  149.3823  138.0659  156.4169 H   0  0  0  0  0  0  0  0  0  0  0  0
  151.2255  138.4136  154.1916 H   0  0  0  0  0  0  0  0  0  0  0  0
  151.8218  138.1751  156.6674 H   0  0  0  0  0  0  0  0  0  0  0  0
  152.6646  139.4240  155.7799 H   0  0  0  0  0  0  0  0  0  0  0  0
  152.0717  139.6509  158.9543 H   0  0  0  0  0  0  0  0  0  0  0  0
  153.0969  140.5859  157.8615 H   0  0  0  0  0  0  0  0  0  0  0  0
  150.8676  141.6003  159.6119 H   0  0  0  0  0  0  0  0  0  0  0  0
  152.3254  142.4338  159.0733 H   0  0  0  0  0  0  0  0  0  0  0  0
  149.6466  142.3687  157.8187 H   0  0  0  0  0  0  0  0  0  0  0  0
  151.0074  143.3872  157.3376 H   0  0  0  0  0  0  0  0  0  0  0  0
  151.9489  141.7031  155.9746 H   0  0  0  0  0  0  0  0  0  0  0  0
  148.9825  141.0060  155.7405 H   0  0  0  0  0  0  0  0  0  0  0  0
  149.8383  142.2099  154.7962 H   0  0  0  0  0  0  0  0  0  0  0  0
  1  2  1  0  0  0  0
  1 21  1  0  0  0  0
  1 22  1  0  0  0  0
  1 23  1  0  0  0  0
  2 20  1  0  0  0  0
  2  3  2  0  0  0  0
  3  4  1  0  0  0  0
  4  5  2  0  0  0  0
  5  6  1  0  0  0  0
  5 20  1  0  0  0  0
  6  7  1  0  0  0  0
  6 24  1  0  0  0  0
  7  8  2  0  0  0  0
  7  9  1  0  0  0  0
  9 10  1  0  0  0  0
  9 25  1  0  0  0  0
 10 11  1  0  0  0  0
 10 26  1  0  0  0  0
 10 27  1  0  0  0  0
 11 19  1  0  0  0  0
 11 12  1  0  0  0  0
 11 28  1  0  0  0  0
 12 13  1  0  0  0  0
 12 29  1  0  0  0  0
 12 30  1  0  0  0  0
 13 17  1  0  0  0  0
 13 14  1  0  0  0  0
 14 15  1  0  0  0  0
 14 31  1  0  0  0  0
 14 32  1  0  0  0  0
 15 16  1  0  0  0  0
 15 33  1  0  0  0  0
 15 34  1  0  0  0  0
 16 17  1  0  0  0  0
 16 35  1  0  0  0  0
 16 36  1  0  0  0  0
 17 18  1  0  0  0  0
 17 37  1  0  0  0  0
 18 19  1  0  0  0  0
 18 38  1  0  0  0  0
 18 39  1  0  0  0  0
M  END
> <s_m_source_file>
AV-unprocessed.smi

> <i_m_source_file_index>
1809

> <i_lp_mmshare_version>
43012

> <i_f3d_flags>
0

> <s_epik_input>
W0NIM11jMW5uYyhzMSlbTkhdQyg9TylbTkhdW0NIMl1bQ0BIXShbQ0gyXTIpT1tDSDJdW0NAQEhdKE4yMylbQ0gyXVtDSDJdW0NIMl0z

> <s_epik_cmdline>
J2VwaWtfcHl0aG9uJywgJy1waCcsICc3LjAnLCAnLXRuJywgJzgnLCAnLW1hJywgJzIwMCcsICctbWV0YWxfYmluZGluZycsICctaW1hZScsICc8aW5maWxlLm1hZT4nLCAnLW9tYWUnLCAnPG91dGZpbGUubWFlPic=

> <r_lp_tautomer_probability>
1

> <r_epik_Ionization_Penalty>
1.05954

> <r_epik_Ionization_Penalty_Charging>
0

> <r_epik_Ionization_Penalty_Neutral>
1.05954

> <r_epik_State_Penalty>
1.4238

> <r_epik_Charging_Adjusted_Penalty>
1.4238

> <i_epik_Tot_Q>
0

> <i_epik_Tot_abs_Q>
0

> <r_epik_Metal_State_Penalty>
1.7901

> <b_epik_Metal_Only>
0

> <s_lp_Force_Field>
OPLS_2005

> <r_lp_Energy>
48.8115

> <b_lp_Chiralities_Consistent>
1

> <s_lp_Variant>
AV-unprocessed.smi:1809-11

> <Gold.Version>
5.8.1

> <Gold.Id.Protein>
6NUR|6NUR_protein|mol2

> <Gold.PLP.Fitness>
40.0351

> <Gold.PLP.PLP>
-33.2517

> <Gold.PLP.part.hbond>
-2.9249

> <Gold.PLP.part.metal>
0.0000

> <Gold.PLP.part.buried>
-5.6919

> <Gold.PLP.part.nonpolar>
-24.0436

> <Gold.PLP.part.repulsive>
0.1691

> <Gold.PLP.ligand.clash>
0.0000

> <Gold.PLP.ligand.torsion>
0.8971

> <Gold.PLP.Chemscore.Hbond>
2.8560

> <Gold.PLP.Chemscore.CHOScore>
0.0000

> <Gold.PLP.Chemscore.Metal>
0.0000

> <Gold.Chemscore.Hbonds>
donor molecule, donor type, donor heavy atom, donor atom, acceptor molecule, acceptor atom, score
      L1  H     6    24       P1  7948  0.25
      L1  H     9    25       P1  7948  0.99
      P1  H  7989  7998       L1    19  1.00

> <Gold.PLP.Chemscore.Internal.Correction>
0.0095

> <Gold.Rescore>
     Score         DG    S(hbond)    S(metal)    S(lipo)     H(rot)  DE(clash)    DE(int)     intcor
     15.84     -17.98       2.52        0.00      63.77       1.32       0.05       2.09       ----

> <Gold.Chemscore.Fitness>
15.8409

> <Gold.Chemscore.DG>
-17.9759

> <Gold.Chemscore.ZeroCoef>
-5.4800

> <Gold.Chemscore.Hbond>
2.5190

> <Gold.Chemscore.Metal>
0.0000

> <Gold.Chemscore.Lipo>
63.7675

> <Gold.Chemscore.Internal_Hbond>
0.0000

> <Gold.Chemscore.DEClash>
0.0466

> <Gold.Chemscore.DEInternal>
2.0884

> <Gold.Chemscore.Rot>
1.3196

> <Gold.Chemscore.Internal.Correction>
   9.000000E+99

> <Gold.Chemscore.Hbonds>
donor molecule, donor type, donor heavy atom, donor atom, acceptor molecule, acceptor atom, score
      L1  H     6    24       P1  7948  0.03
      L1  H     9    25       P1  7948  0.90
      P1  H  7989  7998       L1    19  0.58

> <Gold.Chemscore.Hbond.Weighted>
-8.4134

> <Gold.Chemscore.Metal.Weighted>
-0.0000

> <Gold.Chemscore.Lipo.Weighted>
-7.4608

> <Gold.Chemscore.Internal_Hbond.Weighted>
0.0000

> <Gold.Chemscore.DEClash.Weighted>
0.0466

> <Gold.Chemscore.DEInternal.Weighted>
2.0884

> <Gold.Chemscore.Rot.Weighted>
3.3783

> <Gold.Chemscore.Internal.Correction.Weighted>
   9.000000E+99

> <Gold.Protein.RotatedTorsions>
[ 6907 6896 6895 6894 ] final  153.60 input  -60.11 | X-H torsion
[ 7974 7965 7964 7962 ] final  172.91 input  175.53 | X-H torsion
[ 8008 7997 7996 7995 ] final  158.81 input   59.86 | X-H torsion
[ 10167 10162 10161 10158 ] final  -39.92 input  -65.29 | X-H torsion
[ 10718 10713 10712 10709 ] final  -23.43 input   66.30 | X-H torsion
[ 10763 10752 10751 10750 ] final  112.55 input  -60.55 | X-H torsion
[ 11005 11000 10999 10996 ] final -154.20 input  -57.11 | X-H torsion

> <Gold.Protein.ActiveResidues>
 VAL166  LYS551  ARG553  GLY616  TRP617  ASP618  TYR619  PRO620  LYS621  CYS622 
 ASP623  PHE694  ASN695  SER759  ASP760  ASP761  ALA762  ILE779  LEU786  VAL792 
 PHE793  MET794  SER795  GLU796  ALA797  LYS798  CYS799  TRP800  GLU811  SER814 

> <Gold.Protein.RotatedAtoms>
  152.0704  133.4104  159.4456 H   0  0  0  0  0  0  0  0  0  0  0  0  # atno 6907 bound_to 6896
  150.6863  134.3098  159.4750 H   0  0  0  0  0  0  0  0  0  0  0  0  # atno 6908 bound_to 6896
  152.0929  134.9394  160.0622 H   0  0  0  0  0  0  0  0  0  0  0  0  # atno 6909 bound_to 6896
  144.7256  139.9569  143.6433 H   0  0  0  0  0  0  0  0  0  0  0  0  # atno 7974 bound_to 7965
  156.2279  140.1848  156.7317 H   0  0  0  0  0  0  0  0  0  0  0  0  # atno 8008 bound_to 7997
  154.5972  140.0641  156.9347 H   0  0  0  0  0  0  0  0  0  0  0  0  # atno 8009 bound_to 7997
  155.2236  140.3309  155.4315 H   0  0  0  0  0  0  0  0  0  0  0  0  # atno 8010 bound_to 7997
  140.7050  143.3184  151.2851 H   0  0  0  0  0  0  0  0  0  0  0  0  # atno 10167 bound_to 10162
  156.4912  130.4567  149.6754 H   0  0  0  0  0  0  0  0  0  0  0  0  # atno 10718 bound_to 10713
  153.4794  135.3683  155.2434 H   0  0  0  0  0  0  0  0  0  0  0  0  # atno 10763 bound_to 10752
  154.8755  135.3951  154.3717 H   0  0  0  0  0  0  0  0  0  0  0  0  # atno 10764 bound_to 10752
  153.4319  135.7082  153.6290 H   0  0  0  0  0  0  0  0  0  0  0  0  # atno 10765 bound_to 10752
  140.6999  134.3948  157.5210 H   0  0  0  0  0  0  0  0  0  0  0  0  # atno 11005 bound_to 11000
  146.0667  139.3658  143.0548 LP  0  0  0  0  0  0  0  0  0  0  0  0  # atno 17320 bound_to 7965
  145.8021  140.9766  143.0993 LP  0  0  0  0  0  0  0  0  0  0  0  0  # atno 17321 bound_to 7965
  139.6631  144.0154  152.2705 LP  0  0  0  0  0  0  0  0  0  0  0  0  # atno 17342 bound_to 10162
  139.9728  144.6482  150.7973 LP  0  0  0  0  0  0  0  0  0  0  0  0  # atno 17343 bound_to 10162
  156.3425  130.7389  151.2336 LP  0  0  0  0  0  0  0  0  0  0  0  0  # atno 17370 bound_to 10713
  157.7473  131.0400  150.4576 LP  0  0  0  0  0  0  0  0  0  0  0  0  # atno 17371 bound_to 10713
  139.8899  134.8817  156.2395 LP  0  0  0  0  0  0  0  0  0  0  0  0  # atno 17394 bound_to 11000
  141.0172  133.7062  156.1208 LP  0  0  0  0  0  0  0  0  0  0  0  0  # atno 17395 bound_to 11000

$$$$
