AV-unprocessed.smi:1381|AV-procd|sdf|5616|dock9
  -GOLD-   22720 5223D 1   1.00000     0.00000
 Structure written by MMmdl.
 42 43  0  0  0  0  0  0  0  0  3 V2000
  152.8208  143.0489  159.4948 C   0  0  0  0  0  0  0  0  0  0  0  0
  152.0178  142.4750  158.3782 C   0  0  0  0  0  0  0  0  0  0  0  0
  151.0403  142.9919  157.5755 C   0  0  0  0  0  0  0  0  0  0  0  0
  150.7079  141.9001  156.7300 C   0  0  0  0  0  0  0  0  0  0  0  0
  149.7056  142.0353  155.7332 N   0  0  0  0  0  0  0  0  0  0  0  0
  149.4672  141.2514  154.6658 C   0  0  0  0  0  0  0  0  0  0  0  0
  150.1795  140.2651  154.4429 O   0  0  0  0  0  0  0  0  0  0  0  0
  148.4081  141.6896  153.9300 N   0  5  0  0  0  0  0  0  0  0  0  0
  147.3815  140.8260  153.3484 C   0  0  0  0  0  0  0  0  0  0  0  0
  146.6986  139.9926  154.4487 C   0  0  0  0  0  0  0  0  0  0  0  0
  145.6738  139.0865  153.8697 N   0  3  1  0  0  0  0  0  0  0  0  0
  146.2167  138.1390  152.8670 C   0  0  0  0  0  0  0  0  0  0  0  0
  145.0777  137.3102  152.2448 C   0  0  1  0  0  0  0  0  0  0  0  0
  145.5984  136.2629  151.2545 C   0  0  0  0  0  0  0  0  0  0  0  0
  144.3756  136.6326  153.2820 O   0  0  0  0  0  0  0  0  0  0  0  0
  143.7740  137.5265  154.2133 C   0  0  1  0  0  0  0  0  0  0  0  0
  142.9757  136.6970  155.2249 C   0  0  0  0  0  0  0  0  0  0  0  0
  144.8751  138.3643  154.8895 C   0  0  0  0  0  0  0  0  0  0  0  0
  151.4204  140.8147  156.9937 N   0  0  0  0  0  0  0  0  0  0  0  0
  152.2624  141.1773  158.0515 O   0  0  0  0  0  0  0  0  0  0  0  0
  152.8956  144.1324  159.4023 H   0  0  0  0  0  0  0  0  0  0  0  0
  153.8316  142.6405  159.4984 H   0  0  0  0  0  0  0  0  0  0  0  0
  152.3598  142.8220  160.4561 H   0  0  0  0  0  0  0  0  0  0  0  0
  150.6297  143.9904  157.5924 H   0  0  0  0  0  0  0  0  0  0  0  0
  149.0859  142.8240  155.8436 H   0  0  0  0  0  0  0  0  0  0  0  0
  146.6237  141.3921  152.8045 H   0  0  0  0  0  0  0  0  0  0  0  0
  147.8142  140.1458  152.6143 H   0  0  0  0  0  0  0  0  0  0  0  0
  147.4525  139.4169  154.9885 H   0  0  0  0  0  0  0  0  0  0  0  0
  146.2428  140.6518  155.1896 H   0  0  0  0  0  0  0  0  0  0  0  0
  146.7399  138.6935  152.0868 H   0  0  0  0  0  0  0  0  0  0  0  0
  146.9481  137.4835  153.3428 H   0  0  0  0  0  0  0  0  0  0  0  0
  144.3876  137.9715  151.7177 H   0  0  0  0  0  0  0  0  0  0  0  0
  146.1332  136.7343  150.4295 H   0  0  0  0  0  0  0  0  0  0  0  0
  144.7764  135.6861  150.8301 H   0  0  0  0  0  0  0  0  0  0  0  0
  146.2802  135.5640  151.7398 H   0  0  0  0  0  0  0  0  0  0  0  0
  143.0835  138.1853  153.6837 H   0  0  0  0  0  0  0  0  0  0  0  0
  142.4831  137.3383  155.9563 H   0  0  0  0  0  0  0  0  0  0  0  0
  143.6219  136.0058  155.7667 H   0  0  0  0  0  0  0  0  0  0  0  0
  142.2045  136.1099  154.7256 H   0  0  0  0  0  0  0  0  0  0  0  0
  145.5321  137.7217  155.4780 H   0  0  0  0  0  0  0  0  0  0  0  0
  144.4259  139.0824  155.5774 H   0  0  0  0  0  0  0  0  0  0  0  0
  145.0307  139.6869  153.3734 H   0  0  0  0  0  0  0  0  0  0  0  0
  1  2  1  0  0  0  0
  1 21  1  0  0  0  0
  1 22  1  0  0  0  0
  1 23  1  0  0  0  0
  2 20  1  0  0  0  0
  2  3  2  0  0  0  0
  3  4  1  0  0  0  0
  3 24  1  0  0  0  0
  4  5  1  0  0  0  0
  4 19  2  0  0  0  0
  5  6  1  0  0  0  0
  5 25  1  0  0  0  0
  6  7  2  0  0  0  0
  6  8  1  0  0  0  0
  8  9  1  0  0  0  0
  9 10  1  0  0  0  0
  9 26  1  0  0  0  0
  9 27  1  0  0  0  0
 10 11  1  0  0  0  0
 10 28  1  0  0  0  0
 10 29  1  0  0  0  0
 11 18  1  0  0  0  0
 11 12  1  0  0  0  0
 11 42  1  0  0  0  0
 12 13  1  0  0  0  0
 12 30  1  0  0  0  0
 12 31  1  0  0  0  0
 13 14  1  0  0  0  0
 13 15  1  0  0  0  0
 13 32  1  0  0  0  0
 14 33  1  0  0  0  0
 14 34  1  0  0  0  0
 14 35  1  0  0  0  0
 15 16  1  0  0  0  0
 16 17  1  0  0  0  0
 16 18  1  0  0  0  0
 16 36  1  0  0  0  0
 17 37  1  0  0  0  0
 17 38  1  0  0  0  0
 17 39  1  0  0  0  0
 18 40  1  0  0  0  0
 18 41  1  0  0  0  0
 19 20  1  0  0  0  0
M  CHG  1   8  -1
M  CHG  1  11   1
M  END
> <s_m_source_file>
AV-unprocessed.smi

> <i_m_source_file_index>
1381

> <i_lp_mmshare_version>
43012

> <i_f3d_flags>
0

> <s_epik_input>
W0NIM11jMVtjSF1jKG5vMSlbTkhdQyg9TylbTkhdW0NIMl1bQ0gyXU4yW0NIMl1bQ0BASF0oW0NIM10pT1tDQEBIXShbQ0gzXSlbQ0gyXTI=

> <s_epik_cmdline>
J2VwaWtfcHl0aG9uJywgJy1waCcsICc3LjAnLCAnLXRuJywgJzgnLCAnLW1hJywgJzIwMCcsICctbWV0YWxfYmluZGluZycsICctaW1hZScsICc8aW5maWxlLm1hZT4nLCAnLW9tYWUnLCAnPG91dGZpbGUubWFlPic=

> <r_epik_Ionization_Penalty>
6.8073

> <r_epik_Ionization_Penalty_Charging>
6.80729

> <r_epik_Ionization_Penalty_Neutral>
5.65391e-06

> <r_epik_State_Penalty>
7.47323

> <r_epik_Charging_Adjusted_Penalty>
14.2805

> <i_epik_Tot_Q>
0

> <i_epik_Tot_abs_Q>
2

> <r_epik_Metal_State_Penalty>
3.40035

> <b_epik_Metal_Only>
1

> <s_lp_Force_Field>
OPLS_2005

> <r_lp_Energy>
11.4992

> <b_lp_Chiralities_Consistent>
1

> <s_lp_Variant>
AV-unprocessed.smi:1381-15

> <Gold.Version>
5.8.1

> <Gold.Id.Protein>
6NUR|6NUR_protein|mol2

> <Gold.PLP.Fitness>
42.2304

> <Gold.PLP.PLP>
-30.1575

> <Gold.PLP.part.hbond>
-4.0000

> <Gold.PLP.part.metal>
0.0000

> <Gold.PLP.part.buried>
-3.3046

> <Gold.PLP.part.nonpolar>
-23.8196

> <Gold.PLP.part.repulsive>
0.5172

> <Gold.PLP.ligand.clash>
0.0000

> <Gold.PLP.ligand.torsion>
0.4108

> <Gold.PLP.Chemscore.Hbond>
4.2816

> <Gold.PLP.Chemscore.CHOScore>
0.0000

> <Gold.PLP.Chemscore.Metal>
0.0000

> <Gold.Chemscore.Hbonds>
donor molecule, donor type, donor heavy atom, donor atom, acceptor molecule, acceptor atom, score
      L1  H     5    25       P1  8028  0.93
      L1  H    11    42       P1 10175  2.00
      P1  H  7989  7998       L1     7  1.00
      P1  H  8011  8017       L1     8  0.16

> <Gold.PLP.Chemscore.Internal.Correction>
0.0499

> <Gold.Rescore>
     Score         DG    S(hbond)    S(metal)    S(lipo)     H(rot)  DE(clash)    DE(int)     intcor
     16.14     -17.87       2.60        0.00      66.10       1.58       0.07       1.66       ----

> <Gold.Chemscore.Fitness>
16.1376

> <Gold.Chemscore.DG>
-17.8658

> <Gold.Chemscore.ZeroCoef>
-5.4800

> <Gold.Chemscore.Hbond>
2.6031

> <Gold.Chemscore.Metal>
0.0000

> <Gold.Chemscore.Lipo>
66.1041

> <Gold.Chemscore.Internal_Hbond>
0.0000

> <Gold.Chemscore.DEClash>
0.0653

> <Gold.Chemscore.DEInternal>
1.6629

> <Gold.Chemscore.Rot>
1.5792

> <Gold.Chemscore.Internal.Correction>
   9.000000E+99

> <Gold.Chemscore.Hbonds>
donor molecule, donor type, donor heavy atom, donor atom, acceptor molecule, acceptor atom, score
      L1  H     5    25       P1  8028  0.89
      L1  H    11    42       P1 10175  1.00
      P1  H  7989  7998       L1     7  0.53
      P1  H  8011  8017       L1     8  0.01

> <Gold.Chemscore.Hbond.Weighted>
-8.6944

> <Gold.Chemscore.Metal.Weighted>
-0.0000

> <Gold.Chemscore.Lipo.Weighted>
-7.7342

> <Gold.Chemscore.Internal_Hbond.Weighted>
0.0000

> <Gold.Chemscore.DEClash.Weighted>
0.0653

> <Gold.Chemscore.DEInternal.Weighted>
1.6629

> <Gold.Chemscore.Rot.Weighted>
4.0428

> <Gold.Chemscore.Internal.Correction.Weighted>
   9.000000E+99

> <Gold.Protein.RotatedTorsions>
[ 6907 6896 6895 6894 ] final -113.96 input  -60.11 | X-H torsion
[ 7974 7965 7964 7962 ] final   70.20 input  175.53 | X-H torsion
[ 8008 7997 7996 7995 ] final -175.74 input   59.86 | X-H torsion
[ 10167 10162 10161 10158 ] final   32.16 input  -65.29 | X-H torsion
[ 10718 10713 10712 10709 ] final -115.25 input   66.30 | X-H torsion
[ 10763 10752 10751 10750 ] final    7.89 input  -60.55 | X-H torsion
[ 11005 11000 10999 10996 ] final   97.13 input  -57.11 | X-H torsion

> <Gold.Protein.ActiveResidues>
 VAL166  LYS551  ARG553  GLY616  TRP617  ASP618  TYR619  PRO620  LYS621  CYS622 
 ASP623  PHE694  ASN695  SER759  ASP760  ASP761  ALA762  ILE779  LEU786  VAL792 
 PHE793  MET794  SER795  GLU796  ALA797  LYS798  CYS799  TRP800  GLU811  SER814 

> <Gold.Protein.RotatedAtoms>
  150.7867  133.8870  159.3302 H   0  0  0  0  0  0  0  0  0  0  0  0  # atno 6907 bound_to 6896
  151.6719  135.0973  160.0209 H   0  0  0  0  0  0  0  0  0  0  0  0  # atno 6908 bound_to 6896
  152.3932  133.6670  159.6290 H   0  0  0  0  0  0  0  0  0  0  0  0  # atno 6909 bound_to 6896
  145.7811  139.2888  143.1265 H   0  0  0  0  0  0  0  0  0  0  0  0  # atno 7974 bound_to 7965
  155.9862  140.1192  157.0680 H   0  0  0  0  0  0  0  0  0  0  0  0  # atno 8008 bound_to 7997
  154.4197  140.1134  156.5571 H   0  0  0  0  0  0  0  0  0  0  0  0  # atno 8009 bound_to 7997
  155.6404  140.3473  155.4715 H   0  0  0  0  0  0  0  0  0  0  0  0  # atno 8010 bound_to 7997
  140.4524  144.1029  150.6194 H   0  0  0  0  0  0  0  0  0  0  0  0  # atno 10167 bound_to 10162
  156.0883  130.6070  150.8881 H   0  0  0  0  0  0  0  0  0  0  0  0  # atno 10718 bound_to 10713
  153.2312  135.6893  153.7888 H   0  0  0  0  0  0  0  0  0  0  0  0  # atno 10763 bound_to 10752
  153.7052  135.3291  155.3235 H   0  0  0  0  0  0  0  0  0  0  0  0  # atno 10764 bound_to 10752
  154.8314  135.4577  154.1197 H   0  0  0  0  0  0  0  0  0  0  0  0  # atno 10765 bound_to 10752
  139.8777  134.8986  156.4262 H   0  0  0  0  0  0  0  0  0  0  0  0  # atno 11005 bound_to 11000
  146.0073  140.8467  142.9988 LP  0  0  0  0  0  0  0  0  0  0  0  0  # atno 17320 bound_to 7965
  144.6796  140.2438  143.7340 LP  0  0  0  0  0  0  0  0  0  0  0  0  # atno 17321 bound_to 7965
  140.4192  143.2620  151.9737 LP  0  0  0  0  0  0  0  0  0  0  0  0  # atno 17342 bound_to 10162
  139.4798  144.5846  151.7874 LP  0  0  0  0  0  0  0  0  0  0  0  0  # atno 17343 bound_to 10162
  157.6025  131.0940  150.8936 LP  0  0  0  0  0  0  0  0  0  0  0  0  # atno 17370 bound_to 10713
  156.9091  130.5274  149.5281 LP  0  0  0  0  0  0  0  0  0  0  0  0  # atno 17371 bound_to 10713
  140.9099  133.7719  155.9779 LP  0  0  0  0  0  0  0  0  0  0  0  0  # atno 17394 bound_to 11000
  140.8558  134.2900  157.5256 LP  0  0  0  0  0  0  0  0  0  0  0  0  # atno 17395 bound_to 11000

$$$$
