AV-unprocessed.smi:1645|AV-procd|sdf|6622|dock6
  -GOLD-   22720 7323D 1   1.00000     0.00000
 Structure written by MMmdl.
 55 58  0  0  0  0  0  0  0  0  4 V2000
  147.0422  140.5342  153.6389 O   0  0  0  0  0  0  0  0  0  0  0  0
  147.4068  139.3776  153.8765 C   0  0  0  0  0  0  0  0  0  0  0  0
  148.3497  139.1367  154.8045 N   0  0  0  0  0  0  0  0  0  0  0  0
  149.1138  140.0579  155.5707 C   0  0  0  0  0  0  0  0  0  0  0  0
  150.0230  139.5313  156.5127 C   0  0  0  0  0  0  0  0  0  0  0  0
  150.8228  140.4046  157.2775 C   0  0  0  0  0  0  0  0  0  0  0  0
  150.7087  141.7994  157.0784 C   0  0  0  0  0  0  0  0  0  0  0  0
  151.4656  142.7434  157.7845 N   0  0  0  0  0  0  0  0  0  0  0  0
  150.6515  143.8112  158.3593 C   0  0  0  0  0  0  0  0  0  0  0  0
  151.5402  144.9139  158.9605 C   0  0  0  0  0  0  0  0  0  0  0  0
  152.5347  144.3253  159.9742 C   0  0  0  0  0  0  0  0  0  0  0  0
  153.3427  143.1883  159.3278 C   0  0  0  0  0  0  0  0  0  0  0  0
  152.4093  142.1296  158.7153 C   0  0  0  0  0  0  0  0  0  0  0  0
  149.8375  142.2655  156.1576 N   0  3  0  0  0  0  0  0  0  0  0  0
  149.0520  141.4633  155.4067 C   0  0  0  0  0  0  0  0  0  0  0  0
  146.9505  138.2314  153.3030 N   0  5  0  0  0  0  0  0  0  0  0  0
  146.0089  137.2939  153.9323 C   0  0  2  0  0  0  0  0  0  0  0  0
  146.7184  136.5656  155.0898 C   0  0  0  0  0  0  0  0  0  0  0  0
  147.3126  135.2762  154.4845 C   0  0  0  0  0  0  0  0  0  0  0  0
  146.8725  135.2556  153.0751 N   0  3  1  0  0  0  0  0  0  0  0  0
  146.6745  133.9287  152.4500 C   0  0  0  0  0  0  0  0  0  0  0  0
  146.2796  134.1078  150.9700 C   0  0  0  0  0  0  0  0  0  0  0  0
  145.0586  135.0364  150.8107 C   0  0  0  0  0  0  0  0  0  0  0  0
  145.2909  136.3809  151.5256 C   0  0  0  0  0  0  0  0  0  0  0  0
  145.6799  136.1153  152.9973 C   0  0  2  0  0  0  0  0  0  0  0  0
  148.5108  138.1616  155.0104 H   0  0  0  0  0  0  0  0  0  0  0  0
  150.1064  138.4633  156.6526 H   0  0  0  0  0  0  0  0  0  0  0  0
  151.5154  140.0035  158.0026 H   0  0  0  0  0  0  0  0  0  0  0  0
  150.0048  144.2349  157.5895 H   0  0  0  0  0  0  0  0  0  0  0  0
  150.0015  143.3996  159.1327 H   0  0  0  0  0  0  0  0  0  0  0  0
  152.0871  145.4184  158.1627 H   0  0  0  0  0  0  0  0  0  0  0  0
  150.9212  145.6731  159.4394 H   0  0  0  0  0  0  0  0  0  0  0  0
  153.2048  145.1032  160.3415 H   0  0  0  0  0  0  0  0  0  0  0  0
  151.9931  143.9442  160.8408 H   0  0  0  0  0  0  0  0  0  0  0  0
  153.9913  143.5967  158.5515 H   0  0  0  0  0  0  0  0  0  0  0  0
  153.9977  142.7266  160.0672 H   0  0  0  0  0  0  0  0  0  0  0  0
  151.8605  141.6185  159.5075 H   0  0  0  0  0  0  0  0  0  0  0  0
  152.9988  141.3732  158.1955 H   0  0  0  0  0  0  0  0  0  0  0  0
  148.4214  141.9791  154.6982 H   0  0  0  0  0  0  0  0  0  0  0  0
  145.0982  137.7804  154.2842 H   0  0  0  0  0  0  0  0  0  0  0  0
  147.4745  137.1799  155.5811 H   0  0  0  0  0  0  0  0  0  0  0  0
  145.9854  136.2982  155.8520 H   0  0  0  0  0  0  0  0  0  0  0  0
  148.4022  135.2637  154.5325 H   0  0  0  0  0  0  0  0  0  0  0  0
  146.9420  134.4008  155.0208 H   0  0  0  0  0  0  0  0  0  0  0  0
  147.5942  133.3479  152.5270 H   0  0  0  0  0  0  0  0  0  0  0  0
  145.8990  133.3797  152.9865 H   0  0  0  0  0  0  0  0  0  0  0  0
  147.1229  134.5272  150.4197 H   0  0  0  0  0  0  0  0  0  0  0  0
  146.0708  133.1370  150.5200 H   0  0  0  0  0  0  0  0  0  0  0  0
  144.8503  135.2052  149.7539 H   0  0  0  0  0  0  0  0  0  0  0  0
  144.1753  134.5506  151.2272 H   0  0  0  0  0  0  0  0  0  0  0  0
  146.0775  136.9267  151.0012 H   0  0  0  0  0  0  0  0  0  0  0  0
  144.3899  136.9936  151.4661 H   0  0  0  0  0  0  0  0  0  0  0  0
  144.8541  135.5696  153.4593 H   0  0  0  0  0  0  0  0  0  0  0  0
  147.5873  135.7404  152.5508 H   0  0  0  0  0  0  0  0  0  0  0  0
  149.7710  143.2740  156.0184 H   0  0  0  0  0  0  0  0  0  0  0  0
  1  2  2  0  0  0  0
  2  3  1  0  0  0  0
  2 16  1  0  0  0  0
  3  4  1  0  0  0  0
  3 26  1  0  0  0  0
  4 15  1  0  0  0  0
  4  5  2  0  0  0  0
  5  6  1  0  0  0  0
  5 27  1  0  0  0  0
  6  7  2  0  0  0  0
  6 28  1  0  0  0  0
  7  8  1  0  0  0  0
  7 14  1  0  0  0  0
  8 13  1  0  0  0  0
  8  9  1  0  0  0  0
  9 10  1  0  0  0  0
  9 29  1  0  0  0  0
  9 30  1  0  0  0  0
 10 11  1  0  0  0  0
 10 31  1  0  0  0  0
 10 32  1  0  0  0  0
 11 12  1  0  0  0  0
 11 33  1  0  0  0  0
 11 34  1  0  0  0  0
 12 13  1  0  0  0  0
 12 35  1  0  0  0  0
 12 36  1  0  0  0  0
 13 37  1  0  0  0  0
 13 38  1  0  0  0  0
 14 15  2  0  0  0  0
 14 55  1  0  0  0  0
 15 39  1  0  0  0  0
 16 17  1  0  0  0  0
 17 25  1  0  0  0  0
 17 18  1  0  0  0  0
 17 40  1  0  0  0  0
 18 19  1  0  0  0  0
 18 41  1  0  0  0  0
 18 42  1  0  0  0  0
 19 20  1  0  0  0  0
 19 43  1  0  0  0  0
 19 44  1  0  0  0  0
 20 25  1  0  0  0  0
 20 21  1  0  0  0  0
 20 54  1  0  0  0  0
 21 22  1  0  0  0  0
 21 45  1  0  0  0  0
 21 46  1  0  0  0  0
 22 23  1  0  0  0  0
 22 47  1  0  0  0  0
 22 48  1  0  0  0  0
 23 24  1  0  0  0  0
 23 49  1  0  0  0  0
 23 50  1  0  0  0  0
 24 25  1  0  0  0  0
 24 51  1  0  0  0  0
 24 52  1  0  0  0  0
 25 53  1  0  0  0  0
M  CHG  1  14   1
M  CHG  1  16  -1
M  CHG  1  20   1
M  END
> <s_m_source_file>
AV-unprocessed.smi

> <i_m_source_file_index>
1645

> <i_lp_mmshare_version>
43012

> <i_f3d_flags>
0

> <s_epik_input>
W0NIMl0xW0NIMl1bQ0gyXVtDSDJdW0NASF0oTjEyKVtDQEBIXShbQ0gyXVtDSDJdMilbTkhdQyg9TylbTkhdYzNbY0hdW2NIXWMobltjSF0zKU40W0NIMl1bQ0gyXVtDSDJdW0NIMl1bQ0gyXTQ=

> <s_epik_cmdline>
J2VwaWtfcHl0aG9uJywgJy1waCcsICc3LjAnLCAnLXRuJywgJzgnLCAnLW1hJywgJzIwMCcsICctbWV0YWxfYmluZGluZycsICctaW1hZScsICc8aW5maWxlLm1hZT4nLCAnLW9tYWUnLCAnPG91dGZpbGUubWFlPic=

> <r_lp_tautomer_probability>
0.999994

> <r_epik_Ionization_Penalty>
8.55589

> <r_epik_Ionization_Penalty_Charging>
8.55589

> <r_epik_Ionization_Penalty_Neutral>
3.8092e-06

> <r_epik_State_Penalty>
8.15703

> <r_epik_Charging_Adjusted_Penalty>
16.7129

> <i_epik_Tot_Q>
1

> <i_epik_Tot_abs_Q>
3

> <r_epik_Metal_State_Penalty>
4.13781

> <b_epik_Metal_Only>
1

> <s_lp_Force_Field>
OPLS_2005

> <r_lp_Energy>
55.4093

> <b_lp_Chiralities_Consistent>
1

> <s_lp_Variant>
AV-unprocessed.smi:1645-23

> <Gold.Version>
5.8.1

> <Gold.Id.Protein>
6NUR|6NUR_protein|mol2

> <Gold.PLP.Fitness>
48.8245

> <Gold.PLP.PLP>
-38.4159

> <Gold.PLP.part.hbond>
-2.0000

> <Gold.PLP.part.metal>
0.0000

> <Gold.PLP.part.buried>
-7.0355

> <Gold.PLP.part.nonpolar>
-31.1666

> <Gold.PLP.part.repulsive>
1.4654

> <Gold.PLP.ligand.clash>
0.0164

> <Gold.PLP.ligand.torsion>
0.8623

> <Gold.PLP.Chemscore.Hbond>
3.9840

> <Gold.PLP.Chemscore.CHOScore>
0.0000

> <Gold.PLP.Chemscore.Metal>
0.0000

> <Gold.Chemscore.Hbonds>
donor molecule, donor type, donor heavy atom, donor atom, acceptor molecule, acceptor atom, score
      L1  H    14    55       P1  8028  2.00
      L1  H    20    54       P1  7948  2.00

> <Gold.PLP.Chemscore.Internal.Correction>
0.1977

> <Gold.Rescore>
     Score         DG    S(hbond)    S(metal)    S(lipo)     H(rot)  DE(clash)    DE(int)     intcor
     19.29     -21.75       1.97        0.00     108.43       1.17       0.18       2.29       ----

> <Gold.Chemscore.Fitness>
19.2872

> <Gold.Chemscore.DG>
-21.7527

> <Gold.Chemscore.ZeroCoef>
-5.4800

> <Gold.Chemscore.Hbond>
1.9729

> <Gold.Chemscore.Metal>
0.0000

> <Gold.Chemscore.Lipo>
108.4321

> <Gold.Chemscore.Internal_Hbond>
0.0000

> <Gold.Chemscore.DEClash>
0.1770

> <Gold.Chemscore.DEInternal>
2.2885

> <Gold.Chemscore.Rot>
1.1731

> <Gold.Chemscore.Internal.Correction>
   9.000000E+99

> <Gold.Chemscore.Hbonds>
donor molecule, donor type, donor heavy atom, donor atom, acceptor molecule, acceptor atom, score
      L1  H    14    55       P1  8028  0.97
      L1  H    20    54       P1  7948  0.98

> <Gold.Chemscore.Hbond.Weighted>
-6.5894

> <Gold.Chemscore.Metal.Weighted>
-0.0000

> <Gold.Chemscore.Lipo.Weighted>
-12.6866

> <Gold.Chemscore.Internal_Hbond.Weighted>
0.0000

> <Gold.Chemscore.DEClash.Weighted>
0.1770

> <Gold.Chemscore.DEInternal.Weighted>
2.2885

> <Gold.Chemscore.Rot.Weighted>
3.0032

> <Gold.Chemscore.Internal.Correction.Weighted>
   9.000000E+99

> <Gold.Protein.RotatedTorsions>
[ 6907 6896 6895 6894 ] final   34.65 input  -60.11 | X-H torsion
[ 7974 7965 7964 7962 ] final   83.15 input  175.53 | X-H torsion
[ 8008 7997 7996 7995 ] final   77.26 input   59.86 | X-H torsion
[ 10167 10162 10161 10158 ] final   86.63 input  -65.29 | X-H torsion
[ 10718 10713 10712 10709 ] final  -58.28 input   66.30 | X-H torsion
[ 10763 10752 10751 10750 ] final  136.83 input  -60.55 | X-H torsion
[ 11005 11000 10999 10996 ] final  -22.00 input  -57.11 | X-H torsion

> <Gold.Protein.ActiveResidues>
 VAL166  LYS551  ARG553  GLY616  TRP617  ASP618  TYR619  PRO620  LYS621  CYS622 
 ASP623  PHE694  ASN695  SER759  ASP760  ASP761  ALA762  ILE779  LEU786  VAL792 
 PHE793  MET794  SER795  GLU796  ALA797  LYS798  CYS799  TRP800  GLU811  SER814 

> <Gold.Protein.RotatedAtoms>
  152.1052  134.9313  160.0568 H   0  0  0  0  0  0  0  0  0  0  0  0  # atno 6907 bound_to 6896
  152.0512  133.4015  159.4386 H   0  0  0  0  0  0  0  0  0  0  0  0  # atno 6908 bound_to 6896
  150.6841  134.3226  159.4837 H   0  0  0  0  0  0  0  0  0  0  0  0  # atno 6909 bound_to 6896
  145.6156  139.2376  143.2167 H   0  0  0  0  0  0  0  0  0  0  0  0  # atno 7974 bound_to 7965
  155.8390  140.3463  155.5620 H   0  0  0  0  0  0  0  0  0  0  0  0  # atno 8008 bound_to 7997
  155.8161  140.0906  157.1896 H   0  0  0  0  0  0  0  0  0  0  0  0  # atno 8009 bound_to 7997
  154.4005  140.1439  156.3432 H   0  0  0  0  0  0  0  0  0  0  0  0  # atno 8010 bound_to 7997
  139.8855  144.6415  150.8795 H   0  0  0  0  0  0  0  0  0  0  0  0  # atno 10167 bound_to 10162
  156.1147  130.4171  150.0556 H   0  0  0  0  0  0  0  0  0  0  0  0  # atno 10718 bound_to 10713
  153.8631  135.3065  155.3438 H   0  0  0  0  0  0  0  0  0  0  0  0  # atno 10763 bound_to 10752
  154.7840  135.4820  153.9908 H   0  0  0  0  0  0  0  0  0  0  0  0  # atno 10764 bound_to 10752
  153.1450  135.6832  153.9063 H   0  0  0  0  0  0  0  0  0  0  0  0  # atno 10765 bound_to 10752
  140.8615  133.7784  156.0080 H   0  0  0  0  0  0  0  0  0  0  0  0  # atno 11005 bound_to 11000
  146.1470  140.6978  142.9340 LP  0  0  0  0  0  0  0  0  0  0  0  0  # atno 17320 bound_to 7965
  144.7252  140.4501  143.6979 LP  0  0  0  0  0  0  0  0  0  0  0  0  # atno 17321 bound_to 7965
  140.7736  143.3551  151.1937 LP  0  0  0  0  0  0  0  0  0  0  0  0  # atno 17342 bound_to 10162
  139.7157  143.9305  152.2965 LP  0  0  0  0  0  0  0  0  0  0  0  0  # atno 17343 bound_to 10162
  156.8510  130.9459  151.3625 LP  0  0  0  0  0  0  0  0  0  0  0  0  # atno 17370 bound_to 10713
  157.6330  130.8744  149.9307 LP  0  0  0  0  0  0  0  0  0  0  0  0  # atno 17371 bound_to 10713
  140.8677  134.2764  157.5205 LP  0  0  0  0  0  0  0  0  0  0  0  0  # atno 17394 bound_to 11000
  139.8707  134.9551  156.4196 LP  0  0  0  0  0  0  0  0  0  0  0  0  # atno 17395 bound_to 11000

$$$$
