#       Name:                AV-unprocessed.smi:2655
#       Creating user name   scv26
#       Creation time:       Fri Mar 27 14:31:44 2020


#       File generated by GOLD software.
#

@<TRIPOS>MOLECULE
AV-unprocessed.smi:2655
    41    42     1
SMALL
NO_CHARGES


@<TRIPOS>ATOM
      1 ****        -2.0634   3.3165  -1.0581 C.3            1 S1                 0.0000
      2 ****        -2.1364   3.5466   0.4364 C.2            1 S1                 0.0000
      3 ****        -2.5459   4.7524   0.9447 N.pl3          1 S1                 0.0000
      4 ****        -2.5275   4.6958   2.3311 N.pl3          1 S1                -1.0000
      5 ****        -2.1005   3.4479   2.6500 C.2            1 S1                 0.0000
      6 ****        -1.9427   2.9836   3.7778 O.2            1 S1                 0.0000
      7 ****        -1.8437   2.7116   1.4316 C.2            1 S1                 0.0000
      8 ****        -1.3708   1.2716   1.3633 C.3            1 S1                 0.0000
      9 ****         0.1310   1.1422   1.6641 C.3            1 S1                 0.0000
     10 ****         0.5766  -0.2433   1.5772 N.am           1 S1                 0.0000
     11 ****         0.8884  -0.8805   0.4396 C.2            1 S1                 0.0000
     12 ****         0.8278  -0.3536  -0.6715 O.2            1 S1                 0.0000
     13 ****         1.2653  -2.1476   0.6803 N.am           1 S1                 0.0000
     14 ****         1.6864  -3.1337  -0.2490 C.2            1 S1                 0.0000
     15 ****         1.8081  -2.9676  -1.6595 C.2            1 S1                 0.0000
     16 ****         2.2469  -4.1926  -2.0755 C.2            1 S1                 0.0000
     17 ****         2.5885  -4.7453  -3.4167 C.3            1 S1                 0.0000
     18 ****         2.3803  -5.0336  -1.0150 O.3            1 S1                 0.0000
     19 ****         2.0202  -4.3472   0.1505 N.2            1 S1                 0.0000
     20 ****        -1.0500   3.0365  -1.3467 H              1 S1                 0.0000
     21 ****        -2.3412   4.2164  -1.6076 H              1 S1                 0.0000
     22 ****        -2.7398   2.5129  -1.3496 H              1 S1                 0.0000
     23 ****        -1.5880   0.8797   0.3692 H              1 S1                 0.0000
     24 ****        -1.9532   0.6738   2.0657 H              1 S1                 0.0000
     25 ****         0.7119   1.7675   0.9838 H              1 S1                 0.0000
     26 ****         0.3428   1.5018   2.6714 H              1 S1                 0.0000
     27 ****         0.6529  -0.7506   2.4467 H              1 S1                 0.0000
     28 ****         1.2553  -2.4414   1.6459 H              1 S1                 0.0000
     29 ****         1.6132  -2.1046  -2.2779 H              1 S1                 0.0000
     30 ****         2.6452  -3.9515  -4.1617 H              1 S1                 0.0000
     31 ****         1.8346  -5.4620  -3.7425 H              1 S1                 0.0000
     32 ****         3.5521  -5.2544  -3.3920 H              1 S1                 0.0000
     33 ****        -2.8251   5.5514   0.3936 H              1 S1                 0.0000
     34 ****        -2.7781   5.4264   2.9663 LP             1 S1                 0.0000
     35 ****        -2.1362   3.5461   4.5817 LP             1 S1                 0.0000
     36 ****        -1.6209   2.0436   3.8910 LP             1 S1                 0.0000
     37 ****         0.5337   0.5983  -0.7581 LP             1 S1                 0.0000
     38 ****         1.0727  -0.8774  -1.4873 LP             1 S1                 0.0000
     39 ****         3.3298  -5.3395  -0.9455 LP             1 S1                 0.0000
     40 ****         1.7829  -5.8261  -1.1369 LP             1 S1                 0.0000
     41 ****         2.0165  -4.7004   1.0860 LP             1 S1                 0.0000
@<TRIPOS>BOND
    1    1   20 1     
    2    1   21 1     
    3    1   22 1     
    4    1    2 1     
    5    2    7 2     
    6    2    3 1     
    7    3    4 1     
    8    3   33 1     
    9    4    5 1     
   10    5    7 1     
   11    5    6 2     
   12    7    8 1     
   13    8    9 1     
   14    8   23 1     
   15    8   24 1     
   16    9   10 1     
   17    9   25 1     
   18    9   26 1     
   19   10   11 am    
   20   10   27 1     
   21   11   12 2     
   22   11   13 am    
   23   13   14 1     
   24   13   28 1     
   25   14   19 2     
   26   14   15 1     
   27   15   16 2     
   28   15   29 1     
   29   16   17 1     
   30   16   18 1     
   31   17   30 1     
   32   17   31 1     
   33   17   32 1     
   34   18   19 1     
   35    4   34 1     
   36    6   35 1     
   37    6   36 1     
   38   12   37 1     
   39   12   38 1     
   40   18   39 1     
   41   18   40 1     
   42   19   41 1     
@<TRIPOS>SUBSTRUCTURE
      1 S1             1
@<TRIPOS>SET
LONE_PAIRS      STATIC     ATOMS    <user>   **** ""
8 34 35 36 37 38 39 40 41
DONOR_HYDROGENS      STATIC     ATOMS    <user>   **** ""
3 33 27 28
ATOM$BLUE        STATIC     ATOMS    COLORGROUP SYSTEM
8 34 35 36 37 38 39 40 41
ATOM$RED        STATIC     ATOMS    COLORGROUP SYSTEM
3 33 27 28
