AV-unprocessed.smi:72|AV-procd|sdf|679|dock5
  -GOLD-   2262016593D 1   1.00000     0.00000
 Structure written by MMmdl.
 29 30  0  0  0  0  0  0  0  0  1 V2000
  150.2397  143.5799  157.9456 N   0  0  0  0  0  0  0  0  0  0  0  0
  150.5250  142.5151  157.2860 C   0  0  0  0  0  0  0  0  0  0  0  0
  151.3606  141.4814  157.7350 N   0  0  0  0  0  0  0  0  0  0  0  0
  151.5486  140.4553  156.9632 C   0  0  0  0  0  0  0  0  0  0  0  0
  150.9146  140.3398  155.6588 N   0  0  0  0  0  0  0  0  0  0  0  0
  151.1544  139.1391  154.7720 C   0  0  2  0  0  0  0  0  0  0  0  0
  149.9398  138.4796  154.5535 O   0  0  0  0  0  0  0  0  0  0  0  0
  150.0992  137.0922  154.8215 C   0  0  2  0  0  0  0  0  0  0  0  0
  148.7496  136.4400  155.1720 C   0  0  0  0  0  0  0  0  0  0  0  0
  147.8301  136.5054  154.1012 O   0  0  0  0  0  0  0  0  0  0  0  0
  151.2029  137.0250  155.8791 C   0  0  1  0  0  0  0  0  0  0  0  0
  151.8411  135.7630  155.9338 O   0  0  0  0  0  0  0  0  0  0  0  0
  152.1309  138.1569  155.4465 C   0  0  1  0  0  0  0  0  0  0  0  0
  153.1270  137.7334  154.5337 O   0  0  0  0  0  0  0  0  0  0  0  0
  150.0965  141.3904  155.1767 C   0  0  0  0  0  0  0  0  0  0  0  0
  149.5757  141.3656  154.0619 O   0  0  0  0  0  0  0  0  0  0  0  0
  149.9296  142.4317  156.0206 N   0  0  0  0  0  0  0  0  0  0  0  0
  151.5115  139.5288  153.8171 H   0  0  0  0  0  0  0  0  0  0  0  0
  150.4689  136.6464  153.8960 H   0  0  0  0  0  0  0  0  0  0  0  0
  150.8041  137.2622  156.8657 H   0  0  0  0  0  0  0  0  0  0  0  0
  152.6274  138.6190  156.3011 H   0  0  0  0  0  0  0  0  0  0  0  0
  149.6215  144.1674  157.4041 H   0  0  0  0  0  0  0  0  0  0  0  0
  152.1931  139.6207  157.2406 H   0  0  0  0  0  0  0  0  0  0  0  0
  148.8920  135.4006  155.4687 H   0  0  0  0  0  0  0  0  0  0  0  0
  148.3049  136.9564  156.0230 H   0  0  0  0  0  0  0  0  0  0  0  0
  148.3154  136.5556  153.2918 H   0  0  0  0  0  0  0  0  0  0  0  0
  151.2100  135.0983  155.7046 H   0  0  0  0  0  0  0  0  0  0  0  0
  153.9692  137.7979  154.9577 H   0  0  0  0  0  0  0  0  0  0  0  0
  149.3462  143.1961  155.7125 H   0  0  0  0  0  0  0  0  0  0  0  0
  1  2  2  0  0  0  0
  1 22  1  0  0  0  0
  2 17  1  0  0  0  0
  2  3  1  0  0  0  0
  3  4  2  0  0  0  0
  4  5  1  0  0  0  0
  4 23  1  0  0  0  0
  5  6  1  0  0  0  0
  5 15  1  0  0  0  0
  6 18  1  0  0  0  0
  6 13  1  0  0  0  0
  6  7  1  0  0  0  0
  7  8  1  0  0  0  0
  8 19  1  0  0  0  0
  8  9  1  0  0  0  0
  8 11  1  0  0  0  0
  9 10  1  0  0  0  0
  9 24  1  0  0  0  0
  9 25  1  0  0  0  0
 10 26  1  0  0  0  0
 11 20  1  0  0  0  0
 11 12  1  0  0  0  0
 11 13  1  0  0  0  0
 12 27  1  0  0  0  0
 13 21  1  0  0  0  0
 13 14  1  0  0  0  0
 14 28  1  0  0  0  0
 15 16  2  0  0  0  0
 15 17  1  0  0  0  0
 17 29  1  0  0  0  0
M  END
> <s_m_source_file>
AV-unprocessed.smi

> <i_m_source_file_index>
72

> <i_lp_mmshare_version>
43012

> <i_f3d_flags>
0

> <s_epik_input>
W05IMl1jMW5bY0hdbihjKD1PKW4xKVtDQEBIXTJPW0NASF0oW0NIMl1bT0hdKVtDQEBIXShbT0hdKVtDQEhdMltPSF0=

> <s_epik_cmdline>
J2VwaWtfcHl0aG9uJywgJy1waCcsICc3LjAnLCAnLXRuJywgJzgnLCAnLW1hJywgJzIwMCcsICctbWV0YWxfYmluZGluZycsICctaW1hZScsICc8aW5maWxlLm1hZT4nLCAnLW9tYWUnLCAnPG91dGZpbGUubWFlPic=

> <r_lp_tautomer_probability>
7.17554e-07

> <r_epik_Ionization_Penalty>
0.0066451

> <r_epik_Ionization_Penalty_Charging>
0.00663793

> <r_epik_Ionization_Penalty_Neutral>
7.17052e-06

> <r_epik_State_Penalty>
0.419231

> <r_epik_Charging_Adjusted_Penalty>
0.425868

> <i_epik_Tot_Q>
0

> <i_epik_Tot_abs_Q>
0

> <r_epik_Metal_State_Penalty>
1.44144

> <b_epik_Metal_Only>
0

> <s_epik_Chemistry_Notes>
This compound contains an acetal/aminal-like group ( X-CH(R)-Y where X, Y are N, S, or O) that may be acid/base labile, releasing an aldehyde.

> <s_lp_Force_Field>
OPLS_2005

> <r_lp_Energy>
43.5106

> <b_lp_Chiralities_Consistent>
1

> <s_lp_Variant>
AV-unprocessed.smi:72-17

> <Gold.Version>
5.8.1

> <Gold.Id.Protein>
6NUR|6NUR_protein|mol2

> <Gold.PLP.Fitness>
39.5014

> <Gold.PLP.PLP>
-25.7127

> <Gold.PLP.part.hbond>
-7.0000

> <Gold.PLP.part.metal>
0.0000

> <Gold.PLP.part.buried>
-2.3128

> <Gold.PLP.part.nonpolar>
-16.5658

> <Gold.PLP.part.repulsive>
0.5043

> <Gold.PLP.ligand.clash>
0.0000

> <Gold.PLP.ligand.torsion>
0.0185

> <Gold.PLP.Chemscore.Hbond>
4.6062

> <Gold.PLP.Chemscore.CHOScore>
0.0000

> <Gold.PLP.Chemscore.Metal>
0.0000

> <Gold.Chemscore.Hbonds>
donor molecule, donor type, donor heavy atom, donor atom, acceptor molecule, acceptor atom, score
      L1  H     1    22       P1  8028  1.00
      L1  H    10    26       P1  7948  1.00
      L1  H    17    29       P1  8028  1.00
      P1  H  7989  7998       L1    16  0.02
      P1  H  8011  8017       L1    16  0.70
      P1  H 10752 10764       L1    12  1.00

> <Gold.PLP.Chemscore.Internal.Correction>
0.0071

> <Gold.Rescore>
     Score         DG    S(hbond)    S(metal)    S(lipo)     H(rot)  DE(clash)    DE(int)     intcor
      9.33     -11.00       4.11        0.00      18.68       4.06       0.56       1.11       ----

> <Gold.Chemscore.Fitness>
9.3305

> <Gold.Chemscore.DG>
-10.9976

> <Gold.Chemscore.ZeroCoef>
-5.4800

> <Gold.Chemscore.Hbond>
4.1096

> <Gold.Chemscore.Metal>
0.0000

> <Gold.Chemscore.Lipo>
18.6772

> <Gold.Chemscore.Internal_Hbond>
0.0000

> <Gold.Chemscore.DEClash>
0.5603

> <Gold.Chemscore.DEInternal>
1.1068

> <Gold.Chemscore.Rot>
4.0600

> <Gold.Chemscore.Internal.Correction>
   9.000000E+99

> <Gold.Chemscore.Hbonds>
donor molecule, donor type, donor heavy atom, donor atom, acceptor molecule, acceptor atom, score
      L1  H     1    22       P1  8028  0.28
      L1  H    10    26       P1  7948  0.98
      L1  H    17    29       P1  8028  0.96
      P1  H  8011  8017       L1    16  0.66
      P1  H 10752 10764       L1    12  0.37

> <Gold.Chemscore.Hbond.Weighted>
-13.7260

> <Gold.Chemscore.Metal.Weighted>
-0.0000

> <Gold.Chemscore.Lipo.Weighted>
-2.1852

> <Gold.Chemscore.Internal_Hbond.Weighted>
0.0000

> <Gold.Chemscore.DEClash.Weighted>
0.5603

> <Gold.Chemscore.DEInternal.Weighted>
1.1068

> <Gold.Chemscore.Rot.Weighted>
10.3936

> <Gold.Chemscore.Internal.Correction.Weighted>
   9.000000E+99

> <Gold.Protein.RotatedTorsions>
[ 6907 6896 6895 6894 ] final -160.36 input  -60.11 | X-H torsion
[ 7974 7965 7964 7962 ] final -132.53 input  175.53 | X-H torsion
[ 8008 7997 7996 7995 ] final -123.08 input   59.86 | X-H torsion
[ 10167 10162 10161 10158 ] final   83.00 input  -65.29 | X-H torsion
[ 10718 10713 10712 10709 ] final -118.61 input   66.30 | X-H torsion
[ 10763 10752 10751 10750 ] final  -42.87 input  -60.55 | X-H torsion
[ 11005 11000 10999 10996 ] final  101.50 input  -57.11 | X-H torsion

> <Gold.Protein.ActiveResidues>
 VAL166  LYS551  ARG553  GLY616  TRP617  ASP618  TYR619  PRO620  LYS621  CYS622 
 ASP623  PHE694  ASN695  SER759  ASP760  ASP761  ALA762  ILE779  LEU786  VAL792 
 PHE793  MET794  SER795  GLU796  ALA797  LYS798  CYS799  TRP800  GLU811  SER814 

> <Gold.Protein.RotatedAtoms>
  151.3479  133.3937  159.2677 H   0  0  0  0  0  0  0  0  0  0  0  0  # atno 6907 bound_to 6896
  150.9825  134.9178  159.7863 H   0  0  0  0  0  0  0  0  0  0  0  0  # atno 6908 bound_to 6896
  152.5221  134.3443  159.9280 H   0  0  0  0  0  0  0  0  0  0  0  0  # atno 6909 bound_to 6896
  144.9277  140.7091  143.4925 H   0  0  0  0  0  0  0  0  0  0  0  0  # atno 7974 bound_to 7965
  155.1748  140.0409  157.2870 H   0  0  0  0  0  0  0  0  0  0  0  0  # atno 8008 bound_to 7997
  154.6244  140.2509  155.7482 H   0  0  0  0  0  0  0  0  0  0  0  0  # atno 8009 bound_to 7997
  156.2451  140.2888  156.0568 H   0  0  0  0  0  0  0  0  0  0  0  0  # atno 8010 bound_to 7997
  139.9229  144.6201  150.8421 H   0  0  0  0  0  0  0  0  0  0  0  0  # atno 10167 bound_to 10162
  156.1119  130.6255  150.9313 H   0  0  0  0  0  0  0  0  0  0  0  0  # atno 10718 bound_to 10713
  153.9863  135.6711  153.4752 H   0  0  0  0  0  0  0  0  0  0  0  0  # atno 10763 bound_to 10752
  153.0725  135.4966  154.8332 H   0  0  0  0  0  0  0  0  0  0  0  0  # atno 10764 bound_to 10752
  154.7135  135.3102  154.9121 H   0  0  0  0  0  0  0  0  0  0  0  0  # atno 10765 bound_to 10752
  139.8773  134.9185  156.4916 H   0  0  0  0  0  0  0  0  0  0  0  0  # atno 11005 bound_to 11000
  145.3192  139.1793  143.4597 LP  0  0  0  0  0  0  0  0  0  0  0  0  # atno 17320 bound_to 7965
  146.3233  140.3208  142.8633 LP  0  0  0  0  0  0  0  0  0  0  0  0  # atno 17321 bound_to 7965
  140.7657  143.3284  151.2465 LP  0  0  0  0  0  0  0  0  0  0  0  0  # atno 17342 bound_to 10162
  139.6846  143.9796  152.2827 LP  0  0  0  0  0  0  0  0  0  0  0  0  # atno 17343 bound_to 10162
  157.6301  131.0922  150.8458 LP  0  0  0  0  0  0  0  0  0  0  0  0  # atno 17370 bound_to 10713
  156.8568  130.5099  149.5307 LP  0  0  0  0  0  0  0  0  0  0  0  0  # atno 17371 bound_to 10713
  140.8654  133.8028  155.9309 LP  0  0  0  0  0  0  0  0  0  0  0  0  # atno 17394 bound_to 11000
  140.9007  134.2382  157.5043 LP  0  0  0  0  0  0  0  0  0  0  0  0  # atno 17395 bound_to 11000

$$$$
