#       Name:                AV-unprocessed.smi:2025
#       Creating user name   scv26
#       Creation time:       Fri Mar 27 10:45:26 2020


#       File generated by GOLD software.
#

@<TRIPOS>MOLECULE
AV-unprocessed.smi:2025
    47    48     1
SMALL
NO_CHARGES


@<TRIPOS>ATOM
      1 ****        -2.3986  -1.9142  -1.6851 C.3            1 S1                 0.0000
      2 ****        -1.9189  -1.1710  -0.4288 C.3            1 S1                 0.0000
      3 ****        -0.4578  -1.1882  -0.4081 N.am           1 S1                 0.0000
      4 ****         0.3313  -0.1637  -0.0493 C.2            1 S1                 0.0000
      5 ****        -0.1019   0.9301   0.3157 O.2            1 S1                 0.0000
      6 ****         1.8414  -0.4339  -0.0863 C.3            1 S1                 0.0000
      7 ****         2.6381   0.7879  -0.2588 N.am           1 S1                 0.0000
      8 ****         3.1903   1.4058   0.8487 C.2            1 S1                 0.0000
      9 ****         3.9205   2.5401   0.7822 C.2            1 S1                 0.0000
     10 ****         4.1749   3.1896  -0.4975 C.2            1 S1                 0.0000
     11 ****         4.8271   4.2284  -0.6129 O.2            1 S1                 0.0000
     12 ****         3.6069   2.5348  -1.6142 N.am           1 S1                 0.0000
     13 ****         3.8354   3.1482  -2.9059 C.3            1 S1                 0.0000
     14 ****         2.8331   1.3530  -1.5381 C.2            1 S1                 0.0000
     15 ****         2.3360   0.8226  -2.5344 O.2            1 S1                 0.0000
     16 ****        -2.4712  -1.7943   0.8706 C.3            1 S1                 0.0000
     17 ****        -3.9963  -1.7739   0.9866 C.3            1 S1                 0.0000
     18 ****        -4.1935  -1.8522   2.4828 C.3            1 S1                 0.0000
     19 ****        -3.0520  -0.9793   2.9932 C.3            1 S1                 0.0000
     20 ****        -2.0208  -1.0682   2.0137 O.3            1 S1                 0.0000
     21 ****        -3.4841  -1.8797  -1.7779 H              1 S1                 0.0000
     22 ****        -2.0988  -2.9625  -1.6661 H              1 S1                 0.0000
     23 ****        -1.9831  -1.4651  -2.5878 H              1 S1                 0.0000
     24 ****        -2.2730  -0.1410  -0.5011 H              1 S1                 0.0000
     25 ****        -0.0119  -2.0508  -0.6840 H              1 S1                 0.0000
     26 ****         2.1192  -0.9298   0.8448 H              1 S1                 0.0000
     27 ****         2.0716  -1.1480  -0.8791 H              1 S1                 0.0000
     28 ****         3.0255   0.9631   1.8204 H              1 S1                 0.0000
     29 ****         4.3199   2.9734   1.6875 H              1 S1                 0.0000
     30 ****         3.4848   2.5091  -3.7156 H              1 S1                 0.0000
     31 ****         4.9109   3.3000  -3.0135 H              1 S1                 0.0000
     32 ****         3.2963   4.0969  -2.9084 H              1 S1                 0.0000
     33 ****        -2.1204  -2.8225   0.9751 H              1 S1                 0.0000
     34 ****        -4.3993  -0.8337   0.6069 H              1 S1                 0.0000
     35 ****        -4.4758  -2.5939   0.4515 H              1 S1                 0.0000
     36 ****        -5.1746  -1.5044   2.8072 H              1 S1                 0.0000
     37 ****        -4.0634  -2.8802   2.8237 H              1 S1                 0.0000
     38 ****        -3.3692   0.0615   3.0659 H              1 S1                 0.0000
     39 ****        -2.6968  -1.2943   3.9746 H              1 S1                 0.0000
     40 ****        -1.0884   1.0891   0.3557 LP             1 S1                 0.0000
     41 ****         0.5328   1.6590   0.5721 LP             1 S1                 0.0000
     42 ****         5.2129   4.6692   0.1976 LP             1 S1                 0.0000
     43 ****         4.9706   4.6309  -1.5170 LP             1 S1                 0.0000
     44 ****         1.7922  -0.0111  -2.4382 LP             1 S1                 0.0000
     45 ****         2.4766   1.2263  -3.4384 LP             1 S1                 0.0000
     46 ****        -1.7547  -0.1461   1.7329 LP             1 S1                 0.0000
     47 ****        -1.2313  -1.5368   2.4100 LP             1 S1                 0.0000
@<TRIPOS>BOND
    1    1    2 1     
    2    1   21 1     
    3    1   22 1     
    4    1   23 1     
    5    2    3 1     
    6    2   16 1     
    7    2   24 1     
    8    3    4 am    
    9    3   25 1     
   10    4    5 2     
   11    4    6 1     
   12    6    7 1     
   13    6   26 1     
   14    6   27 1     
   15    7   14 am    
   16    7    8 1     
   17    8    9 2     
   18    8   28 1     
   19    9   10 1     
   20    9   29 1     
   21   10   11 2     
   22   10   12 am    
   23   12   13 1     
   24   12   14 am    
   25   13   30 1     
   26   13   31 1     
   27   13   32 1     
   28   14   15 2     
   29   16   20 1     
   30   16   17 1     
   31   16   33 1     
   32   17   18 1     
   33   17   34 1     
   34   17   35 1     
   35   18   19 1     
   36   18   36 1     
   37   18   37 1     
   38   19   20 1     
   39   19   38 1     
   40   19   39 1     
   41    5   40 1     
   42    5   41 1     
   43   11   42 1     
   44   11   43 1     
   45   15   44 1     
   46   15   45 1     
   47   20   46 1     
   48   20   47 1     
@<TRIPOS>SUBSTRUCTURE
      1 S1             1
@<TRIPOS>SET
LONE_PAIRS      STATIC     ATOMS    <user>   **** ""
8 40 41 42 43 44 45 46 47
DONOR_HYDROGENS      STATIC     ATOMS    <user>   **** ""
1 25
ATOM$BLUE        STATIC     ATOMS    COLORGROUP SYSTEM
8 40 41 42 43 44 45 46 47
ATOM$RED        STATIC     ATOMS    COLORGROUP SYSTEM
1 25
