AV-unprocessed.smi:1977|AV-procd|sdf|7991|dock5
  -GOLD-   2272010173D 1   1.00000     0.00000
 Structure written by MMmdl.
 45 46  0  0  0  0  0  0  0  0  1 V2000
  158.8975  142.0959  157.9858 C   0  0  0  0  0  0  0  0  0  0  0  0
  159.7793  142.0395  159.2454 C   0  0  0  0  0  0  0  0  0  0  0  0
  161.2672  142.0514  158.8661 C   0  0  0  0  0  0  0  0  0  0  0  0
  159.4535  140.8225  160.1373 C   0  0  0  0  0  0  0  0  0  0  0  0
  158.0430  140.7563  160.5056 N   0  0  0  0  0  0  0  0  0  0  0  0
  157.0590  140.3218  159.7061 C   0  0  0  0  0  0  0  0  0  0  0  0
  157.2316  139.9229  158.5544 O   0  0  0  0  0  0  0  0  0  0  0  0
  155.8649  140.3814  160.3128 N   0  0  0  0  0  0  0  0  0  0  0  0
  154.5894  139.9812  159.7236 C   0  0  0  0  0  0  0  0  0  0  0  0
  153.5980  141.1314  159.5297 C   0  0  0  0  0  0  0  0  0  0  0  0
  153.6222  142.2470  160.3991 C   0  0  0  0  0  0  0  0  0  0  0  0
  152.7286  143.3117  160.1877 C   0  0  0  0  0  0  0  0  0  0  0  0
  151.8396  143.2285  159.1026 C   0  0  0  0  0  0  0  0  0  0  0  0
  151.8061  142.1789  158.2576 N   0  0  0  0  0  0  0  0  0  0  0  0
  152.6652  141.1490  158.4558 C   0  0  0  0  0  0  0  0  0  0  0  0
  152.5803  140.0666  157.5618 N   0  0  0  0  0  0  0  0  0  0  0  0
  151.8182  140.2898  156.3372 C   0  0  0  0  0  0  0  0  0  0  0  0
  151.9762  139.0830  155.3965 C   0  0  0  0  0  0  0  0  0  0  0  0
  151.5750  137.8949  156.0738 O   0  0  0  0  0  0  0  0  0  0  0  0
  152.3669  137.6450  157.2321 C   0  0  0  0  0  0  0  0  0  0  0  0
  152.2238  138.8159  158.2199 C   0  0  0  0  0  0  0  0  0  0  0  0
  159.0273  141.2039  157.3724 H   0  0  0  0  0  0  0  0  0  0  0  0
  159.1484  142.9606  157.3709 H   0  0  0  0  0  0  0  0  0  0  0  0
  157.8401  142.1762  158.2388 H   0  0  0  0  0  0  0  0  0  0  0  0
  159.5878  142.9448  159.8231 H   0  0  0  0  0  0  0  0  0  0  0  0
  161.5341  141.1714  158.2801 H   0  0  0  0  0  0  0  0  0  0  0  0
  161.8993  142.0641  159.7545 H   0  0  0  0  0  0  0  0  0  0  0  0
  161.5154  142.9333  158.2748 H   0  0  0  0  0  0  0  0  0  0  0  0
  159.7075  139.9002  159.6137 H   0  0  0  0  0  0  0  0  0  0  0  0
  160.0657  140.8382  161.0408 H   0  0  0  0  0  0  0  0  0  0  0  0
  157.8012  141.0644  161.4361 H   0  0  0  0  0  0  0  0  0  0  0  0
  155.8339  140.7281  161.2604 H   0  0  0  0  0  0  0  0  0  0  0  0
  154.7394  139.4940  158.7590 H   0  0  0  0  0  0  0  0  0  0  0  0
  154.1800  139.2151  160.3796 H   0  0  0  0  0  0  0  0  0  0  0  0
  154.3212  142.3018  161.2199 H   0  0  0  0  0  0  0  0  0  0  0  0
  152.7289  144.1732  160.8390 H   0  0  0  0  0  0  0  0  0  0  0  0
  151.1385  144.0261  158.9059 H   0  0  0  0  0  0  0  0  0  0  0  0
  150.7629  140.4300  156.5761 H   0  0  0  0  0  0  0  0  0  0  0  0
  152.1651  141.1994  155.8457 H   0  0  0  0  0  0  0  0  0  0  0  0
  151.3562  139.2133  154.5096 H   0  0  0  0  0  0  0  0  0  0  0  0
  153.0080  138.9879  155.0542 H   0  0  0  0  0  0  0  0  0  0  0  0
  152.0343  136.7172  157.6975 H   0  0  0  0  0  0  0  0  0  0  0  0
  153.4107  137.5036  156.9474 H   0  0  0  0  0  0  0  0  0  0  0  0
  152.8559  138.6484  159.0924 H   0  0  0  0  0  0  0  0  0  0  0  0
  151.1954  138.8788  158.5790 H   0  0  0  0  0  0  0  0  0  0  0  0
  1  2  1  0  0  0  0
  1 22  1  0  0  0  0
  1 23  1  0  0  0  0
  1 24  1  0  0  0  0
  2  3  1  0  0  0  0
  2  4  1  0  0  0  0
  2 25  1  0  0  0  0
  3 26  1  0  0  0  0
  3 27  1  0  0  0  0
  3 28  1  0  0  0  0
  4  5  1  0  0  0  0
  4 29  1  0  0  0  0
  4 30  1  0  0  0  0
  5  6  1  0  0  0  0
  5 31  1  0  0  0  0
  6  7  2  0  0  0  0
  6  8  1  0  0  0  0
  8  9  1  0  0  0  0
  8 32  1  0  0  0  0
  9 10  1  0  0  0  0
  9 33  1  0  0  0  0
  9 34  1  0  0  0  0
 10 15  1  0  0  0  0
 10 11  2  0  0  0  0
 11 12  1  0  0  0  0
 11 35  1  0  0  0  0
 12 13  2  0  0  0  0
 12 36  1  0  0  0  0
 13 14  1  0  0  0  0
 13 37  1  0  0  0  0
 14 15  2  0  0  0  0
 15 16  1  0  0  0  0
 16 21  1  0  0  0  0
 16 17  1  0  0  0  0
 17 18  1  0  0  0  0
 17 38  1  0  0  0  0
 17 39  1  0  0  0  0
 18 19  1  0  0  0  0
 18 40  1  0  0  0  0
 18 41  1  0  0  0  0
 19 20  1  0  0  0  0
 20 21  1  0  0  0  0
 20 42  1  0  0  0  0
 20 43  1  0  0  0  0
 21 44  1  0  0  0  0
 21 45  1  0  0  0  0
M  END
> <s_m_source_file>
AV-unprocessed.smi

> <i_m_source_file_index>
1977

> <i_lp_mmshare_version>
43012

> <i_f3d_flags>
0

> <s_epik_input>
W0NIM11bQ0hdKFtDSDNdKVtDSDJdW05IXUMoPU8pW05IXVtDSDJdYzFbY0hdW2NIXVtjSF1uYzFOMltDSDJdW0NIMl1PW0NIMl1bQ0gyXTI=

> <s_epik_cmdline>
J2VwaWtfcHl0aG9uJywgJy1waCcsICc3LjAnLCAnLXRuJywgJzgnLCAnLW1hJywgJzIwMCcsICctbWV0YWxfYmluZGluZycsICctaW1hZScsICc8aW5maWxlLm1hZT4nLCAnLW9tYWUnLCAnPG91dGZpbGUubWFlPic=

> <r_lp_tautomer_probability>
1

> <r_epik_Ionization_Penalty>
0.00617532

> <r_epik_Ionization_Penalty_Charging>
0

> <r_epik_Ionization_Penalty_Neutral>
0.00617532

> <r_epik_State_Penalty>
0.00451205

> <r_epik_Charging_Adjusted_Penalty>
0.00451205

> <i_epik_Tot_Q>
0

> <i_epik_Tot_abs_Q>
0

> <r_epik_Metal_State_Penalty>
-0

> <b_epik_Metal_Only>
0

> <s_lp_Force_Field>
OPLS_2005

> <r_lp_Energy>
18.8779

> <b_lp_Chiralities_Consistent>
1

> <s_lp_Variant>
AV-unprocessed.smi:1977-1

> <Gold.Version>
5.8.1

> <Gold.Id.Protein>
6NUR|6NUR_protein|mol2

> <Gold.PLP.Fitness>
44.9474

> <Gold.PLP.PLP>
-40.4242

> <Gold.PLP.part.hbond>
-3.0638

> <Gold.PLP.part.metal>
0.0000

> <Gold.PLP.part.buried>
-6.2023

> <Gold.PLP.part.nonpolar>
-31.7203

> <Gold.PLP.part.repulsive>
0.1642

> <Gold.PLP.ligand.clash>
0.0000

> <Gold.PLP.ligand.torsion>
0.6803

> <Gold.PLP.Chemscore.Hbond>
1.9000

> <Gold.PLP.Chemscore.CHOScore>
0.0000

> <Gold.PLP.Chemscore.Metal>
0.0000

> <Gold.Chemscore.Hbonds>
donor molecule, donor type, donor heavy atom, donor atom, acceptor molecule, acceptor atom, score
      P1  H  7997  8008       L1     7  1.00
      P1  H  7997  8009       L1    16  0.95

> <Gold.PLP.Chemscore.Internal.Correction>
0.1837

> <Gold.Rescore>
     Score         DG    S(hbond)    S(metal)    S(lipo)     H(rot)  DE(clash)    DE(int)     intcor
     14.77     -16.87       1.01        0.00     107.18       1.77       0.05       2.04       ----

> <Gold.Chemscore.Fitness>
14.7717

> <Gold.Chemscore.DG>
-16.8684

> <Gold.Chemscore.ZeroCoef>
-5.4800

> <Gold.Chemscore.Hbond>
1.0089

> <Gold.Chemscore.Metal>
0.0000

> <Gold.Chemscore.Lipo>
107.1800

> <Gold.Chemscore.Internal_Hbond>
0.0000

> <Gold.Chemscore.DEClash>
0.0536

> <Gold.Chemscore.DEInternal>
2.0430

> <Gold.Chemscore.Rot>
1.7662

> <Gold.Chemscore.Internal.Correction>
   9.000000E+99

> <Gold.Chemscore.Hbonds>
donor molecule, donor type, donor heavy atom, donor atom, acceptor molecule, acceptor atom, score
      P1  H  7997  8008       L1     7  0.96
      P1  H  7997  8009       L1    16  0.05

> <Gold.Chemscore.Hbond.Weighted>
-3.3697

> <Gold.Chemscore.Metal.Weighted>
-0.0000

> <Gold.Chemscore.Lipo.Weighted>
-12.5401

> <Gold.Chemscore.Internal_Hbond.Weighted>
0.0000

> <Gold.Chemscore.DEClash.Weighted>
0.0536

> <Gold.Chemscore.DEInternal.Weighted>
2.0430

> <Gold.Chemscore.Rot.Weighted>
4.5214

> <Gold.Chemscore.Internal.Correction.Weighted>
   9.000000E+99

> <Gold.Protein.RotatedTorsions>
[ 6907 6896 6895 6894 ] final   53.84 input  -60.11 | X-H torsion
[ 7974 7965 7964 7962 ] final  142.49 input  175.53 | X-H torsion
[ 8008 7997 7996 7995 ] final  171.12 input   59.86 | X-H torsion
[ 10167 10162 10161 10158 ] final  -94.83 input  -65.29 | X-H torsion
[ 10718 10713 10712 10709 ] final   28.07 input   66.30 | X-H torsion
[ 10763 10752 10751 10750 ] final  170.88 input  -60.55 | X-H torsion
[ 11005 11000 10999 10996 ] final  171.33 input  -57.11 | X-H torsion

> <Gold.Protein.ActiveResidues>
 VAL166  LYS551  ARG553  GLY616  TRP617  ASP618  TYR619  PRO620  LYS621  CYS622 
 ASP623  PHE694  ASN695  SER759  ASP760  ASP761  ALA762  ILE779  LEU786  VAL792 
 PHE793  MET794  SER795  GLU796  ALA797  LYS798  CYS799  TRP800  GLU811  SER814 

> <Gold.Protein.RotatedAtoms>
  152.3378  134.7175  160.0271 H   0  0  0  0  0  0  0  0  0  0  0  0  # atno 6907 bound_to 6896
  151.7570  133.3325  159.3415 H   0  0  0  0  0  0  0  0  0  0  0  0  # atno 6908 bound_to 6896
  150.7461  134.6073  159.6112 H   0  0  0  0  0  0  0  0  0  0  0  0  # atno 6909 bound_to 6896
  144.9003  139.5432  143.5757 H   0  0  0  0  0  0  0  0  0  0  0  0  # atno 7974 bound_to 7965
  156.1301  140.1520  156.9078 H   0  0  0  0  0  0  0  0  0  0  0  0  # atno 8008 bound_to 7997
  154.4902  140.0853  156.7617 H   0  0  0  0  0  0  0  0  0  0  0  0  # atno 8009 bound_to 7997
  155.4272  140.3425  155.4279 H   0  0  0  0  0  0  0  0  0  0  0  0  # atno 8010 bound_to 7997
  140.3104  143.3108  152.0154 H   0  0  0  0  0  0  0  0  0  0  0  0  # atno 10167 bound_to 10162
  157.2286  130.7013  149.6303 H   0  0  0  0  0  0  0  0  0  0  0  0  # atno 10718 bound_to 10713
  154.4040  135.2755  155.2079 H   0  0  0  0  0  0  0  0  0  0  0  0  # atno 10763 bound_to 10752
  154.4093  135.6026  153.5946 H   0  0  0  0  0  0  0  0  0  0  0  0  # atno 10764 bound_to 10752
  152.9831  135.5945  154.4312 H   0  0  0  0  0  0  0  0  0  0  0  0  # atno 10765 bound_to 10752
  140.3179  134.7462  157.4041 H   0  0  0  0  0  0  0  0  0  0  0  0  # atno 11005 bound_to 11000
  146.3104  139.7727  142.9024 LP  0  0  0  0  0  0  0  0  0  0  0  0  # atno 17320 bound_to 7965
  145.3628  141.0329  143.3275 LP  0  0  0  0  0  0  0  0  0  0  0  0  # atno 17321 bound_to 7965
  139.4895  144.6389  151.6918 LP  0  0  0  0  0  0  0  0  0  0  0  0  # atno 17342 bound_to 10162
  140.5573  144.0327  150.6153 LP  0  0  0  0  0  0  0  0  0  0  0  0  # atno 17343 bound_to 10162
  155.9677  130.4496  150.5665 LP  0  0  0  0  0  0  0  0  0  0  0  0  # atno 17370 bound_to 10713
  157.3502  131.0732  151.1719 LP  0  0  0  0  0  0  0  0  0  0  0  0  # atno 17371 bound_to 10713
  140.0967  134.5527  155.8391 LP  0  0  0  0  0  0  0  0  0  0  0  0  # atno 17394 bound_to 11000
  141.2093  133.6683  156.6432 LP  0  0  0  0  0  0  0  0  0  0  0  0  # atno 17395 bound_to 11000

$$$$
