AV-unprocessed.smi:3161|AV-procd|sdf|12055|dock4
  -GOLD-   2272017483D 1   1.00000     0.00000
 Structure written by MMmdl.
 41 42  0  0  0  0  0  0  0  0  2 V2000
  153.2846  138.4946  154.2846 C   0  0  0  0  0  0  0  0  0  0  0  0
  151.8336  138.6085  154.6537 C   0  0  0  0  0  0  0  0  0  0  0  0
  150.7624  137.7608  154.2523 C   0  0  0  0  0  0  0  0  0  0  0  0
  149.5958  138.1355  154.7518 N   0  0  0  0  0  0  0  0  0  0  0  0
  149.8803  139.2299  155.4898 N   0  0  0  0  0  0  0  0  0  0  0  0
  148.8170  139.9229  156.1965 C   0  0  0  0  0  0  0  0  0  0  0  0
  148.5976  141.3551  155.6710 C   0  0  2  0  0  0  0  0  0  0  0  0
  148.6894  141.3915  154.1364 C   0  0  0  0  0  0  0  0  0  0  0  0
  149.5807  142.2798  156.2805 N   0  3  0  0  0  0  0  0  0  0  0  0
  149.7381  142.1633  157.7450 C   0  0  0  0  0  0  0  0  0  0  0  0
  150.3371  143.4477  158.3344 C   0  0  2  0  0  0  0  0  0  0  0  0
  151.8276  143.6038  157.9745 C   0  0  0  0  0  0  0  0  0  0  0  0
  152.4204  144.8434  158.6540 C   0  0  0  0  0  0  0  0  0  0  0  0
  152.1412  144.7907  160.1598 C   0  0  0  0  0  0  0  0  0  0  0  0
  150.6427  144.5664  160.4172 C   0  0  0  0  0  0  0  0  0  0  0  0
  150.2080  143.3831  159.7535 O   0  0  0  0  0  0  0  0  0  0  0  0
  151.2234  139.5385  155.4470 C   0  0  0  0  0  0  0  0  0  0  0  0
  153.5796  137.4574  154.1236 H   0  0  0  0  0  0  0  0  0  0  0  0
  153.9336  138.8938  155.0643 H   0  0  0  0  0  0  0  0  0  0  0  0
  153.5096  139.0396  153.3679 H   0  0  0  0  0  0  0  0  0  0  0  0
  150.7984  136.8896  153.6148 H   0  0  0  0  0  0  0  0  0  0  0  0
  147.8991  139.3369  156.1225 H   0  0  0  0  0  0  0  0  0  0  0  0
  149.0829  139.9491  157.2542 H   0  0  0  0  0  0  0  0  0  0  0  0
  147.5952  141.6698  155.9658 H   0  0  0  0  0  0  0  0  0  0  0  0
  147.9784  140.6980  153.6868 H   0  0  0  0  0  0  0  0  0  0  0  0
  149.6857  141.1119  153.7921 H   0  0  0  0  0  0  0  0  0  0  0  0
  148.4648  142.3814  153.7398 H   0  0  0  0  0  0  0  0  0  0  0  0
  150.4797  142.0792  155.8643 H   0  0  0  0  0  0  0  0  0  0  0  0
  148.7777  141.9490  158.2140 H   0  0  0  0  0  0  0  0  0  0  0  0
  150.3974  141.3213  157.9594 H   0  0  0  0  0  0  0  0  0  0  0  0
  149.7809  144.3077  157.9560 H   0  0  0  0  0  0  0  0  0  0  0  0
  152.3781  142.7171  158.2922 H   0  0  0  0  0  0  0  0  0  0  0  0
  151.9516  143.6781  156.8937 H   0  0  0  0  0  0  0  0  0  0  0  0
  153.4929  144.9043  158.4677 H   0  0  0  0  0  0  0  0  0  0  0  0
  151.9756  145.7441  158.2287 H   0  0  0  0  0  0  0  0  0  0  0  0
  152.7140  143.9798  160.6116 H   0  0  0  0  0  0  0  0  0  0  0  0
  152.4731  145.7128  160.6379 H   0  0  0  0  0  0  0  0  0  0  0  0
  150.4590  144.4583  161.4862 H   0  0  0  0  0  0  0  0  0  0  0  0
  150.0570  145.4224  160.0787 H   0  0  0  0  0  0  0  0  0  0  0  0
  151.6307  140.3859  155.9792 H   0  0  0  0  0  0  0  0  0  0  0  0
  149.3295  143.2300  156.0467 H   0  0  0  0  0  0  0  0  0  0  0  0
  1  2  1  0  0  0  0
  1 18  1  0  0  0  0
  1 19  1  0  0  0  0
  1 20  1  0  0  0  0
  2 17  2  0  0  0  0
  2  3  1  0  0  0  0
  3  4  2  0  0  0  0
  3 21  1  0  0  0  0
  4  5  1  0  0  0  0
  5  6  1  0  0  0  0
  5 17  1  0  0  0  0
  6  7  1  0  0  0  0
  6 22  1  0  0  0  0
  6 23  1  0  0  0  0
  7  8  1  0  0  0  0
  7  9  1  0  0  0  0
  7 24  1  0  0  0  0
  8 25  1  0  0  0  0
  8 26  1  0  0  0  0
  8 27  1  0  0  0  0
  9 10  1  0  0  0  0
  9 28  1  0  0  0  0
  9 41  1  0  0  0  0
 10 11  1  0  0  0  0
 10 29  1  0  0  0  0
 10 30  1  0  0  0  0
 11 16  1  0  0  0  0
 11 12  1  0  0  0  0
 11 31  1  0  0  0  0
 12 13  1  0  0  0  0
 12 32  1  0  0  0  0
 12 33  1  0  0  0  0
 13 14  1  0  0  0  0
 13 34  1  0  0  0  0
 13 35  1  0  0  0  0
 14 15  1  0  0  0  0
 14 36  1  0  0  0  0
 14 37  1  0  0  0  0
 15 16  1  0  0  0  0
 15 38  1  0  0  0  0
 15 39  1  0  0  0  0
 17 40  1  0  0  0  0
M  CHG  1   9   1
M  END
> <s_m_source_file>
AV-unprocessed.smi

> <i_m_source_file_index>
3161

> <i_lp_mmshare_version>
43012

> <i_f3d_flags>
0

> <s_epik_input>
W0NIM11jMVtjSF1ubihbY0hdMSlbQ0gyXVtDQEhdKFtDSDNdKVtOSF1bQ0gyXVtDQEBIXTJbQ0gyXVtDSDJdW0NIMl1bQ0gyXU8y

> <s_epik_cmdline>
J2VwaWtfcHl0aG9uJywgJy1waCcsICc3LjAnLCAnLXRuJywgJzgnLCAnLW1hJywgJzIwMCcsICctbWV0YWxfYmluZGluZycsICctaW1hZScsICc8aW5maWxlLm1hZT4nLCAnLW9tYWUnLCAnPG91dGZpbGUubWFlPic=

> <r_lp_tautomer_probability>
1

> <r_epik_Ionization_Penalty>
0.00849661

> <r_epik_Ionization_Penalty_Charging>
0.00848754

> <r_epik_Ionization_Penalty_Neutral>
9.06711e-06

> <r_epik_State_Penalty>
0.00639836

> <r_epik_Charging_Adjusted_Penalty>
0.0148859

> <i_epik_Tot_Q>
1

> <i_epik_Tot_abs_Q>
1

> <r_epik_Metal_State_Penalty>
0.00639921

> <b_epik_Metal_Only>
0

> <s_lp_Force_Field>
OPLS_2005

> <r_lp_Energy>
12.4461

> <b_lp_Chiralities_Consistent>
1

> <s_lp_Variant>
AV-unprocessed.smi:3161-1

> <Gold.Version>
5.8.1

> <Gold.Id.Protein>
6NUR|6NUR_protein|mol2

> <Gold.PLP.Fitness>
46.8462

> <Gold.PLP.PLP>
-38.5507

> <Gold.PLP.part.hbond>
-2.0000

> <Gold.PLP.part.metal>
0.0000

> <Gold.PLP.part.buried>
-4.1974

> <Gold.PLP.part.nonpolar>
-32.8847

> <Gold.PLP.part.repulsive>
0.3493

> <Gold.PLP.ligand.clash>
0.0000

> <Gold.PLP.ligand.torsion>
0.4537

> <Gold.PLP.Chemscore.Hbond>
2.0000

> <Gold.PLP.Chemscore.CHOScore>
1.0434

> <Gold.PLP.Chemscore.Metal>
0.0000

> <Gold.Chemscore.Hbonds>
donor molecule, donor type, donor heavy atom, donor atom, acceptor molecule, acceptor atom, score
      L1  H     9    41       P1  8028  2.00
      L1  C     3    21       P1  7948  0.22
      L1  C     3    21       P1  7949  0.81

> <Gold.PLP.Chemscore.Internal.Correction>
0.0726

> <Gold.Rescore>
     Score         DG    S(hbond)    S(metal)    S(lipo)     H(rot)  DE(clash)    DE(int)     intcor
     17.33     -17.86       1.00        0.00     111.80       1.57       0.13       0.40       ----

> <Gold.Chemscore.Fitness>
17.3338

> <Gold.Chemscore.DG>
-17.8625

> <Gold.Chemscore.ZeroCoef>
-5.4800

> <Gold.Chemscore.Hbond>
0.9955

> <Gold.Chemscore.Metal>
0.0000

> <Gold.Chemscore.Lipo>
111.7980

> <Gold.Chemscore.Internal_Hbond>
0.0000

> <Gold.Chemscore.DEClash>
0.1292

> <Gold.Chemscore.DEInternal>
0.3995

> <Gold.Chemscore.Rot>
1.5714

> <Gold.Chemscore.Internal.Correction>
   9.000000E+99

> <Gold.Chemscore.Hbonds>
donor molecule, donor type, donor heavy atom, donor atom, acceptor molecule, acceptor atom, score
      L1  H     9    41       P1  8028  0.99

> <Gold.Chemscore.Hbond.Weighted>
-3.3250

> <Gold.Chemscore.Metal.Weighted>
-0.0000

> <Gold.Chemscore.Lipo.Weighted>
-13.0804

> <Gold.Chemscore.Internal_Hbond.Weighted>
0.0000

> <Gold.Chemscore.DEClash.Weighted>
0.1292

> <Gold.Chemscore.DEInternal.Weighted>
0.3995

> <Gold.Chemscore.Rot.Weighted>
4.0228

> <Gold.Chemscore.Internal.Correction.Weighted>
   9.000000E+99

> <Gold.Protein.RotatedTorsions>
[ 6907 6896 6895 6894 ] final -159.04 input  -60.11 | X-H torsion
[ 7974 7965 7964 7962 ] final  168.97 input  175.53 | X-H torsion
[ 8008 7997 7996 7995 ] final  153.35 input   59.86 | X-H torsion
[ 10167 10162 10161 10158 ] final  152.07 input  -65.29 | X-H torsion
[ 10718 10713 10712 10709 ] final  150.63 input   66.30 | X-H torsion
[ 10763 10752 10751 10750 ] final   -5.98 input  -60.55 | X-H torsion
[ 11005 11000 10999 10996 ] final  -73.85 input  -57.11 | X-H torsion

> <Gold.Protein.ActiveResidues>
 VAL166  LYS551  ARG553  GLY616  TRP617  ASP618  TYR619  PRO620  LYS621  CYS622 
 ASP623  PHE694  ASN695  SER759  ASP760  ASP761  ALA762  ILE779  LEU786  VAL792 
 PHE793  MET794  SER795  GLU796  ALA797  LYS798  CYS799  TRP800  GLU811  SER814 

> <Gold.Protein.RotatedAtoms>
  151.3274  133.4015  159.2659 H   0  0  0  0  0  0  0  0  0  0  0  0  # atno 6907 bound_to 6896
  150.9984  134.9303  159.7950 H   0  0  0  0  0  0  0  0  0  0  0  0  # atno 6908 bound_to 6896
  152.5268  134.3239  159.9211 H   0  0  0  0  0  0  0  0  0  0  0  0  # atno 6909 bound_to 6896
  144.7370  139.8986  143.6408 H   0  0  0  0  0  0  0  0  0  0  0  0  # atno 7974 bound_to 7965
  156.2585  140.1996  156.6477 H   0  0  0  0  0  0  0  0  0  0  0  0  # atno 8008 bound_to 7997
  154.6561  140.0566  157.0035 H   0  0  0  0  0  0  0  0  0  0  0  0  # atno 8009 bound_to 7997
  155.1346  140.3237  155.4469 H   0  0  0  0  0  0  0  0  0  0  0  0  # atno 8010 bound_to 7997
  139.4835  144.5389  151.7598 H   0  0  0  0  0  0  0  0  0  0  0  0  # atno 10167 bound_to 10162
  157.2810  131.0835  151.1531 H   0  0  0  0  0  0  0  0  0  0  0  0  # atno 10718 bound_to 10713
  153.4060  135.7006  153.6393 H   0  0  0  0  0  0  0  0  0  0  0  0  # atno 10763 bound_to 10752
  153.4907  135.3673  155.2490 H   0  0  0  0  0  0  0  0  0  0  0  0  # atno 10764 bound_to 10752
  154.8714  135.4088  154.3403 H   0  0  0  0  0  0  0  0  0  0  0  0  # atno 10765 bound_to 10752
  141.1628  133.6891  156.7274 H   0  0  0  0  0  0  0  0  0  0  0  0  # atno 11005 bound_to 11000
  146.1089  139.4091  143.0300 LP  0  0  0  0  0  0  0  0  0  0  0  0  # atno 17320 bound_to 7965
  145.7472  140.9986  143.1269 LP  0  0  0  0  0  0  0  0  0  0  0  0  # atno 17321 bound_to 7965
  140.4925  144.1289  150.5953 LP  0  0  0  0  0  0  0  0  0  0  0  0  # atno 17342 bound_to 10162
  140.4154  143.2636  151.9781 LP  0  0  0  0  0  0  0  0  0  0  0  0  # atno 17343 bound_to 10162
  157.2965  130.6822  149.6141 LP  0  0  0  0  0  0  0  0  0  0  0  0  # atno 17370 bound_to 10713
  155.9664  130.4405  150.5301 LP  0  0  0  0  0  0  0  0  0  0  0  0  # atno 17371 bound_to 10713
  140.2770  134.8347  157.3899 LP  0  0  0  0  0  0  0  0  0  0  0  0  # atno 17394 bound_to 11000
  140.1468  134.4901  155.7990 LP  0  0  0  0  0  0  0  0  0  0  0  0  # atno 17395 bound_to 11000

$$$$
