AV-unprocessed.smi:1837|AV-procd|sdf|7481|dock3
  -GOLD-   22720 9173D 1   1.00000     0.00000
 Structure written by MMmdl.
 45 48  0  0  0  0  0  0  0  0  3 V2000
  149.4657  140.5912  157.7142 O   0  0  0  0  0  0  0  0  0  0  0  0
  149.2078  141.5298  156.9597 C   0  0  0  0  0  0  0  0  0  0  0  0
  148.2197  141.3487  155.7987 C   0  0  0  0  0  0  0  0  0  0  0  0
  146.9142  141.9851  156.0423 N   0  0  0  0  0  0  0  0  0  0  0  0
  146.4838  142.0736  157.3810 C   0  0  0  0  0  0  0  0  0  0  0  0
  145.3043  142.6311  157.7184 C   0  0  0  0  0  0  0  0  0  0  0  0
  144.8749  142.7079  159.0975 N   0  3  0  0  0  0  0  0  0  0  0  0
  145.5991  142.2330  159.9666 O   0  0  0  0  0  0  0  0  0  0  0  0
  143.8016  143.2432  159.3584 O   0  5  0  0  0  0  0  0  0  0  0  0
  144.4733  143.1495  156.6491 C   0  0  0  0  0  0  0  0  0  0  0  0
  144.8771  143.0636  155.3662 C   0  0  0  0  0  0  0  0  0  0  0  0
  146.1590  142.4522  155.0011 C   0  0  0  0  0  0  0  0  0  0  0  0
  146.5309  142.3656  153.8307 O   0  0  0  0  0  0  0  0  0  0  0  0
  149.7334  142.7603  157.0886 N   0  0  0  0  0  0  0  0  0  0  0  0
  150.6953  143.2393  158.0868 C   0  0  0  0  0  0  0  0  0  0  0  0
  149.9817  143.9288  159.2819 C   0  0  0  0  0  0  0  0  0  0  0  0
  151.0310  144.4748  160.2749 C   0  0  1  0  0  0  0  0  0  0  0  0
  151.9036  143.3128  160.7977 C   0  0  0  0  0  0  0  0  0  0  0  0
  152.6316  142.6431  159.6118 C   0  0  2  0  0  0  0  0  0  0  0  0
  153.5265  143.6806  158.9024 C   0  0  0  0  0  0  0  0  0  0  0  0
  152.6477  144.8371  158.3824 C   0  0  2  0  0  0  0  0  0  0  0  0
  151.9250  145.5133  159.5659 C   0  0  0  0  0  0  0  0  0  0  0  0
  151.6040  144.2835  157.3894 C   0  0  0  0  0  0  0  0  0  0  0  0
  151.5917  142.0856  158.6156 C   0  0  0  0  0  0  0  0  0  0  0  0
  148.6803  141.7511  154.8955 H   0  0  0  0  0  0  0  0  0  0  0  0
  148.0854  140.2837  155.5986 H   0  0  0  0  0  0  0  0  0  0  0  0
  147.1699  141.6519  158.1013 H   0  0  0  0  0  0  0  0  0  0  0  0
  143.5206  143.6086  156.8689 H   0  0  0  0  0  0  0  0  0  0  0  0
  144.2413  143.4552  154.5855 H   0  0  0  0  0  0  0  0  0  0  0  0
  149.4376  143.4476  156.4106 H   0  0  0  0  0  0  0  0  0  0  0  0
  149.3457  144.7409  158.9271 H   0  0  0  0  0  0  0  0  0  0  0  0
  149.3250  143.2322  159.8032 H   0  0  0  0  0  0  0  0  0  0  0  0
  150.5212  144.9496  161.1138 H   0  0  0  0  0  0  0  0  0  0  0  0
  152.6277  143.6828  161.5248 H   0  0  0  0  0  0  0  0  0  0  0  0
  151.2859  142.5832  161.3227 H   0  0  0  0  0  0  0  0  0  0  0  0
  153.2508  141.8256  159.9825 H   0  0  0  0  0  0  0  0  0  0  0  0
  154.2842  144.0602  159.5892 H   0  0  0  0  0  0  0  0  0  0  0  0
  154.0651  143.2140  158.0766 H   0  0  0  0  0  0  0  0  0  0  0  0
  153.2767  145.5701  157.8762 H   0  0  0  0  0  0  0  0  0  0  0  0
  151.3234  146.3519  159.2133 H   0  0  0  0  0  0  0  0  0  0  0  0
  152.6518  145.9272  160.2659 H   0  0  0  0  0  0  0  0  0  0  0  0
  152.1119  143.8339  156.5346 H   0  0  0  0  0  0  0  0  0  0  0  0
  151.0039  145.1030  156.9907 H   0  0  0  0  0  0  0  0  0  0  0  0
  150.9955  141.3207  159.1132 H   0  0  0  0  0  0  0  0  0  0  0  0
  152.0980  141.5879  157.7874 H   0  0  0  0  0  0  0  0  0  0  0  0
  1  2  2  0  0  0  0
  2  3  1  0  0  0  0
  2 14  1  0  0  0  0
  3  4  1  0  0  0  0
  3 25  1  0  0  0  0
  3 26  1  0  0  0  0
  4 12  1  0  0  0  0
  4  5  1  0  0  0  0
  5  6  2  0  0  0  0
  5 27  1  0  0  0  0
  6  7  1  0  0  0  0
  6 10  1  0  0  0  0
  7  8  2  0  0  0  0
  7  9  1  0  0  0  0
 10 11  2  0  0  0  0
 10 28  1  0  0  0  0
 11 12  1  0  0  0  0
 11 29  1  0  0  0  0
 12 13  2  0  0  0  0
 14 15  1  0  0  0  0
 14 30  1  0  0  0  0
 15 23  1  0  0  0  0
 15 24  1  0  0  0  0
 15 16  1  0  0  0  0
 16 17  1  0  0  0  0
 16 31  1  0  0  0  0
 16 32  1  0  0  0  0
 17 22  1  0  0  0  0
 17 18  1  0  0  0  0
 17 33  1  0  0  0  0
 18 19  1  0  0  0  0
 18 34  1  0  0  0  0
 18 35  1  0  0  0  0
 19 20  1  0  0  0  0
 19 24  1  0  0  0  0
 19 36  1  0  0  0  0
 20 21  1  0  0  0  0
 20 37  1  0  0  0  0
 20 38  1  0  0  0  0
 21 22  1  0  0  0  0
 21 23  1  0  0  0  0
 21 39  1  0  0  0  0
 22 40  1  0  0  0  0
 22 41  1  0  0  0  0
 23 42  1  0  0  0  0
 23 43  1  0  0  0  0
 24 44  1  0  0  0  0
 24 45  1  0  0  0  0
M  CHG  1   7   1
M  CHG  1   9  -1
M  END
> <s_m_source_file>
AV-unprocessed.smi

> <i_m_source_file_index>
1837

> <i_lp_mmshare_version>
43012

> <i_f3d_flags>
0

> <s_epik_input>
Tz1jMVtjSF1bY0hdYyhbTitdKD1PKVtPLV0pW2NIXW4xW0NIMl1DKD1PKVtOSF1DMjNbQ0gyXVtDQEhdNFtDSDJdW0NAQEhdKFtDSDJdMylbQ0gyXVtDQEhdKFtDSDJdNClbQ0gyXTI=

> <s_epik_cmdline>
J2VwaWtfcHl0aG9uJywgJy1waCcsICc3LjAnLCAnLXRuJywgJzgnLCAnLW1hJywgJzIwMCcsICctbWV0YWxfYmluZGluZycsICctaW1hZScsICc8aW5maWxlLm1hZT4nLCAnLW9tYWUnLCAnPG91dGZpbGUubWFlPic=

> <r_lp_tautomer_probability>
1

> <r_epik_Ionization_Penalty>
2.34466e-08

> <r_epik_Ionization_Penalty_Charging>
8.88262e-11

> <r_epik_Ionization_Penalty_Neutral>
2.33578e-08

> <r_epik_State_Penalty>
-0

> <r_epik_Charging_Adjusted_Penalty>
8.88262e-11

> <i_epik_Tot_Q>
0

> <i_epik_Tot_abs_Q>
2

> <r_epik_Metal_State_Penalty>
-0

> <b_epik_Metal_Only>
0

> <s_lp_Force_Field>
OPLS_2005

> <r_lp_Energy>
41.9783

> <b_lp_Chiralities_Consistent>
1

> <s_lp_Variant>
AV-unprocessed.smi:1837-1

> <Gold.Version>
5.8.1

> <Gold.Id.Protein>
6NUR|6NUR_protein|mol2

> <Gold.PLP.Fitness>
46.7365

> <Gold.PLP.PLP>
-42.8532

> <Gold.PLP.part.hbond>
-1.9929

> <Gold.PLP.part.metal>
0.0000

> <Gold.PLP.part.buried>
-6.9068

> <Gold.PLP.part.nonpolar>
-34.7938

> <Gold.PLP.part.repulsive>
0.2136

> <Gold.PLP.ligand.clash>
0.0000

> <Gold.PLP.ligand.torsion>
1.0744

> <Gold.PLP.Chemscore.Hbond>
2.0000

> <Gold.PLP.Chemscore.CHOScore>
0.0000

> <Gold.PLP.Chemscore.Metal>
0.0000

> <Gold.Chemscore.Hbonds>
donor molecule, donor type, donor heavy atom, donor atom, acceptor molecule, acceptor atom, score
      L1  H    14    30       P1  8028  1.00
      P1  H  6934  6946       L1     8  0.99

> <Gold.PLP.Chemscore.Internal.Correction>
0.0321

> <Gold.Rescore>
     Score         DG    S(hbond)    S(metal)    S(lipo)     H(rot)  DE(clash)    DE(int)     intcor
     19.93     -22.80       2.00        0.00     124.59       1.53       0.33       2.54       ----

> <Gold.Chemscore.Fitness>
19.9347

> <Gold.Chemscore.DG>
-22.8021

> <Gold.Chemscore.ZeroCoef>
-5.4800

> <Gold.Chemscore.Hbond>
1.9972

> <Gold.Chemscore.Metal>
0.0000

> <Gold.Chemscore.Lipo>
124.5852

> <Gold.Chemscore.Internal_Hbond>
0.0000

> <Gold.Chemscore.DEClash>
0.3306

> <Gold.Chemscore.DEInternal>
2.5368

> <Gold.Chemscore.Rot>
1.5332

> <Gold.Chemscore.Internal.Correction>
   9.000000E+99

> <Gold.Chemscore.Hbonds>
donor molecule, donor type, donor heavy atom, donor atom, acceptor molecule, acceptor atom, score
      L1  H    14    30       P1  8028  0.97
      P1  H  6934  6946       L1     8  0.92

> <Gold.Chemscore.Hbond.Weighted>
-6.6705

> <Gold.Chemscore.Metal.Weighted>
-0.0000

> <Gold.Chemscore.Lipo.Weighted>
-14.5765

> <Gold.Chemscore.Internal_Hbond.Weighted>
0.0000

> <Gold.Chemscore.DEClash.Weighted>
0.3306

> <Gold.Chemscore.DEInternal.Weighted>
2.5368

> <Gold.Chemscore.Rot.Weighted>
3.9249

> <Gold.Chemscore.Internal.Correction.Weighted>
   9.000000E+99

> <Gold.Protein.RotatedTorsions>
[ 6907 6896 6895 6894 ] final  171.39 input  -60.11 | X-H torsion
[ 7974 7965 7964 7962 ] final   65.03 input  175.53 | X-H torsion
[ 8008 7997 7996 7995 ] final   44.44 input   59.86 | X-H torsion
[ 10167 10162 10161 10158 ] final   -9.11 input  -65.29 | X-H torsion
[ 10718 10713 10712 10709 ] final   -4.90 input   66.30 | X-H torsion
[ 10763 10752 10751 10750 ] final -123.01 input  -60.55 | X-H torsion
[ 11005 11000 10999 10996 ] final   98.63 input  -57.11 | X-H torsion

> <Gold.Protein.ActiveResidues>
 VAL166  LYS551  ARG553  GLY616  TRP617  ASP618  TYR619  PRO620  LYS621  CYS622 
 ASP623  PHE694  ASN695  SER759  ASP760  ASP761  ALA762  ILE779  LEU786  VAL792 
 PHE793  MET794  SER795  GLU796  ALA797  LYS798  CYS799  TRP800  GLU811  SER814 

> <Gold.Protein.RotatedAtoms>
  151.8009  133.3370  159.3526 H   0  0  0  0  0  0  0  0  0  0  0  0  # atno 6907 bound_to 6896
  150.7359  134.5754  159.5921 H   0  0  0  0  0  0  0  0  0  0  0  0  # atno 6908 bound_to 6896
  152.3143  134.7460  160.0380 H   0  0  0  0  0  0  0  0  0  0  0  0  # atno 6909 bound_to 6896
  145.8433  139.3208  143.0919 H   0  0  0  0  0  0  0  0  0  0  0  0  # atno 7974 bound_to 7965
  155.3193  140.3396  155.4241 H   0  0  0  0  0  0  0  0  0  0  0  0  # atno 8008 bound_to 7997
  156.1917  140.1700  156.8116 H   0  0  0  0  0  0  0  0  0  0  0  0  # atno 8009 bound_to 7997
  154.5450  140.0717  156.8557 H   0  0  0  0  0  0  0  0  0  0  0  0  # atno 8010 bound_to 7997
  140.7078  143.5894  150.8909 H   0  0  0  0  0  0  0  0  0  0  0  0  # atno 10167 bound_to 10162
  156.7545  130.5250  149.5797 H   0  0  0  0  0  0  0  0  0  0  0  0  # atno 10718 bound_to 10713
  154.8700  135.4113  154.2875 H   0  0  0  0  0  0  0  0  0  0  0  0  # atno 10763 bound_to 10752
  153.3757  135.7009  153.6609 H   0  0  0  0  0  0  0  0  0  0  0  0  # atno 10764 bound_to 10752
  153.5453  135.3640  155.2708 H   0  0  0  0  0  0  0  0  0  0  0  0  # atno 10765 bound_to 10752
  139.8772  134.9058  156.4485 H   0  0  0  0  0  0  0  0  0  0  0  0  # atno 11005 bound_to 11000
  145.9441  140.8958  143.0293 LP  0  0  0  0  0  0  0  0  0  0  0  0  # atno 17320 bound_to 7965
  144.6732  140.1589  143.7424 LP  0  0  0  0  0  0  0  0  0  0  0  0  # atno 17321 bound_to 7965
  139.9620  143.6153  152.2999 LP  0  0  0  0  0  0  0  0  0  0  0  0  # atno 17342 bound_to 10162
  139.6709  144.7661  151.1784 LP  0  0  0  0  0  0  0  0  0  0  0  0  # atno 17343 bound_to 10162
  156.1380  130.6224  151.0427 LP  0  0  0  0  0  0  0  0  0  0  0  0  # atno 17370 bound_to 10713
  157.6762  131.0849  150.7487 LP  0  0  0  0  0  0  0  0  0  0  0  0  # atno 17371 bound_to 10713
  140.8949  133.7821  155.9613 LP  0  0  0  0  0  0  0  0  0  0  0  0  # atno 17394 bound_to 11000
  140.8714  134.2722  157.5189 LP  0  0  0  0  0  0  0  0  0  0  0  0  # atno 17395 bound_to 11000

$$$$
