AV-unprocessed.smi:2126|AV-procd|sdf|8675|dock5
  -GOLD-   2272011423D 1   1.00000     0.00000
 Structure written by MMmdl.
 40 42  0  0  0  0  0  0  0  0  1 V2000
  150.7090  141.3960  155.9235 C   0  0  0  0  0  0  0  0  0  0  0  0
  149.4357  141.7620  155.4122 O   0  0  0  0  0  0  0  0  0  0  0  0
  148.6794  140.7870  154.7980 C   0  0  0  0  0  0  0  0  0  0  0  0
  147.7122  141.0415  153.7949 C   0  0  0  0  0  0  0  0  0  0  0  0
  146.9835  139.9810  153.2228 C   0  0  0  0  0  0  0  0  0  0  0  0
  147.1986  138.6497  153.6307 C   0  0  0  0  0  0  0  0  0  0  0  0
  146.4418  137.6749  153.0165 O   0  0  0  0  0  0  0  0  0  0  0  0
  146.0195  137.8965  151.6772 C   0  0  0  0  0  0  0  0  0  0  0  0
  145.7870  136.5418  150.9923 C   0  0  2  0  0  0  0  0  0  0  0  0
  145.4787  136.7781  149.6325 O   0  0  0  0  0  0  0  0  0  0  0  0
  144.6538  135.7329  151.6539 C   0  0  0  0  0  0  0  0  0  0  0  0
  144.6353  134.3462  151.2230 N   0  0  0  0  0  0  0  0  0  0  0  0
  143.8488  133.8034  150.2738 C   0  0  0  0  0  0  0  0  0  0  0  0
  143.9924  132.5031  150.0337 N   0  0  0  0  0  0  0  0  0  0  0  0
  144.9897  132.1615  150.9310 C   0  0  0  0  0  0  0  0  0  0  0  0
  145.6082  130.9163  151.1850 C   0  0  0  0  0  0  0  0  0  0  0  0
  146.6161  130.8060  152.1656 C   0  0  0  0  0  0  0  0  0  0  0  0
  147.0201  131.9356  152.9063 C   0  0  0  0  0  0  0  0  0  0  0  0
  146.4186  133.1869  152.6712 C   0  0  0  0  0  0  0  0  0  0  0  0
  145.4140  133.2931  151.6912 C   0  0  0  0  0  0  0  0  0  0  0  0
  148.1659  138.3957  154.6340 C   0  0  0  0  0  0  0  0  0  0  0  0
  148.8942  139.4560  155.2064 C   0  0  0  0  0  0  0  0  0  0  0  0
  151.1826  142.2710  156.3682 H   0  0  0  0  0  0  0  0  0  0  0  0
  151.3666  141.0314  155.1332 H   0  0  0  0  0  0  0  0  0  0  0  0
  150.6224  140.6363  156.7016 H   0  0  0  0  0  0  0  0  0  0  0  0
  147.5096  142.0427  153.4461 H   0  0  0  0  0  0  0  0  0  0  0  0
  146.2490  140.1935  152.4599 H   0  0  0  0  0  0  0  0  0  0  0  0
  145.1034  138.4892  151.6526 H   0  0  0  0  0  0  0  0  0  0  0  0
  146.7945  138.4489  151.1426 H   0  0  0  0  0  0  0  0  0  0  0  0
  146.7121  135.9647  151.0226 H   0  0  0  0  0  0  0  0  0  0  0  0
  144.7550  137.3847  149.5906 H   0  0  0  0  0  0  0  0  0  0  0  0
  144.7611  135.7505  152.7393 H   0  0  0  0  0  0  0  0  0  0  0  0
  143.6841  136.1802  151.4322 H   0  0  0  0  0  0  0  0  0  0  0  0
  143.1278  134.3965  149.7300 H   0  0  0  0  0  0  0  0  0  0  0  0
  145.3059  130.0437  150.6252 H   0  0  0  0  0  0  0  0  0  0  0  0
  147.0811  129.8490  152.3511 H   0  0  0  0  0  0  0  0  0  0  0  0
  147.7918  131.8403  153.6562 H   0  0  0  0  0  0  0  0  0  0  0  0
  146.7232  134.0538  153.2385 H   0  0  0  0  0  0  0  0  0  0  0  0
  148.3688  137.3953  154.9842 H   0  0  0  0  0  0  0  0  0  0  0  0
  149.6276  139.2437  155.9704 H   0  0  0  0  0  0  0  0  0  0  0  0
  1  2  1  0  0  0  0
  1 23  1  0  0  0  0
  1 24  1  0  0  0  0
  1 25  1  0  0  0  0
  2  3  1  0  0  0  0
  3 22  1  0  0  0  0
  3  4  2  0  0  0  0
  4  5  1  0  0  0  0
  4 26  1  0  0  0  0
  5  6  2  0  0  0  0
  5 27  1  0  0  0  0
  6  7  1  0  0  0  0
  6 21  1  0  0  0  0
  7  8  1  0  0  0  0
  8  9  1  0  0  0  0
  8 28  1  0  0  0  0
  8 29  1  0  0  0  0
  9 10  1  0  0  0  0
  9 11  1  0  0  0  0
  9 30  1  0  0  0  0
 10 31  1  0  0  0  0
 11 12  1  0  0  0  0
 11 32  1  0  0  0  0
 11 33  1  0  0  0  0
 12 20  1  0  0  0  0
 12 13  1  0  0  0  0
 13 14  2  0  0  0  0
 13 34  1  0  0  0  0
 14 15  1  0  0  0  0
 15 20  2  0  0  0  0
 15 16  1  0  0  0  0
 16 17  2  0  0  0  0
 16 35  1  0  0  0  0
 17 18  1  0  0  0  0
 17 36  1  0  0  0  0
 18 19  2  0  0  0  0
 18 37  1  0  0  0  0
 19 20  1  0  0  0  0
 19 38  1  0  0  0  0
 21 22  2  0  0  0  0
 21 39  1  0  0  0  0
 22 40  1  0  0  0  0
M  END
> <s_m_source_file>
AV-unprocessed.smi

> <i_m_source_file_index>
2126

> <i_lp_mmshare_version>
43012

> <i_f3d_flags>
0

> <s_epik_input>
W0NIM11PYzFbY0hdW2NIXWMoW2NIXVtjSF0xKU9bQ0gyXVtDQEhdKFtPSF0pW0NIMl1uKFtjSF1uMiljKGMyMylbY0hdW2NIXVtjSF1bY0hdMw==

> <s_epik_cmdline>
J2VwaWtfcHl0aG9uJywgJy1waCcsICc3LjAnLCAnLXRuJywgJzgnLCAnLW1hJywgJzIwMCcsICctbWV0YWxfYmluZGluZycsICctaW1hZScsICc8aW5maWxlLm1hZT4nLCAnLW9tYWUnLCAnPG91dGZpbGUubWFlPic=

> <r_lp_tautomer_probability>
1

> <r_epik_Ionization_Penalty>
0.0608933

> <r_epik_Ionization_Penalty_Charging>
0

> <r_epik_Ionization_Penalty_Neutral>
0.0608933

> <r_epik_State_Penalty>
0.0528196

> <r_epik_Charging_Adjusted_Penalty>
0.0528196

> <i_epik_Tot_Q>
0

> <i_epik_Tot_abs_Q>
0

> <r_epik_Metal_State_Penalty>
5.52429e-05

> <b_epik_Metal_Only>
0

> <s_lp_Force_Field>
OPLS_2005

> <r_lp_Energy>
18.1491

> <b_lp_Chiralities_Consistent>
1

> <s_lp_Variant>
AV-unprocessed.smi:2126-1

> <Gold.Version>
5.8.1

> <Gold.Id.Protein>
6NUR|6NUR_protein|mol2

> <Gold.PLP.Fitness>
40.1484

> <Gold.PLP.PLP>
-36.6205

> <Gold.PLP.part.hbond>
-2.0000

> <Gold.PLP.part.metal>
0.0000

> <Gold.PLP.part.buried>
-0.4912

> <Gold.PLP.part.nonpolar>
-35.4500

> <Gold.PLP.part.repulsive>
1.5433

> <Gold.PLP.ligand.clash>
0.0000

> <Gold.PLP.ligand.torsion>
1.2851

> <Gold.PLP.Chemscore.Hbond>
1.0000

> <Gold.PLP.Chemscore.CHOScore>
1.0000

> <Gold.PLP.Chemscore.Metal>
0.0000

> <Gold.Chemscore.Hbonds>
donor molecule, donor type, donor heavy atom, donor atom, acceptor molecule, acceptor atom, score
      L1  H    10    31       P1 10171  0.88
      L1  C    13    34       P1 10186  1.00

> <Gold.PLP.Chemscore.Internal.Correction>
0.0981

> <Gold.Rescore>
     Score         DG    S(hbond)    S(metal)    S(lipo)     H(rot)  DE(clash)    DE(int)     intcor
     12.38     -13.94       1.00        0.00      98.67       2.51       0.25       1.31       ----

> <Gold.Chemscore.Fitness>
12.3850

> <Gold.Chemscore.DG>
-13.9394

> <Gold.Chemscore.ZeroCoef>
-5.4800

> <Gold.Chemscore.Hbond>
0.9988

> <Gold.Chemscore.Metal>
0.0000

> <Gold.Chemscore.Lipo>
98.6713

> <Gold.Chemscore.Internal_Hbond>
0.0000

> <Gold.Chemscore.DEClash>
0.2452

> <Gold.Chemscore.DEInternal>
1.3092

> <Gold.Chemscore.Rot>
2.5083

> <Gold.Chemscore.Internal.Correction>
   9.000000E+99

> <Gold.Chemscore.Hbonds>
donor molecule, donor type, donor heavy atom, donor atom, acceptor molecule, acceptor atom, score
      L1  H    10    31       P1 10171  0.85

> <Gold.Chemscore.Hbond.Weighted>
-3.3360

> <Gold.Chemscore.Metal.Weighted>
-0.0000

> <Gold.Chemscore.Lipo.Weighted>
-11.5445

> <Gold.Chemscore.Internal_Hbond.Weighted>
0.0000

> <Gold.Chemscore.DEClash.Weighted>
0.2452

> <Gold.Chemscore.DEInternal.Weighted>
1.3092

> <Gold.Chemscore.Rot.Weighted>
6.4212

> <Gold.Chemscore.Internal.Correction.Weighted>
   9.000000E+99

> <Gold.Protein.RotatedTorsions>
[ 6907 6896 6895 6894 ] final -149.45 input  -60.11 | X-H torsion
[ 7974 7965 7964 7962 ] final  143.01 input  175.53 | X-H torsion
[ 8008 7997 7996 7995 ] final   29.15 input   59.86 | X-H torsion
[ 10167 10162 10161 10158 ] final  141.74 input  -65.29 | X-H torsion
[ 10718 10713 10712 10709 ] final   48.62 input   66.30 | X-H torsion
[ 10763 10752 10751 10750 ] final   13.89 input  -60.55 | X-H torsion
[ 11005 11000 10999 10996 ] final  -11.78 input  -57.11 | X-H torsion

> <Gold.Protein.ActiveResidues>
 VAL166  LYS551  ARG553  GLY616  TRP617  ASP618  TYR619  PRO620  LYS621  CYS622 
 ASP623  PHE694  ASN695  SER759  ASP760  ASP761  ALA762  ILE779  LEU786  VAL792 
 PHE793  MET794  SER795  GLU796  ALA797  LYS798  CYS799  TRP800  GLU811  SER814 

> <Gold.Protein.RotatedAtoms>
  151.1843  133.4706  159.2594 H   0  0  0  0  0  0  0  0  0  0  0  0  # atno 6907 bound_to 6896
  151.1227  135.0088  159.8556 H   0  0  0  0  0  0  0  0  0  0  0  0  # atno 6908 bound_to 6896
  152.5456  134.1753  159.8666 H   0  0  0  0  0  0  0  0  0  0  0  0  # atno 6909 bound_to 6896
  144.8957  139.5494  143.5777 H   0  0  0  0  0  0  0  0  0  0  0  0  # atno 7974 bound_to 7965
  155.0699  140.3199  155.4634 H   0  0  0  0  0  0  0  0  0  0  0  0  # atno 8008 bound_to 7997
  156.2793  140.2113  156.5772 H   0  0  0  0  0  0  0  0  0  0  0  0  # atno 8009 bound_to 7997
  154.7063  140.0502  157.0494 H   0  0  0  0  0  0  0  0  0  0  0  0  # atno 8010 bound_to 7997
  139.5012  144.6152  151.6180 H   0  0  0  0  0  0  0  0  0  0  0  0  # atno 10167 bound_to 10162
  157.4705  130.8252  149.7983 H   0  0  0  0  0  0  0  0  0  0  0  0  # atno 10718 bound_to 10713
  153.1676  135.6807  153.8653 H   0  0  0  0  0  0  0  0  0  0  0  0  # atno 10763 bound_to 10752
  153.8027  135.3153  155.3393 H   0  0  0  0  0  0  0  0  0  0  0  0  # atno 10764 bound_to 10752
  154.7976  135.4797  154.0289 H   0  0  0  0  0  0  0  0  0  0  0  0  # atno 10765 bound_to 10752
  140.7589  133.8531  155.9108 H   0  0  0  0  0  0  0  0  0  0  0  0  # atno 11005 bound_to 11000
  146.3080  139.7646  142.9041 LP  0  0  0  0  0  0  0  0  0  0  0  0  # atno 17320 bound_to 7965
  145.3704  141.0341  143.3234 LP  0  0  0  0  0  0  0  0  0  0  0  0  # atno 17321 bound_to 7965
  140.5838  143.9900  150.6283 LP  0  0  0  0  0  0  0  0  0  0  0  0  # atno 17342 bound_to 10162
  140.3058  143.3231  152.0928 LP  0  0  0  0  0  0  0  0  0  0  0  0  # atno 17343 bound_to 10162
  156.0071  130.3850  150.2392 LP  0  0  0  0  0  0  0  0  0  0  0  0  # atno 17370 bound_to 10713
  157.0575  131.0080  151.3233 LP  0  0  0  0  0  0  0  0  0  0  0  0  # atno 17371 bound_to 10713
  140.9682  134.1566  157.4599 LP  0  0  0  0  0  0  0  0  0  0  0  0  # atno 17394 bound_to 11000
  139.8774  134.9969  156.5819 LP  0  0  0  0  0  0  0  0  0  0  0  0  # atno 17395 bound_to 11000

$$$$
