AV-unprocessed.smi:266|AV-procd|sdf|2033|dock10
  -GOLD-   2262021243D 1   1.00000     0.00000
 Structure written by MMmdl.
 52 55  0  0  0  0  0  0  0  0  1 V2000
  152.1913  142.7264  160.8503 C   0  0  0  0  0  0  0  0  0  0  0  0
  152.6360  142.7741  159.3782 C   0  0  2  0  0  0  0  0  0  0  0  0
  152.9862  144.1312  159.0992 O   0  0  0  0  0  0  0  0  0  0  0  0
  152.3056  144.5943  157.9416 C   0  0  0  0  0  0  0  0  0  0  0  0
  151.0418  143.7500  157.8997 C   0  0  0  0  0  0  0  0  0  0  0  0
  151.5569  142.3832  158.3364 C   0  0  2  0  0  0  0  0  0  0  0  0
  150.4861  141.6497  158.9046 O   0  0  0  0  0  0  0  0  0  0  0  0
  152.1737  141.5403  157.1873 C   0  0  0  0  0  0  0  0  0  0  0  0
  151.6885  140.1699  157.1225 N   0  0  0  0  0  0  0  0  0  0  0  0
  151.9382  139.1672  158.0304 C   0  0  0  0  0  0  0  0  0  0  0  0
  151.3905  138.0173  157.7507 N   0  0  0  0  0  0  0  0  0  0  0  0
  150.7035  138.2386  156.5618 C   0  0  0  0  0  0  0  0  0  0  0  0
  149.9052  137.4273  155.7001 C   0  0  0  0  0  0  0  0  0  0  0  0
  149.6821  136.0965  155.8888 N   0  0  0  0  0  0  0  0  0  0  0  0
  150.0364  135.1786  154.8088 C   0  0  0  0  0  0  0  0  0  0  0  0
  149.7017  135.5632  157.2522 C   0  0  0  0  0  0  0  0  0  0  0  0
  148.3660  135.7391  158.0068 C   0  0  2  0  0  0  0  0  0  0  0  0
  147.8385  137.1831  157.8960 C   0  0  0  0  0  0  0  0  0  0  0  0
  146.6781  137.3614  158.8790 C   0  0  0  0  0  0  0  0  0  0  0  0
  147.1117  136.3400  160.3338 S   0  0  0  0  0  0  0  0  0  0  0  0
  147.7094  137.1937  161.3717 O   0  0  0  0  0  0  0  0  0  0  0  0
  145.9887  135.4427  160.6442 O   0  0  0  0  0  0  0  0  0  0  0  0
  148.4448  135.3940  159.5063 C   0  0  0  0  0  0  0  0  0  0  0  0
  149.3564  138.0375  154.6146 N   0  0  0  0  0  0  0  0  0  0  0  0
  149.5835  139.3305  154.3697 C   0  0  0  0  0  0  0  0  0  0  0  0
  150.3207  140.1930  155.0688 N   0  0  0  0  0  0  0  0  0  0  0  0
  150.8658  139.5987  156.1673 C   0  0  0  0  0  0  0  0  0  0  0  0
  151.9398  141.7108  161.1569 H   0  0  0  0  0  0  0  0  0  0  0  0
  151.3195  143.3579  161.0237 H   0  0  0  0  0  0  0  0  0  0  0  0
  152.9884  143.0764  161.5067 H   0  0  0  0  0  0  0  0  0  0  0  0
  153.5236  142.1505  159.2636 H   0  0  0  0  0  0  0  0  0  0  0  0
  152.0968  145.6625  158.0012 H   0  0  0  0  0  0  0  0  0  0  0  0
  152.9237  144.4155  157.0610 H   0  0  0  0  0  0  0  0  0  0  0  0
  150.3334  144.1403  158.6327 H   0  0  0  0  0  0  0  0  0  0  0  0
  150.5453  143.7653  156.9305 H   0  0  0  0  0  0  0  0  0  0  0  0
  150.0106  141.2228  158.2083 H   0  0  0  0  0  0  0  0  0  0  0  0
  151.9737  142.0097  156.2233 H   0  0  0  0  0  0  0  0  0  0  0  0
  153.2600  141.5132  157.2846 H   0  0  0  0  0  0  0  0  0  0  0  0
  152.5507  139.3146  158.9083 H   0  0  0  0  0  0  0  0  0  0  0  0
  149.6026  135.5065  153.8633 H   0  0  0  0  0  0  0  0  0  0  0  0
  149.6600  134.1762  155.0137 H   0  0  0  0  0  0  0  0  0  0  0  0
  151.1189  135.1150  154.6916 H   0  0  0  0  0  0  0  0  0  0  0  0
  150.0172  134.5232  157.2780 H   0  0  0  0  0  0  0  0  0  0  0  0
  150.4802  136.1003  157.7952 H   0  0  0  0  0  0  0  0  0  0  0  0
  147.6136  135.0921  157.5538 H   0  0  0  0  0  0  0  0  0  0  0  0
  148.6358  137.8777  158.1636 H   0  0  0  0  0  0  0  0  0  0  0  0
  147.5351  137.4252  156.8770 H   0  0  0  0  0  0  0  0  0  0  0  0
  146.5219  138.3985  159.1759 H   0  0  0  0  0  0  0  0  0  0  0  0
  145.7510  136.9727  158.4573 H   0  0  0  0  0  0  0  0  0  0  0  0
  148.3224  134.3293  159.7050 H   0  0  0  0  0  0  0  0  0  0  0  0
  149.3914  135.7206  159.9366 H   0  0  0  0  0  0  0  0  0  0  0  0
  149.1120  139.7290  153.4833 H   0  0  0  0  0  0  0  0  0  0  0  0
  1  2  1  0  0  0  0
  1 28  1  0  0  0  0
  1 29  1  0  0  0  0
  1 30  1  0  0  0  0
  2  6  1  0  0  0  0
  2  3  1  0  0  0  0
  2 31  1  0  0  0  0
  3  4  1  0  0  0  0
  4  5  1  0  0  0  0
  4 32  1  0  0  0  0
  4 33  1  0  0  0  0
  5  6  1  0  0  0  0
  5 34  1  0  0  0  0
  5 35  1  0  0  0  0
  6  7  1  0  0  0  0
  6  8  1  0  0  0  0
  7 36  1  0  0  0  0
  8  9  1  0  0  0  0
  8 37  1  0  0  0  0
  8 38  1  0  0  0  0
  9 27  1  0  0  0  0
  9 10  1  0  0  0  0
 10 11  2  0  0  0  0
 10 39  1  0  0  0  0
 11 12  1  0  0  0  0
 12 27  2  0  0  0  0
 12 13  1  0  0  0  0
 13 14  1  0  0  0  0
 13 24  2  0  0  0  0
 14 15  1  0  0  0  0
 14 16  1  0  0  0  0
 15 40  1  0  0  0  0
 15 41  1  0  0  0  0
 15 42  1  0  0  0  0
 16 17  1  0  0  0  0
 16 43  1  0  0  0  0
 16 44  1  0  0  0  0
 17 23  1  0  0  0  0
 17 18  1  0  0  0  0
 17 45  1  0  0  0  0
 18 19  1  0  0  0  0
 18 46  1  0  0  0  0
 18 47  1  0  0  0  0
 19 20  1  0  0  0  0
 19 48  1  0  0  0  0
 19 49  1  0  0  0  0
 20 21  2  0  0  0  0
 20 22  2  0  0  0  0
 20 23  1  0  0  0  0
 23 50  1  0  0  0  0
 23 51  1  0  0  0  0
 24 25  1  0  0  0  0
 25 26  2  0  0  0  0
 25 52  1  0  0  0  0
 26 27  1  0  0  0  0
M  END
> <s_m_source_file>
AV-unprocessed.smi

> <i_m_source_file_index>
266

> <i_lp_mmshare_version>
43012

> <i_f3d_flags>
0

> <s_epik_input>
W0NIMl0xW0NIMl1PW0NAQEhdKFtDSDNdKVtDQEBdMShbT0hdKVtDSDJdbihbY0hdbjIpYyhjMjMpbltjSF1uYzNOKFtDSDNdKVtDSDJdW0NAQEhdKFtDSDJdNClbQ0gyXVtDSDJdUzQoPU8pPU8=

> <s_epik_cmdline>
J2VwaWtfcHl0aG9uJywgJy1waCcsICc3LjAnLCAnLXRuJywgJzgnLCAnLW1hJywgJzIwMCcsICctbWV0YWxfYmluZGluZycsICctaW1hZScsICc8aW5maWxlLm1hZT4nLCAnLW9tYWUnLCAnPG91dGZpbGUubWFlPic=

> <r_lp_tautomer_probability>
1

> <r_epik_Ionization_Penalty>
0.00155497

> <r_epik_Ionization_Penalty_Charging>
0

> <r_epik_Ionization_Penalty_Neutral>
0.00155497

> <r_epik_State_Penalty>
-0

> <r_epik_Charging_Adjusted_Penalty>
0

> <i_epik_Tot_Q>
0

> <i_epik_Tot_abs_Q>
0

> <r_epik_Metal_State_Penalty>
-0

> <b_epik_Metal_Only>
0

> <s_lp_Force_Field>
OPLS_2005

> <r_lp_Energy>
29.9122

> <b_lp_Chiralities_Consistent>
1

> <s_lp_Variant>
AV-unprocessed.smi:266-3

> <Gold.Version>
5.8.1

> <Gold.Id.Protein>
6NUR|6NUR_protein|mol2

> <Gold.PLP.Fitness>
38.9338

> <Gold.PLP.PLP>
-32.0250

> <Gold.PLP.part.hbond>
-3.4408

> <Gold.PLP.part.metal>
0.0000

> <Gold.PLP.part.buried>
-4.2179

> <Gold.PLP.part.nonpolar>
-24.5383

> <Gold.PLP.part.repulsive>
0.2479

> <Gold.PLP.ligand.clash>
0.0000

> <Gold.PLP.ligand.torsion>
2.0515

> <Gold.PLP.Chemscore.Hbond>
2.4878

> <Gold.PLP.Chemscore.CHOScore>
1.0000

> <Gold.PLP.Chemscore.Metal>
0.0000

> <Gold.Chemscore.Hbonds>
donor molecule, donor type, donor heavy atom, donor atom, acceptor molecule, acceptor atom, score
      P1  H  6931  6943       L1    21  0.99
      P1  H  6934  6947       L1    21  0.80
      P1  H  7989  7998       L1    26  0.66
      L1  C    25    52       P1  7957  1.00

> <Gold.PLP.Chemscore.Internal.Correction>
0.5483

> <Gold.Rescore>
     Score         DG    S(hbond)    S(metal)    S(lipo)     H(rot)  DE(clash)    DE(int)     intcor
     10.59     -15.83       2.06        0.00      83.12       2.45       1.42       3.82       ----

> <Gold.Chemscore.Fitness>
10.5862

> <Gold.Chemscore.DG>
-15.8252

> <Gold.Chemscore.ZeroCoef>
-5.4800

> <Gold.Chemscore.Hbond>
2.0612

> <Gold.Chemscore.Metal>
0.0000

> <Gold.Chemscore.Lipo>
83.1230

> <Gold.Chemscore.Internal_Hbond>
0.0000

> <Gold.Chemscore.DEClash>
1.4187

> <Gold.Chemscore.DEInternal>
3.8202

> <Gold.Chemscore.Rot>
2.4471

> <Gold.Chemscore.Internal.Correction>
   9.000000E+99

> <Gold.Chemscore.Hbonds>
donor molecule, donor type, donor heavy atom, donor atom, acceptor molecule, acceptor atom, score
      P1  H  6931  6943       L1    21  0.93
      P1  H  6934  6947       L1    21  0.47
      P1  H  7989  7998       L1    26  0.14

> <Gold.Chemscore.Hbond.Weighted>
-6.8843

> <Gold.Chemscore.Metal.Weighted>
-0.0000

> <Gold.Chemscore.Lipo.Weighted>
-9.7254

> <Gold.Chemscore.Internal_Hbond.Weighted>
0.0000

> <Gold.Chemscore.DEClash.Weighted>
1.4187

> <Gold.Chemscore.DEInternal.Weighted>
3.8202

> <Gold.Chemscore.Rot.Weighted>
6.2645

> <Gold.Chemscore.Internal.Correction.Weighted>
   9.000000E+99

> <Gold.Protein.RotatedTorsions>
[ 6907 6896 6895 6894 ] final  -82.50 input  -60.11 | X-H torsion
[ 7974 7965 7964 7962 ] final  133.84 input  175.53 | X-H torsion
[ 8008 7997 7996 7995 ] final   88.40 input   59.86 | X-H torsion
[ 10167 10162 10161 10158 ] final -170.72 input  -65.29 | X-H torsion
[ 10718 10713 10712 10709 ] final  102.84 input   66.30 | X-H torsion
[ 10763 10752 10751 10750 ] final -129.70 input  -60.55 | X-H torsion
[ 11005 11000 10999 10996 ] final -155.89 input  -57.11 | X-H torsion

> <Gold.Protein.ActiveResidues>
 VAL166  LYS551  ARG553  GLY616  TRP617  ASP618  TYR619  PRO620  LYS621  CYS622 
 ASP623  PHE694  ASN695  SER759  ASP760  ASP761  ALA762  ILE779  LEU786  VAL792 
 PHE793  MET794  SER795  GLU796  ALA797  LYS798  CYS799  TRP800  GLU811  SER814 

> <Gold.Protein.RotatedAtoms>
  150.6896  134.3655  159.4968 H   0  0  0  0  0  0  0  0  0  0  0  0  # atno 6907 bound_to 6896
  152.1478  134.9009  160.0559 H   0  0  0  0  0  0  0  0  0  0  0  0  # atno 6908 bound_to 6896
  152.0119  133.3830  159.4260 H   0  0  0  0  0  0  0  0  0  0  0  0  # atno 6909 bound_to 6896
  144.9824  139.4490  143.5379 H   0  0  0  0  0  0  0  0  0  0  0  0  # atno 7974 bound_to 7965
  155.9873  140.3372  155.6719 H   0  0  0  0  0  0  0  0  0  0  0  0  # atno 8008 bound_to 7997
  155.6468  140.0701  157.2618 H   0  0  0  0  0  0  0  0  0  0  0  0  # atno 8009 bound_to 7997
  154.4209  140.1733  156.1620 H   0  0  0  0  0  0  0  0  0  0  0  0  # atno 8010 bound_to 7997
  139.5845  144.1349  152.1557 H   0  0  0  0  0  0  0  0  0  0  0  0  # atno 10167 bound_to 10162
  157.6790  131.0763  150.5465 H   0  0  0  0  0  0  0  0  0  0  0  0  # atno 10718 bound_to 10713
  154.8757  135.3886  154.3963 H   0  0  0  0  0  0  0  0  0  0  0  0  # atno 10763 bound_to 10752
  153.4693  135.7030  153.6008 H   0  0  0  0  0  0  0  0  0  0  0  0  # atno 10764 bound_to 10752
  153.4472  135.3842  155.2231 H   0  0  0  0  0  0  0  0  0  0  0  0  # atno 10765 bound_to 10752
  140.6815  134.4139  157.5226 H   0  0  0  0  0  0  0  0  0  0  0  0  # atno 11005 bound_to 11000
  146.3411  139.9105  142.8781 LP  0  0  0  0  0  0  0  0  0  0  0  0  # atno 17320 bound_to 7965
  145.2401  141.0006  143.3940 LP  0  0  0  0  0  0  0  0  0  0  0  0  # atno 17321 bound_to 7965
  140.0910  144.5621  150.7055 LP  0  0  0  0  0  0  0  0  0  0  0  0  # atno 17342 bound_to 10162
  140.7119  143.2512  151.4556 LP  0  0  0  0  0  0  0  0  0  0  0  0  # atno 17343 bound_to 10162
  156.5771  130.4295  149.5993 LP  0  0  0  0  0  0  0  0  0  0  0  0  # atno 17370 bound_to 10713
  156.2692  130.7007  151.1799 LP  0  0  0  0  0  0  0  0  0  0  0  0  # atno 17371 bound_to 10713
  139.8950  134.8693  156.2151 LP  0  0  0  0  0  0  0  0  0  0  0  0  # atno 17394 bound_to 11000
  141.0313  133.6987  156.1435 LP  0  0  0  0  0  0  0  0  0  0  0  0  # atno 17395 bound_to 11000

$$$$
