AV-unprocessed.smi:2984|AV-procd|sdf|11378|dock3
  -GOLD-   2272016293D 1   1.00000     0.00000
 Structure written by MMmdl.
 38 39  0  0  0  0  0  0  0  0  1 V2000
  150.1017  140.1104  154.4837 O   0  0  0  0  0  0  0  0  0  0  0  0
  149.4520  141.1346  154.7000 C   0  0  0  0  0  0  0  0  0  0  0  0
  148.1841  141.4025  153.8770 C   0  0  0  0  0  0  0  0  0  0  0  0
  147.0153  141.6895  154.7230 N   0  0  0  0  0  0  0  0  0  0  0  0
  146.8487  140.8036  155.7739 N   0  0  0  0  0  0  0  0  0  0  0  0
  145.8435  140.9425  156.5679 C   0  0  0  0  0  0  0  0  0  0  0  0
  144.8748  142.0035  156.4055 C   0  0  0  0  0  0  0  0  0  0  0  0
  143.5441  142.1370  157.5006 Cl  0  0  0  0  0  0  0  0  0  0  0  0
  145.0534  142.8734  155.3797 C   0  0  0  0  0  0  0  0  0  0  0  0
  143.9369  144.1703  155.1234 Cl  0  0  0  0  0  0  0  0  0  0  0  0
  146.1888  142.7473  154.4554 C   0  0  0  0  0  0  0  0  0  0  0  0
  146.3864  143.5175  153.5150 O   0  0  0  0  0  0  0  0  0  0  0  0
  149.7663  142.0739  155.6168 N   0  0  0  0  0  0  0  0  0  0  0  0
  150.7980  142.0686  156.4813 C   0  0  0  0  0  0  0  0  0  0  0  0
  151.6105  141.1528  156.6262 O   0  0  0  0  0  0  0  0  0  0  0  0
  150.8326  143.2058  157.1917 N   0  0  0  0  0  0  0  0  0  0  0  0
  151.7495  143.4859  158.2927 C   0  0  0  0  0  0  0  0  0  0  0  0
  151.9344  142.2339  159.1755 C   0  0  0  0  0  0  0  0  0  0  0  0
  152.8332  142.5274  160.3878 C   0  0  0  0  0  0  0  0  0  0  0  0
  152.2924  143.7068  161.2110 C   0  0  0  0  0  0  0  0  0  0  0  0
  152.1136  144.9573  160.3360 C   0  0  0  0  0  0  0  0  0  0  0  0
  151.2130  144.6664  159.1245 C   0  0  0  0  0  0  0  0  0  0  0  0
  148.3837  142.2382  153.2038 H   0  0  0  0  0  0  0  0  0  0  0  0
  147.9802  140.5489  153.2279 H   0  0  0  0  0  0  0  0  0  0  0  0
  145.6693  140.2662  157.4048 H   0  0  0  0  0  0  0  0  0  0  0  0
  149.1426  142.8655  155.6703 H   0  0  0  0  0  0  0  0  0  0  0  0
  150.1679  143.9299  156.9620 H   0  0  0  0  0  0  0  0  0  0  0  0
  152.7194  143.7752  157.8831 H   0  0  0  0  0  0  0  0  0  0  0  0
  150.9627  141.8808  159.5241 H   0  0  0  0  0  0  0  0  0  0  0  0
  152.3660  141.4201  158.5914 H   0  0  0  0  0  0  0  0  0  0  0  0
  152.9107  141.6400  161.0165 H   0  0  0  0  0  0  0  0  0  0  0  0
  153.8444  142.7533  160.0466 H   0  0  0  0  0  0  0  0  0  0  0  0
  151.3357  143.4327  161.6572 H   0  0  0  0  0  0  0  0  0  0  0  0
  152.9686  143.9244  162.0380 H   0  0  0  0  0  0  0  0  0  0  0  0
  151.6889  145.7679  160.9289 H   0  0  0  0  0  0  0  0  0  0  0  0
  153.0884  145.3044  159.9912 H   0  0  0  0  0  0  0  0  0  0  0  0
  151.1375  145.5588  158.5019 H   0  0  0  0  0  0  0  0  0  0  0  0
  150.2027  144.4458  159.4722 H   0  0  0  0  0  0  0  0  0  0  0  0
  1  2  2  0  0  0  0
  2  3  1  0  0  0  0
  2 13  1  0  0  0  0
  3  4  1  0  0  0  0
  3 23  1  0  0  0  0
  3 24  1  0  0  0  0
  4 11  1  0  0  0  0
  4  5  1  0  0  0  0
  5  6  2  0  0  0  0
  6  7  1  0  0  0  0
  6 25  1  0  0  0  0
  7  8  1  0  0  0  0
  7  9  2  0  0  0  0
  9 10  1  0  0  0  0
  9 11  1  0  0  0  0
 11 12  2  0  0  0  0
 13 14  1  0  0  0  0
 13 26  1  0  0  0  0
 14 15  2  0  0  0  0
 14 16  1  0  0  0  0
 16 17  1  0  0  0  0
 16 27  1  0  0  0  0
 17 22  1  0  0  0  0
 17 18  1  0  0  0  0
 17 28  1  0  0  0  0
 18 19  1  0  0  0  0
 18 29  1  0  0  0  0
 18 30  1  0  0  0  0
 19 20  1  0  0  0  0
 19 31  1  0  0  0  0
 19 32  1  0  0  0  0
 20 21  1  0  0  0  0
 20 33  1  0  0  0  0
 20 34  1  0  0  0  0
 21 22  1  0  0  0  0
 21 35  1  0  0  0  0
 21 36  1  0  0  0  0
 22 37  1  0  0  0  0
 22 38  1  0  0  0  0
M  END
> <s_m_source_file>
AV-unprocessed.smi

> <i_m_source_file_index>
2984

> <i_lp_mmshare_version>
43012

> <i_f3d_flags>
0

> <s_epik_input>
Tz1jMWMoQ2wpYyhDbClbY0hdbm4xW0NIMl1DKD1PKVtOSF1DKD1PKVtOSF1bQ0hdMltDSDJdW0NIMl1bQ0gyXVtDSDJdW0NIMl0y

> <s_epik_cmdline>
J2VwaWtfcHl0aG9uJywgJy1waCcsICc3LjAnLCAnLXRuJywgJzgnLCAnLW1hJywgJzIwMCcsICctbWV0YWxfYmluZGluZycsICctaW1hZScsICc8aW5maWxlLm1hZT4nLCAnLW9tYWUnLCAnPG91dGZpbGUubWFlPic=

> <r_lp_tautomer_probability>
1

> <r_epik_Ionization_Penalty>
3.27035e-05

> <r_epik_Ionization_Penalty_Charging>
2.24292e-11

> <r_epik_Ionization_Penalty_Neutral>
3.27035e-05

> <r_epik_State_Penalty>
-0

> <r_epik_Charging_Adjusted_Penalty>
2.24292e-11

> <i_epik_Tot_Q>
0

> <i_epik_Tot_abs_Q>
0

> <r_epik_Metal_State_Penalty>
-0

> <b_epik_Metal_Only>
0

> <s_lp_Force_Field>
OPLS_2005

> <r_lp_Energy>
25.082

> <b_lp_Chiralities_Consistent>
1

> <s_lp_Variant>
AV-unprocessed.smi:2984-1

> <Gold.Version>
5.8.1

> <Gold.Id.Protein>
6NUR|6NUR_protein|mol2

> <Gold.PLP.Fitness>
51.9519

> <Gold.PLP.PLP>
-43.8854

> <Gold.PLP.part.hbond>
-4.0000

> <Gold.PLP.part.metal>
0.0000

> <Gold.PLP.part.buried>
-3.8013

> <Gold.PLP.part.nonpolar>
-36.5615

> <Gold.PLP.part.repulsive>
0.5580

> <Gold.PLP.ligand.clash>
0.0000

> <Gold.PLP.ligand.torsion>
0.4730

> <Gold.PLP.Chemscore.Hbond>
3.0000

> <Gold.PLP.Chemscore.CHOScore>
0.0000

> <Gold.PLP.Chemscore.Metal>
0.0000

> <Gold.Chemscore.Hbonds>
donor molecule, donor type, donor heavy atom, donor atom, acceptor molecule, acceptor atom, score
      L1  H    13    26       P1  8028  0.99
      L1  H    16    27       P1  8028  1.00
      P1  H  7989  7998       L1     1  1.00

> <Gold.PLP.Chemscore.Internal.Correction>
0.0126

> <Gold.Rescore>
     Score         DG    S(hbond)    S(metal)    S(lipo)     H(rot)  DE(clash)    DE(int)     intcor
     15.00     -18.54       2.11        0.00      86.93       1.63       0.30       3.24       ----

> <Gold.Chemscore.Fitness>
15.0021

> <Gold.Chemscore.DG>
-18.5372

> <Gold.Chemscore.ZeroCoef>
-5.4800

> <Gold.Chemscore.Hbond>
2.1123

> <Gold.Chemscore.Metal>
0.0000

> <Gold.Chemscore.Lipo>
86.9291

> <Gold.Chemscore.Internal_Hbond>
0.0000

> <Gold.Chemscore.DEClash>
0.2956

> <Gold.Chemscore.DEInternal>
3.2395

> <Gold.Chemscore.Rot>
1.6283

> <Gold.Chemscore.Internal.Correction>
   9.000000E+99

> <Gold.Chemscore.Hbonds>
donor molecule, donor type, donor heavy atom, donor atom, acceptor molecule, acceptor atom, score
      L1  H    13    26       P1  8028  0.94
      L1  H    16    27       P1  8028  0.90
      P1  H  7989  7998       L1     1  0.24

> <Gold.Chemscore.Hbond.Weighted>
-7.0549

> <Gold.Chemscore.Metal.Weighted>
-0.0000

> <Gold.Chemscore.Lipo.Weighted>
-10.1707

> <Gold.Chemscore.Internal_Hbond.Weighted>
0.0000

> <Gold.Chemscore.DEClash.Weighted>
0.2956

> <Gold.Chemscore.DEInternal.Weighted>
3.2395

> <Gold.Chemscore.Rot.Weighted>
4.1684

> <Gold.Chemscore.Internal.Correction.Weighted>
   9.000000E+99

> <Gold.Protein.RotatedTorsions>
[ 6907 6896 6895 6894 ] final   82.30 input  -60.11 | X-H torsion
[ 7974 7965 7964 7962 ] final  -80.37 input  175.53 | X-H torsion
[ 8008 7997 7996 7995 ] final   67.26 input   59.86 | X-H torsion
[ 10167 10162 10161 10158 ] final -148.66 input  -65.29 | X-H torsion
[ 10718 10713 10712 10709 ] final  -79.94 input   66.30 | X-H torsion
[ 10763 10752 10751 10750 ] final  -53.64 input  -60.55 | X-H torsion
[ 11005 11000 10999 10996 ] final  -10.02 input  -57.11 | X-H torsion

> <Gold.Protein.ActiveResidues>
 VAL166  LYS551  ARG553  GLY616  TRP617  ASP618  TYR619  PRO620  LYS621  CYS622 
 ASP623  PHE694  ASN695  SER759  ASP760  ASP761  ALA762  ILE779  LEU786  VAL792 
 PHE793  MET794  SER795  GLU796  ALA797  LYS798  CYS799  TRP800  GLU811  SER814 

> <Gold.Protein.RotatedAtoms>
  152.5295  134.3071  159.9099 H   0  0  0  0  0  0  0  0  0  0  0  0  # atno 6907 bound_to 6896
  151.3021  133.4111  159.2648 H   0  0  0  0  0  0  0  0  0  0  0  0  # atno 6908 bound_to 6896
  151.0110  134.9413  159.8064 H   0  0  0  0  0  0  0  0  0  0  0  0  # atno 6909 bound_to 6896
  145.5608  140.9482  143.1448 H   0  0  0  0  0  0  0  0  0  0  0  0  # atno 7974 bound_to 7965
  155.6901  140.3496  155.4890 H   0  0  0  0  0  0  0  0  0  0  0  0  # atno 8008 bound_to 7997
  155.9531  140.1123  157.0982 H   0  0  0  0  0  0  0  0  0  0  0  0  # atno 8009 bound_to 7997
  154.4126  140.1190  156.5066 H   0  0  0  0  0  0  0  0  0  0  0  0  # atno 8010 bound_to 7997
  139.7512  143.8516  152.2586 H   0  0  0  0  0  0  0  0  0  0  0  0  # atno 10167 bound_to 10162
  156.0081  130.4560  150.3724 H   0  0  0  0  0  0  0  0  0  0  0  0  # atno 10718 bound_to 10713
  154.1621  135.6473  153.4988 H   0  0  0  0  0  0  0  0  0  0  0  0  # atno 10763 bound_to 10752
  153.0107  135.5363  154.6700 H   0  0  0  0  0  0  0  0  0  0  0  0  # atno 10764 bound_to 10752
  154.6016  135.2944  155.0501 H   0  0  0  0  0  0  0  0  0  0  0  0  # atno 10765 bound_to 10752
  140.7404  133.8675  155.8963 H   0  0  0  0  0  0  0  0  0  0  0  0  # atno 11005 bound_to 11000
  144.7484  139.7259  143.7283 LP  0  0  0  0  0  0  0  0  0  0  0  0  # atno 17320 bound_to 7965
  146.1852  139.5064  142.9840 LP  0  0  0  0  0  0  0  0  0  0  0  0  # atno 17321 bound_to 7965
  139.8495  144.7171  150.9232 LP  0  0  0  0  0  0  0  0  0  0  0  0  # atno 17342 bound_to 10162
  140.7798  143.3912  151.1307 LP  0  0  0  0  0  0  0  0  0  0  0  0  # atno 17343 bound_to 10162
  157.1808  131.0391  151.2749 LP  0  0  0  0  0  0  0  0  0  0  0  0  # atno 17370 bound_to 10713
  157.4148  130.7405  149.6867 LP  0  0  0  0  0  0  0  0  0  0  0  0  # atno 17371 bound_to 10713
  140.9842  134.1365  157.4467 LP  0  0  0  0  0  0  0  0  0  0  0  0  # atno 17394 bound_to 11000
  139.8807  135.0020  156.6101 LP  0  0  0  0  0  0  0  0  0  0  0  0  # atno 17395 bound_to 11000

$$$$
