#       Name:                AV-unprocessed.smi:66
#       Creating user name   scv26
#       Creation time:       Thu Mar 26 16:51:57 2020


#       File generated by GOLD software.
#

@<TRIPOS>MOLECULE
AV-unprocessed.smi:66
    37    39     1
SMALL
NO_CHARGES


@<TRIPOS>ATOM
      1 ****        -1.8806   3.2286  -0.3918 O.co2          1 S1                 0.0000
      2 ****        -1.7135   2.2280   0.3394 C.2            1 S1                 0.0000
      3 ****        -2.6153   1.6386   0.9762 O.co2          1 S1                -1.0000
      4 ****        -0.2769   1.7013   0.4719 C.3            1 S1                 0.0000
      5 ****         0.3038   1.9524   1.8713 C.3            1 S1                 0.0000
      6 ****         1.3402   0.8404   2.0010 C.3            1 S1                 0.0000
      7 ****         1.6698   0.5548   3.3444 O.3            1 S1                 0.0000
      8 ****         0.6802  -0.3417   1.2876 C.3            1 S1                 0.0000
      9 ****        -0.1824   0.2524   0.2728 N.pl3          1 S1                 0.0000
     10 ****        -0.2526  -0.3299  -1.0129 C.ar           1 S1                 0.0000
     11 ****        -0.2714   0.4936  -2.0926 N.ar           1 S1                 0.0000
     12 ****        -0.3328  -0.0646  -3.3064 C.ar           1 S1                 0.0000
     13 ****        -0.3752  -1.3694  -3.5911 N.ar           1 S1                 0.0000
     14 ****        -0.3624  -2.2017  -2.5300 C.ar           1 S1                 0.0000
     15 ****        -0.4018  -3.5211  -2.4363 N.pl3          1 S1                -1.0000
     16 ****        -0.3736  -3.8334  -1.1155 C.2            1 S1                 0.0000
     17 ****        -0.3143  -2.7547  -0.3083 N.2            1 S1                 0.0000
     18 ****        -0.3016  -1.7342  -1.2174 C.ar           1 S1                 0.0000
     19 ****         0.3600   2.1985  -0.2614 H              1 S1                 0.0000
     20 ****         0.7391   2.9467   1.9743 H              1 S1                 0.0000
     21 ****        -0.4627   1.8386   2.6406 H              1 S1                 0.0000
     22 ****         2.2448   1.1290   1.4637 H              1 S1                 0.0000
     23 ****         2.0336   1.3348   3.7337 H              1 S1                 0.0000
     24 ****         1.4351  -1.0095   0.8705 H              1 S1                 0.0000
     25 ****         0.0542  -0.9176   1.9707 H              1 S1                 0.0000
     26 ****        -0.3428   0.6126  -4.1475 H              1 S1                 0.0000
     27 ****        -0.3997  -4.8712  -0.8073 H              1 S1                 0.0000
     28 ****        -2.7942   3.6197  -0.5028 LP             1 S1                 0.0000
     29 ****        -1.1007   3.6376  -0.8654 LP             1 S1                 0.0000
     30 ****        -3.5596   1.9633   0.9223 LP             1 S1                 0.0000
     31 ****        -2.3917   0.8428   1.5390 LP             1 S1                 0.0000
     32 ****         2.3422  -0.1846   3.3775 LP             1 S1                 0.0000
     33 ****         0.8476   0.2801   3.8430 LP             1 S1                 0.0000
     34 ****        -0.2403   1.4871  -1.9834 LP             1 S1                 0.0000
     35 ****        -0.4140  -1.7074  -4.5314 LP             1 S1                 0.0000
     36 ****        -0.4445  -4.1683  -3.1975 LP             1 S1                 0.0000
     37 ****        -0.2869  -2.7127   0.6905 LP             1 S1                 0.0000
@<TRIPOS>BOND
    1    1    2 ar    
    2    2    3 ar    
    3    2    4 1     
    4    4    5 1     
    5    4   19 1     
    6    4    9 1     
    7    5    6 1     
    8    5   20 1     
    9    5   21 1     
   10    6    7 1     
   11    6    8 1     
   12    6   22 1     
   13    7   23 1     
   14    8   24 1     
   15    8   25 1     
   16    8    9 1     
   17    9   10 1     
   18   10   11 ar    
   19   10   18 ar    
   20   11   12 ar    
   21   12   26 1     
   22   12   13 ar    
   23   13   14 ar    
   24   14   15 1     
   25   14   18 ar    
   26   15   16 1     
   27   16   17 2     
   28   16   27 1     
   29   17   18 1     
   30    1   28 1     
   31    1   29 1     
   32    3   30 1     
   33    3   31 1     
   34    7   32 1     
   35    7   33 1     
   36   11   34 1     
   37   13   35 1     
   38   15   36 1     
   39   17   37 1     
@<TRIPOS>SUBSTRUCTURE
      1 S1             1
@<TRIPOS>SET
LONE_PAIRS      STATIC     ATOMS    <user>   **** ""
10 28 29 30 31 32 33 34 35 36 37
DONOR_HYDROGENS      STATIC     ATOMS    <user>   **** ""
1 23
ATOM$BLUE        STATIC     ATOMS    COLORGROUP SYSTEM
10 28 29 30 31 32 33 34 35 36 37
ATOM$RED        STATIC     ATOMS    COLORGROUP SYSTEM
1 23
