#       Name:                AV-unprocessed.smi:1697
#       Creating user name   scv26
#       Creation time:       Fri Mar 27 07:57:34 2020


#       File generated by GOLD software.
#

@<TRIPOS>MOLECULE
AV-unprocessed.smi:1697
    59    61     1
SMALL
NO_CHARGES


@<TRIPOS>ATOM
      1 ****        -4.4547   4.3828  -1.9684 C.3            1 S1                 0.0000
      2 ****        -5.1024   4.1845  -0.5909 C.3            1 S1                 0.0000
      3 ****        -4.1841   3.6698   0.3657 O.3            1 S1                 0.0000
      4 ****        -3.8111   2.3097   0.1819 C.3            1 S1                 0.0000
      5 ****        -4.0239   1.5635   1.5064 C.3            1 S1                 0.0000
      6 ****        -3.5078   0.1175   1.4141 C.3            1 S1                 0.0000
      7 ****        -2.0749   0.0831   1.0220 N.4            1 S1                 1.0000
      8 ****        -1.5101  -1.2905   1.0569 C.3            1 S1                 0.0000
      9 ****         0.0118  -1.2912   1.2983 C.3            1 S1                 0.0000
     10 ****         0.2679  -0.8094   2.6040 O.3            1 S1                 0.0000
     11 ****         0.6209  -2.6981   1.1469 C.3            1 S1                 0.0000
     12 ****         2.0645  -2.6904   1.2990 N.pl3          1 S1                 0.0000
     13 ****         2.7771  -3.0977   2.3671 C.2            1 S1                 0.0000
     14 ****         4.1008  -2.9942   2.2906 N.2            1 S1                 0.0000
     15 ****         4.2669  -2.4598   1.0243 C.ar           1 S1                 0.0000
     16 ****         5.4405  -2.1026   0.3252 C.ar           1 S1                 0.0000
     17 ****         5.3713  -1.5639  -0.9796 C.ar           1 S1                 0.0000
     18 ****         6.6585  -1.1907  -1.6936 C.3            1 S1                 0.0000
     19 ****         4.1126  -1.3767  -1.6057 C.ar           1 S1                 0.0000
     20 ****         4.0139  -0.7993  -3.0066 C.3            1 S1                 0.0000
     21 ****         2.9304  -1.7290  -0.9218 C.ar           1 S1                 0.0000
     22 ****         3.0126  -2.2614   0.3769 C.ar           1 S1                 0.0000
     23 ****        -1.8455   0.7801  -0.2725 C.3            1 S1                 0.0000
     24 ****        -2.3266   2.2384  -0.2080 C.3            1 S1                 0.0000
     25 ****        -5.1520   4.8609  -2.6565 H              1 S1                 0.0000
     26 ****        -4.1558   3.4345  -2.4143 H              1 S1                 0.0000
     27 ****        -3.5705   5.0167  -1.8975 H              1 S1                 0.0000
     28 ****        -5.4513   5.1494  -0.2226 H              1 S1                 0.0000
     29 ****        -5.9828   3.5441  -0.6603 H              1 S1                 0.0000
     30 ****        -4.4152   1.8275  -0.5894 H              1 S1                 0.0000
     31 ****        -3.5045   2.0848   2.3119 H              1 S1                 0.0000
     32 ****        -5.0825   1.5659   1.7686 H              1 S1                 0.0000
     33 ****        -3.6367  -0.3682   2.3821 H              1 S1                 0.0000
     34 ****        -4.0982  -0.4493   0.6921 H              1 S1                 0.0000
     35 ****        -1.9865  -1.8722   1.8480 H              1 S1                 0.0000
     36 ****        -1.7515  -1.7989   0.1221 H              1 S1                 0.0000
     37 ****         0.5050  -0.6244   0.5920 H              1 S1                 0.0000
     38 ****        -0.0725  -1.4308   3.2298 H              1 S1                 0.0000
     39 ****         0.1916  -3.3862   1.8767 H              1 S1                 0.0000
     40 ****         0.3897  -3.1039   0.1612 H              1 S1                 0.0000
     41 ****         2.2974  -3.4872   3.2533 H              1 S1                 0.0000
     42 ****         6.3991  -2.2448   0.8022 H              1 S1                 0.0000
     43 ****         6.6747  -0.1239  -1.9175 H              1 S1                 0.0000
     44 ****         6.7520  -1.7431  -2.6287 H              1 S1                 0.0000
     45 ****         7.5331  -1.4178  -1.0835 H              1 S1                 0.0000
     46 ****         2.9763  -0.7182  -3.3312 H              1 S1                 0.0000
     47 ****         4.5385  -1.4351  -3.7200 H              1 S1                 0.0000
     48 ****         4.4542   0.1972  -3.0412 H              1 S1                 0.0000
     49 ****         1.9654  -1.5919  -1.3866 H              1 S1                 0.0000
     50 ****        -0.7872   0.7711  -0.5299 H              1 S1                 0.0000
     51 ****        -2.3669   0.2499  -1.0710 H              1 S1                 0.0000
     52 ****        -2.1635   2.7241  -1.1699 H              1 S1                 0.0000
     53 ****        -1.7269   2.7876   0.5192 H              1 S1                 0.0000
     54 ****        -1.5794   0.6066   1.7303 H              1 S1                 0.0000
     55 ****        -4.6005   3.7561   1.2707 LP             1 S1                 0.0000
     56 ****        -3.3537   4.2256   0.3265 LP             1 S1                 0.0000
     57 ****        -0.1813   0.0751   2.7301 LP             1 S1                 0.0000
     58 ****         1.2535  -0.7045   2.7363 LP             1 S1                 0.0000
     59 ****         4.7937  -3.2381   2.9691 LP             1 S1                 0.0000
@<TRIPOS>BOND
    1    1    2 1     
    2    1   25 1     
    3    1   26 1     
    4    1   27 1     
    5    2    3 1     
    6    2   28 1     
    7    2   29 1     
    8    3    4 1     
    9    4   24 1     
   10    4    5 1     
   11    4   30 1     
   12    5    6 1     
   13    5   31 1     
   14    5   32 1     
   15    6    7 1     
   16    6   33 1     
   17    6   34 1     
   18    7    8 1     
   19    7   23 1     
   20    7   54 1     
   21    8    9 1     
   22    8   35 1     
   23    8   36 1     
   24    9   10 1     
   25    9   11 1     
   26    9   37 1     
   27   10   38 1     
   28   11   12 1     
   29   11   39 1     
   30   11   40 1     
   31   12   22 1     
   32   12   13 1     
   33   13   14 2     
   34   13   41 1     
   35   14   15 1     
   36   15   22 ar    
   37   15   16 ar    
   38   16   17 ar    
   39   16   42 1     
   40   17   18 1     
   41   17   19 ar    
   42   18   43 1     
   43   18   44 1     
   44   18   45 1     
   45   19   20 1     
   46   19   21 ar    
   47   20   46 1     
   48   20   47 1     
   49   20   48 1     
   50   21   22 ar    
   51   21   49 1     
   52   23   24 1     
   53   23   50 1     
   54   23   51 1     
   55   24   52 1     
   56   24   53 1     
   57    3   55 1     
   58    3   56 1     
   59   10   57 1     
   60   10   58 1     
   61   14   59 1     
@<TRIPOS>SUBSTRUCTURE
      1 S1             1
@<TRIPOS>SET
LONE_PAIRS      STATIC     ATOMS    <user>   **** ""
5 55 56 57 58 59
DONOR_HYDROGENS      STATIC     ATOMS    <user>   **** ""
2 54 38
ATOM$BLUE        STATIC     ATOMS    COLORGROUP SYSTEM
5 55 56 57 58 59
ATOM$RED        STATIC     ATOMS    COLORGROUP SYSTEM
2 54 38
