AV-unprocessed.smi:2007|AV-procd|sdf|8140|dock9
  -GOLD-   2272010373D 1   1.00000     0.00000
 Structure written by MMmdl.
 36 37  0  0  0  0  0  0  0  0  3 V2000
  150.3300  136.4279  155.0865 C   0  0  0  0  0  0  0  0  0  0  0  0
  149.1561  135.7857  155.8375 C   0  0  1  0  0  0  0  0  0  0  0  0
  148.8928  134.3419  155.3511 C   0  0  0  0  0  0  0  0  0  0  0  0
  148.0287  134.2954  154.1450 N   0  3  0  0  0  0  0  0  0  0  0  0
  147.9499  132.9550  153.5180 C   0  0  0  0  0  0  0  0  0  0  0  0
  147.1418  133.0370  152.2126 C   0  0  0  0  0  0  0  0  0  0  0  0
  145.8444  133.5524  152.4895 O   0  0  0  0  0  0  0  0  0  0  0  0
  145.8962  134.8661  153.0351 C   0  0  0  0  0  0  0  0  0  0  0  0
  146.6723  134.8467  154.3632 C   0  0  0  0  0  0  0  0  0  0  0  0
  149.4317  135.8042  157.2758 N   0  0  0  0  0  0  0  0  0  0  0  0
  148.5433  136.0182  158.2586 C   0  0  0  0  0  0  0  0  0  0  0  0
  147.3762  136.3065  157.9850 O   0  0  0  0  0  0  0  0  0  0  0  0
  149.0548  135.8514  159.4975 N   0  5  0  0  0  0  0  0  0  0  0  0
  148.2407  135.8810  160.5651 C   0  0  0  0  0  0  0  0  0  0  0  0
  147.7877  137.0192  161.1040 N   0  0  0  0  0  0  0  0  0  0  0  0
  146.9549  136.8180  162.2063 C   0  0  0  0  0  0  0  0  0  0  0  0
  146.7653  135.4958  162.5095 C   0  0  0  0  0  0  0  0  0  0  0  0
  147.6314  134.4579  161.4132 S   0  0  0  0  0  0  0  0  0  0  0  0
  150.1415  136.4522  154.0129 H   0  0  0  0  0  0  0  0  0  0  0  0
  151.2569  135.8768  155.2497 H   0  0  0  0  0  0  0  0  0  0  0  0
  150.4912  137.4552  155.4154 H   0  0  0  0  0  0  0  0  0  0  0  0
  148.2763  136.3952  155.6276 H   0  0  0  0  0  0  0  0  0  0  0  0
  149.8297  133.8159  155.1609 H   0  0  0  0  0  0  0  0  0  0  0  0
  148.3987  133.7999  156.1590 H   0  0  0  0  0  0  0  0  0  0  0  0
  148.9492  132.5755  153.3062 H   0  0  0  0  0  0  0  0  0  0  0  0
  147.4807  132.2518  154.2075 H   0  0  0  0  0  0  0  0  0  0  0  0
  147.6494  133.6667  151.4796 H   0  0  0  0  0  0  0  0  0  0  0  0
  147.0424  132.0467  151.7682 H   0  0  0  0  0  0  0  0  0  0  0  0
  146.3624  135.5492  152.3228 H   0  0  0  0  0  0  0  0  0  0  0  0
  144.8791  135.2222  153.1986 H   0  0  0  0  0  0  0  0  0  0  0  0
  146.1443  134.2444  155.1041 H   0  0  0  0  0  0  0  0  0  0  0  0
  146.7423  135.8604  154.7596 H   0  0  0  0  0  0  0  0  0  0  0  0
  150.3770  135.5864  157.5567 H   0  0  0  0  0  0  0  0  0  0  0  0
  146.5388  137.6749  162.7150 H   0  0  0  0  0  0  0  0  0  0  0  0
  146.1721  135.0705  163.3049 H   0  0  0  0  0  0  0  0  0  0  0  0
  148.4701  134.9057  153.4701 H   0  0  0  0  0  0  0  0  0  0  0  0
  1  2  1  0  0  0  0
  1 19  1  0  0  0  0
  1 20  1  0  0  0  0
  1 21  1  0  0  0  0
  2  3  1  0  0  0  0
  2 10  1  0  0  0  0
  2 22  1  0  0  0  0
  3  4  1  0  0  0  0
  3 23  1  0  0  0  0
  3 24  1  0  0  0  0
  4  9  1  0  0  0  0
  4  5  1  0  0  0  0
  4 36  1  0  0  0  0
  5  6  1  0  0  0  0
  5 25  1  0  0  0  0
  5 26  1  0  0  0  0
  6  7  1  0  0  0  0
  6 27  1  0  0  0  0
  6 28  1  0  0  0  0
  7  8  1  0  0  0  0
  8  9  1  0  0  0  0
  8 29  1  0  0  0  0
  8 30  1  0  0  0  0
  9 31  1  0  0  0  0
  9 32  1  0  0  0  0
 10 11  1  0  0  0  0
 10 33  1  0  0  0  0
 11 12  2  0  0  0  0
 11 13  1  0  0  0  0
 13 14  1  0  0  0  0
 14 18  1  0  0  0  0
 14 15  2  0  0  0  0
 15 16  1  0  0  0  0
 16 17  2  0  0  0  0
 16 34  1  0  0  0  0
 17 18  1  0  0  0  0
 17 35  1  0  0  0  0
M  CHG  1   4   1
M  CHG  1  13  -1
M  END
> <s_m_source_file>
AV-unprocessed.smi

> <i_m_source_file_index>
2007

> <i_lp_mmshare_version>
43012

> <i_f3d_flags>
0

> <s_epik_input>
W0NIMl0xW0NIMl1PW0NIMl1bQ0gyXU4xW0NIMl1bQ0BASF0oW0NIM10pW05IXUMoPU8pW05IXWMybltjSF1bY0hdczI=

> <s_epik_cmdline>
J2VwaWtfcHl0aG9uJywgJy1waCcsICc3LjAnLCAnLXRuJywgJzgnLCAnLW1hJywgJzIwMCcsICctbWV0YWxfYmluZGluZycsICctaW1hZScsICc8aW5maWxlLm1hZT4nLCAnLW9tYWUnLCAnPG91dGZpbGUubWFlPic=

> <r_lp_tautomer_probability>
0.999

> <r_epik_Ionization_Penalty>
6.49226

> <r_epik_Ionization_Penalty_Charging>
5.74393

> <r_epik_Ionization_Penalty_Neutral>
0.748321

> <r_epik_State_Penalty>
5.94164

> <r_epik_Charging_Adjusted_Penalty>
11.6856

> <i_epik_Tot_Q>
0

> <i_epik_Tot_abs_Q>
2

> <r_epik_Metal_State_Penalty>
1.97606

> <b_epik_Metal_Only>
1

> <s_lp_Force_Field>
OPLS_2005

> <r_lp_Energy>
10.1675

> <b_lp_Chiralities_Consistent>
1

> <s_lp_Variant>
AV-unprocessed.smi:2007-8

> <Gold.Version>
5.8.1

> <Gold.Id.Protein>
6NUR|6NUR_protein|mol2

> <Gold.PLP.Fitness>
41.5956

> <Gold.PLP.PLP>
-27.5478

> <Gold.PLP.part.hbond>
-4.0000

> <Gold.PLP.part.metal>
0.0000

> <Gold.PLP.part.buried>
-3.4746

> <Gold.PLP.part.nonpolar>
-20.5191

> <Gold.PLP.part.repulsive>
0.1724

> <Gold.PLP.ligand.clash>
0.0000

> <Gold.PLP.ligand.torsion>
1.3928

> <Gold.PLP.Chemscore.Hbond>
5.5819

> <Gold.PLP.Chemscore.CHOScore>
0.0000

> <Gold.PLP.Chemscore.Metal>
0.0000

> <Gold.Chemscore.Hbonds>
donor molecule, donor type, donor heavy atom, donor atom, acceptor molecule, acceptor atom, score
      L1  H     4    36       P1  7948  1.59
      P1  H  6896  6908       L1    13  2.00
      P1  H  6931  6943       L1    15  0.95
      P1  H  6934  6947       L1    15  0.42

> <Gold.PLP.Chemscore.Internal.Correction>
0.0876

> <Gold.Rescore>
     Score         DG    S(hbond)    S(metal)    S(lipo)     H(rot)  DE(clash)    DE(int)     intcor
     14.68     -16.10       2.63        0.00      50.73       1.60       0.02       1.41       ----

> <Gold.Chemscore.Fitness>
14.6754

> <Gold.Chemscore.DG>
-16.1008

> <Gold.Chemscore.ZeroCoef>
-5.4800

> <Gold.Chemscore.Hbond>
2.6284

> <Gold.Chemscore.Metal>
0.0000

> <Gold.Chemscore.Lipo>
50.7320

> <Gold.Chemscore.Internal_Hbond>
0.0000

> <Gold.Chemscore.DEClash>
0.0202

> <Gold.Chemscore.DEInternal>
1.4052

> <Gold.Chemscore.Rot>
1.5991

> <Gold.Chemscore.Internal.Correction>
   9.000000E+99

> <Gold.Chemscore.Hbonds>
donor molecule, donor type, donor heavy atom, donor atom, acceptor molecule, acceptor atom, score
      L1  H     4    36       P1  7948  0.62
      P1  H  6896  6908       L1    13  0.82
      P1  H  6931  6943       L1    15  0.20
      P1  H  6934  6947       L1    15  0.03

> <Gold.Chemscore.Hbond.Weighted>
-8.7788

> <Gold.Chemscore.Metal.Weighted>
-0.0000

> <Gold.Chemscore.Lipo.Weighted>
-5.9356

> <Gold.Chemscore.Internal_Hbond.Weighted>
0.0000

> <Gold.Chemscore.DEClash.Weighted>
0.0202

> <Gold.Chemscore.DEInternal.Weighted>
1.4052

> <Gold.Chemscore.Rot.Weighted>
4.0936

> <Gold.Chemscore.Internal.Correction.Weighted>
   9.000000E+99

> <Gold.Protein.RotatedTorsions>
[ 6907 6896 6895 6894 ] final  178.04 input  -60.11 | X-H torsion
[ 7974 7965 7964 7962 ] final -111.58 input  175.53 | X-H torsion
[ 8008 7997 7996 7995 ] final  -56.36 input   59.86 | X-H torsion
[ 10167 10162 10161 10158 ] final  147.02 input  -65.29 | X-H torsion
[ 10718 10713 10712 10709 ] final   90.01 input   66.30 | X-H torsion
[ 10763 10752 10751 10750 ] final   27.83 input  -60.55 | X-H torsion
[ 11005 11000 10999 10996 ] final   93.28 input  -57.11 | X-H torsion

> <Gold.Protein.ActiveResidues>
 VAL166  LYS551  ARG553  GLY616  TRP617  ASP618  TYR619  PRO620  LYS621  CYS622 
 ASP623  PHE694  ASN695  SER759  ASP760  ASP761  ALA762  ILE779  LEU786  VAL792 
 PHE793  MET794  SER795  GLU796  ALA797  LYS798  CYS799  TRP800  GLU811  SER814 

> <Gold.Protein.RotatedAtoms>
  151.6942  133.3311  159.3250 H   0  0  0  0  0  0  0  0  0  0  0  0  # atno 6907 bound_to 6896
  150.7765  134.6672  159.6381 H   0  0  0  0  0  0  0  0  0  0  0  0  # atno 6908 bound_to 6896
  152.3809  134.6595  160.0195 H   0  0  0  0  0  0  0  0  0  0  0  0  # atno 6909 bound_to 6896
  145.1543  140.8845  143.3628 H   0  0  0  0  0  0  0  0  0  0  0  0  # atno 7974 bound_to 7965
  154.4227  140.1131  156.5625 H   0  0  0  0  0  0  0  0  0  0  0  0  # atno 8008 bound_to 7997
  155.6297  140.3495  155.4660 H   0  0  0  0  0  0  0  0  0  0  0  0  # atno 8009 bound_to 7997
  155.9958  140.1189  157.0584 H   0  0  0  0  0  0  0  0  0  0  0  0  # atno 8010 bound_to 7997
  139.4897  144.5786  151.6916 H   0  0  0  0  0  0  0  0  0  0  0  0  # atno 10167 bound_to 10162
  157.6957  131.0355  150.3513 H   0  0  0  0  0  0  0  0  0  0  0  0  # atno 10718 bound_to 10713
  153.0531  135.6528  154.0645 H   0  0  0  0  0  0  0  0  0  0  0  0  # atno 10763 bound_to 10752
  154.0329  135.2910  155.3367 H   0  0  0  0  0  0  0  0  0  0  0  0  # atno 10764 bound_to 10752
  154.6830  135.5312  153.8356 H   0  0  0  0  0  0  0  0  0  0  0  0  # atno 10765 bound_to 10752
  139.8812  134.8781  156.3694 H   0  0  0  0  0  0  0  0  0  0  0  0  # atno 11005 bound_to 11000
  145.0397  139.3270  143.5983 LP  0  0  0  0  0  0  0  0  0  0  0  0  # atno 17320 bound_to 7965
  146.3490  139.9766  142.8700 LP  0  0  0  0  0  0  0  0  0  0  0  0  # atno 17321 bound_to 7965
  140.5387  144.0613  150.6080 LP  0  0  0  0  0  0  0  0  0  0  0  0  # atno 17342 bound_to 10162
  140.3628  143.2898  152.0364 LP  0  0  0  0  0  0  0  0  0  0  0  0  # atno 17343 bound_to 10162
  156.3961  130.3907  149.6994 LP  0  0  0  0  0  0  0  0  0  0  0  0  # atno 17370 bound_to 10713
  156.4327  130.7823  151.2843 LP  0  0  0  0  0  0  0  0  0  0  0  0  # atno 17371 bound_to 10713
  140.9474  133.7473  156.0227 LP  0  0  0  0  0  0  0  0  0  0  0  0  # atno 17394 bound_to 11000
  140.8146  134.3359  157.5401 LP  0  0  0  0  0  0  0  0  0  0  0  0  # atno 17395 bound_to 11000

$$$$
