AV-unprocessed.smi:798|AV-procd|sdf|3777|dock9
  -GOLD-   22720 1213D 1   1.00000     0.00000
 Structure written by MMmdl.
 33 35  0  0  0  0  0  0  0  0  2 V2000
  150.5832  140.2979  157.7777 O   0  0  0  0  0  0  0  0  0  0  0  0
  151.8013  140.4620  157.6773 C   0  0  0  0  0  0  0  0  0  0  0  0
  152.6384  139.7749  156.8670 N   0  5  0  0  0  0  0  0  0  0  0  0
  152.1437  139.0590  155.8437 C   0  0  0  0  0  0  0  0  0  0  0  0
  152.7028  137.9095  155.4324 N   0  0  0  0  0  0  0  0  0  0  0  0
  152.0380  137.3328  154.3584 N   0  0  0  0  0  0  0  0  0  0  0  0
  150.9940  138.0703  153.9809 C   0  0  0  0  0  0  0  0  0  0  0  0
  150.7307  139.5377  154.8990 S   0  0  0  0  0  0  0  0  0  0  0  0
  152.4111  141.4045  158.4095 N   0  0  0  0  0  0  0  0  0  0  0  0
  151.7552  142.3119  159.3501 C   0  0  2  0  0  0  0  0  0  0  0  0
  150.8406  143.3602  158.6642 C   0  0  2  0  0  0  0  0  0  0  0  0
  151.5785  144.0952  157.5247 C   0  0  0  0  0  0  0  0  0  0  0  0
  152.6039  144.9534  158.2882 C   0  0  0  0  0  0  0  0  0  0  0  0
  152.2918  144.6271  159.7623 C   0  0  1  0  0  0  0  0  0  0  0  0
  150.7779  144.4538  159.7223 C   0  0  0  0  0  0  0  0  0  0  0  0
  152.7901  143.2003  160.0916 C   0  0  1  0  0  0  0  0  0  0  0  0
  152.8579  142.9312  161.6075 C   0  0  0  0  0  0  0  0  0  0  0  0
  151.5578  142.8655  162.1534 O   0  0  0  0  0  0  0  0  0  0  0  0
  150.3775  137.7507  153.1542 H   0  0  0  0  0  0  0  0  0  0  0  0
  153.4099  141.5028  158.3015 H   0  0  0  0  0  0  0  0  0  0  0  0
  151.1724  141.7298  160.0668 H   0  0  0  0  0  0  0  0  0  0  0  0
  149.8707  142.9618  158.3655 H   0  0  0  0  0  0  0  0  0  0  0  0
  152.0440  143.4252  156.8017 H   0  0  0  0  0  0  0  0  0  0  0  0
  150.8866  144.7335  156.9738 H   0  0  0  0  0  0  0  0  0  0  0  0
  153.6322  144.7113  158.0173 H   0  0  0  0  0  0  0  0  0  0  0  0
  152.4451  146.0124  158.0814 H   0  0  0  0  0  0  0  0  0  0  0  0
  152.6494  145.3901  160.4544 H   0  0  0  0  0  0  0  0  0  0  0  0
  150.2481  145.3485  159.3904 H   0  0  0  0  0  0  0  0  0  0  0  0
  150.3470  144.1179  160.6664 H   0  0  0  0  0  0  0  0  0  0  0  0
  153.7932  143.0699  159.6806 H   0  0  0  0  0  0  0  0  0  0  0  0
  153.3558  141.9807  161.7998 H   0  0  0  0  0  0  0  0  0  0  0  0
  153.4267  143.7029  162.1265 H   0  0  0  0  0  0  0  0  0  0  0  0
  151.4570  143.5674  162.7777 H   0  0  0  0  0  0  0  0  0  0  0  0
  1  2  2  0  0  0  0
  2  3  1  0  0  0  0
  2  9  1  0  0  0  0
  3  4  1  0  0  0  0
  4  8  1  0  0  0  0
  4  5  2  0  0  0  0
  5  6  1  0  0  0  0
  6  7  2  0  0  0  0
  7  8  1  0  0  0  0
  7 19  1  0  0  0  0
  9 10  1  0  0  0  0
  9 20  1  0  0  0  0
 10 16  1  0  0  0  0
 10 11  1  0  0  0  0
 10 21  1  0  0  0  0
 11 15  1  0  0  0  0
 11 12  1  0  0  0  0
 11 22  1  0  0  0  0
 12 13  1  0  0  0  0
 12 23  1  0  0  0  0
 12 24  1  0  0  0  0
 13 14  1  0  0  0  0
 13 25  1  0  0  0  0
 13 26  1  0  0  0  0
 14 15  1  0  0  0  0
 14 16  1  0  0  0  0
 14 27  1  0  0  0  0
 15 28  1  0  0  0  0
 15 29  1  0  0  0  0
 16 17  1  0  0  0  0
 16 30  1  0  0  0  0
 17 18  1  0  0  0  0
 17 31  1  0  0  0  0
 17 32  1  0  0  0  0
 18 33  1  0  0  0  0
M  CHG  1   3  -1
M  END
> <s_m_source_file>
AV-unprocessed.smi

> <i_m_source_file_index>
798

> <i_lp_mmshare_version>
43012

> <i_f3d_flags>
0

> <s_epik_input>
W0NIMl0xW0NIMl1bQ0BASF0oW0NIMl0yKVtDQEBIXShbQ0gyXVtPSF0pW0NAQEhdKFtDQEhdMTIpW05IXUMoPU8pW05IXWMzbm5bY0hdczM=

> <s_epik_cmdline>
J2VwaWtfcHl0aG9uJywgJy1waCcsICc3LjAnLCAnLXRuJywgJzgnLCAnLW1hJywgJzIwMCcsICctbWV0YWxfYmluZGluZycsICctaW1hZScsICc8aW5maWxlLm1hZT4nLCAnLW9tYWUnLCAnPG91dGZpbGUubWFlPic=

> <r_lp_tautomer_probability>
1

> <r_epik_Ionization_Penalty>
4.53732

> <r_epik_Ionization_Penalty_Charging>
4.48632

> <r_epik_Ionization_Penalty_Neutral>
0.0510007

> <r_epik_State_Penalty>
4.48602

> <r_epik_Charging_Adjusted_Penalty>
8.97234

> <i_epik_Tot_Q>
-1

> <i_epik_Tot_abs_Q>
1

> <r_epik_Metal_State_Penalty>
0.812492

> <b_epik_Metal_Only>
1

> <s_lp_Force_Field>
OPLS_2005

> <r_lp_Energy>
46.8419

> <b_lp_Chiralities_Consistent>
1

> <s_lp_Variant>
AV-unprocessed.smi:798-9

> <Gold.Version>
5.8.1

> <Gold.Id.Protein>
6NUR|6NUR_protein|mol2

> <Gold.PLP.Fitness>
58.2237

> <Gold.PLP.PLP>
-44.4939

> <Gold.PLP.part.hbond>
-4.7938

> <Gold.PLP.part.metal>
0.0000

> <Gold.PLP.part.buried>
-6.6276

> <Gold.PLP.part.nonpolar>
-33.7309

> <Gold.PLP.part.repulsive>
0.2291

> <Gold.PLP.ligand.clash>
0.0000

> <Gold.PLP.ligand.torsion>
0.4141

> <Gold.PLP.Chemscore.Hbond>
3.7440

> <Gold.PLP.Chemscore.CHOScore>
1.0990

> <Gold.PLP.Chemscore.Metal>
0.0000

> <Gold.Chemscore.Hbonds>
donor molecule, donor type, donor heavy atom, donor atom, acceptor molecule, acceptor atom, score
      P1  H  6933  6945       L1    18  0.86
      P1  H  7997  8010       L1     3  2.00
      P1  H 10752 10764       L1     6  0.91
      L1  C     7    19       P1  7948  0.72
      L1  C     7    19       P1  7949  0.31

> <Gold.PLP.Chemscore.Internal.Correction>
0.0292

> <Gold.Rescore>
     Score         DG    S(hbond)    S(metal)    S(lipo)     H(rot)  DE(clash)    DE(int)     intcor
     17.50     -20.80       2.35        0.00     105.89       1.92       1.48       1.81       ----

> <Gold.Chemscore.Fitness>
17.5050

> <Gold.Chemscore.DG>
-20.7956

> <Gold.Chemscore.ZeroCoef>
-5.4800

> <Gold.Chemscore.Hbond>
2.3484

> <Gold.Chemscore.Metal>
0.0000

> <Gold.Chemscore.Lipo>
105.8864

> <Gold.Chemscore.Internal_Hbond>
0.0000

> <Gold.Chemscore.DEClash>
1.4814

> <Gold.Chemscore.DEInternal>
1.8092

> <Gold.Chemscore.Rot>
1.9207

> <Gold.Chemscore.Internal.Correction>
   9.000000E+99

> <Gold.Chemscore.Hbonds>
donor molecule, donor type, donor heavy atom, donor atom, acceptor molecule, acceptor atom, score
      P1  H  6933  6945       L1    18  0.55
      P1  H  7997  8010       L1     3  0.60
      P1  H 10752 10764       L1     6  0.23

> <Gold.Chemscore.Hbond.Weighted>
-7.8437

> <Gold.Chemscore.Metal.Weighted>
-0.0000

> <Gold.Chemscore.Lipo.Weighted>
-12.3887

> <Gold.Chemscore.Internal_Hbond.Weighted>
0.0000

> <Gold.Chemscore.DEClash.Weighted>
1.4814

> <Gold.Chemscore.DEInternal.Weighted>
1.8092

> <Gold.Chemscore.Rot.Weighted>
4.9169

> <Gold.Chemscore.Internal.Correction.Weighted>
   9.000000E+99

> <Gold.Protein.RotatedTorsions>
[ 6907 6896 6895 6894 ] final  -35.88 input  -60.11 | X-H torsion
[ 7974 7965 7964 7962 ] final  -78.90 input  175.53 | X-H torsion
[ 8008 7997 7996 7995 ] final   68.76 input   59.86 | X-H torsion
[ 10167 10162 10161 10158 ] final  157.45 input  -65.29 | X-H torsion
[ 10718 10713 10712 10709 ] final  128.10 input   66.30 | X-H torsion
[ 10763 10752 10751 10750 ] final  -79.05 input  -60.55 | X-H torsion
[ 11005 11000 10999 10996 ] final  -45.58 input  -57.11 | X-H torsion

> <Gold.Protein.ActiveResidues>
 VAL166  LYS551  ARG553  GLY616  TRP617  ASP618  TYR619  PRO620  LYS621  CYS622 
 ASP623  PHE694  ASN695  SER759  ASP760  ASP761  ALA762  ILE779  LEU786  VAL792 
 PHE793  MET794  SER795  GLU796  ALA797  LYS798  CYS799  TRP800  GLU811  SER814 

> <Gold.Protein.RotatedAtoms>
  151.0343  134.9561  159.8127 H   0  0  0  0  0  0  0  0  0  0  0  0  # atno 6907 bound_to 6896
  152.5352  134.2740  159.8992 H   0  0  0  0  0  0  0  0  0  0  0  0  # atno 6908 bound_to 6896
  151.2751  133.4194  159.2657 H   0  0  0  0  0  0  0  0  0  0  0  0  # atno 6909 bound_to 6896
  145.5804  140.9449  143.1347 H   0  0  0  0  0  0  0  0  0  0  0  0  # atno 7974 bound_to 7965
  155.7132  140.3494  155.4983 H   0  0  0  0  0  0  0  0  0  0  0  0  # atno 8008 bound_to 7997
  155.9337  140.1089  157.1134 H   0  0  0  0  0  0  0  0  0  0  0  0  # atno 8009 bound_to 7997
  154.4090  140.1226  156.4822 H   0  0  0  0  0  0  0  0  0  0  0  0  # atno 8010 bound_to 7997
  139.4823  144.4916  151.8300 H   0  0  0  0  0  0  0  0  0  0  0  0  # atno 10167 bound_to 10162
  157.5274  131.1098  150.9061 H   0  0  0  0  0  0  0  0  0  0  0  0  # atno 10718 bound_to 10713
  154.5337  135.5709  153.6780 H   0  0  0  0  0  0  0  0  0  0  0  0  # atno 10763 bound_to 10752
  152.9945  135.6211  154.2595 H   0  0  0  0  0  0  0  0  0  0  0  0  # atno 10764 bound_to 10752
  154.2523  135.2859  155.2791 H   0  0  0  0  0  0  0  0  0  0  0  0  # atno 10765 bound_to 10752
  141.0524  133.6738  156.3033 H   0  0  0  0  0  0  0  0  0  0  0  0  # atno 11005 bound_to 11000
  144.7396  139.7485  143.7316 LP  0  0  0  0  0  0  0  0  0  0  0  0  # atno 17320 bound_to 7965
  146.1720  139.4875  142.9921 LP  0  0  0  0  0  0  0  0  0  0  0  0  # atno 17321 bound_to 7965
  140.4400  144.1999  150.5891 LP  0  0  0  0  0  0  0  0  0  0  0  0  # atno 17342 bound_to 10162
  140.4692  143.2419  151.9112 LP  0  0  0  0  0  0  0  0  0  0  0  0  # atno 17343 bound_to 10162
  156.9652  130.5470  149.5288 LP  0  0  0  0  0  0  0  0  0  0  0  0  # atno 17370 bound_to 10713
  156.0397  130.5481  150.8741 LP  0  0  0  0  0  0  0  0  0  0  0  0  # atno 17371 bound_to 10713
  140.6029  134.5537  157.5520 LP  0  0  0  0  0  0  0  0  0  0  0  0  # atno 17394 bound_to 11000
  139.9362  134.7871  156.0798 LP  0  0  0  0  0  0  0  0  0  0  0  0  # atno 17395 bound_to 11000

$$$$
