AV-unprocessed.smi:313|AV-procd|sdf|2312|dock10
  -GOLD-   2262022213D 1   1.00000     0.00000
 Structure written by MMmdl.
 50 51  0  0  0  0  0  0  0  0  1 V2000
  152.5610  144.8531  158.3717 C   0  0  0  0  0  0  0  0  0  0  0  0
  151.6561  144.0107  157.4609 C   0  0  0  0  0  0  0  0  0  0  0  0
  151.8576  142.4919  157.6200 C   0  0  1  0  0  0  0  0  0  0  0  0
  151.4811  142.0173  159.0326 C   0  0  0  0  0  0  0  0  0  0  0  0
  151.0683  141.7721  156.6232 N   0  0  0  0  0  0  0  0  0  0  0  0
  151.3125  140.5281  156.1835 C   0  0  0  0  0  0  0  0  0  0  0  0
  152.2539  139.8413  156.5843 O   0  0  0  0  0  0  0  0  0  0  0  0
  150.3498  139.9917  155.1117 C   0  0  1  0  0  0  0  0  0  0  0  0
  149.8861  138.5918  155.5474 C   0  0  0  0  0  0  0  0  0  0  0  0
  149.1676  140.8442  154.9983 N   0  0  0  0  0  0  0  0  0  0  0  0
  148.2415  141.0191  155.9561 C   0  0  0  0  0  0  0  0  0  0  0  0
  148.2824  140.4589  157.0518 O   0  0  0  0  0  0  0  0  0  0  0  0
  147.0877  141.9054  155.5865 C   0  0  0  0  0  0  0  0  0  0  0  0
  146.8720  142.3297  154.2579 C   0  0  0  0  0  0  0  0  0  0  0  0
  145.7849  143.1785  153.9745 C   0  0  0  0  0  0  0  0  0  0  0  0
  144.9338  143.5927  155.0307 C   0  0  0  0  0  0  0  0  0  0  0  0
  143.8277  144.4481  154.8164 N   0  0  0  0  0  0  0  0  0  0  0  0
  144.0710  145.8832  154.9682 C   0  0  0  0  0  0  0  0  0  0  0  0
  142.9035  146.6979  154.3865 C   0  0  0  0  0  0  0  0  0  0  0  0
  141.6794  146.2731  154.9738 O   0  0  0  0  0  0  0  0  0  0  0  0
  141.4062  144.9079  154.6818 C   0  0  0  0  0  0  0  0  0  0  0  0
  142.5096  144.0167  155.2765 C   0  0  0  0  0  0  0  0  0  0  0  0
  145.1548  143.1919  156.3063 N   0  0  0  0  0  0  0  0  0  0  0  0
  146.1992  142.3798  156.5738 C   0  0  0  0  0  0  0  0  0  0  0  0
  152.3466  145.9153  158.2527 H   0  0  0  0  0  0  0  0  0  0  0  0
  153.6158  144.7033  158.1410 H   0  0  0  0  0  0  0  0  0  0  0  0
  152.4076  144.5994  159.4209 H   0  0  0  0  0  0  0  0  0  0  0  0
  150.6170  144.2587  157.6802 H   0  0  0  0  0  0  0  0  0  0  0  0
  151.8223  144.2991  156.4221 H   0  0  0  0  0  0  0  0  0  0  0  0
  152.9159  142.2779  157.4594 H   0  0  0  0  0  0  0  0  0  0  0  0
  152.0728  142.5328  159.7893 H   0  0  0  0  0  0  0  0  0  0  0  0
  151.6587  140.9480  159.1518 H   0  0  0  0  0  0  0  0  0  0  0  0
  150.4288  142.2058  159.2479 H   0  0  0  0  0  0  0  0  0  0  0  0
  150.2754  142.2616  156.2344 H   0  0  0  0  0  0  0  0  0  0  0  0
  150.8564  139.9272  154.1466 H   0  0  0  0  0  0  0  0  0  0  0  0
  150.7295  137.9067  155.6439 H   0  0  0  0  0  0  0  0  0  0  0  0
  149.2034  138.1626  154.8136 H   0  0  0  0  0  0  0  0  0  0  0  0
  149.3655  138.6158  156.5062 H   0  0  0  0  0  0  0  0  0  0  0  0
  149.0331  141.3183  154.1172 H   0  0  0  0  0  0  0  0  0  0  0  0
  147.5257  142.0163  153.4569 H   0  0  0  0  0  0  0  0  0  0  0  0
  145.6265  143.4852  152.9521 H   0  0  0  0  0  0  0  0  0  0  0  0
  144.1927  146.1077  156.0285 H   0  0  0  0  0  0  0  0  0  0  0  0
  144.9892  146.1919  154.4689 H   0  0  0  0  0  0  0  0  0  0  0  0
  143.0470  147.7583  154.5942 H   0  0  0  0  0  0  0  0  0  0  0  0
  142.8576  146.5904  153.3015 H   0  0  0  0  0  0  0  0  0  0  0  0
  140.4386  144.6399  155.1064 H   0  0  0  0  0  0  0  0  0  0  0  0
  141.3300  144.7640  153.6024 H   0  0  0  0  0  0  0  0  0  0  0  0
  142.3207  142.9862  154.9744 H   0  0  0  0  0  0  0  0  0  0  0  0
  142.4779  144.0548  156.3662 H   0  0  0  0  0  0  0  0  0  0  0  0
  146.3193  142.0993  157.6102 H   0  0  0  0  0  0  0  0  0  0  0  0
  1  2  1  0  0  0  0
  1 25  1  0  0  0  0
  1 26  1  0  0  0  0
  1 27  1  0  0  0  0
  2  3  1  0  0  0  0
  2 28  1  0  0  0  0
  2 29  1  0  0  0  0
  3  4  1  0  0  0  0
  3  5  1  0  0  0  0
  3 30  1  0  0  0  0
  4 31  1  0  0  0  0
  4 32  1  0  0  0  0
  4 33  1  0  0  0  0
  5  6  1  0  0  0  0
  5 34  1  0  0  0  0
  6  7  2  0  0  0  0
  6  8  1  0  0  0  0
  8  9  1  0  0  0  0
  8 10  1  0  0  0  0
  8 35  1  0  0  0  0
  9 36  1  0  0  0  0
  9 37  1  0  0  0  0
  9 38  1  0  0  0  0
 10 11  1  0  0  0  0
 10 39  1  0  0  0  0
 11 12  2  0  0  0  0
 11 13  1  0  0  0  0
 13 24  1  0  0  0  0
 13 14  2  0  0  0  0
 14 15  1  0  0  0  0
 14 40  1  0  0  0  0
 15 16  2  0  0  0  0
 15 41  1  0  0  0  0
 16 17  1  0  0  0  0
 16 23  1  0  0  0  0
 17 22  1  0  0  0  0
 17 18  1  0  0  0  0
 18 19  1  0  0  0  0
 18 42  1  0  0  0  0
 18 43  1  0  0  0  0
 19 20  1  0  0  0  0
 19 44  1  0  0  0  0
 19 45  1  0  0  0  0
 20 21  1  0  0  0  0
 21 22  1  0  0  0  0
 21 46  1  0  0  0  0
 21 47  1  0  0  0  0
 22 48  1  0  0  0  0
 22 49  1  0  0  0  0
 23 24  2  0  0  0  0
 24 50  1  0  0  0  0
M  END
> <s_m_source_file>
AV-unprocessed.smi

> <i_m_source_file_index>
313

> <i_lp_mmshare_version>
43012

> <i_f3d_flags>
0

> <s_epik_input>
W0NIM11bQ0gyXVtDQEhdKFtDSDNdKVtOSF1DKD1PKVtDQEhdKFtDSDNdKVtOSF1DKD1PKWMxW2NIXVtjSF1jKG5bY0hdMSlOMltDSDJdW0NIMl1PW0NIMl1bQ0gyXTI=

> <s_epik_cmdline>
J2VwaWtfcHl0aG9uJywgJy1waCcsICc3LjAnLCAnLXRuJywgJzgnLCAnLW1hJywgJzIwMCcsICctbWV0YWxfYmluZGluZycsICctaW1hZScsICc8aW5maWxlLm1hZT4nLCAnLW9tYWUnLCAnPG91dGZpbGUubWFlPic=

> <r_lp_tautomer_probability>
1

> <r_epik_Ionization_Penalty>
9.96442e-06

> <r_epik_Ionization_Penalty_Charging>
0

> <r_epik_Ionization_Penalty_Neutral>
9.96442e-06

> <r_epik_State_Penalty>
-0

> <r_epik_Charging_Adjusted_Penalty>
0

> <i_epik_Tot_Q>
0

> <i_epik_Tot_abs_Q>
0

> <r_epik_Metal_State_Penalty>
-0

> <b_epik_Metal_Only>
0

> <s_lp_Force_Field>
OPLS_2005

> <r_lp_Energy>
19.952

> <b_lp_Chiralities_Consistent>
1

> <s_lp_Variant>
AV-unprocessed.smi:313-4

> <Gold.Version>
5.8.1

> <Gold.Id.Protein>
6NUR|6NUR_protein|mol2

> <Gold.PLP.Fitness>
41.0886

> <Gold.PLP.PLP>
-39.8666

> <Gold.PLP.part.hbond>
-1.0000

> <Gold.PLP.part.metal>
0.0000

> <Gold.PLP.part.buried>
-2.6722

> <Gold.PLP.part.nonpolar>
-35.8333

> <Gold.PLP.part.repulsive>
0.5411

> <Gold.PLP.ligand.clash>
0.0000

> <Gold.PLP.ligand.torsion>
1.0670

> <Gold.PLP.Chemscore.Hbond>
0.9588

> <Gold.PLP.Chemscore.CHOScore>
0.0000

> <Gold.PLP.Chemscore.Metal>
0.0000

> <Gold.Chemscore.Hbonds>
donor molecule, donor type, donor heavy atom, donor atom, acceptor molecule, acceptor atom, score
      P1  H  7997  8009       L1     7  0.81

> <Gold.PLP.Chemscore.Internal.Correction>
0.4797

> <Gold.Rescore>
     Score         DG    S(hbond)    S(metal)    S(lipo)     H(rot)  DE(clash)    DE(int)     intcor
     11.97     -16.01       0.98        0.00     101.33       1.79       0.44       3.60       ----

> <Gold.Chemscore.Fitness>
11.9695

> <Gold.Chemscore.DG>
-16.0130

> <Gold.Chemscore.ZeroCoef>
-5.4800

> <Gold.Chemscore.Hbond>
0.9752

> <Gold.Chemscore.Metal>
0.0000

> <Gold.Chemscore.Lipo>
101.3252

> <Gold.Chemscore.Internal_Hbond>
0.0000

> <Gold.Chemscore.DEClash>
0.4433

> <Gold.Chemscore.DEInternal>
3.6001

> <Gold.Chemscore.Rot>
1.7888

> <Gold.Chemscore.Internal.Correction>
   9.000000E+99

> <Gold.Chemscore.Hbonds>
donor molecule, donor type, donor heavy atom, donor atom, acceptor molecule, acceptor atom, score
      P1  H  7997  8009       L1     7  0.80

> <Gold.Chemscore.Hbond.Weighted>
-3.2572

> <Gold.Chemscore.Metal.Weighted>
-0.0000

> <Gold.Chemscore.Lipo.Weighted>
-11.8551

> <Gold.Chemscore.Internal_Hbond.Weighted>
0.0000

> <Gold.Chemscore.DEClash.Weighted>
0.4433

> <Gold.Chemscore.DEInternal.Weighted>
3.6001

> <Gold.Chemscore.Rot.Weighted>
4.5793

> <Gold.Chemscore.Internal.Correction.Weighted>
   9.000000E+99

> <Gold.Protein.RotatedTorsions>
[ 6907 6896 6895 6894 ] final -121.81 input  -60.11 | X-H torsion
[ 7974 7965 7964 7962 ] final  178.63 input  175.53 | X-H torsion
[ 8008 7997 7996 7995 ] final -169.70 input   59.86 | X-H torsion
[ 10167 10162 10161 10158 ] final -102.47 input  -65.29 | X-H torsion
[ 10718 10713 10712 10709 ] final   81.73 input   66.30 | X-H torsion
[ 10763 10752 10751 10750 ] final -155.12 input  -60.55 | X-H torsion
[ 11005 11000 10999 10996 ] final   18.18 input  -57.11 | X-H torsion

> <Gold.Protein.ActiveResidues>
 VAL166  LYS551  ARG553  GLY616  TRP617  ASP618  TYR619  PRO620  LYS621  CYS622 
 ASP623  PHE694  ASN695  SER759  ASP760  ASP761  ALA762  ILE779  LEU786  VAL792 
 PHE793  MET794  SER795  GLU796  ALA797  LYS798  CYS799  TRP800  GLU811  SER814 

> <Gold.Protein.RotatedAtoms>
  150.8518  133.7776  159.3022 H   0  0  0  0  0  0  0  0  0  0  0  0  # atno 6907 bound_to 6896
  151.5446  135.1066  159.9944 H   0  0  0  0  0  0  0  0  0  0  0  0  # atno 6908 bound_to 6896
  152.4558  133.7677  159.6838 H   0  0  0  0  0  0  0  0  0  0  0  0  # atno 6909 bound_to 6896
  144.7154  140.0426  143.6437 H   0  0  0  0  0  0  0  0  0  0  0  0  # atno 7974 bound_to 7965
  155.9085  140.1053  157.1297 H   0  0  0  0  0  0  0  0  0  0  0  0  # atno 8008 bound_to 7997
  154.4036  140.1279  156.4591 H   0  0  0  0  0  0  0  0  0  0  0  0  # atno 8009 bound_to 7997
  155.7338  140.3468  155.5074 H   0  0  0  0  0  0  0  0  0  0  0  0  # atno 8010 bound_to 7997
  140.2304  143.3611  152.0892 H   0  0  0  0  0  0  0  0  0  0  0  0  # atno 10167 bound_to 10162
  157.6840  131.0017  150.2270 H   0  0  0  0  0  0  0  0  0  0  0  0  # atno 10718 bound_to 10713
  154.7810  135.3175  154.7990 H   0  0  0  0  0  0  0  0  0  0  0  0  # atno 10763 bound_to 10752
  153.8701  135.6845  153.4779 H   0  0  0  0  0  0  0  0  0  0  0  0  # atno 10764 bound_to 10752
  153.1446  135.4724  154.9485 H   0  0  0  0  0  0  0  0  0  0  0  0  # atno 10765 bound_to 10752
  140.4276  134.1453  155.7678 H   0  0  0  0  0  0  0  0  0  0  0  0  # atno 11005 bound_to 11000
  146.0011  139.3092  143.0927 LP  0  0  0  0  0  0  0  0  0  0  0  0  # atno 17320 bound_to 7965
  145.8792  140.9373  143.0610 LP  0  0  0  0  0  0  0  0  0  0  0  0  # atno 17321 bound_to 7965
  139.5112  144.6897  151.5793 LP  0  0  0  0  0  0  0  0  0  0  0  0  # atno 17342 bound_to 10162
  140.6189  143.9295  150.6511 LP  0  0  0  0  0  0  0  0  0  0  0  0  # atno 17343 bound_to 10162
  156.2910  130.3745  149.7841 LP  0  0  0  0  0  0  0  0  0  0  0  0  # atno 17370 bound_to 10713
  156.5500  130.8338  151.3296 LP  0  0  0  0  0  0  0  0  0  0  0  0  # atno 17371 bound_to 10713
  141.1758  133.8516  157.1424 LP  0  0  0  0  0  0  0  0  0  0  0  0  # atno 17394 bound_to 11000
  140.0156  134.9969  157.0487 LP  0  0  0  0  0  0  0  0  0  0  0  0  # atno 17395 bound_to 11000

$$$$
