AV-unprocessed.smi:66|AV-procd|sdf|624|dock10
  -GOLD-   2262016513D 1   1.00000     0.00000
 Structure written by MMmdl.
 28 30  0  0  0  0  0  0  0  0  2 V2000
  150.8631  139.9790  154.7691 O   0  0  0  0  0  0  0  0  0  0  0  0
  151.5592  139.7638  155.7853 C   0  0  0  0  0  0  0  0  0  0  0  0
  152.7962  139.5758  155.7874 O   0  5  0  0  0  0  0  0  0  0  0  0
  150.8180  139.7279  157.1322 C   0  0  1  0  0  0  0  0  0  0  0  0
  149.9274  138.4790  157.2600 C   0  0  0  0  0  0  0  0  0  0  0  0
  150.8008  137.4892  158.0307 C   0  0  2  0  0  0  0  0  0  0  0  0
  150.0425  136.5120  158.7121 O   0  0  0  0  0  0  0  0  0  0  0  0
  151.5770  138.3967  158.9856 C   0  0  0  0  0  0  0  0  0  0  0  0
  151.7480  139.6500  158.2596 N   0  0  0  0  0  0  0  0  0  0  0  0
  152.2851  140.7871  158.9037 C   0  0  0  0  0  0  0  0  0  0  0  0
  153.0743  140.5958  159.9888 N   0  0  0  0  0  0  0  0  0  0  0  0
  153.5832  141.6686  160.6077 C   0  0  0  0  0  0  0  0  0  0  0  0
  153.4311  142.9677  160.3115 N   0  0  0  0  0  0  0  0  0  0  0  0
  152.6599  143.1806  159.2374 C   0  0  0  0  0  0  0  0  0  0  0  0
  152.3394  144.4208  158.7020 N   0  0  0  0  0  0  0  0  0  0  0  0
  151.5755  144.0829  157.6651 C   0  0  0  0  0  0  0  0  0  0  0  0
  151.3682  142.7696  157.4808 N   0  0  0  0  0  0  0  0  0  0  0  0
  152.0591  142.1205  158.4921 C   0  0  0  0  0  0  0  0  0  0  0  0
  150.8288  142.3584  156.7304 H   0  0  0  0  0  0  0  0  0  0  0  0
  150.1908  140.6157  157.2176 H   0  0  0  0  0  0  0  0  0  0  0  0
  149.0412  138.7310  157.8446 H   0  0  0  0  0  0  0  0  0  0  0  0
  149.5848  138.0805  156.3037 H   0  0  0  0  0  0  0  0  0  0  0  0
  151.4914  136.9963  157.3452 H   0  0  0  0  0  0  0  0  0  0  0  0
  149.1931  136.8767  158.9067 H   0  0  0  0  0  0  0  0  0  0  0  0
  151.0032  138.5843  159.8950 H   0  0  0  0  0  0  0  0  0  0  0  0
  152.5348  137.9567  159.2663 H   0  0  0  0  0  0  0  0  0  0  0  0
  154.2021  141.4577  161.4672 H   0  0  0  0  0  0  0  0  0  0  0  0
  151.1494  144.8242  157.0051 H   0  0  0  0  0  0  0  0  0  0  0  0
  1  2  2  0  0  0  0
  2  3  1  0  0  0  0
  2  4  1  0  0  0  0
  4  9  1  0  0  0  0
  4  5  1  0  0  0  0
  4 20  1  0  0  0  0
  5  6  1  0  0  0  0
  5 21  1  0  0  0  0
  5 22  1  0  0  0  0
  6  7  1  0  0  0  0
  6  8  1  0  0  0  0
  6 23  1  0  0  0  0
  7 24  1  0  0  0  0
  8  9  1  0  0  0  0
  8 25  1  0  0  0  0
  8 26  1  0  0  0  0
  9 10  1  0  0  0  0
 10 18  1  0  0  0  0
 10 11  2  0  0  0  0
 11 12  1  0  0  0  0
 12 13  2  0  0  0  0
 12 27  1  0  0  0  0
 13 14  1  0  0  0  0
 14 18  2  0  0  0  0
 14 15  1  0  0  0  0
 15 16  2  0  0  0  0
 16 17  1  0  0  0  0
 16 28  1  0  0  0  0
 17 19  1  0  0  0  0
 17 18  1  0  0  0  0
M  CHG  1   3  -1
M  END
> <s_m_source_file>
AV-unprocessed.smi

> <i_m_source_file_index>
66

> <i_lp_mmshare_version>
43012

> <i_f3d_flags>
0

> <s_epik_input>
Tz1DKFtPSF0pW0NAQEhdMVtDSDJdW0NAQEhdKFtPSF0pW0NIMl1OMWMobltjSF1uMiljKGMyMylbbkhdW2NIXW4z

> <s_epik_cmdline>
J2VwaWtfcHl0aG9uJywgJy1waCcsICc3LjAnLCAnLXRuJywgJzgnLCAnLW1hJywgJzIwMCcsICctbWV0YWxfYmluZGluZycsICctaW1hZScsICc8aW5maWxlLm1hZT4nLCAnLW9tYWUnLCAnPG91dGZpbGUubWFlPic=

> <r_lp_tautomer_probability>
0.0419193

> <r_epik_Ionization_Penalty>
0.0157405

> <r_epik_Ionization_Penalty_Charging>
0.000248217

> <r_epik_Ionization_Penalty_Neutral>
0.0154923

> <r_epik_State_Penalty>
1.99742

> <r_epik_Charging_Adjusted_Penalty>
1.99767

> <i_epik_Tot_Q>
-1

> <i_epik_Tot_abs_Q>
1

> <r_epik_Metal_State_Penalty>
2.31035

> <b_epik_Metal_Only>
0

> <s_lp_Force_Field>
OPLS_2005

> <r_lp_Energy>
19.7313

> <b_lp_Chiralities_Consistent>
1

> <s_lp_Variant>
AV-unprocessed.smi:66-8

> <Gold.Version>
5.8.1

> <Gold.Id.Protein>
6NUR|6NUR_protein|mol2

> <Gold.PLP.Fitness>
45.9096

> <Gold.PLP.PLP>
-31.2975

> <Gold.PLP.part.hbond>
-3.0000

> <Gold.PLP.part.metal>
0.0000

> <Gold.PLP.part.buried>
-6.5179

> <Gold.PLP.part.nonpolar>
-22.0528

> <Gold.PLP.part.repulsive>
0.1148

> <Gold.PLP.ligand.clash>
0.0000

> <Gold.PLP.ligand.torsion>
0.2852

> <Gold.PLP.Chemscore.Hbond>
4.0000

> <Gold.PLP.Chemscore.CHOScore>
1.0000

> <Gold.PLP.Chemscore.Metal>
0.0000

> <Gold.Chemscore.Hbonds>
donor molecule, donor type, donor heavy atom, donor atom, acceptor molecule, acceptor atom, score
      P1  H  6896  6907       L1     7  0.88
      P1  H  7989  7998       L1     1  1.00
      P1  H  7997  8010       L1     3  2.00
      L1  C    16    28       P1  8028  0.84

> <Gold.PLP.Chemscore.Internal.Correction>
0.1824

> <Gold.Rescore>
     Score         DG    S(hbond)    S(metal)    S(lipo)     H(rot)  DE(clash)    DE(int)     intcor
     13.36     -13.70       2.97        0.00      24.38       1.78       0.00       0.33       ----

> <Gold.Chemscore.Fitness>
13.3574

> <Gold.Chemscore.DG>
-13.6951

> <Gold.Chemscore.ZeroCoef>
-5.4800

> <Gold.Chemscore.Hbond>
2.9732

> <Gold.Chemscore.Metal>
0.0000

> <Gold.Chemscore.Lipo>
24.3794

> <Gold.Chemscore.Internal_Hbond>
0.0000

> <Gold.Chemscore.DEClash>
0.0038

> <Gold.Chemscore.DEInternal>
0.3339

> <Gold.Chemscore.Rot>
1.7842

> <Gold.Chemscore.Internal.Correction>
   9.000000E+99

> <Gold.Chemscore.Hbonds>
donor molecule, donor type, donor heavy atom, donor atom, acceptor molecule, acceptor atom, score
      P1  H  6896  6907       L1     7  0.84
      P1  H  7989  7998       L1     1  0.93
      P1  H  7997  8010       L1     3  1.00

> <Gold.Chemscore.Hbond.Weighted>
-9.9303

> <Gold.Chemscore.Metal.Weighted>
-0.0000

> <Gold.Chemscore.Lipo.Weighted>
-2.8524

> <Gold.Chemscore.Internal_Hbond.Weighted>
0.0000

> <Gold.Chemscore.DEClash.Weighted>
0.0038

> <Gold.Chemscore.DEInternal.Weighted>
0.3339

> <Gold.Chemscore.Rot.Weighted>
4.5676

> <Gold.Chemscore.Internal.Correction.Weighted>
   9.000000E+99

> <Gold.Protein.RotatedTorsions>
[ 6907 6896 6895 6894 ] final  -52.01 input  -60.11 | X-H torsion
[ 7974 7965 7964 7962 ] final  -30.10 input  175.53 | X-H torsion
[ 8008 7997 7996 7995 ] final   83.41 input   59.86 | X-H torsion
[ 10167 10162 10161 10158 ] final  -95.88 input  -65.29 | X-H torsion
[ 10718 10713 10712 10709 ] final   94.59 input   66.30 | X-H torsion
[ 10763 10752 10751 10750 ] final   60.69 input  -60.55 | X-H torsion
[ 11005 11000 10999 10996 ] final  -17.42 input  -57.11 | X-H torsion

> <Gold.Protein.ActiveResidues>
 VAL166  LYS551  ARG553  GLY616  TRP617  ASP618  TYR619  PRO620  LYS621  CYS622 
 ASP623  PHE694  ASN695  SER759  ASP760  ASP761  ALA762  ILE779  LEU786  VAL792 
 PHE793  MET794  SER795  GLU796  ALA797  LYS798  CYS799  TRP800  GLU811  SER814 

> <Gold.Protein.RotatedAtoms>
  150.8557  134.7895  159.7043 H   0  0  0  0  0  0  0  0  0  0  0  0  # atno 6907 bound_to 6896
  152.4609  134.5182  159.9784 H   0  0  0  0  0  0  0  0  0  0  0  0  # atno 6908 bound_to 6896
  151.5295  133.3413  159.2951 H   0  0  0  0  0  0  0  0  0  0  0  0  # atno 6909 bound_to 6896
  146.1168  140.5498  142.8753 H   0  0  0  0  0  0  0  0  0  0  0  0  # atno 7974 bound_to 7965
  155.9236  140.3419  155.6192 H   0  0  0  0  0  0  0  0  0  0  0  0  # atno 8008 bound_to 7997
  155.7243  140.0787  157.2335 H   0  0  0  0  0  0  0  0  0  0  0  0  # atno 8009 bound_to 7997
  154.4073  140.1599  156.2425 H   0  0  0  0  0  0  0  0  0  0  0  0  # atno 8010 bound_to 7997
  140.2996  143.3170  152.0262 H   0  0  0  0  0  0  0  0  0  0  0  0  # atno 10167 bound_to 10162
  157.6946  131.0517  150.4209 H   0  0  0  0  0  0  0  0  0  0  0  0  # atno 10718 bound_to 10713
  152.9928  135.5527  154.5914 H   0  0  0  0  0  0  0  0  0  0  0  0  # atno 10763 bound_to 10752
  154.5274  135.2811  155.1212 H   0  0  0  0  0  0  0  0  0  0  0  0  # atno 10764 bound_to 10752
  154.2540  135.6393  153.5303 H   0  0  0  0  0  0  0  0  0  0  0  0  # atno 10765 bound_to 10752
  140.8167  133.8100  155.9617 H   0  0  0  0  0  0  0  0  0  0  0  0  # atno 11005 bound_to 11000
  144.7560  140.5308  143.6769 LP  0  0  0  0  0  0  0  0  0  0  0  0  # atno 17320 bound_to 7965
  145.5551  139.1477  143.3373 LP  0  0  0  0  0  0  0  0  0  0  0  0  # atno 17321 bound_to 7965
  139.4918  144.6465  151.6766 LP  0  0  0  0  0  0  0  0  0  0  0  0  # atno 17342 bound_to 10162
  140.5662  144.0185  150.6194 LP  0  0  0  0  0  0  0  0  0  0  0  0  # atno 17343 bound_to 10162
  156.4584  130.4026  149.6591 LP  0  0  0  0  0  0  0  0  0  0  0  0  # atno 17370 bound_to 10713
  156.3715  130.7533  151.2517 LP  0  0  0  0  0  0  0  0  0  0  0  0  # atno 17371 bound_to 10713
  140.9142  134.2222  157.4967 LP  0  0  0  0  0  0  0  0  0  0  0  0  # atno 17394 bound_to 11000
  139.8711  134.9764  156.4918 LP  0  0  0  0  0  0  0  0  0  0  0  0  # atno 17395 bound_to 11000

$$$$
