AV-unprocessed.smi:2310|AV-procd|sdf|9259|dock10
  -GOLD-   2272012483D 1   1.00000     0.00000
 Structure written by MMmdl.
 45 46  0  0  0  0  0  0  0  0  3 V2000
  149.1616  132.7157  153.9858 C   0  0  0  0  0  0  0  0  0  0  0  0
  148.9963  134.2480  153.9485 C   0  0  0  0  0  0  0  0  0  0  0  0
  149.3711  134.9822  155.2560 C   0  0  2  0  0  0  0  0  0  0  0  0
  148.2157  134.9178  156.2710 C   0  0  0  0  0  0  0  0  0  0  0  0
  148.5855  135.3343  157.6357 C   0  0  0  0  0  0  0  0  0  0  0  0
  148.8717  135.6636  158.7091 N   0  0  0  0  0  0  0  0  0  0  0  0
  149.6675  136.3897  154.9616 N   0  5  0  0  0  0  0  0  0  0  0  0
  150.2745  137.2565  155.8158 C   0  0  0  0  0  0  0  0  0  0  0  0
  151.0699  136.9906  156.7243 O   0  0  0  0  0  0  0  0  0  0  0  0
  149.9012  138.5287  155.5949 N   0  0  0  0  0  0  0  0  0  0  0  0
  150.3328  139.7076  156.2610 C   0  0  0  0  0  0  0  0  0  0  0  0
  151.3555  139.6997  157.2410 C   0  0  0  0  0  0  0  0  0  0  0  0
  151.7543  140.9104  157.8413 C   0  0  0  0  0  0  0  0  0  0  0  0
  151.1343  142.1177  157.4461 C   0  0  0  0  0  0  0  0  0  0  0  0
  151.4619  143.3735  157.9765 N   0  0  0  0  0  0  0  0  0  0  0  0
  152.5213  143.3535  158.9710 C   0  0  0  0  0  0  0  0  0  0  0  0
  152.4235  144.6937  159.7037 C   0  0  0  0  0  0  0  0  0  0  0  0
  150.9886  145.1745  159.4567 C   0  0  0  0  0  0  0  0  0  0  0  0
  150.3521  144.0882  158.5851 C   0  0  0  0  0  0  0  0  0  0  0  0
  150.1757  142.0842  156.4955 N   0  3  0  0  0  0  0  0  0  0  0  0
  149.7603  140.9479  155.8922 C   0  0  0  0  0  0  0  0  0  0  0  0
  148.6747  141.0698  154.8389 C   0  0  0  0  0  0  0  0  0  0  0  0
  148.8372  132.2791  153.0411 H   0  0  0  0  0  0  0  0  0  0  0  0
  148.5628  132.2569  154.7745 H   0  0  0  0  0  0  0  0  0  0  0  0
  150.2006  132.4162  154.1339 H   0  0  0  0  0  0  0  0  0  0  0  0
  149.5738  134.6547  153.1170 H   0  0  0  0  0  0  0  0  0  0  0  0
  147.9530  134.4636  153.7159 H   0  0  0  0  0  0  0  0  0  0  0  0
  150.2203  134.4600  155.6998 H   0  0  0  0  0  0  0  0  0  0  0  0
  147.3794  135.5366  155.9441 H   0  0  0  0  0  0  0  0  0  0  0  0
  147.8424  133.8963  156.3463 H   0  0  0  0  0  0  0  0  0  0  0  0
  149.1621  138.6519  154.9185 H   0  0  0  0  0  0  0  0  0  0  0  0
  151.8496  138.7842  157.5297 H   0  0  0  0  0  0  0  0  0  0  0  0
  152.5328  140.9049  158.5898 H   0  0  0  0  0  0  0  0  0  0  0  0
  152.3756  142.5313  159.6727 H   0  0  0  0  0  0  0  0  0  0  0  0
  153.4969  143.2249  158.5010 H   0  0  0  0  0  0  0  0  0  0  0  0
  152.6494  144.5879  160.7652 H   0  0  0  0  0  0  0  0  0  0  0  0
  153.1319  145.4085  159.2832 H   0  0  0  0  0  0  0  0  0  0  0  0
  150.4339  145.3183  160.3846 H   0  0  0  0  0  0  0  0  0  0  0  0
  151.0028  146.1281  158.9276 H   0  0  0  0  0  0  0  0  0  0  0  0
  149.7004  144.5183  157.8239 H   0  0  0  0  0  0  0  0  0  0  0  0
  149.7514  143.4177  159.2009 H   0  0  0  0  0  0  0  0  0  0  0  0
  149.0384  140.7079  153.8765 H   0  0  0  0  0  0  0  0  0  0  0  0
  148.3549  142.1049  154.7138 H   0  0  0  0  0  0  0  0  0  0  0  0
  147.8039  140.4780  155.1228 H   0  0  0  0  0  0  0  0  0  0  0  0
  149.7414  142.9638  156.2163 H   0  0  0  0  0  0  0  0  0  0  0  0
  1  2  1  0  0  0  0
  1 23  1  0  0  0  0
  1 24  1  0  0  0  0
  1 25  1  0  0  0  0
  2  3  1  0  0  0  0
  2 26  1  0  0  0  0
  2 27  1  0  0  0  0
  3  4  1  0  0  0  0
  3  7  1  0  0  0  0
  3 28  1  0  0  0  0
  4  5  1  0  0  0  0
  4 29  1  0  0  0  0
  4 30  1  0  0  0  0
  5  6  3  0  0  0  0
  7  8  1  0  0  0  0
  8  9  2  0  0  0  0
  8 10  1  0  0  0  0
 10 11  1  0  0  0  0
 10 31  1  0  0  0  0
 11 21  1  0  0  0  0
 11 12  2  0  0  0  0
 12 13  1  0  0  0  0
 12 32  1  0  0  0  0
 13 14  2  0  0  0  0
 13 33  1  0  0  0  0
 14 15  1  0  0  0  0
 14 20  1  0  0  0  0
 15 19  1  0  0  0  0
 15 16  1  0  0  0  0
 16 17  1  0  0  0  0
 16 34  1  0  0  0  0
 16 35  1  0  0  0  0
 17 18  1  0  0  0  0
 17 36  1  0  0  0  0
 17 37  1  0  0  0  0
 18 19  1  0  0  0  0
 18 38  1  0  0  0  0
 18 39  1  0  0  0  0
 19 40  1  0  0  0  0
 19 41  1  0  0  0  0
 20 21  2  0  0  0  0
 20 45  1  0  0  0  0
 21 22  1  0  0  0  0
 22 42  1  0  0  0  0
 22 43  1  0  0  0  0
 22 44  1  0  0  0  0
M  CHG  1   7  -1
M  CHG  1  20   1
M  END
> <s_m_source_file>
AV-unprocessed.smi

> <i_m_source_file_index>
2310

> <i_lp_mmshare_version>
43012

> <i_f3d_flags>
0

> <s_epik_input>
TiNDW0NIMl1bQ0BASF0oW0NIMl1bQ0gzXSlbTkhdQyg9TylbTkhdYzFbY0hdW2NIXWMobmMxW0NIM10pTjJbQ0gyXVtDSDJdW0NIMl1bQ0gyXTI=

> <s_epik_cmdline>
J2VwaWtfcHl0aG9uJywgJy1waCcsICc3LjAnLCAnLXRuJywgJzgnLCAnLW1hJywgJzIwMCcsICctbWV0YWxfYmluZGluZycsICctaW1hZScsICc8aW5maWxlLm1hZT4nLCAnLW9tYWUnLCAnPG91dGZpbGUubWFlPic=

> <r_lp_tautomer_probability>
0.999994

> <r_epik_Ionization_Penalty>
7.34515

> <r_epik_Ionization_Penalty_Charging>
7.34514

> <r_epik_Ionization_Penalty_Neutral>
2.56118e-06

> <r_epik_State_Penalty>
6.99243

> <r_epik_Charging_Adjusted_Penalty>
14.3376

> <i_epik_Tot_Q>
0

> <i_epik_Tot_abs_Q>
2

> <r_epik_Metal_State_Penalty>
3.10684

> <b_epik_Metal_Only>
1

> <s_lp_Force_Field>
OPLS_2005

> <r_lp_Energy>
38.8935

> <b_lp_Chiralities_Consistent>
1

> <s_lp_Variant>
AV-unprocessed.smi:2310-5

> <Gold.Version>
5.8.1

> <Gold.Id.Protein>
6NUR|6NUR_protein|mol2

> <Gold.PLP.Fitness>
41.6236

> <Gold.PLP.PLP>
-33.7688

> <Gold.PLP.part.hbond>
-1.9345

> <Gold.PLP.part.metal>
0.0000

> <Gold.PLP.part.buried>
-4.7301

> <Gold.PLP.part.nonpolar>
-27.5018

> <Gold.PLP.part.repulsive>
0.3353

> <Gold.PLP.ligand.clash>
0.0000

> <Gold.PLP.ligand.torsion>
0.5992

> <Gold.PLP.Chemscore.Hbond>
3.0000

> <Gold.PLP.Chemscore.CHOScore>
0.0000

> <Gold.PLP.Chemscore.Metal>
0.0000

> <Gold.Chemscore.Hbonds>
donor molecule, donor type, donor heavy atom, donor atom, acceptor molecule, acceptor atom, score
      L1  H    20    45       P1  8028  1.98
      P1  H  6896  6909       L1     6  0.31

> <Gold.PLP.Chemscore.Internal.Correction>
0.0533

> <Gold.Rescore>
     Score         DG    S(hbond)    S(metal)    S(lipo)     H(rot)  DE(clash)    DE(int)     intcor
     16.29     -18.38       1.95        0.00      90.60       1.65       0.02       2.06       ----

> <Gold.Chemscore.Fitness>
16.2936

> <Gold.Chemscore.DG>
-18.3754

> <Gold.Chemscore.ZeroCoef>
-5.4800

> <Gold.Chemscore.Hbond>
1.9531

> <Gold.Chemscore.Metal>
0.0000

> <Gold.Chemscore.Lipo>
90.5960

> <Gold.Chemscore.Internal_Hbond>
0.0000

> <Gold.Chemscore.DEClash>
0.0198

> <Gold.Chemscore.DEInternal>
2.0621

> <Gold.Chemscore.Rot>
1.6514

> <Gold.Chemscore.Internal.Correction>
   9.000000E+99

> <Gold.Chemscore.Hbonds>
donor molecule, donor type, donor heavy atom, donor atom, acceptor molecule, acceptor atom, score
      L1  H    20    45       P1  8028  0.92
      P1  H  6896  6909       L1     6  0.30

> <Gold.Chemscore.Hbond.Weighted>
-6.5233

> <Gold.Chemscore.Metal.Weighted>
-0.0000

> <Gold.Chemscore.Lipo.Weighted>
-10.5997

> <Gold.Chemscore.Internal_Hbond.Weighted>
0.0000

> <Gold.Chemscore.DEClash.Weighted>
0.0198

> <Gold.Chemscore.DEInternal.Weighted>
2.0621

> <Gold.Chemscore.Rot.Weighted>
4.2276

> <Gold.Chemscore.Internal.Correction.Weighted>
   9.000000E+99

> <Gold.Protein.RotatedTorsions>
[ 6907 6896 6895 6894 ] final   66.37 input  -60.11 | X-H torsion
[ 7974 7965 7964 7962 ] final   15.25 input  175.53 | X-H torsion
[ 8008 7997 7996 7995 ] final  -44.55 input   59.86 | X-H torsion
[ 10167 10162 10161 10158 ] final   49.75 input  -65.29 | X-H torsion
[ 10718 10713 10712 10709 ] final   51.11 input   66.30 | X-H torsion
[ 10763 10752 10751 10750 ] final  142.58 input  -60.55 | X-H torsion
[ 11005 11000 10999 10996 ] final  -62.81 input  -57.11 | X-H torsion

> <Gold.Protein.ActiveResidues>
 VAL166  LYS551  ARG553  GLY616  TRP617  ASP618  TYR619  PRO620  LYS621  CYS622 
 ASP623  PHE694  ASN695  SER759  ASP760  ASP761  ALA762  ILE779  LEU786  VAL792 
 PHE793  MET794  SER795  GLU796  ALA797  LYS798  CYS799  TRP800  GLU811  SER814 

> <Gold.Protein.RotatedAtoms>
  152.4476  134.5462  159.9853 H   0  0  0  0  0  0  0  0  0  0  0  0  # atno 6907 bound_to 6896
  151.5543  133.3407  159.2967 H   0  0  0  0  0  0  0  0  0  0  0  0  # atno 6908 bound_to 6896
  150.8396  134.7715  159.6985 H   0  0  0  0  0  0  0  0  0  0  0  0  # atno 6909 bound_to 6896
  146.2283  139.8922  142.8553 H   0  0  0  0  0  0  0  0  0  0  0  0  # atno 7974 bound_to 7965
  154.3998  140.1419  156.3702 H   0  0  0  0  0  0  0  0  0  0  0  0  # atno 8008 bound_to 7997
  155.8100  140.3473  155.5431 H   0  0  0  0  0  0  0  0  0  0  0  0  # atno 8009 bound_to 7997
  155.8396  140.0924  157.1733 H   0  0  0  0  0  0  0  0  0  0  0  0  # atno 8010 bound_to 7997
  140.2796  144.3172  150.6268 H   0  0  0  0  0  0  0  0  0  0  0  0  # atno 10167 bound_to 10162
  157.4950  130.8400  149.8247 H   0  0  0  0  0  0  0  0  0  0  0  0  # atno 10718 bound_to 10713
  153.9581  135.2963  155.3435 H   0  0  0  0  0  0  0  0  0  0  0  0  # atno 10763 bound_to 10752
  154.7389  135.5033  153.9093 H   0  0  0  0  0  0  0  0  0  0  0  0  # atno 10764 bound_to 10752
  153.0960  135.6721  153.9872 H   0  0  0  0  0  0  0  0  0  0  0  0  # atno 10765 bound_to 10752
  141.1372  133.6644  156.5584 H   0  0  0  0  0  0  0  0  0  0  0  0  # atno 11005 bound_to 11000
  145.2406  141.0008  143.3938 LP  0  0  0  0  0  0  0  0  0  0  0  0  # atno 17320 bound_to 7965
  144.9455  139.4141  143.6428 LP  0  0  0  0  0  0  0  0  0  0  0  0  # atno 17321 bound_to 7965
  140.5822  143.2172  151.7407 LP  0  0  0  0  0  0  0  0  0  0  0  0  # atno 17342 bound_to 10162
  139.4966  144.4063  152.0128 LP  0  0  0  0  0  0  0  0  0  0  0  0  # atno 17343 bound_to 10162
  156.0195  130.3801  150.2006 LP  0  0  0  0  0  0  0  0  0  0  0  0  # atno 17370 bound_to 10713
  157.0195  130.9975  151.3343 LP  0  0  0  0  0  0  0  0  0  0  0  0  # atno 17371 bound_to 10713
  140.4007  134.7359  157.4778 LP  0  0  0  0  0  0  0  0  0  0  0  0  # atno 17394 bound_to 11000
  140.0498  134.6147  155.8876 LP  0  0  0  0  0  0  0  0  0  0  0  0  # atno 17395 bound_to 11000

$$$$
