AV-unprocessed.smi:227|AV-procd|sdf|1742|dock6
  -GOLD-   2262020253D 1   1.00000     0.00000
 Structure written by MMmdl.
 54 58  0  0  0  0  0  0  0  0  1 V2000
  150.1371  139.6569  153.7889 O   0  0  0  0  0  0  0  0  0  0  0  0
  150.2094  138.3298  154.2698 C   0  0  0  0  0  0  0  0  0  0  0  0
  149.7768  138.2305  155.7559 C   0  0  1  0  0  0  0  0  0  0  0  0
  149.4075  136.7803  156.1664 C   0  0  0  0  0  0  0  0  0  0  0  0
  148.3650  136.1873  155.3479 N   0  0  0  0  0  0  0  0  0  0  0  0
  147.1771  136.7748  154.9834 C   0  0  0  0  0  0  0  0  0  0  0  0
  146.4026  136.0383  154.2356 N   0  0  0  0  0  0  0  0  0  0  0  0
  147.1089  134.8523  154.0620 C   0  0  0  0  0  0  0  0  0  0  0  0
  146.8710  133.6339  153.3571 C   0  0  0  0  0  0  0  0  0  0  0  0
  145.7583  133.3579  152.6206 N   0  0  0  0  0  0  0  0  0  0  0  0
  144.6599  134.3061  152.5001 C   0  0  1  0  0  0  0  0  0  0  0  0
  145.2146  135.4014  151.5678 C   0  0  0  0  0  0  0  0  0  0  0  0
  146.1091  134.5712  150.6348 C   0  0  0  0  0  0  0  0  0  0  0  0
  145.8826  133.1436  151.1844 C   0  0  2  0  0  0  0  0  0  0  0  0
  144.4755  132.6100  150.8332 C   0  0  2  0  0  0  0  0  0  0  0  0
  144.0715  132.6004  149.3469 C   0  0  0  0  0  0  0  0  0  0  0  0
  142.7813  132.0492  149.1921 O   0  0  0  0  0  0  0  0  0  0  0  0
  143.5976  133.4957  151.7343 C   0  0  0  0  0  0  0  0  0  0  0  0
  147.8257  132.6701  153.4480 N   0  0  0  0  0  0  0  0  0  0  0  0
  148.9400  132.8778  154.1538 C   0  0  0  0  0  0  0  0  0  0  0  0
  149.2985  133.9597  154.8446 N   0  0  0  0  0  0  0  0  0  0  0  0
  148.3431  134.9295  154.7714 C   0  0  0  0  0  0  0  0  0  0  0  0
  150.8755  138.7976  156.6922 C   0  0  1  0  0  0  0  0  0  0  0  0
  151.0944  140.3075  156.5840 C   0  0  0  0  0  0  0  0  0  0  0  0
  151.3665  140.7731  158.0177 C   0  0  0  0  0  0  0  0  0  0  0  0
  151.4594  139.5846  158.7866 O   0  0  0  0  0  0  0  0  0  0  0  0
  150.5997  138.6310  158.1893 C   0  0  0  0  0  0  0  0  0  0  0  0
  149.6903  139.6510  152.9560 H   0  0  0  0  0  0  0  0  0  0  0  0
  149.5982  137.6787  153.6440 H   0  0  0  0  0  0  0  0  0  0  0  0
  151.2413  138.0096  154.1322 H   0  0  0  0  0  0  0  0  0  0  0  0
  148.8905  138.8534  155.8906 H   0  0  0  0  0  0  0  0  0  0  0  0
  150.2903  136.1413  156.1212 H   0  0  0  0  0  0  0  0  0  0  0  0
  149.0602  136.7488  157.1990 H   0  0  0  0  0  0  0  0  0  0  0  0
  146.9041  137.7744  155.2883 H   0  0  0  0  0  0  0  0  0  0  0  0
  144.2627  134.6912  153.4373 H   0  0  0  0  0  0  0  0  0  0  0  0
  144.4293  135.9393  151.0356 H   0  0  0  0  0  0  0  0  0  0  0  0
  145.8073  136.1299  152.1227 H   0  0  0  0  0  0  0  0  0  0  0  0
  145.8599  134.6862  149.5812 H   0  0  0  0  0  0  0  0  0  0  0  0
  147.1524  134.8667  150.7529 H   0  0  0  0  0  0  0  0  0  0  0  0
  146.6679  132.4449  150.8937 H   0  0  0  0  0  0  0  0  0  0  0  0
  144.4085  131.5847  151.2026 H   0  0  0  0  0  0  0  0  0  0  0  0
  144.0570  133.6204  148.9622 H   0  0  0  0  0  0  0  0  0  0  0  0
  144.7818  132.0487  148.7322 H   0  0  0  0  0  0  0  0  0  0  0  0
  142.1693  132.7541  149.0453 H   0  0  0  0  0  0  0  0  0  0  0  0
  143.0072  132.8804  152.4145 H   0  0  0  0  0  0  0  0  0  0  0  0
  142.9103  134.1342  151.1779 H   0  0  0  0  0  0  0  0  0  0  0  0
  149.6454  132.0599  154.1655 H   0  0  0  0  0  0  0  0  0  0  0  0
  151.8225  138.3017  156.4727 H   0  0  0  0  0  0  0  0  0  0  0  0
  151.9328  140.5335  155.9241 H   0  0  0  0  0  0  0  0  0  0  0  0
  150.2156  140.8194  156.1896 H   0  0  0  0  0  0  0  0  0  0  0  0
  152.2797  141.3628  158.1000 H   0  0  0  0  0  0  0  0  0  0  0  0
  150.5371  141.3771  158.3881 H   0  0  0  0  0  0  0  0  0  0  0  0
  149.5628  138.8688  158.4334 H   0  0  0  0  0  0  0  0  0  0  0  0
  150.8194  137.6269  158.5523 H   0  0  0  0  0  0  0  0  0  0  0  0
  1  2  1  0  0  0  0
  1 28  1  0  0  0  0
  2  3  1  0  0  0  0
  2 29  1  0  0  0  0
  2 30  1  0  0  0  0
  3  4  1  0  0  0  0
  3 23  1  0  0  0  0
  3 31  1  0  0  0  0
  4  5  1  0  0  0  0
  4 32  1  0  0  0  0
  4 33  1  0  0  0  0
  5 22  1  0  0  0  0
  5  6  1  0  0  0  0
  6  7  2  0  0  0  0
  6 34  1  0  0  0  0
  7  8  1  0  0  0  0
  8 22  2  0  0  0  0
  8  9  1  0  0  0  0
  9 10  1  0  0  0  0
  9 19  2  0  0  0  0
 10 14  1  0  0  0  0
 10 11  1  0  0  0  0
 11 18  1  0  0  0  0
 11 12  1  0  0  0  0
 11 35  1  0  0  0  0
 12 13  1  0  0  0  0
 12 36  1  0  0  0  0
 12 37  1  0  0  0  0
 13 14  1  0  0  0  0
 13 38  1  0  0  0  0
 13 39  1  0  0  0  0
 14 15  1  0  0  0  0
 14 40  1  0  0  0  0
 15 16  1  0  0  0  0
 15 18  1  0  0  0  0
 15 41  1  0  0  0  0
 16 17  1  0  0  0  0
 16 42  1  0  0  0  0
 16 43  1  0  0  0  0
 17 44  1  0  0  0  0
 18 45  1  0  0  0  0
 18 46  1  0  0  0  0
 19 20  1  0  0  0  0
 20 21  2  0  0  0  0
 20 47  1  0  0  0  0
 21 22  1  0  0  0  0
 23 27  1  0  0  0  0
 23 24  1  0  0  0  0
 23 48  1  0  0  0  0
 24 25  1  0  0  0  0
 24 49  1  0  0  0  0
 24 50  1  0  0  0  0
 25 26  1  0  0  0  0
 25 51  1  0  0  0  0
 25 52  1  0  0  0  0
 26 27  1  0  0  0  0
 27 53  1  0  0  0  0
 27 54  1  0  0  0  0
M  END
> <s_m_source_file>
AV-unprocessed.smi

> <i_m_source_file_index>
227

> <i_lp_mmshare_version>
43012

> <i_f3d_flags>
0

> <s_epik_input>
W0NIMl0xT1tDSDJdW0NIMl1bQ0BIXTFbQ0BIXShbQ0gyXVtPSF0pW0NIMl1uKFtjSF1uMiljKGMyMyluW2NIXW5jM04oW0NASF00NSlbQ0BASF0oW0NIMl1bQ0gyXTQpW0NASF0oW0NIMl01KVtDSDJdW09IXQ==

> <s_epik_cmdline>
J2VwaWtfcHl0aG9uJywgJy1waCcsICc3LjAnLCAnLXRuJywgJzgnLCAnLW1hJywgJzIwMCcsICctbWV0YWxfYmluZGluZycsICctaW1hZScsICc8aW5maWxlLm1hZT4nLCAnLW9tYWUnLCAnPG91dGZpbGUubWFlPic=

> <r_lp_tautomer_probability>
1

> <r_epik_Ionization_Penalty>
0.0055791

> <r_epik_Ionization_Penalty_Charging>
0

> <r_epik_Ionization_Penalty_Neutral>
0.0055791

> <r_epik_State_Penalty>
0.00401299

> <r_epik_Charging_Adjusted_Penalty>
0.00401299

> <i_epik_Tot_Q>
0

> <i_epik_Tot_abs_Q>
0

> <r_epik_Metal_State_Penalty>
-0

> <b_epik_Metal_Only>
0

> <s_lp_Force_Field>
OPLS_2005

> <r_lp_Energy>
88.534

> <b_lp_Chiralities_Consistent>
1

> <s_lp_Variant>
AV-unprocessed.smi:227-16

> <Gold.Version>
5.8.1

> <Gold.Id.Protein>
6NUR|6NUR_protein|mol2

> <Gold.PLP.Fitness>
48.1856

> <Gold.PLP.PLP>
-37.2086

> <Gold.PLP.part.hbond>
-5.0000

> <Gold.PLP.part.metal>
0.0000

> <Gold.PLP.part.buried>
-6.0040

> <Gold.PLP.part.nonpolar>
-25.8161

> <Gold.PLP.part.repulsive>
0.3960

> <Gold.PLP.ligand.clash>
0.0000

> <Gold.PLP.ligand.torsion>
0.4082

> <Gold.PLP.Chemscore.Hbond>
3.8943

> <Gold.PLP.Chemscore.CHOScore>
0.0000

> <Gold.PLP.Chemscore.Metal>
0.0000

> <Gold.Chemscore.Hbonds>
donor molecule, donor type, donor heavy atom, donor atom, acceptor molecule, acceptor atom, score
      L1  H     1    28       P1  7957  1.00
      L1  H    17    44       P1 10186  0.88
      P1  H  7989  7998       L1     1  0.93
      P1  H 10785 10796       L1    17  1.00

> <Gold.PLP.Chemscore.Internal.Correction>
0.1106

> <Gold.Rescore>
     Score         DG    S(hbond)    S(metal)    S(lipo)     H(rot)  DE(clash)    DE(int)     intcor
     13.19     -15.02       2.82        0.00      80.01       3.61       0.34       1.49       ----

> <Gold.Chemscore.Fitness>
13.1885

> <Gold.Chemscore.DG>
-15.0153

> <Gold.Chemscore.ZeroCoef>
-5.4800

> <Gold.Chemscore.Hbond>
2.8167

> <Gold.Chemscore.Metal>
0.0000

> <Gold.Chemscore.Lipo>
80.0147

> <Gold.Chemscore.Internal_Hbond>
0.0000

> <Gold.Chemscore.DEClash>
0.3393

> <Gold.Chemscore.DEInternal>
1.4876

> <Gold.Chemscore.Rot>
3.6071

> <Gold.Chemscore.Internal.Correction>
   9.000000E+99

> <Gold.Chemscore.Hbonds>
donor molecule, donor type, donor heavy atom, donor atom, acceptor molecule, acceptor atom, score
      L1  H     1    28       P1  7957  0.95
      L1  H    17    44       P1 10186  0.85
      P1  H  7989  7998       L1     1  0.31
      P1  H 10785 10796       L1    17  0.33

> <Gold.Chemscore.Hbond.Weighted>
-9.4078

> <Gold.Chemscore.Metal.Weighted>
-0.0000

> <Gold.Chemscore.Lipo.Weighted>
-9.3617

> <Gold.Chemscore.Internal_Hbond.Weighted>
0.0000

> <Gold.Chemscore.DEClash.Weighted>
0.3393

> <Gold.Chemscore.DEInternal.Weighted>
1.4876

> <Gold.Chemscore.Rot.Weighted>
9.2342

> <Gold.Chemscore.Internal.Correction.Weighted>
   9.000000E+99

> <Gold.Protein.RotatedTorsions>
[ 6907 6896 6895 6894 ] final   42.30 input  -60.11 | X-H torsion
[ 7974 7965 7964 7962 ] final  -64.78 input  175.53 | X-H torsion
[ 8008 7997 7996 7995 ] final   19.37 input   59.86 | X-H torsion
[ 10167 10162 10161 10158 ] final -138.48 input  -65.29 | X-H torsion
[ 10718 10713 10712 10709 ] final  -60.93 input   66.30 | X-H torsion
[ 10763 10752 10751 10750 ] final   35.26 input  -60.55 | X-H torsion
[ 11005 11000 10999 10996 ] final   34.12 input  -57.11 | X-H torsion

> <Gold.Protein.ActiveResidues>
 VAL166  LYS551  ARG553  GLY616  TRP617  ASP618  TYR619  PRO620  LYS621  CYS622 
 ASP623  PHE694  ASN695  SER759  ASP760  ASP761  ALA762  ILE779  LEU786  VAL792 
 PHE793  MET794  SER795  GLU796  ALA797  LYS798  CYS799  TRP800  GLU811  SER814 

> <Gold.Protein.RotatedAtoms>
  152.2061  134.8544  160.0502 H   0  0  0  0  0  0  0  0  0  0  0  0  # atno 6907 bound_to 6896
  151.9380  133.3624  159.3963 H   0  0  0  0  0  0  0  0  0  0  0  0  # atno 6908 bound_to 6896
  150.6965  134.4394  159.5329 H   0  0  0  0  0  0  0  0  0  0  0  0  # atno 6909 bound_to 6896
  145.7624  140.8855  143.0423 H   0  0  0  0  0  0  0  0  0  0  0  0  # atno 7974 bound_to 7965
  154.9197  140.3025  155.5222 H   0  0  0  0  0  0  0  0  0  0  0  0  # atno 8008 bound_to 7997
  156.3010  140.2374  156.4182 H   0  0  0  0  0  0  0  0  0  0  0  0  # atno 8009 bound_to 7997
  154.8343  140.0417  157.1487 H   0  0  0  0  0  0  0  0  0  0  0  0  # atno 8010 bound_to 7997
  139.8474  143.7242  152.2660 H   0  0  0  0  0  0  0  0  0  0  0  0  # atno 10167 bound_to 10162
  156.0957  130.4193  150.0922 H   0  0  0  0  0  0  0  0  0  0  0  0  # atno 10718 bound_to 10713
  153.0127  135.6338  154.1798 H   0  0  0  0  0  0  0  0  0  0  0  0  # atno 10763 bound_to 10752
  154.1539  135.2827  155.3129 H   0  0  0  0  0  0  0  0  0  0  0  0  # atno 10764 bound_to 10752
  154.6032  135.5580  153.7457 H   0  0  0  0  0  0  0  0  0  0  0  0  # atno 10765 bound_to 10752
  140.2561  134.3246  155.7873 H   0  0  0  0  0  0  0  0  0  0  0  0  # atno 11005 bound_to 11000
  144.6828  139.9741  143.7482 LP  0  0  0  0  0  0  0  0  0  0  0  0  # atno 17320 bound_to 7965
  146.0251  139.3285  143.0789 LP  0  0  0  0  0  0  0  0  0  0  0  0  # atno 17321 bound_to 7965
  139.7499  144.7537  151.0523 LP  0  0  0  0  0  0  0  0  0  0  0  0  # atno 17342 bound_to 10162
  140.7791  143.4873  150.9939 LP  0  0  0  0  0  0  0  0  0  0  0  0  # atno 17343 bound_to 10162
  156.8922  130.9592  151.3587 LP  0  0  0  0  0  0  0  0  0  0  0  0  # atno 17370 bound_to 10713
  157.6117  130.8588  149.8962 LP  0  0  0  0  0  0  0  0  0  0  0  0  # atno 17371 bound_to 10713
  141.2196  133.7382  156.9113 LP  0  0  0  0  0  0  0  0  0  0  0  0  # atno 17394 bound_to 11000
  140.1510  134.9230  157.2593 LP  0  0  0  0  0  0  0  0  0  0  0  0  # atno 17395 bound_to 11000

$$$$
