#       Name:                AV-unprocessed.smi:119
#       Creating user name   scv26
#       Creation time:       Thu Mar 26 18:26:21 2020


#       File generated by GOLD software.
#

@<TRIPOS>MOLECULE
AV-unprocessed.smi:119
    59    62     1
SMALL
NO_CHARGES


@<TRIPOS>ATOM
      1 ****        -3.3707  -1.8181  -2.3647 C.3            1 S1                 0.0000
      2 ****        -2.6053  -2.2059  -1.0928 C.3            1 S1                 0.0000
      3 ****        -3.0705  -1.3600   0.1101 C.3            1 S1                 0.0000
      4 ****        -2.5384  -1.8362   1.4745 C.3            1 S1                 0.0000
      5 ****        -1.1018  -1.5844   1.6257 N.am           1 S1                 0.0000
      6 ****        -0.6470  -0.3649   2.0115 C.2            1 S1                 0.0000
      7 ****        -1.4126   0.5444   2.3391 O.2            1 S1                 0.0000
      8 ****         0.8754  -0.0944   2.0412 C.3            1 S1                 0.0000
      9 ****         1.2044   1.3228   1.7748 N.am           1 S1                 0.0000
     10 ****         1.4592   2.1909   2.8649 C.2            1 S1                 0.0000
     11 ****         1.4145   1.7879   4.0280 O.2            1 S1                 0.0000
     12 ****         1.7693   3.5713   2.5094 C.2            1 S1                 0.0000
     13 ****         2.0554   4.4597   3.4764 F              1 S1                 0.0000
     14 ****         1.7768   3.9722   1.2212 C.2            1 S1                 0.0000
     15 ****         1.4860   3.1246   0.1705 N.am           1 S1                 0.0000
     16 ****         1.5409   3.6518  -1.2446 C.3            1 S1                 0.0000
     17 ****         0.2185   3.4790  -2.0165 C.3            1 S1                 0.0000
     18 ****         0.6297   2.6373  -3.2134 C.3            1 S1                 0.0000
     19 ****         2.1324   2.8810  -3.2988 C.3            1 S1                 0.0000
     20 ****         2.5317   2.9589  -1.9392 O.3            1 S1                 0.0000
     21 ****         1.2198   1.7607   0.4282 C.2            1 S1                 0.0000
     22 ****         1.0025   0.9707  -0.4924 O.2            1 S1                 0.0000
     23 ****        -0.2298  -2.6416   1.2614 C.ar           1 S1                 0.0000
     24 ****         0.4369  -3.3718   2.2695 C.ar           1 S1                 0.0000
     25 ****         1.3127  -4.4179   1.9223 C.ar           1 S1                 0.0000
     26 ****         1.5252  -4.7381   0.5679 C.ar           1 S1                 0.0000
     27 ****         0.8603  -4.0144  -0.4406 C.ar           1 S1                 0.0000
     28 ****        -0.0221  -2.9702  -0.0994 C.ar           1 S1                 0.0000
     29 ****        -0.8178  -2.0685  -1.3959 S.3            1 S1                 0.0000
     30 ****        -4.4453  -1.9492  -2.2346 H              1 S1                 0.0000
     31 ****        -3.0649  -2.4355  -3.2097 H              1 S1                 0.0000
     32 ****        -3.1914  -0.7761  -2.6314 H              1 S1                 0.0000
     33 ****        -2.8159  -3.2559  -0.8862 H              1 S1                 0.0000
     34 ****        -2.8166  -0.3111  -0.0498 H              1 S1                 0.0000
     35 ****        -4.1596  -1.3951   0.1535 H              1 S1                 0.0000
     36 ****        -3.0945  -1.3503   2.2779 H              1 S1                 0.0000
     37 ****        -2.7392  -2.9018   1.5956 H              1 S1                 0.0000
     38 ****         1.2571  -0.4311   3.0058 H              1 S1                 0.0000
     39 ****         1.4077  -0.7100   1.3154 H              1 S1                 0.0000
     40 ****         2.0164   5.0046   1.0120 H              1 S1                 0.0000
     41 ****         1.8263   4.7016  -1.1637 H              1 S1                 0.0000
     42 ****        -0.5616   3.0119  -1.4143 H              1 S1                 0.0000
     43 ****        -0.1310   4.4630  -2.3304 H              1 S1                 0.0000
     44 ****         0.4337   1.5826  -3.0178 H              1 S1                 0.0000
     45 ****         0.1038   2.9128  -4.1278 H              1 S1                 0.0000
     46 ****         2.6592   2.0868  -3.8282 H              1 S1                 0.0000
     47 ****         2.3452   3.8286  -3.7961 H              1 S1                 0.0000
     48 ****         0.2797  -3.1286   3.3104 H              1 S1                 0.0000
     49 ****         1.8234  -4.9735   2.6950 H              1 S1                 0.0000
     50 ****         2.1997  -5.5384   0.3020 H              1 S1                 0.0000
     51 ****         1.0299  -4.2634  -1.4780 H              1 S1                 0.0000
     52 ****        -2.4012   0.3949   2.3256 LP             1 S1                 0.0000
     53 ****        -1.0448   1.4314   2.6184 LP             1 S1                 0.0000
     54 ****         1.1950   0.8309   4.2175 LP             1 S1                 0.0000
     55 ****         1.5978   2.4178   4.7828 LP             1 S1                 0.0000
     56 ****         2.6327   2.0388  -1.5607 LP             1 S1                 0.0000
     57 ****         3.4020   3.4462  -1.8673 LP             1 S1                 0.0000
     58 ****         0.8129   0.0095  -0.2921 LP             1 S1                 0.0000
     59 ****         1.0159   1.2909  -1.4396 LP             1 S1                 0.0000
@<TRIPOS>BOND
    1    1    2 1     
    2    1   30 1     
    3    1   31 1     
    4    1   32 1     
    5    2   29 1     
    6    2    3 1     
    7    2   33 1     
    8    3    4 1     
    9    3   34 1     
   10    3   35 1     
   11    4    5 1     
   12    4   36 1     
   13    4   37 1     
   14    5    6 am    
   15    5   23 1     
   16    6    7 2     
   17    6    8 1     
   18    8    9 1     
   19    8   38 1     
   20    8   39 1     
   21    9   21 am    
   22    9   10 am    
   23   10   11 2     
   24   10   12 1     
   25   12   13 1     
   26   12   14 2     
   27   14   15 1     
   28   14   40 1     
   29   15   16 1     
   30   15   21 am    
   31   16   20 1     
   32   16   17 1     
   33   16   41 1     
   34   17   18 1     
   35   17   42 1     
   36   17   43 1     
   37   18   19 1     
   38   18   44 1     
   39   18   45 1     
   40   19   20 1     
   41   19   46 1     
   42   19   47 1     
   43   21   22 2     
   44   23   28 ar    
   45   23   24 ar    
   46   24   25 ar    
   47   24   48 1     
   48   25   26 ar    
   49   25   49 1     
   50   26   27 ar    
   51   26   50 1     
   52   27   28 ar    
   53   27   51 1     
   54   28   29 1     
   55    7   52 1     
   56    7   53 1     
   57   11   54 1     
   58   11   55 1     
   59   20   56 1     
   60   20   57 1     
   61   22   58 1     
   62   22   59 1     
@<TRIPOS>SUBSTRUCTURE
      1 S1             1
@<TRIPOS>SET
LONE_PAIRS      STATIC     ATOMS    <user>   **** ""
8 52 53 54 55 56 57 58 59
ATOM$BLUE        STATIC     ATOMS    COLORGROUP SYSTEM
8 52 53 54 55 56 57 58 59
