AV-unprocessed.smi:72|AV-procd|sdf|707|dock8
  -GOLD-   2262017 23D 1   1.00000     0.00000
 Structure written by MMmdl.
 30 31  0  0  0  0  0  0  0  0  2 V2000
  144.2163  139.2332  154.9005 N   0  0  0  0  0  0  0  0  0  0  0  0
  145.5755  139.4675  154.9072 C   0  0  0  0  0  0  0  0  0  0  0  0
  146.1333  140.0463  153.7812 N   0  3  0  0  0  0  0  0  0  0  0  0
  147.4322  140.3371  153.6305 C   0  0  0  0  0  0  0  0  0  0  0  0
  148.2683  140.0625  154.6082 N   0  0  0  0  0  0  0  0  0  0  0  0
  149.7313  140.3805  154.4504 C   0  0  2  0  0  0  0  0  0  0  0  0
  150.4446  139.2170  154.7288 O   0  0  0  0  0  0  0  0  0  0  0  0
  151.6591  139.5774  155.3731 C   0  0  2  0  0  0  0  0  0  0  0  0
  152.3252  138.3615  156.0416 C   0  0  0  0  0  0  0  0  0  0  0  0
  153.3528  138.7878  156.9104 O   0  0  0  0  0  0  0  0  0  0  0  0
  151.2431  140.7411  156.2858 C   0  0  2  0  0  0  0  0  0  0  0  0
  150.7021  140.2657  157.5072 O   0  0  0  0  0  0  0  0  0  0  0  0
  150.2098  141.4737  155.4291 C   0  0  2  0  0  0  0  0  0  0  0  0
  149.1889  142.1009  156.1888 O   0  0  0  0  0  0  0  0  0  0  0  0
  147.7918  139.4656  155.8036 C   0  0  0  0  0  0  0  0  0  0  0  0
  148.5628  139.1901  156.7217 O   0  0  0  0  0  0  0  0  0  0  0  0
  146.4154  139.2029  155.8698 N   0  0  0  0  0  0  0  0  0  0  0  0
  149.9078  140.6468  153.4079 H   0  0  0  0  0  0  0  0  0  0  0  0
  152.3256  139.9618  154.5981 H   0  0  0  0  0  0  0  0  0  0  0  0
  152.0914  141.3835  156.5245 H   0  0  0  0  0  0  0  0  0  0  0  0
  150.7131  142.2373  154.8344 H   0  0  0  0  0  0  0  0  0  0  0  0
  143.7241  138.8153  155.6777 H   0  0  0  0  0  0  0  0  0  0  0  0
  143.6083  139.4544  154.1252 H   0  0  0  0  0  0  0  0  0  0  0  0
  147.7829  140.7925  152.7135 H   0  0  0  0  0  0  0  0  0  0  0  0
  151.6054  137.7538  156.5900 H   0  0  0  0  0  0  0  0  0  0  0  0
  152.7676  137.7173  155.2814 H   0  0  0  0  0  0  0  0  0  0  0  0
  153.6025  138.0618  157.4619 H   0  0  0  0  0  0  0  0  0  0  0  0
  150.3304  139.4106  157.3598 H   0  0  0  0  0  0  0  0  0  0  0  0
  148.9935  142.9375  155.7934 H   0  0  0  0  0  0  0  0  0  0  0  0
  145.5103  140.2645  153.0168 H   0  0  0  0  0  0  0  0  0  0  0  0
  1  2  1  0  0  0  0
  1 22  1  0  0  0  0
  1 23  1  0  0  0  0
  2 17  2  0  0  0  0
  2  3  1  0  0  0  0
  3  4  2  0  0  0  0
  3 30  1  0  0  0  0
  4  5  1  0  0  0  0
  4 24  1  0  0  0  0
  5  6  1  0  0  0  0
  5 15  1  0  0  0  0
  6 18  1  0  0  0  0
  6 13  1  0  0  0  0
  6  7  1  0  0  0  0
  7  8  1  0  0  0  0
  8 19  1  0  0  0  0
  8  9  1  0  0  0  0
  8 11  1  0  0  0  0
  9 10  1  0  0  0  0
  9 25  1  0  0  0  0
  9 26  1  0  0  0  0
 10 27  1  0  0  0  0
 11 20  1  0  0  0  0
 11 12  1  0  0  0  0
 11 13  1  0  0  0  0
 12 28  1  0  0  0  0
 13 21  1  0  0  0  0
 13 14  1  0  0  0  0
 14 29  1  0  0  0  0
 15 16  2  0  0  0  0
 15 17  1  0  0  0  0
M  CHG  1   3   1
M  END
> <s_m_source_file>
AV-unprocessed.smi

> <i_m_source_file_index>
72

> <i_lp_mmshare_version>
43012

> <i_f3d_flags>
0

> <s_epik_input>
W05IMl1jMW5bY0hdbihjKD1PKW4xKVtDQEBIXTJPW0NASF0oW0NIMl1bT0hdKVtDQEBIXShbT0hdKVtDQEhdMltPSF0=

> <s_epik_cmdline>
J2VwaWtfcHl0aG9uJywgJy1waCcsICc3LjAnLCAnLXRuJywgJzgnLCAnLW1hJywgJzIwMCcsICctbWV0YWxfYmluZGluZycsICctaW1hZScsICc8aW5maWxlLm1hZT4nLCAnLW9tYWUnLCAnPG91dGZpbGUubWFlPic=

> <r_lp_tautomer_probability>
4.77166e-05

> <r_epik_Ionization_Penalty>
0.104979

> <r_epik_Ionization_Penalty_Charging>
0.0999619

> <r_epik_Ionization_Penalty_Neutral>
0.00501745

> <r_epik_State_Penalty>
2.51541

> <r_epik_Charging_Adjusted_Penalty>
2.61537

> <i_epik_Tot_Q>
1

> <i_epik_Tot_abs_Q>
1

> <r_epik_Metal_State_Penalty>
3.53763

> <b_epik_Metal_Only>
0

> <s_epik_Chemistry_Notes>
This compound contains an acetal/aminal-like group ( X-CH(R)-Y where X, Y are N, S, or O) that may be acid/base labile, releasing an aldehyde.

> <s_lp_Force_Field>
OPLS_2005

> <r_lp_Energy>
39.1051

> <b_lp_Chiralities_Consistent>
1

> <s_lp_Variant>
AV-unprocessed.smi:72-45

> <Gold.Version>
5.8.1

> <Gold.Id.Protein>
6NUR|6NUR_protein|mol2

> <Gold.PLP.Fitness>
38.0268

> <Gold.PLP.PLP>
-20.9748

> <Gold.PLP.part.hbond>
-4.0000

> <Gold.PLP.part.metal>
0.0000

> <Gold.PLP.part.buried>
0.0658

> <Gold.PLP.part.nonpolar>
-15.9300

> <Gold.PLP.part.repulsive>
0.1404

> <Gold.PLP.ligand.clash>
0.0000

> <Gold.PLP.ligand.torsion>
0.1562

> <Gold.PLP.Chemscore.Hbond>
4.7360

> <Gold.PLP.Chemscore.CHOScore>
1.0000

> <Gold.PLP.Chemscore.Metal>
0.0000

> <Gold.Chemscore.Hbonds>
donor molecule, donor type, donor heavy atom, donor atom, acceptor molecule, acceptor atom, score
      L1  H     1    23       P1 10175  0.80
      L1  H     3    30       P1 10175  1.86
      L1  H    14    29       P1  8028  1.00
      P1  H  7997  8009       L1    10  1.00
      L1  C     4    24       P1  7957  1.00

> <Gold.PLP.Chemscore.Internal.Correction>
0.1563

> <Gold.Rescore>
     Score         DG    S(hbond)    S(metal)    S(lipo)     H(rot)  DE(clash)    DE(int)     intcor
      6.88     -10.44       3.65        0.00      27.38       4.08       0.01       3.55       ----

> <Gold.Chemscore.Fitness>
6.8826

> <Gold.Chemscore.DG>
-10.4367

> <Gold.Chemscore.ZeroCoef>
-5.4800

> <Gold.Chemscore.Hbond>
3.6509

> <Gold.Chemscore.Metal>
0.0000

> <Gold.Chemscore.Lipo>
27.3752

> <Gold.Chemscore.Internal_Hbond>
0.0000

> <Gold.Chemscore.DEClash>
0.0063

> <Gold.Chemscore.DEInternal>
3.5478

> <Gold.Chemscore.Rot>
4.0783

> <Gold.Chemscore.Internal.Correction>
   9.000000E+99

> <Gold.Chemscore.Hbonds>
donor molecule, donor type, donor heavy atom, donor atom, acceptor molecule, acceptor atom, score
      L1  H     1    23       P1 10175  0.79
      L1  H     3    30       P1 10175  0.86
      L1  H    14    29       P1  8028  0.99
      P1  H  7997  8009       L1    10  0.94

> <Gold.Chemscore.Hbond.Weighted>
-12.1942

> <Gold.Chemscore.Metal.Weighted>
-0.0000

> <Gold.Chemscore.Lipo.Weighted>
-3.2029

> <Gold.Chemscore.Internal_Hbond.Weighted>
0.0000

> <Gold.Chemscore.DEClash.Weighted>
0.0063

> <Gold.Chemscore.DEInternal.Weighted>
3.5478

> <Gold.Chemscore.Rot.Weighted>
10.4404

> <Gold.Chemscore.Internal.Correction.Weighted>
   9.000000E+99

> <Gold.Protein.RotatedTorsions>
[ 6907 6896 6895 6894 ] final  -89.93 input  -60.11 | X-H torsion
[ 7974 7965 7964 7962 ] final -167.89 input  175.53 | X-H torsion
[ 8008 7997 7996 7995 ] final -172.25 input   59.86 | X-H torsion
[ 10167 10162 10161 10158 ] final  -94.89 input  -65.29 | X-H torsion
[ 10718 10713 10712 10709 ] final   96.21 input   66.30 | X-H torsion
[ 10763 10752 10751 10750 ] final  -66.66 input  -60.55 | X-H torsion
[ 11005 11000 10999 10996 ] final   97.14 input  -57.11 | X-H torsion

> <Gold.Protein.ActiveResidues>
 VAL166  LYS551  ARG553  GLY616  TRP617  ASP618  TYR619  PRO620  LYS621  CYS622 
 ASP623  PHE694  ASN695  SER759  ASP760  ASP761  ALA762  ILE779  LEU786  VAL792 
 PHE793  MET794  SER795  GLU796  ALA797  LYS798  CYS799  TRP800  GLU811  SER814 

> <Gold.Protein.RotatedAtoms>
  150.6877  134.2510  159.4510 H   0  0  0  0  0  0  0  0  0  0  0  0  # atno 6907 bound_to 6896
  152.0448  134.9687  160.0583 H   0  0  0  0  0  0  0  0  0  0  0  0  # atno 6908 bound_to 6896
  152.1175  133.4300  159.4697 H   0  0  0  0  0  0  0  0  0  0  0  0  # atno 6909 bound_to 6896
  144.7214  140.2451  143.6286 H   0  0  0  0  0  0  0  0  0  0  0  0  # atno 7974 bound_to 7965
  155.9421  140.1110  157.1047 H   0  0  0  0  0  0  0  0  0  0  0  0  # atno 8008 bound_to 7997
  154.4091  140.1217  156.5007 H   0  0  0  0  0  0  0  0  0  0  0  0  # atno 8009 bound_to 7997
  155.6948  140.3472  155.4911 H   0  0  0  0  0  0  0  0  0  0  0  0  # atno 8010 bound_to 7997
  140.3098  143.3112  152.0161 H   0  0  0  0  0  0  0  0  0  0  0  0  # atno 10167 bound_to 10162
  157.6930  131.0570  150.4456 H   0  0  0  0  0  0  0  0  0  0  0  0  # atno 10718 bound_to 10713
  154.3631  135.6112  153.5700 H   0  0  0  0  0  0  0  0  0  0  0  0  # atno 10763 bound_to 10752
  152.9793  135.5820  154.4610 H   0  0  0  0  0  0  0  0  0  0  0  0  # atno 10764 bound_to 10752
  154.4351  135.2849  155.1863 H   0  0  0  0  0  0  0  0  0  0  0  0  # atno 10765 bound_to 10752
  139.8777  134.8986  156.4264 H   0  0  0  0  0  0  0  0  0  0  0  0  # atno 11005 bound_to 11000
  145.8282  139.2074  143.1898 LP  0  0  0  0  0  0  0  0  0  0  0  0  # atno 17320 bound_to 7965
  146.0454  140.8123  142.9808 LP  0  0  0  0  0  0  0  0  0  0  0  0  # atno 17321 bound_to 7965
  139.4896  144.6393  151.6909 LP  0  0  0  0  0  0  0  0  0  0  0  0  # atno 17342 bound_to 10162
  140.5578  144.0318  150.6156 LP  0  0  0  0  0  0  0  0  0  0  0  0  # atno 17343 bound_to 10162
  156.4811  130.4074  149.6461 LP  0  0  0  0  0  0  0  0  0  0  0  0  # atno 17370 bound_to 10713
  156.3506  130.7430  151.2388 LP  0  0  0  0  0  0  0  0  0  0  0  0  # atno 17371 bound_to 10713
  140.9098  133.7720  155.9778 LP  0  0  0  0  0  0  0  0  0  0  0  0  # atno 17394 bound_to 11000
  140.8559  134.2898  157.5255 LP  0  0  0  0  0  0  0  0  0  0  0  0  # atno 17395 bound_to 11000

$$$$
