#       Name:                AV-unprocessed.smi:2565
#       Creating user name   scv26
#       Creation time:       Fri Mar 27 14:10:24 2020


#       File generated by GOLD software.
#

@<TRIPOS>MOLECULE
AV-unprocessed.smi:2565
    29    30     1
SMALL
NO_CHARGES


@<TRIPOS>ATOM
      1 ****        -1.6287   2.4558  -0.4415 C.3            1 S1                 0.0000
      2 ****        -0.1839   2.3855  -0.3510 N.pl3          1 S1                 0.0000
      3 ****         0.7013   3.3929  -0.3144 C.2            1 S1                 0.0000
      4 ****         1.9763   3.0191  -0.2184 N.2            1 S1                 0.0000
      5 ****         1.9326   1.6399  -0.1878 N.2            1 S1                 0.0000
      6 ****         0.6355   1.3162  -0.2765 C.2            1 S1                 0.0000
      7 ****         0.1229  -0.0941  -0.2541 C.3            1 S1                 0.0000
      8 ****        -0.0005  -0.6471   1.1790 C.3            1 S1                 0.0000
      9 ****        -0.4108  -2.0644   1.1410 N.4            1 S1                 1.0000
     10 ****         0.5046  -2.8696   0.3083 C.3            1 S1                 0.0000
     11 ****         0.6275  -2.2504  -1.0951 C.3            1 S1                 0.0000
     12 ****         1.0478  -0.8940  -0.9879 O.3            1 S1                 0.0000
     13 ****        -1.9593   3.4918  -0.3600 H              1 S1                 0.0000
     14 ****        -2.0789   1.8775   0.3658 H              1 S1                 0.0000
     15 ****        -1.9573   2.0542  -1.4002 H              1 S1                 0.0000
     16 ****         0.4057   4.4313  -0.3540 H              1 S1                 0.0000
     17 ****        -0.8453  -0.1299  -0.7565 H              1 S1                 0.0000
     18 ****         0.9538  -0.5674   1.7019 H              1 S1                 0.0000
     19 ****        -0.7305  -0.0751   1.7524 H              1 S1                 0.0000
     20 ****        -0.4244  -2.4358   2.0805 H              1 S1                 0.0000
     21 ****         1.4831  -2.9116   0.7889 H              1 S1                 0.0000
     22 ****         0.1323  -3.8923   0.2457 H              1 S1                 0.0000
     23 ****         1.3590  -2.8016  -1.6862 H              1 S1                 0.0000
     24 ****        -0.3216  -2.3068  -1.6305 H              1 S1                 0.0000
     25 ****        -1.3403  -2.1234   0.7501 H              1 S1                 0.0000
     26 ****         2.7845   3.6065  -0.1776 LP             1 S1                 0.0000
     27 ****         2.7079   1.0126  -0.1146 LP             1 S1                 0.0000
     28 ****         1.9333  -0.8680  -0.5240 LP             1 S1                 0.0000
     29 ****         1.1421  -0.5135  -1.9078 LP             1 S1                 0.0000
@<TRIPOS>BOND
    1    1    2 1     
    2    1   13 1     
    3    1   14 1     
    4    1   15 1     
    5    2    6 1     
    6    2    3 1     
    7    3    4 2     
    8    3   16 1     
    9    4    5 1     
   10    5    6 2     
   11    6    7 1     
   12    7   12 1     
   13    7    8 1     
   14    7   17 1     
   15    8    9 1     
   16    8   18 1     
   17    8   19 1     
   18    9   10 1     
   19    9   20 1     
   20    9   25 1     
   21   10   11 1     
   22   10   21 1     
   23   10   22 1     
   24   11   12 1     
   25   11   23 1     
   26   11   24 1     
   27    4   26 1     
   28    5   27 1     
   29   12   28 1     
   30   12   29 1     
@<TRIPOS>SUBSTRUCTURE
      1 S1             1
@<TRIPOS>SET
LONE_PAIRS      STATIC     ATOMS    <user>   **** ""
4 26 27 28 29
DONOR_HYDROGENS      STATIC     ATOMS    <user>   **** ""
2 20 25
ATOM$BLUE        STATIC     ATOMS    COLORGROUP SYSTEM
4 26 27 28 29
ATOM$RED        STATIC     ATOMS    COLORGROUP SYSTEM
2 20 25
