AV-unprocessed.smi:94|AV-procd|sdf|851|dock6
  -GOLD-   2262017293D 1   1.00000     0.00000
 Structure written by MMmdl.
 53 55  0  0  0  0  0  0  0  0  1 V2000
  154.7623  138.7165  161.1373 C   0  0  0  0  0  0  0  0  0  0  0  0
  153.8181  138.9413  160.1010 O   0  0  0  0  0  0  0  0  0  0  0  0
  153.2725  140.2024  159.9699 C   0  0  0  0  0  0  0  0  0  0  0  0
  153.6587  141.3046  160.7757 C   0  0  0  0  0  0  0  0  0  0  0  0
  153.0713  142.5703  160.5942 C   0  0  0  0  0  0  0  0  0  0  0  0
  152.0959  142.7596  159.5988 C   0  0  0  0  0  0  0  0  0  0  0  0
  151.4577  144.1186  159.3971 C   0  0  0  0  0  0  0  0  0  0  0  0
  151.7090  141.6744  158.7923 C   0  0  0  0  0  0  0  0  0  0  0  0
  152.2792  140.3917  158.9766 C   0  0  0  0  0  0  0  0  0  0  0  0
  151.8380  139.2188  158.0969 C   0  0  2  0  0  0  0  0  0  0  0  0
  151.8371  139.6094  156.6125 C   0  0  0  0  0  0  0  0  0  0  0  0
  150.5105  138.7347  158.4630 N   0  0  0  0  0  0  0  0  0  0  0  0
  150.1921  137.5134  158.9222 C   0  0  0  0  0  0  0  0  0  0  0  0
  150.9877  136.5761  158.9602 O   0  0  0  0  0  0  0  0  0  0  0  0
  148.7681  137.3232  159.4739 C   0  0  0  0  0  0  0  0  0  0  0  0
  148.5364  135.9839  160.0670 N   0  0  0  0  0  0  0  0  0  0  0  0
  148.1308  135.9155  161.4237 C   0  0  0  0  0  0  0  0  0  0  0  0
  148.0128  136.9328  162.1079 O   0  0  0  0  0  0  0  0  0  0  0  0
  147.8466  134.5785  161.9298 C   0  0  0  0  0  0  0  0  0  0  0  0
  147.4351  134.4197  163.1992 F   0  0  0  0  0  0  0  0  0  0  0  0
  147.9765  133.4952  161.1377 C   0  0  0  0  0  0  0  0  0  0  0  0
  148.3933  133.5697  159.8228 N   0  0  0  0  0  0  0  0  0  0  0  0
  148.4384  132.3012  158.9992 C   0  0  2  0  0  0  0  0  0  0  0  0
  148.0436  131.0370  159.7775 C   0  0  0  0  0  0  0  0  0  0  0  0
  148.9562  130.0081  159.1458 C   0  0  0  0  0  0  0  0  0  0  0  0
  150.2122  130.8266  158.8660 C   0  0  0  0  0  0  0  0  0  0  0  0
  149.7360  132.1216  158.5091 O   0  0  0  0  0  0  0  0  0  0  0  0
  148.6600  134.8349  159.2483 C   0  0  0  0  0  0  0  0  0  0  0  0
  148.9696  134.9439  158.0613 O   0  0  0  0  0  0  0  0  0  0  0  0
  155.0866  137.6767  161.1069 H   0  0  0  0  0  0  0  0  0  0  0  0
  154.3257  138.8965  162.1205 H   0  0  0  0  0  0  0  0  0  0  0  0
  155.6477  139.3415  161.0136 H   0  0  0  0  0  0  0  0  0  0  0  0
  154.4080  141.2064  161.5460 H   0  0  0  0  0  0  0  0  0  0  0  0
  153.3752  143.3954  161.2212 H   0  0  0  0  0  0  0  0  0  0  0  0
  151.2069  144.2776  158.3478 H   0  0  0  0  0  0  0  0  0  0  0  0
  152.1323  144.9168  159.7084 H   0  0  0  0  0  0  0  0  0  0  0  0
  150.5413  144.1937  159.9826 H   0  0  0  0  0  0  0  0  0  0  0  0
  150.9648  141.8412  158.0277 H   0  0  0  0  0  0  0  0  0  0  0  0
  152.5532  138.4050  158.2241 H   0  0  0  0  0  0  0  0  0  0  0  0
  152.8289  139.9266  156.2889 H   0  0  0  0  0  0  0  0  0  0  0  0
  151.1454  140.4300  156.4180 H   0  0  0  0  0  0  0  0  0  0  0  0
  151.5412  138.7677  155.9856 H   0  0  0  0  0  0  0  0  0  0  0  0
  149.7732  139.4243  158.4530 H   0  0  0  0  0  0  0  0  0  0  0  0
  148.5760  138.1180  160.1957 H   0  0  0  0  0  0  0  0  0  0  0  0
  148.0519  137.5170  158.6735 H   0  0  0  0  0  0  0  0  0  0  0  0
  147.7417  132.5292  161.5603 H   0  0  0  0  0  0  0  0  0  0  0  0
  147.7791  132.4706  158.1468 H   0  0  0  0  0  0  0  0  0  0  0  0
  148.2540  131.1349  160.8415 H   0  0  0  0  0  0  0  0  0  0  0  0
  146.9838  130.8154  159.6512 H   0  0  0  0  0  0  0  0  0  0  0  0
  149.1416  129.1465  159.7877 H   0  0  0  0  0  0  0  0  0  0  0  0
  148.5256  129.6521  158.2089 H   0  0  0  0  0  0  0  0  0  0  0  0
  150.8286  130.9013  159.7621 H   0  0  0  0  0  0  0  0  0  0  0  0
  150.8244  130.3961  158.0734 H   0  0  0  0  0  0  0  0  0  0  0  0
  1  2  1  0  0  0  0
  1 30  1  0  0  0  0
  1 31  1  0  0  0  0
  1 32  1  0  0  0  0
  2  3  1  0  0  0  0
  3  9  1  0  0  0  0
  3  4  2  0  0  0  0
  4  5  1  0  0  0  0
  4 33  1  0  0  0  0
  5  6  2  0  0  0  0
  5 34  1  0  0  0  0
  6  7  1  0  0  0  0
  6  8  1  0  0  0  0
  7 35  1  0  0  0  0
  7 36  1  0  0  0  0
  7 37  1  0  0  0  0
  8  9  2  0  0  0  0
  8 38  1  0  0  0  0
  9 10  1  0  0  0  0
 10 11  1  0  0  0  0
 10 12  1  0  0  0  0
 10 39  1  0  0  0  0
 11 40  1  0  0  0  0
 11 41  1  0  0  0  0
 11 42  1  0  0  0  0
 12 13  1  0  0  0  0
 12 43  1  0  0  0  0
 13 14  2  0  0  0  0
 13 15  1  0  0  0  0
 15 16  1  0  0  0  0
 15 44  1  0  0  0  0
 15 45  1  0  0  0  0
 16 28  1  0  0  0  0
 16 17  1  0  0  0  0
 17 18  2  0  0  0  0
 17 19  1  0  0  0  0
 19 20  1  0  0  0  0
 19 21  2  0  0  0  0
 21 22  1  0  0  0  0
 21 46  1  0  0  0  0
 22 23  1  0  0  0  0
 22 28  1  0  0  0  0
 23 27  1  0  0  0  0
 23 24  1  0  0  0  0
 23 47  1  0  0  0  0
 24 25  1  0  0  0  0
 24 48  1  0  0  0  0
 24 49  1  0  0  0  0
 25 26  1  0  0  0  0
 25 50  1  0  0  0  0
 25 51  1  0  0  0  0
 26 27  1  0  0  0  0
 26 52  1  0  0  0  0
 26 53  1  0  0  0  0
 28 29  2  0  0  0  0
M  END
> <s_m_source_file>
AV-unprocessed.smi

> <i_m_source_file_index>
94

> <i_lp_mmshare_version>
43012

> <i_f3d_flags>
0

> <s_epik_input>
W0NIM11PYzFbY0hdW2NIXWMoW0NIM10pW2NIXWMxW0NASF0oW0NIM10pW05IXUMoPU8pW0NIMl1uMmMoPU8pYyhGKVtjSF1uKGMyPU8pW0NAQEhdM1tDSDJdW0NIMl1bQ0gyXU8z

> <s_epik_cmdline>
J2VwaWtfcHl0aG9uJywgJy1waCcsICc3LjAnLCAnLXRuJywgJzgnLCAnLW1hJywgJzIwMCcsICctbWV0YWxfYmluZGluZycsICctaW1hZScsICc8aW5maWxlLm1hZT4nLCAnLW9tYWUnLCAnPG91dGZpbGUubWFlPic=

> <r_lp_tautomer_probability>
1

> <r_epik_Ionization_Penalty>
3.37009e-08

> <r_epik_Ionization_Penalty_Charging>
3.59856e-09

> <r_epik_Ionization_Penalty_Neutral>
3.01024e-08

> <r_epik_State_Penalty>
-0

> <r_epik_Charging_Adjusted_Penalty>
3.59856e-09

> <i_epik_Tot_Q>
0

> <i_epik_Tot_abs_Q>
0

> <r_epik_Metal_State_Penalty>
-0

> <b_epik_Metal_Only>
0

> <s_epik_Chemistry_Notes>
This compound contains an acetal/aminal-like group ( X-CH(R)-Y where X, Y are N, S, or O) that may be acid/base labile, releasing an aldehyde.

> <s_lp_Force_Field>
OPLS_2005

> <r_lp_Energy>
26.0468

> <b_lp_Chiralities_Consistent>
1

> <s_lp_Variant>
AV-unprocessed.smi:94-1

> <Gold.Version>
5.8.1

> <Gold.Id.Protein>
6NUR|6NUR_protein|mol2

> <Gold.PLP.Fitness>
60.6868

> <Gold.PLP.PLP>
-50.0480

> <Gold.PLP.part.hbond>
-4.1571

> <Gold.PLP.part.metal>
0.0000

> <Gold.PLP.part.buried>
-3.5027

> <Gold.PLP.part.nonpolar>
-41.9682

> <Gold.PLP.part.repulsive>
0.1027

> <Gold.PLP.ligand.clash>
0.0000

> <Gold.PLP.ligand.torsion>
0.3291

> <Gold.PLP.Chemscore.Hbond>
3.7280

> <Gold.PLP.Chemscore.CHOScore>
0.0000

> <Gold.PLP.Chemscore.Metal>
0.0000

> <Gold.Chemscore.Hbonds>
donor molecule, donor type, donor heavy atom, donor atom, acceptor molecule, acceptor atom, score
      P1  H  6896  6908       L1    27  0.99
      P1  H  6896  6909       L1    14  1.00
      P1  H  6931  6943       L1    18  1.00

> <Gold.PLP.Chemscore.Internal.Correction>
0.1131

> <Gold.Rescore>
     Score         DG    S(hbond)    S(metal)    S(lipo)     H(rot)  DE(clash)    DE(int)     intcor
     19.29     -23.70       3.50        0.00     106.83       2.34       0.04       4.37       ----

> <Gold.Chemscore.Fitness>
19.2905

> <Gold.Chemscore.DG>
-23.7016

> <Gold.Chemscore.ZeroCoef>
-5.4800

> <Gold.Chemscore.Hbond>
3.5046

> <Gold.Chemscore.Metal>
0.0000

> <Gold.Chemscore.Lipo>
106.8298

> <Gold.Chemscore.Internal_Hbond>
0.0000

> <Gold.Chemscore.DEClash>
0.0416

> <Gold.Chemscore.DEInternal>
4.3696

> <Gold.Chemscore.Rot>
2.3370

> <Gold.Chemscore.Internal.Correction>
   9.000000E+99

> <Gold.Chemscore.Hbonds>
donor molecule, donor type, donor heavy atom, donor atom, acceptor molecule, acceptor atom, score
      P1  H  6896  6908       L1    27  0.44
      P1  H  6896  6909       L1    14  0.94
      P1  H  6931  6943       L1    18  0.98

> <Gold.Chemscore.Hbond.Weighted>
-11.7052

> <Gold.Chemscore.Metal.Weighted>
-0.0000

> <Gold.Chemscore.Lipo.Weighted>
-12.4991

> <Gold.Chemscore.Internal_Hbond.Weighted>
0.0000

> <Gold.Chemscore.DEClash.Weighted>
0.0416

> <Gold.Chemscore.DEInternal.Weighted>
4.3696

> <Gold.Chemscore.Rot.Weighted>
5.9827

> <Gold.Chemscore.Internal.Correction.Weighted>
   9.000000E+99

> <Gold.Protein.RotatedTorsions>
[ 6907 6896 6895 6894 ] final   92.96 input  -60.11 | X-H torsion
[ 7974 7965 7964 7962 ] final   56.66 input  175.53 | X-H torsion
[ 8008 7997 7996 7995 ] final  -24.87 input   59.86 | X-H torsion
[ 10167 10162 10161 10158 ] final  -55.63 input  -65.29 | X-H torsion
[ 10718 10713 10712 10709 ] final   56.81 input   66.30 | X-H torsion
[ 10763 10752 10751 10750 ] final  152.63 input  -60.55 | X-H torsion
[ 11005 11000 10999 10996 ] final  -25.93 input  -57.11 | X-H torsion

> <Gold.Protein.ActiveResidues>
 VAL166  LYS551  ARG553  GLY616  TRP617  ASP618  TYR619  PRO620  LYS621  CYS622 
 ASP623  PHE694  ASN695  SER759  ASP760  ASP761  ALA762  ILE779  LEU786  VAL792 
 PHE793  MET794  SER795  GLU796  ALA797  LYS798  CYS799  TRP800  GLU811  SER814 

> <Gold.Protein.RotatedAtoms>
  152.5453  134.1421  159.8483 H   0  0  0  0  0  0  0  0  0  0  0  0  # atno 6907 bound_to 6896
  151.1456  133.4934  159.2603 H   0  0  0  0  0  0  0  0  0  0  0  0  # atno 6908 bound_to 6896
  151.1526  135.0245  159.8730 H   0  0  0  0  0  0  0  0  0  0  0  0  # atno 6909 bound_to 6896
  145.9375  139.3859  143.0384 H   0  0  0  0  0  0  0  0  0  0  0  0  # atno 7974 bound_to 7965
  154.4506  140.1942  156.0531 H   0  0  0  0  0  0  0  0  0  0  0  0  # atno 8008 bound_to 7997
  156.0639  140.3293  155.7467 H   0  0  0  0  0  0  0  0  0  0  0  0  # atno 8009 bound_to 7997
  155.5369  140.0583  157.2868 H   0  0  0  0  0  0  0  0  0  0  0  0  # atno 8010 bound_to 7997
  140.6364  143.2484  151.5108 H   0  0  0  0  0  0  0  0  0  0  0  0  # atno 10167 bound_to 10162
  157.5462  130.8733  149.8895 H   0  0  0  0  0  0  0  0  0  0  0  0  # atno 10718 bound_to 10713
  154.1231  135.2831  155.3203 H   0  0  0  0  0  0  0  0  0  0  0  0  # atno 10763 bound_to 10752
  154.6409  135.5402  153.7792 H   0  0  0  0  0  0  0  0  0  0  0  0  # atno 10764 bound_to 10752
  153.0306  135.6486  154.1384 H   0  0  0  0  0  0  0  0  0  0  0  0  # atno 10765 bound_to 10752
  140.8983  133.7541  156.0510 H   0  0  0  0  0  0  0  0  0  0  0  0  # atno 11005 bound_to 11000
  145.8345  140.9613  143.0832 LP  0  0  0  0  0  0  0  0  0  0  0  0  # atno 17320 bound_to 7965
  144.6774  140.0204  143.7484 LP  0  0  0  0  0  0  0  0  0  0  0  0  # atno 17321 bound_to 7965
  139.5574  144.2242  152.1635 LP  0  0  0  0  0  0  0  0  0  0  0  0  # atno 17342 bound_to 10162
  140.1499  144.5124  150.6693 LP  0  0  0  0  0  0  0  0  0  0  0  0  # atno 17343 bound_to 10162
  156.0538  130.3712  150.1140 LP  0  0  0  0  0  0  0  0  0  0  0  0  # atno 17370 bound_to 10713
  156.9316  130.9715  151.3532 LP  0  0  0  0  0  0  0  0  0  0  0  0  # atno 17371 bound_to 10713
  140.8262  134.3232  157.5365 LP  0  0  0  0  0  0  0  0  0  0  0  0  # atno 17394 bound_to 11000
  139.8738  134.9337  156.3588 LP  0  0  0  0  0  0  0  0  0  0  0  0  # atno 17395 bound_to 11000

$$$$
