AV-unprocessed.smi:3057|AV-procd|sdf|11663|dock4
  -GOLD-   2272017 63D 1   1.00000     0.00000
 Structure written by MMmdl.
 40 42  0  0  0  0  0  0  0  0  1 V2000
  148.6926  139.2161  153.3336 C   0  0  0  0  0  0  0  0  0  0  0  0
  149.0779  139.2625  154.8270 C   0  0  1  0  0  0  0  0  0  0  0  0
  149.5568  137.8890  155.3229 C   0  0  0  0  0  0  0  0  0  0  0  0
  151.0767  137.9230  155.0975 C   0  0  0  0  0  0  0  0  0  0  0  0
  151.3777  139.4150  155.1030 C   0  0  0  0  0  0  0  0  0  0  0  0
  152.5136  139.8733  155.2164 O   0  0  0  0  0  0  0  0  0  0  0  0
  150.2339  140.1144  155.0368 N   0  0  0  0  0  0  0  0  0  0  0  0
  149.9684  141.5232  155.3670 C   0  0  2  0  0  0  0  0  0  0  0  0
  150.6290  141.9988  156.6754 C   0  0  0  0  0  0  0  0  0  0  0  0
  151.4319  141.2808  157.2730 O   0  0  0  0  0  0  0  0  0  0  0  0
  150.2444  143.2023  157.1268 N   0  0  0  0  0  0  0  0  0  0  0  0
  150.7134  143.8353  158.3564 C   0  0  0  0  0  0  0  0  0  0  0  0
  152.2512  143.8611  158.4887 C   0  0  0  0  0  0  0  0  0  0  0  0
  152.7766  143.1310  159.7135 C   0  0  0  0  0  0  0  0  0  0  0  0
  152.4154  143.5526  161.0115 C   0  0  0  0  0  0  0  0  0  0  0  0
  152.9398  142.8536  162.1152 C   0  0  0  0  0  0  0  0  0  0  0  0
  153.7987  141.7629  161.8800 C   0  0  0  0  0  0  0  0  0  0  0  0
  154.0946  141.4179  160.5459 C   0  0  0  0  0  0  0  0  0  0  0  0
  153.5979  142.0826  159.4800 N   0  0  0  0  0  0  0  0  0  0  0  0
  148.4328  141.6814  155.4132 C   0  0  0  0  0  0  0  0  0  0  0  0
  147.7821  140.0376  155.8156 S   0  0  0  0  0  0  0  0  0  0  0  0
  149.4976  138.8036  152.7244 H   0  0  0  0  0  0  0  0  0  0  0  0
  148.4646  140.2064  152.9397 H   0  0  0  0  0  0  0  0  0  0  0  0
  147.8119  138.5925  153.1787 H   0  0  0  0  0  0  0  0  0  0  0  0
  149.3493  137.7728  156.3880 H   0  0  0  0  0  0  0  0  0  0  0  0
  149.0757  137.0603  154.8024 H   0  0  0  0  0  0  0  0  0  0  0  0
  151.6231  137.3941  155.8788 H   0  0  0  0  0  0  0  0  0  0  0  0
  151.3479  137.5031  154.1284 H   0  0  0  0  0  0  0  0  0  0  0  0
  150.3622  142.1322  154.5517 H   0  0  0  0  0  0  0  0  0  0  0  0
  149.5717  143.7196  156.5794 H   0  0  0  0  0  0  0  0  0  0  0  0
  150.3071  144.8445  158.4382 H   0  0  0  0  0  0  0  0  0  0  0  0
  150.2924  143.2671  159.1862 H   0  0  0  0  0  0  0  0  0  0  0  0
  152.7018  143.4208  157.5985 H   0  0  0  0  0  0  0  0  0  0  0  0
  152.5991  144.8944  158.5149 H   0  0  0  0  0  0  0  0  0  0  0  0
  151.7599  144.3985  161.1593 H   0  0  0  0  0  0  0  0  0  0  0  0
  152.6895  143.1507  163.1230 H   0  0  0  0  0  0  0  0  0  0  0  0
  154.2204  141.2040  162.7021 H   0  0  0  0  0  0  0  0  0  0  0  0
  154.7489  140.5864  160.3294 H   0  0  0  0  0  0  0  0  0  0  0  0
  148.0893  142.4247  156.1329 H   0  0  0  0  0  0  0  0  0  0  0  0
  148.0538  141.9782  154.4354 H   0  0  0  0  0  0  0  0  0  0  0  0
  1  2  1  0  0  0  0
  1 22  1  0  0  0  0
  1 23  1  0  0  0  0
  1 24  1  0  0  0  0
  2  7  1  0  0  0  0
  2 21  1  0  0  0  0
  2  3  1  0  0  0  0
  3  4  1  0  0  0  0
  3 25  1  0  0  0  0
  3 26  1  0  0  0  0
  4  5  1  0  0  0  0
  4 27  1  0  0  0  0
  4 28  1  0  0  0  0
  5  6  2  0  0  0  0
  5  7  1  0  0  0  0
  7  8  1  0  0  0  0
  8  9  1  0  0  0  0
  8 20  1  0  0  0  0
  8 29  1  0  0  0  0
  9 10  2  0  0  0  0
  9 11  1  0  0  0  0
 11 12  1  0  0  0  0
 11 30  1  0  0  0  0
 12 13  1  0  0  0  0
 12 31  1  0  0  0  0
 12 32  1  0  0  0  0
 13 14  1  0  0  0  0
 13 33  1  0  0  0  0
 13 34  1  0  0  0  0
 14 19  1  0  0  0  0
 14 15  2  0  0  0  0
 15 16  1  0  0  0  0
 15 35  1  0  0  0  0
 16 17  2  0  0  0  0
 16 36  1  0  0  0  0
 17 18  1  0  0  0  0
 17 37  1  0  0  0  0
 18 19  2  0  0  0  0
 18 38  1  0  0  0  0
 20 21  1  0  0  0  0
 20 39  1  0  0  0  0
 20 40  1  0  0  0  0
M  END
> <s_m_source_file>
AV-unprocessed.smi

> <i_m_source_file_index>
3057

> <i_lp_mmshare_version>
43012

> <i_f3d_flags>
0

> <s_epik_input>
W0NIMl0xW0NIMl1DKD1PKU4oW0NAQF0xMltDSDNdKVtDQEhdKFtDSDJdUzIpQyg9TylbTkhdW0NIMl1bQ0gyXWMzW2NIXVtjSF1bY0hdW2NIXW4z

> <s_epik_cmdline>
J2VwaWtfcHl0aG9uJywgJy1waCcsICc3LjAnLCAnLXRuJywgJzgnLCAnLW1hJywgJzIwMCcsICctbWV0YWxfYmluZGluZycsICctaW1hZScsICc8aW5maWxlLm1hZT4nLCAnLW9tYWUnLCAnPG91dGZpbGUubWFlPic=

> <r_epik_Ionization_Penalty>
0.0249631

> <r_epik_Ionization_Penalty_Charging>
0

> <r_epik_Ionization_Penalty_Neutral>
0.0249631

> <r_epik_State_Penalty>
0.0202943

> <r_epik_Charging_Adjusted_Penalty>
0.0202943

> <i_epik_Tot_Q>
0

> <i_epik_Tot_abs_Q>
0

> <r_epik_Metal_State_Penalty>
0.0194661

> <b_epik_Metal_Only>
0

> <s_lp_Force_Field>
OPLS_2005

> <r_lp_Energy>
26.5663

> <b_lp_Chiralities_Consistent>
1

> <s_lp_Variant>
AV-unprocessed.smi:3057-3

> <Gold.Version>
5.8.1

> <Gold.Id.Protein>
6NUR|6NUR_protein|mol2

> <Gold.PLP.Fitness>
50.0681

> <Gold.PLP.PLP>
-45.2596

> <Gold.PLP.part.hbond>
-2.9581

> <Gold.PLP.part.metal>
0.0000

> <Gold.PLP.part.buried>
3.0487

> <Gold.PLP.part.nonpolar>
-44.2010

> <Gold.PLP.part.repulsive>
0.0263

> <Gold.PLP.ligand.clash>
0.0000

> <Gold.PLP.ligand.torsion>
0.6003

> <Gold.PLP.Chemscore.Hbond>
2.0000

> <Gold.PLP.Chemscore.CHOScore>
0.0000

> <Gold.PLP.Chemscore.Metal>
0.0000

> <Gold.Chemscore.Hbonds>
donor molecule, donor type, donor heavy atom, donor atom, acceptor molecule, acceptor atom, score
      L1  H    11    30       P1  8028  0.96
      P1  H  7997  8008       L1     6  0.91

> <Gold.PLP.Chemscore.Internal.Correction>
0.0091

> <Gold.Rescore>
     Score         DG    S(hbond)    S(metal)    S(lipo)     H(rot)  DE(clash)    DE(int)     intcor
     15.80     -21.93       1.97        0.00     118.01       1.53       1.71       4.42       ----

> <Gold.Chemscore.Fitness>
15.8039

> <Gold.Chemscore.DG>
-21.9348

> <Gold.Chemscore.ZeroCoef>
-5.4800

> <Gold.Chemscore.Hbond>
1.9684

> <Gold.Chemscore.Metal>
0.0000

> <Gold.Chemscore.Lipo>
118.0092

> <Gold.Chemscore.Internal_Hbond>
0.0000

> <Gold.Chemscore.DEClash>
1.7146

> <Gold.Chemscore.DEInternal>
4.4162

> <Gold.Chemscore.Rot>
1.5339

> <Gold.Chemscore.Internal.Correction>
   9.000000E+99

> <Gold.Chemscore.Hbonds>
donor molecule, donor type, donor heavy atom, donor atom, acceptor molecule, acceptor atom, score
      L1  H    11    30       P1  8028  0.91
      P1  H  7997  8008       L1     6  0.89

> <Gold.Chemscore.Hbond.Weighted>
-6.5744

> <Gold.Chemscore.Metal.Weighted>
-0.0000

> <Gold.Chemscore.Lipo.Weighted>
-13.8071

> <Gold.Chemscore.Internal_Hbond.Weighted>
0.0000

> <Gold.Chemscore.DEClash.Weighted>
1.7146

> <Gold.Chemscore.DEInternal.Weighted>
4.4162

> <Gold.Chemscore.Rot.Weighted>
3.9267

> <Gold.Chemscore.Internal.Correction.Weighted>
   9.000000E+99

> <Gold.Protein.RotatedTorsions>
[ 6907 6896 6895 6894 ] final   -4.21 input  -60.11 | X-H torsion
[ 7974 7965 7964 7962 ] final  152.91 input  175.53 | X-H torsion
[ 8008 7997 7996 7995 ] final  -23.49 input   59.86 | X-H torsion
[ 10167 10162 10161 10158 ] final  120.02 input  -65.29 | X-H torsion
[ 10718 10713 10712 10709 ] final   47.04 input   66.30 | X-H torsion
[ 10763 10752 10751 10750 ] final  113.51 input  -60.55 | X-H torsion
[ 11005 11000 10999 10996 ] final  156.87 input  -57.11 | X-H torsion

> <Gold.Protein.ActiveResidues>
 VAL166  LYS551  ARG553  GLY616  TRP617  ASP618  TYR619  PRO620  LYS621  CYS622 
 ASP623  PHE694  ASN695  SER759  ASP760  ASP761  ALA762  ILE779  LEU786  VAL792 
 PHE793  MET794  SER795  GLU796  ALA797  LYS798  CYS799  TRP800  GLU811  SER814 

> <Gold.Protein.RotatedAtoms>
  151.5014  135.1062  159.9829 H   0  0  0  0  0  0  0  0  0  0  0  0  # atno 6907 bound_to 6896
  152.4700  133.8005  159.6960 H   0  0  0  0  0  0  0  0  0  0  0  0  # atno 6908 bound_to 6896
  150.8704  133.7450  159.2989 H   0  0  0  0  0  0  0  0  0  0  0  0  # atno 6909 bound_to 6896
  144.8190  139.6730  143.6108 H   0  0  0  0  0  0  0  0  0  0  0  0  # atno 7974 bound_to 7965
  154.4582  140.1979  156.0318 H   0  0  0  0  0  0  0  0  0  0  0  0  # atno 8008 bound_to 7997
  156.0789  140.3274  155.7640 H   0  0  0  0  0  0  0  0  0  0  0  0  # atno 8009 bound_to 7997
  155.5144  140.0564  157.2908 H   0  0  0  0  0  0  0  0  0  0  0  0  # atno 8010 bound_to 7997
  139.6008  144.7056  151.3066 H   0  0  0  0  0  0  0  0  0  0  0  0  # atno 10167 bound_to 10162
  157.4544  130.8158  149.7821 H   0  0  0  0  0  0  0  0  0  0  0  0  # atno 10718 bound_to 10713
  153.4935  135.3653  155.2504 H   0  0  0  0  0  0  0  0  0  0  0  0  # atno 10763 bound_to 10752
  154.8751  135.3983  154.3561 H   0  0  0  0  0  0  0  0  0  0  0  0  # atno 10764 bound_to 10752
  153.4184  135.7079  153.6376 H   0  0  0  0  0  0  0  0  0  0  0  0  # atno 10765 bound_to 10752
  140.1716  134.8539  157.2697 H   0  0  0  0  0  0  0  0  0  0  0  0  # atno 11005 bound_to 11000
  146.2495  139.6169  142.9437 LP  0  0  0  0  0  0  0  0  0  0  0  0  # atno 17320 bound_to 7965
  145.5148  141.0434  143.2468 LP  0  0  0  0  0  0  0  0  0  0  0  0  # atno 17321 bound_to 7965
  140.7248  143.7034  150.7827 LP  0  0  0  0  0  0  0  0  0  0  0  0  # atno 17342 bound_to 10162
  140.0610  143.5155  152.2627 LP  0  0  0  0  0  0  0  0  0  0  0  0  # atno 17343 bound_to 10162
  156.0001  130.3885  150.2641 LP  0  0  0  0  0  0  0  0  0  0  0  0  # atno 17370 bound_to 10713
  157.0814  131.0144  151.3155 LP  0  0  0  0  0  0  0  0  0  0  0  0  # atno 17371 bound_to 10713
  140.2371  134.3840  155.7496 LP  0  0  0  0  0  0  0  0  0  0  0  0  # atno 17394 bound_to 11000
  141.2218  133.7245  156.8731 LP  0  0  0  0  0  0  0  0  0  0  0  0  # atno 17395 bound_to 11000

$$$$
