AV-unprocessed.smi:41|AV-procd|sdf|385|dock1
  -GOLD-   2262016243D 1   1.00000     0.00000
 Structure written by MMmdl.
 26 27  0  0  0  0  0  0  0  0  1 V2000
  149.2321  138.6431  153.2743 N   0  0  0  0  0  0  0  0  0  0  0  0
  149.7703  139.4344  154.2137 C   0  0  0  0  0  0  0  0  0  0  0  0
  150.8910  139.0620  154.8000 N   0  0  0  0  0  0  0  0  0  0  0  0
  151.5151  139.8019  155.7703 C   0  0  0  0  0  0  0  0  0  0  0  0
  152.5744  139.4138  156.2609 O   0  0  0  0  0  0  0  0  0  0  0  0
  150.8933  141.0102  156.1780 N   0  0  0  0  0  0  0  0  0  0  0  0
  151.5351  141.8762  157.1659 C   0  0  2  0  0  0  0  0  0  0  0  0
  152.0446  141.1508  158.4251 C   0  0  0  0  0  0  0  0  0  0  0  0
  152.1846  142.4147  159.6964 S   0  0  0  0  0  0  0  0  0  0  0  0
  151.1814  143.5464  158.7017 C   0  0  1  0  0  0  0  0  0  0  0  0
  152.0048  144.7663  158.2453 C   0  0  0  0  0  0  0  0  0  0  0  0
  151.9381  145.7882  159.2169 O   0  0  0  0  0  0  0  0  0  0  0  0
  150.6413  142.8620  157.5766 O   0  0  0  0  0  0  0  0  0  0  0  0
  149.7331  141.4266  155.5351 C   0  0  0  0  0  0  0  0  0  0  0  0
  149.1415  140.6835  154.5754 C   0  0  0  0  0  0  0  0  0  0  0  0
  148.0123  141.0983  153.9752 F   0  0  0  0  0  0  0  0  0  0  0  0
  152.3839  142.3834  156.7067 H   0  0  0  0  0  0  0  0  0  0  0  0
  150.3572  143.8823  159.3321 H   0  0  0  0  0  0  0  0  0  0  0  0
  148.3778  138.9197  152.8122 H   0  0  0  0  0  0  0  0  0  0  0  0
  149.6805  137.7712  153.0329 H   0  0  0  0  0  0  0  0  0  0  0  0
  151.3421  140.4023  158.7831 H   0  0  0  0  0  0  0  0  0  0  0  0
  152.9995  140.6639  158.2260 H   0  0  0  0  0  0  0  0  0  0  0  0
  153.0554  144.4920  158.1450 H   0  0  0  0  0  0  0  0  0  0  0  0
  151.6819  145.1464  157.2765 H   0  0  0  0  0  0  0  0  0  0  0  0
  151.7830  145.3916  160.0605 H   0  0  0  0  0  0  0  0  0  0  0  0
  149.2760  142.3730  155.7793 H   0  0  0  0  0  0  0  0  0  0  0  0
  1  2  1  0  0  0  0
  1 19  1  0  0  0  0
  1 20  1  0  0  0  0
  2 15  1  0  0  0  0
  2  3  2  0  0  0  0
  3  4  1  0  0  0  0
  4  5  2  0  0  0  0
  4  6  1  0  0  0  0
  6  7  1  0  0  0  0
  6 14  1  0  0  0  0
  7 17  1  0  0  0  0
  7 13  1  0  0  0  0
  7  8  1  0  0  0  0
  8  9  1  0  0  0  0
  8 21  1  0  0  0  0
  8 22  1  0  0  0  0
  9 10  1  0  0  0  0
 10 18  1  0  0  0  0
 10 11  1  0  0  0  0
 10 13  1  0  0  0  0
 11 12  1  0  0  0  0
 11 23  1  0  0  0  0
 11 24  1  0  0  0  0
 12 25  1  0  0  0  0
 14 15  2  0  0  0  0
 14 26  1  0  0  0  0
 15 16  1  0  0  0  0
M  END
> <s_m_source_file>
AV-unprocessed.smi

> <i_m_source_file_index>
41

> <i_lp_mmshare_version>
43012

> <i_f3d_flags>
0

> <s_epik_input>
W05IMl1jMW5jKD1PKW4oW2NIXWMxRilbQ0BASF0yW0NIMl1TW0NAQEhdKE8yKVtDSDJdW09IXQ==

> <s_epik_cmdline>
J2VwaWtfcHl0aG9uJywgJy1waCcsICc3LjAnLCAnLXRuJywgJzgnLCAnLW1hJywgJzIwMCcsICctbWV0YWxfYmluZGluZycsICctaW1hZScsICc8aW5maWxlLm1hZT4nLCAnLW9tYWUnLCAnPG91dGZpbGUubWFlPic=

> <r_lp_tautomer_probability>
1

> <r_epik_Ionization_Penalty>
0.000101883

> <r_epik_Ionization_Penalty_Charging>
1.48607e-08

> <r_epik_Ionization_Penalty_Neutral>
0.000101868

> <r_epik_State_Penalty>
-0

> <r_epik_Charging_Adjusted_Penalty>
1.48607e-08

> <i_epik_Tot_Q>
0

> <i_epik_Tot_abs_Q>
0

> <r_epik_Metal_State_Penalty>
-0

> <b_epik_Metal_Only>
0

> <s_epik_Chemistry_Notes>
This compound contains an acetal/aminal-like group ( X-CH(R)-Y where X, Y are N, S, or O) that may be acid/base labile, releasing an aldehyde.

> <s_lp_Force_Field>
OPLS_2005

> <r_lp_Energy>
16.0015

> <b_lp_Chiralities_Consistent>
1

> <s_lp_Variant>
AV-unprocessed.smi:41-3

> <Gold.Version>
5.8.1

> <Gold.Id.Protein>
6NUR|6NUR_protein|mol2

> <Gold.PLP.Fitness>
42.3078

> <Gold.PLP.PLP>
-35.8993

> <Gold.PLP.part.hbond>
-4.0488

> <Gold.PLP.part.metal>
0.0000

> <Gold.PLP.part.buried>
-5.2862

> <Gold.PLP.part.nonpolar>
-27.6718

> <Gold.PLP.part.repulsive>
0.3487

> <Gold.PLP.ligand.clash>
0.0000

> <Gold.PLP.ligand.torsion>
0.7215

> <Gold.PLP.Chemscore.Hbond>
1.6027

> <Gold.PLP.Chemscore.CHOScore>
1.0000

> <Gold.PLP.Chemscore.Metal>
0.0000

> <Gold.Chemscore.Hbonds>
donor molecule, donor type, donor heavy atom, donor atom, acceptor molecule, acceptor atom, score
      L1  H     1    20       P1  7948  0.59
      P1  H  7997  8008       L1     5  1.00
      L1  C    14    26       P1  8028  1.00

> <Gold.PLP.Chemscore.Internal.Correction>
0.0436

> <Gold.Rescore>
     Score         DG    S(hbond)    S(metal)    S(lipo)     H(rot)  DE(clash)    DE(int)     intcor
     10.11     -12.34       1.80        0.00      55.19       2.19       0.28       1.94       ----

> <Gold.Chemscore.Fitness>
10.1098

> <Gold.Chemscore.DG>
-12.3351

> <Gold.Chemscore.ZeroCoef>
-5.4800

> <Gold.Chemscore.Hbond>
1.7998

> <Gold.Chemscore.Metal>
0.0000

> <Gold.Chemscore.Lipo>
55.1915

> <Gold.Chemscore.Internal_Hbond>
0.0000

> <Gold.Chemscore.DEClash>
0.2813

> <Gold.Chemscore.DEInternal>
1.9440

> <Gold.Chemscore.Rot>
2.1929

> <Gold.Chemscore.Internal.Correction>
   9.000000E+99

> <Gold.Chemscore.Hbonds>
donor molecule, donor type, donor heavy atom, donor atom, acceptor molecule, acceptor atom, score
      L1  H     1    20       P1  7948  0.38
      P1  H  7997  8008       L1     5  1.00

> <Gold.Chemscore.Hbond.Weighted>
-6.0114

> <Gold.Chemscore.Metal.Weighted>
-0.0000

> <Gold.Chemscore.Lipo.Weighted>
-6.4574

> <Gold.Chemscore.Internal_Hbond.Weighted>
0.0000

> <Gold.Chemscore.DEClash.Weighted>
0.2813

> <Gold.Chemscore.DEInternal.Weighted>
1.9440

> <Gold.Chemscore.Rot.Weighted>
5.6137

> <Gold.Chemscore.Internal.Correction.Weighted>
   9.000000E+99

> <Gold.Protein.RotatedTorsions>
[ 6907 6896 6895 6894 ] final  -77.03 input  -60.11 | X-H torsion
[ 7974 7965 7964 7962 ] final  108.66 input  175.53 | X-H torsion
[ 8008 7997 7996 7995 ] final  -46.38 input   59.86 | X-H torsion
[ 10167 10162 10161 10158 ] final  119.48 input  -65.29 | X-H torsion
[ 10718 10713 10712 10709 ] final    8.52 input   66.30 | X-H torsion
[ 10763 10752 10751 10750 ] final  160.65 input  -60.55 | X-H torsion
[ 11005 11000 10999 10996 ] final  -38.96 input  -57.11 | X-H torsion

> <Gold.Protein.ActiveResidues>
 VAL166  LYS551  ARG553  GLY616  TRP617  ASP618  TYR619  PRO620  LYS621  CYS622 
 ASP623  PHE694  ASN695  SER759  ASP760  ASP761  ALA762  ILE779  LEU786  VAL792 
 PHE793  MET794  SER795  GLU796  ALA797  LYS798  CYS799  TRP800  GLU811  SER814 

> <Gold.Protein.RotatedAtoms>
  150.7010  134.4484  159.5324 H   0  0  0  0  0  0  0  0  0  0  0  0  # atno 6907 bound_to 6896
  152.2181  134.8436  160.0498 H   0  0  0  0  0  0  0  0  0  0  0  0  # atno 6908 bound_to 6896
  151.9296  133.3572  159.3963 H   0  0  0  0  0  0  0  0  0  0  0  0  # atno 6909 bound_to 6896
  145.2778  139.2643  143.3932 H   0  0  0  0  0  0  0  0  0  0  0  0  # atno 7974 bound_to 7965
  154.4007  140.1373  156.4001 H   0  0  0  0  0  0  0  0  0  0  0  0  # atno 8008 bound_to 7997
  155.7832  140.3481  155.5288 H   0  0  0  0  0  0  0  0  0  0  0  0  # atno 8009 bound_to 7997
  155.8653  140.0963  157.1577 H   0  0  0  0  0  0  0  0  0  0  0  0  # atno 8010 bound_to 7997
  139.6043  144.7065  151.2989 H   0  0  0  0  0  0  0  0  0  0  0  0  # atno 10167 bound_to 10162
  156.9529  130.5903  149.5657 H   0  0  0  0  0  0  0  0  0  0  0  0  # atno 10718 bound_to 10713
  154.2507  135.2771  155.2818 H   0  0  0  0  0  0  0  0  0  0  0  0  # atno 10763 bound_to 10752
  154.5467  135.5687  153.6890 H   0  0  0  0  0  0  0  0  0  0  0  0  # atno 10764 bound_to 10752
  152.9981  135.6264  154.2654 H   0  0  0  0  0  0  0  0  0  0  0  0  # atno 10765 bound_to 10752
  141.0067  133.6928  156.2123 H   0  0  0  0  0  0  0  0  0  0  0  0  # atno 11005 bound_to 11000
  146.3226  140.3237  142.8635 LP  0  0  0  0  0  0  0  0  0  0  0  0  # atno 17320 bound_to 7965
  144.9280  140.7942  143.5707 LP  0  0  0  0  0  0  0  0  0  0  0  0  # atno 17321 bound_to 7965
  140.7273  143.6966  150.7879 LP  0  0  0  0  0  0  0  0  0  0  0  0  # atno 17342 bound_to 10162
  140.0548  143.5213  152.2656 LP  0  0  0  0  0  0  0  0  0  0  0  0  # atno 17343 bound_to 10162
  156.0355  130.5443  150.8643 LP  0  0  0  0  0  0  0  0  0  0  0  0  # atno 17370 bound_to 10713
  157.5710  131.0946  150.9418 LP  0  0  0  0  0  0  0  0  0  0  0  0  # atno 17371 bound_to 10713
  140.6802  134.4776  157.5589 LP  0  0  0  0  0  0  0  0  0  0  0  0  # atno 17394 bound_to 11000
  139.9067  134.8434  156.1680 LP  0  0  0  0  0  0  0  0  0  0  0  0  # atno 17395 bound_to 11000

$$$$
