AV-unprocessed.smi:1074|AV-procd|sdf|4691|dock2
  -GOLD-   22720 3213D 1   1.00000     0.00000
 Structure written by MMmdl.
 44 45  0  0  0  0  0  0  0  0  1 V2000
  151.6573  144.1371  157.4793 C   0  0  0  0  0  0  0  0  0  0  0  0
  150.6993  143.2180  156.8844 N   0  0  0  0  0  0  0  0  0  0  0  0
  150.7287  141.8872  157.0452 C   0  0  0  0  0  0  0  0  0  0  0  0
  151.5809  141.3102  157.7214 O   0  0  0  0  0  0  0  0  0  0  0  0
  149.6286  141.0865  156.3353 C   0  0  2  0  0  0  0  0  0  0  0  0
  149.6416  141.3514  154.8156 C   0  0  0  0  0  0  0  0  0  0  0  0
  148.5412  140.5512  154.1004 C   0  0  0  0  0  0  0  0  0  0  0  0
  147.1495  140.8570  154.6845 C   0  0  1  0  0  0  0  0  0  0  0  0
  146.1505  140.0238  154.0218 N   0  0  0  0  0  0  0  0  0  0  0  0
  146.2114  138.6906  153.8955 C   0  0  0  0  0  0  0  0  0  0  0  0
  147.1325  138.0075  154.3422 O   0  0  0  0  0  0  0  0  0  0  0  0
  145.1372  138.2187  153.2396 N   0  0  0  0  0  0  0  0  0  0  0  0
  144.8349  136.8802  152.8684 C   0  0  0  0  0  0  0  0  0  0  0  0
  143.5534  136.4270  152.4730 C   0  0  0  0  0  0  0  0  0  0  0  0
  143.3827  135.0674  152.1488 C   0  0  0  0  0  0  0  0  0  0  0  0
  144.4904  134.2010  152.2343 C   0  0  0  0  0  0  0  0  0  0  0  0
  144.3147  132.8704  151.9142 O   0  0  0  0  0  0  0  0  0  0  0  0
  143.3244  132.5327  150.9491 C   0  0  0  0  0  0  0  0  0  0  0  0
  145.7179  134.6256  152.6224 N   0  0  0  0  0  0  0  0  0  0  0  0
  145.8747  135.9295  152.9326 C   0  0  0  0  0  0  0  0  0  0  0  0
  147.1317  140.6193  156.2088 C   0  0  0  0  0  0  0  0  0  0  0  0
  148.2387  141.4170  156.9171 C   0  0  0  0  0  0  0  0  0  0  0  0
  151.4286  145.1593  157.1779 H   0  0  0  0  0  0  0  0  0  0  0  0
  152.6723  143.9049  157.1550 H   0  0  0  0  0  0  0  0  0  0  0  0
  151.6192  144.0862  158.5682 H   0  0  0  0  0  0  0  0  0  0  0  0
  149.9684  143.6169  156.3132 H   0  0  0  0  0  0  0  0  0  0  0  0
  149.8203  140.0238  156.4959 H   0  0  0  0  0  0  0  0  0  0  0  0
  149.4978  142.4148  154.6164 H   0  0  0  0  0  0  0  0  0  0  0  0
  150.6135  141.0880  154.3961 H   0  0  0  0  0  0  0  0  0  0  0  0
  148.5573  140.7794  153.0341 H   0  0  0  0  0  0  0  0  0  0  0  0
  148.7552  139.4853  154.1914 H   0  0  0  0  0  0  0  0  0  0  0  0
  146.9234  141.9071  154.4889 H   0  0  0  0  0  0  0  0  0  0  0  0
  145.3530  140.5011  153.6282 H   0  0  0  0  0  0  0  0  0  0  0  0
  144.4292  138.8994  153.0063 H   0  0  0  0  0  0  0  0  0  0  0  0
  142.6986  137.0830  152.4244 H   0  0  0  0  0  0  0  0  0  0  0  0
  142.4159  134.6950  151.8436 H   0  0  0  0  0  0  0  0  0  0  0  0
  143.3076  131.4516  150.8122 H   0  0  0  0  0  0  0  0  0  0  0  0
  143.5403  132.9853  149.9804 H   0  0  0  0  0  0  0  0  0  0  0  0
  142.3296  132.8397  151.2746 H   0  0  0  0  0  0  0  0  0  0  0  0
  146.8677  136.2237  153.2399 H   0  0  0  0  0  0  0  0  0  0  0  0
  146.1624  140.8985  156.6229 H   0  0  0  0  0  0  0  0  0  0  0  0
  147.2614  139.5566  156.4193 H   0  0  0  0  0  0  0  0  0  0  0  0
  148.2166  141.1990  157.9856 H   0  0  0  0  0  0  0  0  0  0  0  0
  148.0314  142.4836  156.8164 H   0  0  0  0  0  0  0  0  0  0  0  0
  1  2  1  0  0  0  0
  1 23  1  0  0  0  0
  1 24  1  0  0  0  0
  1 25  1  0  0  0  0
  2  3  1  0  0  0  0
  2 26  1  0  0  0  0
  3  4  2  0  0  0  0
  3  5  1  0  0  0  0
  5 22  1  0  0  0  0
  5  6  1  0  0  0  0
  5 27  1  0  0  0  0
  6  7  1  0  0  0  0
  6 28  1  0  0  0  0
  6 29  1  0  0  0  0
  7  8  1  0  0  0  0
  7 30  1  0  0  0  0
  7 31  1  0  0  0  0
  8  9  1  0  0  0  0
  8 21  1  0  0  0  0
  8 32  1  0  0  0  0
  9 10  1  0  0  0  0
  9 33  1  0  0  0  0
 10 11  2  0  0  0  0
 10 12  1  0  0  0  0
 12 13  1  0  0  0  0
 12 34  1  0  0  0  0
 13 20  1  0  0  0  0
 13 14  2  0  0  0  0
 14 15  1  0  0  0  0
 14 35  1  0  0  0  0
 15 16  2  0  0  0  0
 15 36  1  0  0  0  0
 16 17  1  0  0  0  0
 16 19  1  0  0  0  0
 17 18  1  0  0  0  0
 18 37  1  0  0  0  0
 18 38  1  0  0  0  0
 18 39  1  0  0  0  0
 19 20  2  0  0  0  0
 20 40  1  0  0  0  0
 21 22  1  0  0  0  0
 21 41  1  0  0  0  0
 21 42  1  0  0  0  0
 22 43  1  0  0  0  0
 22 44  1  0  0  0  0
M  END
> <s_m_source_file>
AV-unprocessed.smi

> <i_m_source_file_index>
1074

> <i_lp_mmshare_version>
43012

> <i_f3d_flags>
0

> <s_epik_input>
W0NIM11bTkhdQyg9TylbQ0BASF0xW0NIMl1bQ0gyXVtDQEhdKFtDSDJdW0NIMl0xKVtOSF1DKD1PKVtOSF1jMltjSF1bY0hdYyhPW0NIM10pbltjSF0y

> <s_epik_cmdline>
J2VwaWtfcHl0aG9uJywgJy1waCcsICc3LjAnLCAnLXRuJywgJzgnLCAnLW1hJywgJzIwMCcsICctbWV0YWxfYmluZGluZycsICctaW1hZScsICc8aW5maWxlLm1hZT4nLCAnLW9tYWUnLCAnPG91dGZpbGUubWFlPic=

> <r_lp_tautomer_probability>
1

> <r_epik_Ionization_Penalty>
9.85099e-05

> <r_epik_Ionization_Penalty_Charging>
0

> <r_epik_Ionization_Penalty_Neutral>
9.85099e-05

> <r_epik_State_Penalty>
-0

> <r_epik_Charging_Adjusted_Penalty>
0

> <i_epik_Tot_Q>
0

> <i_epik_Tot_abs_Q>
0

> <r_epik_Metal_State_Penalty>
-0

> <b_epik_Metal_Only>
0

> <s_lp_Force_Field>
OPLS_2005

> <r_lp_Energy>
13.3284

> <b_lp_Chiralities_Consistent>
1

> <s_lp_Variant>
AV-unprocessed.smi:1074-1

> <Gold.Version>
5.8.1

> <Gold.Id.Protein>
6NUR|6NUR_protein|mol2

> <Gold.PLP.Fitness>
42.7421

> <Gold.PLP.PLP>
-31.9351

> <Gold.PLP.part.hbond>
-3.0000

> <Gold.PLP.part.metal>
0.0000

> <Gold.PLP.part.buried>
-4.3019

> <Gold.PLP.part.nonpolar>
-25.0770

> <Gold.PLP.part.repulsive>
0.3638

> <Gold.PLP.ligand.clash>
0.0000

> <Gold.PLP.ligand.torsion>
0.5348

> <Gold.PLP.Chemscore.Hbond>
3.0000

> <Gold.PLP.Chemscore.CHOScore>
0.9515

> <Gold.PLP.Chemscore.Metal>
0.0000

> <Gold.Chemscore.Hbonds>
donor molecule, donor type, donor heavy atom, donor atom, acceptor molecule, acceptor atom, score
      L1  H     2    26       P1  8028  1.00
      L1  H     9    33       P1 10175  1.00
      L1  H    12    34       P1 10175  1.00
      L1  C    20    40       P1  7948  0.94

> <Gold.PLP.Chemscore.Internal.Correction>
0.0221

> <Gold.Rescore>
     Score         DG    S(hbond)    S(metal)    S(lipo)     H(rot)  DE(clash)    DE(int)     intcor
     16.04     -18.88       2.94        0.00      66.07       1.62       0.08       2.77       ----

> <Gold.Chemscore.Fitness>
16.0351

> <Gold.Chemscore.DG>
-18.8808

> <Gold.Chemscore.ZeroCoef>
-5.4800

> <Gold.Chemscore.Hbond>
2.9431

> <Gold.Chemscore.Metal>
0.0000

> <Gold.Chemscore.Lipo>
66.0701

> <Gold.Chemscore.Internal_Hbond>
0.0000

> <Gold.Chemscore.DEClash>
0.0777

> <Gold.Chemscore.DEInternal>
2.7680

> <Gold.Chemscore.Rot>
1.6248

> <Gold.Chemscore.Internal.Correction>
   9.000000E+99

> <Gold.Chemscore.Hbonds>
donor molecule, donor type, donor heavy atom, donor atom, acceptor molecule, acceptor atom, score
      L1  H     2    26       P1  8028  0.99
      L1  H     9    33       P1 10175  0.88
      L1  H    12    34       P1 10175  1.00

> <Gold.Chemscore.Hbond.Weighted>
-9.8301

> <Gold.Chemscore.Metal.Weighted>
-0.0000

> <Gold.Chemscore.Lipo.Weighted>
-7.7302

> <Gold.Chemscore.Internal_Hbond.Weighted>
0.0000

> <Gold.Chemscore.DEClash.Weighted>
0.0777

> <Gold.Chemscore.DEInternal.Weighted>
2.7680

> <Gold.Chemscore.Rot.Weighted>
4.1595

> <Gold.Chemscore.Internal.Correction.Weighted>
   9.000000E+99

> <Gold.Protein.RotatedTorsions>
[ 6907 6896 6895 6894 ] final    6.94 input  -60.11 | X-H torsion
[ 7974 7965 7964 7962 ] final   30.31 input  175.53 | X-H torsion
[ 8008 7997 7996 7995 ] final   37.91 input   59.86 | X-H torsion
[ 10167 10162 10161 10158 ] final  -49.44 input  -65.29 | X-H torsion
[ 10718 10713 10712 10709 ] final  -83.03 input   66.30 | X-H torsion
[ 10763 10752 10751 10750 ] final  111.91 input  -60.55 | X-H torsion
[ 11005 11000 10999 10996 ] final   79.29 input  -57.11 | X-H torsion

> <Gold.Protein.ActiveResidues>
 VAL166  LYS551  ARG553  GLY616  TRP617  ASP618  TYR619  PRO620  LYS621  CYS622 
 ASP623  PHE694  ASN695  SER759  ASP760  ASP761  ALA762  ILE779  LEU786  VAL792 
 PHE793  MET794  SER795  GLU796  ALA797  LYS798  CYS799  TRP800  GLU811  SER814 

> <Gold.Protein.RotatedAtoms>
  151.6819  135.0960  160.0217 H   0  0  0  0  0  0  0  0  0  0  0  0  # atno 6907 bound_to 6896
  152.3830  133.6568  159.6185 H   0  0  0  0  0  0  0  0  0  0  0  0  # atno 6908 bound_to 6896
  150.7762  133.8998  159.3379 H   0  0  0  0  0  0  0  0  0  0  0  0  # atno 6909 bound_to 6896
  146.1619  139.6805  142.9027 H   0  0  0  0  0  0  0  0  0  0  0  0  # atno 7974 bound_to 7965
  155.2116  140.3324  155.4328 H   0  0  0  0  0  0  0  0  0  0  0  0  # atno 8008 bound_to 7997
  156.2368  140.1876  156.7145 H   0  0  0  0  0  0  0  0  0  0  0  0  # atno 8009 bound_to 7997
  154.6074  140.0614  156.9435 H   0  0  0  0  0  0  0  0  0  0  0  0  # atno 8010 bound_to 7997
  140.6685  143.2698  151.4215 H   0  0  0  0  0  0  0  0  0  0  0  0  # atno 10167 bound_to 10162
  156.0024  130.4653  150.4195 H   0  0  0  0  0  0  0  0  0  0  0  0  # atno 10718 bound_to 10713
  153.4702  135.3702  155.2386 H   0  0  0  0  0  0  0  0  0  0  0  0  # atno 10763 bound_to 10752
  154.8757  135.3929  154.3821 H   0  0  0  0  0  0  0  0  0  0  0  0  # atno 10764 bound_to 10752
  153.4409  135.7084  153.6234 H   0  0  0  0  0  0  0  0  0  0  0  0  # atno 10765 bound_to 10752
  139.9178  134.7831  156.1760 H   0  0  0  0  0  0  0  0  0  0  0  0  # atno 11005 bound_to 11000
  145.4566  141.0431  143.2775 LP  0  0  0  0  0  0  0  0  0  0  0  0  # atno 17320 bound_to 7965
  144.8039  139.6088  143.7059 LP  0  0  0  0  0  0  0  0  0  0  0  0  # atno 17321 bound_to 7965
  139.5943  144.1431  152.2126 LP  0  0  0  0  0  0  0  0  0  0  0  0  # atno 17342 bound_to 10162
  140.0795  144.5712  150.7132 LP  0  0  0  0  0  0  0  0  0  0  0  0  # atno 17343 bound_to 10162
  157.2252  131.0491  151.2524 LP  0  0  0  0  0  0  0  0  0  0  0  0  # atno 17370 bound_to 10713
  157.3763  130.7207  149.6599 LP  0  0  0  0  0  0  0  0  0  0  0  0  # atno 17371 bound_to 10713
  141.0671  133.6814  156.2067 LP  0  0  0  0  0  0  0  0  0  0  0  0  # atno 17394 bound_to 11000
  140.6567  134.5011  157.5581 LP  0  0  0  0  0  0  0  0  0  0  0  0  # atno 17395 bound_to 11000

$$$$
