AV-unprocessed.smi:3091|AV-procd|sdf|11779|dock10
  -GOLD-   2272017163D 1   1.00000     0.00000
 Structure written by MMmdl.
 29 30  0  0  0  0  0  0  0  0  2 V2000
  149.5327  138.6000  153.1543 N   0  3  0  0  0  0  0  0  0  0  0  0
  150.5915  138.3036  154.1323 C   0  0  0  0  0  0  0  0  0  0  0  0
  150.7892  139.4701  155.0782 C   0  0  0  0  0  0  0  0  0  0  0  0
  150.0949  140.6809  154.8824 C   0  0  0  0  0  0  0  0  0  0  0  0
  150.3193  141.7352  155.7893 C   0  0  0  0  0  0  0  0  0  0  0  0
  151.1682  141.6440  156.8345 N   0  0  0  0  0  0  0  0  0  0  0  0
  151.8361  140.4787  157.0232 C   0  0  0  0  0  0  0  0  0  0  0  0
  152.7092  140.3683  158.0873 O   0  0  0  0  0  0  0  0  0  0  0  0
  152.3054  140.8282  159.3780 C   0  0  1  0  0  0  0  0  0  0  0  0
  153.3793  140.5655  160.4320 C   0  0  0  0  0  0  0  0  0  0  0  0
  153.4608  141.8821  161.1926 C   0  0  0  0  0  0  0  0  0  0  0  0
  153.2458  142.8397  160.1718 O   0  0  0  0  0  0  0  0  0  0  0  0
  152.1816  142.3585  159.3625 C   0  0  0  0  0  0  0  0  0  0  0  0
  151.6779  139.3688  156.1680 C   0  0  0  0  0  0  0  0  0  0  0  0
  149.8399  139.3369  152.5357 H   0  0  0  0  0  0  0  0  0  0  0  0
  148.6989  138.8943  153.6424 H   0  0  0  0  0  0  0  0  0  0  0  0
  150.3245  137.4079  154.6941 H   0  0  0  0  0  0  0  0  0  0  0  0
  151.5217  138.0892  153.6050 H   0  0  0  0  0  0  0  0  0  0  0  0
  149.4049  140.8037  154.0604 H   0  0  0  0  0  0  0  0  0  0  0  0
  149.8043  142.6770  155.6709 H   0  0  0  0  0  0  0  0  0  0  0  0
  151.3418  140.4062  159.6691 H   0  0  0  0  0  0  0  0  0  0  0  0
  153.1457  139.7190  161.0783 H   0  0  0  0  0  0  0  0  0  0  0  0
  154.3384  140.3671  159.9515 H   0  0  0  0  0  0  0  0  0  0  0  0
  152.6697  141.9541  161.9410 H   0  0  0  0  0  0  0  0  0  0  0  0
  154.4218  142.0261  161.6868 H   0  0  0  0  0  0  0  0  0  0  0  0
  152.2325  142.7808  158.3585 H   0  0  0  0  0  0  0  0  0  0  0  0
  151.2342  142.6670  159.8071 H   0  0  0  0  0  0  0  0  0  0  0  0
  152.2293  138.4580  156.3510 H   0  0  0  0  0  0  0  0  0  0  0  0
  149.3309  137.7693  152.6164 H   0  0  0  0  0  0  0  0  0  0  0  0
  1  2  1  0  0  0  0
  1 15  1  0  0  0  0
  1 16  1  0  0  0  0
  1 29  1  0  0  0  0
  2  3  1  0  0  0  0
  2 17  1  0  0  0  0
  2 18  1  0  0  0  0
  3 14  1  0  0  0  0
  3  4  2  0  0  0  0
  4  5  1  0  0  0  0
  4 19  1  0  0  0  0
  5  6  2  0  0  0  0
  5 20  1  0  0  0  0
  6  7  1  0  0  0  0
  7  8  1  0  0  0  0
  7 14  2  0  0  0  0
  8  9  1  0  0  0  0
  9 13  1  0  0  0  0
  9 10  1  0  0  0  0
  9 21  1  0  0  0  0
 10 11  1  0  0  0  0
 10 22  1  0  0  0  0
 10 23  1  0  0  0  0
 11 12  1  0  0  0  0
 11 24  1  0  0  0  0
 11 25  1  0  0  0  0
 12 13  1  0  0  0  0
 13 26  1  0  0  0  0
 13 27  1  0  0  0  0
 14 28  1  0  0  0  0
M  CHG  1   1   1
M  END
> <s_m_source_file>
AV-unprocessed.smi

> <i_m_source_file_index>
3091

> <i_lp_mmshare_version>
43012

> <i_f3d_flags>
0

> <s_epik_input>
W05IMl1bQ0gyXWMxW2NIXVtjSF1uYyhbY0hdMSlPW0NAQEhdMltDSDJdW0NIMl1PW0NIMl0y

> <s_epik_cmdline>
J2VwaWtfcHl0aG9uJywgJy1waCcsICc3LjAnLCAnLXRuJywgJzgnLCAnLW1hJywgJzIwMCcsICctbWV0YWxfYmluZGluZycsICctaW1hZScsICc8aW5maWxlLm1hZT4nLCAnLW9tYWUnLCAnPG91dGZpbGUubWFlPic=

> <r_lp_tautomer_probability>
1

> <r_epik_Ionization_Penalty>
0.0773124

> <r_epik_Ionization_Penalty_Charging>
0.0773118

> <r_epik_Ionization_Penalty_Neutral>
5.92883e-07

> <r_epik_State_Penalty>
0.0682686

> <r_epik_Charging_Adjusted_Penalty>
0.14558

> <i_epik_Tot_Q>
1

> <i_epik_Tot_abs_Q>
1

> <r_epik_Metal_State_Penalty>
0.0682821

> <b_epik_Metal_Only>
0

> <s_lp_Force_Field>
OPLS_2005

> <r_lp_Energy>
12.8261

> <b_lp_Chiralities_Consistent>
1

> <s_lp_Variant>
AV-unprocessed.smi:3091-2

> <Gold.Version>
5.8.1

> <Gold.Id.Protein>
6NUR|6NUR_protein|mol2

> <Gold.PLP.Fitness>
44.8941

> <Gold.PLP.PLP>
-30.7603

> <Gold.PLP.part.hbond>
-2.9832

> <Gold.PLP.part.metal>
0.0000

> <Gold.PLP.part.buried>
-1.7866

> <Gold.PLP.part.nonpolar>
-24.7623

> <Gold.PLP.part.repulsive>
0.1464

> <Gold.PLP.ligand.clash>
0.0000

> <Gold.PLP.ligand.torsion>
0.2218

> <Gold.PLP.Chemscore.Hbond>
3.8560

> <Gold.PLP.Chemscore.CHOScore>
1.0000

> <Gold.PLP.Chemscore.Metal>
0.0000

> <Gold.Chemscore.Hbonds>
donor molecule, donor type, donor heavy atom, donor atom, acceptor molecule, acceptor atom, score
      L1  H     1    15       P1  7957  0.91
      L1  H     1    29       P1  7948  2.00
      P1  H  7997  8010       L1     8  0.54
      L1  C     5    20       P1  8028  1.00

> <Gold.PLP.Chemscore.Internal.Correction>
0.0094

> <Gold.Rescore>
     Score         DG    S(hbond)    S(metal)    S(lipo)     H(rot)  DE(clash)    DE(int)     intcor
     17.31     -18.74       2.71        0.00      70.69       1.59       0.03       1.40       ----

> <Gold.Chemscore.Fitness>
17.3079

> <Gold.Chemscore.DG>
-18.7411

> <Gold.Chemscore.ZeroCoef>
-5.4800

> <Gold.Chemscore.Hbond>
2.7145

> <Gold.Chemscore.Metal>
0.0000

> <Gold.Chemscore.Lipo>
70.6936

> <Gold.Chemscore.Internal_Hbond>
0.0000

> <Gold.Chemscore.DEClash>
0.0343

> <Gold.Chemscore.DEInternal>
1.3989

> <Gold.Chemscore.Rot>
1.5924

> <Gold.Chemscore.Internal.Correction>
   9.000000E+99

> <Gold.Chemscore.Hbonds>
donor molecule, donor type, donor heavy atom, donor atom, acceptor molecule, acceptor atom, score
      L1  H     1    15       P1  7957  0.79
      L1  H     1    29       P1  7948  0.88
      P1  H  7997  8010       L1     8  0.11

> <Gold.Chemscore.Hbond.Weighted>
-9.0665

> <Gold.Chemscore.Metal.Weighted>
-0.0000

> <Gold.Chemscore.Lipo.Weighted>
-8.2711

> <Gold.Chemscore.Internal_Hbond.Weighted>
0.0000

> <Gold.Chemscore.DEClash.Weighted>
0.0343

> <Gold.Chemscore.DEInternal.Weighted>
1.3989

> <Gold.Chemscore.Rot.Weighted>
4.0765

> <Gold.Chemscore.Internal.Correction.Weighted>
   9.000000E+99

> <Gold.Protein.RotatedTorsions>
[ 6907 6896 6895 6894 ] final   70.92 input  -60.11 | X-H torsion
[ 7974 7965 7964 7962 ] final -135.70 input  175.53 | X-H torsion
[ 8008 7997 7996 7995 ] final   40.93 input   59.86 | X-H torsion
[ 10167 10162 10161 10158 ] final  104.58 input  -65.29 | X-H torsion
[ 10718 10713 10712 10709 ] final  -56.88 input   66.30 | X-H torsion
[ 10763 10752 10751 10750 ] final -128.41 input  -60.55 | X-H torsion
[ 11005 11000 10999 10996 ] final   24.80 input  -57.11 | X-H torsion

> <Gold.Protein.ActiveResidues>
 VAL166  LYS551  ARG553  GLY616  TRP617  ASP618  TYR619  PRO620  LYS621  CYS622 
 ASP623  PHE694  ASN695  SER759  ASP760  ASP761  ALA762  ILE779  LEU786  VAL792 
 PHE793  MET794  SER795  GLU796  ALA797  LYS798  CYS799  TRP800  GLU811  SER814 

> <Gold.Protein.RotatedAtoms>
  152.4779  134.4797  159.9661 H   0  0  0  0  0  0  0  0  0  0  0  0  # atno 6907 bound_to 6896
  151.4809  133.3541  159.2846 H   0  0  0  0  0  0  0  0  0  0  0  0  # atno 6908 bound_to 6896
  150.8830  134.8250  159.7300 H   0  0  0  0  0  0  0  0  0  0  0  0  # atno 6909 bound_to 6896
  144.8991  140.6747  143.5096 H   0  0  0  0  0  0  0  0  0  0  0  0  # atno 7974 bound_to 7965
  155.2612  140.3359  155.4273 H   0  0  0  0  0  0  0  0  0  0  0  0  # atno 8008 bound_to 7997
  156.2174  140.1794  156.7601 H   0  0  0  0  0  0  0  0  0  0  0  0  # atno 8009 bound_to 7997
  154.5773  140.0659  156.9038 H   0  0  0  0  0  0  0  0  0  0  0  0  # atno 8010 bound_to 7997
  139.7165  144.7067  151.0942 H   0  0  0  0  0  0  0  0  0  0  0  0  # atno 10167 bound_to 10162
  156.1254  130.4163  150.0365 H   0  0  0  0  0  0  0  0  0  0  0  0  # atno 10718 bound_to 10713
  154.8756  135.3929  154.3751 H   0  0  0  0  0  0  0  0  0  0  0  0  # atno 10763 bound_to 10752
  153.4506  135.7028  153.6116 H   0  0  0  0  0  0  0  0  0  0  0  0  # atno 10764 bound_to 10752
  153.4658  135.3801  155.2332 H   0  0  0  0  0  0  0  0  0  0  0  0  # atno 10765 bound_to 10752
  140.3548  134.2190  155.7677 H   0  0  0  0  0  0  0  0  0  0  0  0  # atno 11005 bound_to 11000
  145.3647  139.1673  143.4364 LP  0  0  0  0  0  0  0  0  0  0  0  0  # atno 17320 bound_to 7965
  146.3098  140.3713  142.8674 LP  0  0  0  0  0  0  0  0  0  0  0  0  # atno 17321 bound_to 7965
  140.7745  143.5223  150.9522 LP  0  0  0  0  0  0  0  0  0  0  0  0  # atno 17342 bound_to 10162
  139.8909  143.6954  152.3145 LP  0  0  0  0  0  0  0  0  0  0  0  0  # atno 17343 bound_to 10162
  156.8292  130.9386  151.3638 LP  0  0  0  0  0  0  0  0  0  0  0  0  # atno 17370 bound_to 10713
  157.6436  130.8825  149.9494 LP  0  0  0  0  0  0  0  0  0  0  0  0  # atno 17371 bound_to 10713
  141.2002  133.7994  157.0502 LP  0  0  0  0  0  0  0  0  0  0  0  0  # atno 17394 bound_to 11000
  140.0674  134.9721  157.1409 LP  0  0  0  0  0  0  0  0  0  0  0  0  # atno 17395 bound_to 11000

$$$$
