AV-unprocessed.smi:290|AV-procd|sdf|2243|dock8
  -GOLD-   2262022123D 1   1.00000     0.00000
 Structure written by MMmdl.
 59 62  0  0  0  0  0  0  0  0  2 V2000
  153.1217  142.2824  159.4980 C   0  0  0  0  0  0  0  0  0  0  0  0
  152.1354  143.3719  159.0486 C   0  0  2  0  0  0  0  0  0  0  0  0
  151.2026  143.5765  160.1063 O   0  0  0  0  0  0  0  0  0  0  0  0
  149.9698  143.9980  159.5509 C   0  0  0  0  0  0  0  0  0  0  0  0
  149.8494  143.1120  158.3207 C   0  0  0  0  0  0  0  0  0  0  0  0
  151.2791  143.0676  157.7862 C   0  0  1  0  0  0  0  0  0  0  0  0
  151.4346  144.1526  156.8864 O   0  0  0  0  0  0  0  0  0  0  0  0
  151.6139  141.7571  157.0261 C   0  0  0  0  0  0  0  0  0  0  0  0
  150.6954  140.6681  157.3208 N   0  0  0  0  0  0  0  0  0  0  0  0
  149.4055  140.5281  156.8614 C   0  0  0  0  0  0  0  0  0  0  0  0
  148.7853  139.4533  157.2646 N   0  0  0  0  0  0  0  0  0  0  0  0
  149.7163  138.8017  158.0662 C   0  0  0  0  0  0  0  0  0  0  0  0
  149.7079  137.5868  158.8114 C   0  0  0  0  0  0  0  0  0  0  0  0
  148.6391  136.7455  158.8379 N   0  0  0  0  0  0  0  0  0  0  0  0
  148.8414  135.4016  158.2975 C   0  0  0  0  0  0  0  0  0  0  0  0
  148.1775  134.4316  159.2832 C   0  0  0  0  0  0  0  0  0  0  0  0
  148.0439  135.2656  160.5648 C   0  0  2  0  0  0  0  0  0  0  0  0
  147.0495  134.7658  161.5573 N   0  3  2  0  0  0  0  0  0  0  0  0
  147.1998  135.3895  162.8960 C   0  0  0  0  0  0  0  0  0  0  0  0
  146.9136  133.2816  161.6258 C   0  0  0  0  0  0  0  0  0  0  0  0
  145.6417  132.7633  162.3339 C   0  0  0  0  0  0  0  0  0  0  0  0
  145.3944  131.4061  162.0368 O   0  0  0  0  0  0  0  0  0  0  0  0
  147.7441  136.6638  159.9919 C   0  0  2  0  0  0  0  0  0  0  0  0
  146.2854  136.8695  159.5306 C   0  0  0  0  0  0  0  0  0  0  0  0
  150.8332  137.2824  159.5114 N   0  0  0  0  0  0  0  0  0  0  0  0
  151.8945  138.0933  159.4795 C   0  0  0  0  0  0  0  0  0  0  0  0
  152.0446  139.2439  158.8224 N   0  0  0  0  0  0  0  0  0  0  0  0
  150.9188  139.5623  158.1222 C   0  0  0  0  0  0  0  0  0  0  0  0
  149.0210  135.3067  161.0499 H   0  0  0  0  0  0  0  0  0  0  0  0
  147.9573  137.4176  160.7486 H   0  0  0  0  0  0  0  0  0  0  0  0
  153.8755  142.0873  158.7353 H   0  0  0  0  0  0  0  0  0  0  0  0
  152.6102  141.3462  159.7223 H   0  0  0  0  0  0  0  0  0  0  0  0
  153.6471  142.5902  160.4024 H   0  0  0  0  0  0  0  0  0  0  0  0
  152.6897  144.3031  158.9161 H   0  0  0  0  0  0  0  0  0  0  0  0
  149.1449  143.8653  160.2510 H   0  0  0  0  0  0  0  0  0  0  0  0
  150.0274  145.0523  159.2753 H   0  0  0  0  0  0  0  0  0  0  0  0
  149.5358  142.1162  158.6373 H   0  0  0  0  0  0  0  0  0  0  0  0
  149.1175  143.4763  157.5983 H   0  0  0  0  0  0  0  0  0  0  0  0
  150.6069  144.3094  156.4578 H   0  0  0  0  0  0  0  0  0  0  0  0
  151.6049  141.9274  155.9487 H   0  0  0  0  0  0  0  0  0  0  0  0
  152.6188  141.4161  157.2767 H   0  0  0  0  0  0  0  0  0  0  0  0
  148.9367  141.2503  156.2092 H   0  0  0  0  0  0  0  0  0  0  0  0
  148.4101  135.3151  157.2998 H   0  0  0  0  0  0  0  0  0  0  0  0
  149.9056  135.1721  158.2243 H   0  0  0  0  0  0  0  0  0  0  0  0
  147.1957  134.1378  158.9103 H   0  0  0  0  0  0  0  0  0  0  0  0
  148.7654  133.5238  159.4169 H   0  0  0  0  0  0  0  0  0  0  0  0
  148.2019  135.2370  163.2977 H   0  0  0  0  0  0  0  0  0  0  0  0
  146.4801  134.9748  163.6024 H   0  0  0  0  0  0  0  0  0  0  0  0
  147.0236  136.4637  162.8545 H   0  0  0  0  0  0  0  0  0  0  0  0
  146.8983  132.9197  160.5970 H   0  0  0  0  0  0  0  0  0  0  0  0
  147.8042  132.8322  162.0655 H   0  0  0  0  0  0  0  0  0  0  0  0
  145.6737  132.9086  163.4129 H   0  0  0  0  0  0  0  0  0  0  0  0
  144.7810  133.3286  161.9758 H   0  0  0  0  0  0  0  0  0  0  0  0
  145.7566  130.8730  162.7286 H   0  0  0  0  0  0  0  0  0  0  0  0
  145.5815  136.7940  160.3587 H   0  0  0  0  0  0  0  0  0  0  0  0
  145.9837  136.1450  158.7740 H   0  0  0  0  0  0  0  0  0  0  0  0
  146.1606  137.8613  159.0950 H   0  0  0  0  0  0  0  0  0  0  0  0
  152.7462  137.7730  160.0614 H   0  0  0  0  0  0  0  0  0  0  0  0
  146.1556  135.0859  161.2129 H   0  0  0  0  0  0  0  0  0  0  0  0
  1  2  1  0  0  0  0
  1 31  1  0  0  0  0
  1 32  1  0  0  0  0
  1 33  1  0  0  0  0
  2  6  1  0  0  0  0
  2  3  1  0  0  0  0
  2 34  1  0  0  0  0
  3  4  1  0  0  0  0
  4  5  1  0  0  0  0
  4 35  1  0  0  0  0
  4 36  1  0  0  0  0
  5  6  1  0  0  0  0
  5 37  1  0  0  0  0
  5 38  1  0  0  0  0
  6  7  1  0  0  0  0
  6  8  1  0  0  0  0
  7 39  1  0  0  0  0
  8  9  1  0  0  0  0
  8 40  1  0  0  0  0
  8 41  1  0  0  0  0
  9 28  1  0  0  0  0
  9 10  1  0  0  0  0
 10 11  2  0  0  0  0
 10 42  1  0  0  0  0
 11 12  1  0  0  0  0
 12 28  2  0  0  0  0
 12 13  1  0  0  0  0
 13 14  1  0  0  0  0
 13 25  2  0  0  0  0
 14 23  1  0  0  0  0
 14 15  1  0  0  0  0
 15 16  1  0  0  0  0
 15 43  1  0  0  0  0
 15 44  1  0  0  0  0
 16 17  1  0  0  0  0
 16 45  1  0  0  0  0
 16 46  1  0  0  0  0
 17 29  1  0  0  0  0
 17 18  1  0  0  0  0
 17 23  1  0  0  0  0
 18 19  1  0  0  0  0
 18 20  1  0  0  0  0
 18 59  1  0  0  0  0
 19 47  1  0  0  0  0
 19 48  1  0  0  0  0
 19 49  1  0  0  0  0
 20 21  1  0  0  0  0
 20 50  1  0  0  0  0
 20 51  1  0  0  0  0
 21 22  1  0  0  0  0
 21 52  1  0  0  0  0
 21 53  1  0  0  0  0
 22 54  1  0  0  0  0
 23 30  1  0  0  0  0
 23 24  1  0  0  0  0
 24 55  1  0  0  0  0
 24 56  1  0  0  0  0
 24 57  1  0  0  0  0
 25 26  1  0  0  0  0
 26 27  2  0  0  0  0
 26 58  1  0  0  0  0
 27 28  1  0  0  0  0
M  CHG  1  18   1
M  END
> <s_m_source_file>
AV-unprocessed.smi

> <i_m_source_file_index>
290

> <i_lp_mmshare_version>
43012

> <i_f3d_flags>
0

> <s_epik_input>
W0NIMl0xW0NIMl1PW0NAQEhdKFtDSDNdKVtDQEBdMShbT0hdKVtDSDJdbihbY0hdbjIpYyhjMjMpbltjSF1uYzNONFtDSDJdW0NIMl1bQ0BIXShbQ0BIXTRbQ0gzXSlOKFtDSDNdKVtDSDJdW0NIMl1bT0hd

> <s_epik_cmdline>
J2VwaWtfcHl0aG9uJywgJy1waCcsICc3LjAnLCAnLXRuJywgJzgnLCAnLW1hJywgJzIwMCcsICctbWV0YWxfYmluZGluZycsICctaW1hZScsICc8aW5maWxlLm1hZT4nLCAnLW9tYWUnLCAnPG91dGZpbGUubWFlPic=

> <r_lp_tautomer_probability>
1

> <r_epik_Ionization_Penalty>
0.0036983

> <r_epik_Ionization_Penalty_Charging>
0.0032725

> <r_epik_Ionization_Penalty_Neutral>
0.000425798

> <r_epik_State_Penalty>
-0

> <r_epik_Charging_Adjusted_Penalty>
0.0032725

> <i_epik_Tot_Q>
1

> <i_epik_Tot_abs_Q>
1

> <r_epik_Metal_State_Penalty>
-0

> <b_epik_Metal_Only>
0

> <s_lp_Force_Field>
OPLS_2005

> <r_lp_Energy>
63.2975

> <b_lp_Chiralities_Consistent>
1

> <s_lp_Variant>
AV-unprocessed.smi:290-29

> <Gold.Version>
5.8.1

> <Gold.Id.Protein>
6NUR|6NUR_protein|mol2

> <Gold.PLP.Fitness>
42.7572

> <Gold.PLP.PLP>
-41.4910

> <Gold.PLP.part.hbond>
-1.9972

> <Gold.PLP.part.metal>
0.0000

> <Gold.PLP.part.buried>
-8.2011

> <Gold.PLP.part.nonpolar>
-31.0664

> <Gold.PLP.part.repulsive>
0.0841

> <Gold.PLP.ligand.clash>
0.0000

> <Gold.PLP.ligand.torsion>
1.8589

> <Gold.PLP.Chemscore.Hbond>
1.4875

> <Gold.PLP.Chemscore.CHOScore>
0.0000

> <Gold.PLP.Chemscore.Metal>
0.0000

> <Gold.Chemscore.Hbonds>
donor molecule, donor type, donor heavy atom, donor atom, acceptor molecule, acceptor atom, score
      L1  H     7    39       P1  8028  1.00
      P1  H  6896  6908       L1    25  0.52

> <Gold.PLP.Chemscore.Internal.Correction>
0.5214

> <Gold.Rescore>
     Score         DG    S(hbond)    S(metal)    S(lipo)     H(rot)  DE(clash)    DE(int)     intcor
     10.36     -13.46       1.82        0.00      96.32       3.67       0.31       2.79       ----

> <Gold.Chemscore.Fitness>
10.3619

> <Gold.Chemscore.DG>
-13.4574

> <Gold.Chemscore.ZeroCoef>
-5.4800

> <Gold.Chemscore.Hbond>
1.8241

> <Gold.Chemscore.Metal>
0.0000

> <Gold.Chemscore.Lipo>
96.3196

> <Gold.Chemscore.Internal_Hbond>
0.0000

> <Gold.Chemscore.DEClash>
0.3058

> <Gold.Chemscore.DEInternal>
2.7896

> <Gold.Chemscore.Rot>
3.6658

> <Gold.Chemscore.Internal.Correction>
   9.000000E+99

> <Gold.Chemscore.Hbonds>
donor molecule, donor type, donor heavy atom, donor atom, acceptor molecule, acceptor atom, score
      L1  H     7    39       P1  8028  1.00
      P1  H  6896  6908       L1    25  0.46

> <Gold.Chemscore.Hbond.Weighted>
-6.0924

> <Gold.Chemscore.Metal.Weighted>
-0.0000

> <Gold.Chemscore.Lipo.Weighted>
-11.2694

> <Gold.Chemscore.Internal_Hbond.Weighted>
0.0000

> <Gold.Chemscore.DEClash.Weighted>
0.3058

> <Gold.Chemscore.DEInternal.Weighted>
2.7896

> <Gold.Chemscore.Rot.Weighted>
9.3844

> <Gold.Chemscore.Internal.Correction.Weighted>
   9.000000E+99

> <Gold.Protein.RotatedTorsions>
[ 6907 6896 6895 6894 ] final -140.87 input  -60.11 | X-H torsion
[ 7974 7965 7964 7962 ] final -149.73 input  175.53 | X-H torsion
[ 8008 7997 7996 7995 ] final   -2.25 input   59.86 | X-H torsion
[ 10167 10162 10161 10158 ] final  -86.14 input  -65.29 | X-H torsion
[ 10718 10713 10712 10709 ] final  -69.75 input   66.30 | X-H torsion
[ 10763 10752 10751 10750 ] final  175.96 input  -60.55 | X-H torsion
[ 11005 11000 10999 10996 ] final -109.42 input  -57.11 | X-H torsion

> <Gold.Protein.ActiveResidues>
 VAL166  LYS551  ARG553  GLY616  TRP617  ASP618  TYR619  PRO620  LYS621  CYS622 
 ASP623  PHE694  ASN695  SER759  ASP760  ASP761  ALA762  ILE779  LEU786  VAL792 
 PHE793  MET794  SER795  GLU796  ALA797  LYS798  CYS799  TRP800  GLU811  SER814 

> <Gold.Protein.RotatedAtoms>
  151.0664  133.5502  159.2630 H   0  0  0  0  0  0  0  0  0  0  0  0  # atno 6907 bound_to 6896
  151.2458  135.0604  159.9052 H   0  0  0  0  0  0  0  0  0  0  0  0  # atno 6908 bound_to 6896
  152.5405  134.0432  159.8130 H   0  0  0  0  0  0  0  0  0  0  0  0  # atno 6909 bound_to 6896
  144.7950  140.5026  143.5747 H   0  0  0  0  0  0  0  0  0  0  0  0  # atno 7974 bound_to 7965
  154.6378  140.2539  155.7357 H   0  0  0  0  0  0  0  0  0  0  0  0  # atno 8008 bound_to 7997
  156.2513  140.2893  156.0679 H   0  0  0  0  0  0  0  0  0  0  0  0  # atno 8009 bound_to 7997
  155.1643  140.0385  157.2839 H   0  0  0  0  0  0  0  0  0  0  0  0  # atno 8010 bound_to 7997
  140.3970  143.2679  151.9192 H   0  0  0  0  0  0  0  0  0  0  0  0  # atno 10167 bound_to 10162
  156.0440  130.4318  150.2194 H   0  0  0  0  0  0  0  0  0  0  0  0  # atno 10718 bound_to 10713
  154.4747  135.2772  155.1616 H   0  0  0  0  0  0  0  0  0  0  0  0  # atno 10763 bound_to 10752
  154.3351  135.6182  153.5573 H   0  0  0  0  0  0  0  0  0  0  0  0  # atno 10764 bound_to 10752
  152.9868  135.5775  154.5135 H   0  0  0  0  0  0  0  0  0  0  0  0  # atno 10765 bound_to 10752
  141.0848  133.9157  157.2209 H   0  0  0  0  0  0  0  0  0  0  0  0  # atno 11005 bound_to 11000
  145.5698  139.1483  143.3295 LP  0  0  0  0  0  0  0  0  0  0  0  0  # atno 17320 bound_to 7965
  146.2215  140.5831  142.9015 LP  0  0  0  0  0  0  0  0  0  0  0  0  # atno 17321 bound_to 7965
  139.4786  144.5672  151.8146 LP  0  0  0  0  0  0  0  0  0  0  0  0  # atno 17342 bound_to 10162
  140.4780  144.1490  150.5928 LP  0  0  0  0  0  0  0  0  0  0  0  0  # atno 17343 bound_to 10162
  157.0286  131.0001  151.3319 LP  0  0  0  0  0  0  0  0  0  0  0  0  # atno 17370 bound_to 10713
  157.5293  130.8048  149.7899 LP  0  0  0  0  0  0  0  0  0  0  0  0  # atno 17371 bound_to 10713
  139.9665  135.0140  156.9401 LP  0  0  0  0  0  0  0  0  0  0  0  0  # atno 17394 bound_to 11000
  140.5387  134.0741  155.7335 LP  0  0  0  0  0  0  0  0  0  0  0  0  # atno 17395 bound_to 11000

$$$$
