AV-unprocessed.smi:1239|AV-procd|sdf|5194|dock5
  -GOLD-   22720 4283D 1   1.00000     0.00000
 Structure written by MMmdl.
 48 49  0  0  0  0  0  0  0  0  4 V2000
  148.8868  134.7523  154.9453 C   0  0  0  0  0  0  0  0  0  0  0  0
  147.6557  135.6737  154.7565 C   0  0  1  0  0  0  0  0  0  0  0  0
  147.9087  137.1643  155.1140 C   0  0  0  0  0  0  0  0  0  0  0  0
  149.2636  137.5951  154.7518 N   0  5  0  0  0  0  0  0  0  0  0  0
  149.7594  138.8499  154.9264 C   0  0  0  0  0  0  0  0  0  0  0  0
  150.0602  139.6660  154.0478 O   0  0  0  0  0  0  0  0  0  0  0  0
  149.9572  139.1403  156.2244 N   0  0  0  0  0  0  0  0  0  0  0  0
  150.4193  140.3457  156.8189 C   0  0  0  0  0  0  0  0  0  0  0  0
  151.2662  140.2410  157.9411 C   0  0  0  0  0  0  0  0  0  0  0  0
  151.7344  141.4080  158.5788 C   0  0  0  0  0  0  0  0  0  0  0  0
  151.3419  142.6806  158.0960 C   0  0  0  0  0  0  0  0  0  0  0  0
  151.7663  143.8939  158.6800 N   0  0  0  0  0  0  0  0  0  0  0  0
  151.1105  145.1433  158.3097 C   0  0  0  0  0  0  0  0  0  0  0  0
  152.7582  143.8742  159.7470 C   0  0  0  0  0  0  0  0  0  0  0  0
  150.5151  142.7298  157.0230 N   0  3  0  0  0  0  0  0  0  0  0  0
  150.0439  141.6382  156.3828 C   0  0  0  0  0  0  0  0  0  0  0  0
  146.9795  135.5433  153.4264 N   0  3  0  0  0  0  0  0  0  0  0  0
  146.5757  134.1738  153.0086 C   0  0  0  0  0  0  0  0  0  0  0  0
  146.0950  134.1946  151.5499 C   0  0  0  0  0  0  0  0  0  0  0  0
  145.0061  135.1016  151.4258 O   0  0  0  0  0  0  0  0  0  0  0  0
  145.3797  136.4334  151.7590 C   0  0  0  0  0  0  0  0  0  0  0  0
  145.8606  136.4942  153.2190 C   0  0  0  0  0  0  0  0  0  0  0  0
  149.2659  134.7912  155.9681 H   0  0  0  0  0  0  0  0  0  0  0  0
  149.7158  135.0099  154.2841 H   0  0  0  0  0  0  0  0  0  0  0  0
  148.6235  133.7117  154.7533 H   0  0  0  0  0  0  0  0  0  0  0  0
  146.9408  135.3372  155.5087 H   0  0  0  0  0  0  0  0  0  0  0  0
  147.1444  137.7727  154.6277 H   0  0  0  0  0  0  0  0  0  0  0  0
  147.7345  137.2985  156.1815 H   0  0  0  0  0  0  0  0  0  0  0  0
  149.7806  138.3803  156.8655 H   0  0  0  0  0  0  0  0  0  0  0  0
  151.5622  139.2704  158.3121 H   0  0  0  0  0  0  0  0  0  0  0  0
  152.3880  141.3050  159.4317 H   0  0  0  0  0  0  0  0  0  0  0  0
  150.0507  145.1086  158.5645 H   0  0  0  0  0  0  0  0  0  0  0  0
  151.2045  145.3236  157.2382 H   0  0  0  0  0  0  0  0  0  0  0  0
  151.5524  145.9935  158.8296 H   0  0  0  0  0  0  0  0  0  0  0  0
  153.6980  143.4521  159.3900 H   0  0  0  0  0  0  0  0  0  0  0  0
  152.4036  143.2774  160.5882 H   0  0  0  0  0  0  0  0  0  0  0  0
  152.9643  144.8794  160.1148 H   0  0  0  0  0  0  0  0  0  0  0  0
  149.3766  141.8478  155.5605 H   0  0  0  0  0  0  0  0  0  0  0  0
  147.4132  133.4826  153.1021 H   0  0  0  0  0  0  0  0  0  0  0  0
  145.7751  133.8024  153.6494 H   0  0  0  0  0  0  0  0  0  0  0  0
  146.9051  134.4796  150.8764 H   0  0  0  0  0  0  0  0  0  0  0  0
  145.7636  133.2008  151.2487 H   0  0  0  0  0  0  0  0  0  0  0  0
  146.1590  136.7833  151.0800 H   0  0  0  0  0  0  0  0  0  0  0  0
  144.5189  137.0873  151.6197 H   0  0  0  0  0  0  0  0  0  0  0  0
  145.0437  136.2536  153.9010 H   0  0  0  0  0  0  0  0  0  0  0  0
  146.1858  137.5101  153.4470 H   0  0  0  0  0  0  0  0  0  0  0  0
  150.2253  143.6459  156.6808 H   0  0  0  0  0  0  0  0  0  0  0  0
  147.6916  135.8245  152.7660 H   0  0  0  0  0  0  0  0  0  0  0  0
  1  2  1  0  0  0  0
  1 23  1  0  0  0  0
  1 24  1  0  0  0  0
  1 25  1  0  0  0  0
  2  3  1  0  0  0  0
  2 17  1  0  0  0  0
  2 26  1  0  0  0  0
  3  4  1  0  0  0  0
  3 27  1  0  0  0  0
  3 28  1  0  0  0  0
  4  5  1  0  0  0  0
  5  6  2  0  0  0  0
  5  7  1  0  0  0  0
  7  8  1  0  0  0  0
  7 29  1  0  0  0  0
  8 16  1  0  0  0  0
  8  9  2  0  0  0  0
  9 10  1  0  0  0  0
  9 30  1  0  0  0  0
 10 11  2  0  0  0  0
 10 31  1  0  0  0  0
 11 12  1  0  0  0  0
 11 15  1  0  0  0  0
 12 13  1  0  0  0  0
 12 14  1  0  0  0  0
 13 32  1  0  0  0  0
 13 33  1  0  0  0  0
 13 34  1  0  0  0  0
 14 35  1  0  0  0  0
 14 36  1  0  0  0  0
 14 37  1  0  0  0  0
 15 16  2  0  0  0  0
 15 47  1  0  0  0  0
 16 38  1  0  0  0  0
 17 22  1  0  0  0  0
 17 18  1  0  0  0  0
 17 48  1  0  0  0  0
 18 19  1  0  0  0  0
 18 39  1  0  0  0  0
 18 40  1  0  0  0  0
 19 20  1  0  0  0  0
 19 41  1  0  0  0  0
 19 42  1  0  0  0  0
 20 21  1  0  0  0  0
 21 22  1  0  0  0  0
 21 43  1  0  0  0  0
 21 44  1  0  0  0  0
 22 45  1  0  0  0  0
 22 46  1  0  0  0  0
M  CHG  1   4  -1
M  CHG  1  15   1
M  CHG  1  17   1
M  END
> <s_m_source_file>
AV-unprocessed.smi

> <i_m_source_file_index>
1239

> <i_lp_mmshare_version>
43012

> <i_f3d_flags>
0

> <s_epik_input>
W0NIMl0xW0NIMl1PW0NIMl1bQ0gyXU4xW0NASF0oW0NIM10pW0NIMl1bTkhdQyg9TylbTkhdYzJbY0hdW2NIXWMoTihbQ0gzXSlbQ0gzXSluW2NIXTI=

> <s_epik_cmdline>
J2VwaWtfcHl0aG9uJywgJy1waCcsICc3LjAnLCAnLXRuJywgJzgnLCAnLW1hJywgJzIwMCcsICctbWV0YWxfYmluZGluZycsICctaW1hZScsICc8aW5maWxlLm1hZT4nLCAnLW9tYWUnLCAnPG91dGZpbGUubWFlPic=

> <r_lp_tautomer_probability>
0.999994

> <r_epik_Ionization_Penalty>
7.43905

> <r_epik_Ionization_Penalty_Charging>
7.43905

> <r_epik_Ionization_Penalty_Neutral>
3.43851e-06

> <r_epik_State_Penalty>
7.63789

> <r_epik_Charging_Adjusted_Penalty>
15.0769

> <i_epik_Tot_Q>
1

> <i_epik_Tot_abs_Q>
3

> <r_epik_Metal_State_Penalty>
3.83826

> <b_epik_Metal_Only>
1

> <s_lp_Force_Field>
OPLS_2005

> <r_lp_Energy>
25.3923

> <b_lp_Chiralities_Consistent>
1

> <s_lp_Variant>
AV-unprocessed.smi:1239-10

> <Gold.Version>
5.8.1

> <Gold.Id.Protein>
6NUR|6NUR_protein|mol2

> <Gold.PLP.Fitness>
45.3310

> <Gold.PLP.PLP>
-32.9393

> <Gold.PLP.part.hbond>
-3.0000

> <Gold.PLP.part.metal>
0.0000

> <Gold.PLP.part.buried>
-5.5738

> <Gold.PLP.part.nonpolar>
-26.1898

> <Gold.PLP.part.repulsive>
1.3653

> <Gold.PLP.ligand.clash>
0.0000

> <Gold.PLP.ligand.torsion>
1.4392

> <Gold.PLP.Chemscore.Hbond>
5.0000

> <Gold.PLP.Chemscore.CHOScore>
0.0000

> <Gold.PLP.Chemscore.Metal>
0.0000

> <Gold.Chemscore.Hbonds>
donor molecule, donor type, donor heavy atom, donor atom, acceptor molecule, acceptor atom, score
      L1  H    15    47       P1  8028  1.95
      L1  H    17    48       P1  7948  2.00
      P1  H  7989  7998       L1     6  0.96

> <Gold.PLP.Chemscore.Internal.Correction>
0.2702

> <Gold.Rescore>
     Score         DG    S(hbond)    S(metal)    S(lipo)     H(rot)  DE(clash)    DE(int)     intcor
     17.27     -19.74       2.91        0.00      71.32       1.48       0.16       2.31       ----

> <Gold.Chemscore.Fitness>
17.2701

> <Gold.Chemscore.DG>
-19.7358

> <Gold.Chemscore.ZeroCoef>
-5.4800

> <Gold.Chemscore.Hbond>
2.9064

> <Gold.Chemscore.Metal>
0.0000

> <Gold.Chemscore.Lipo>
71.3246

> <Gold.Chemscore.Internal_Hbond>
0.0000

> <Gold.Chemscore.DEClash>
0.1580

> <Gold.Chemscore.DEInternal>
2.3077

> <Gold.Chemscore.Rot>
1.4830

> <Gold.Chemscore.Internal.Correction>
   9.000000E+99

> <Gold.Chemscore.Hbonds>
donor molecule, donor type, donor heavy atom, donor atom, acceptor molecule, acceptor atom, score
      L1  H    15    47       P1  8028  0.91
      L1  H    17    48       P1  7948  0.98
      P1  H  7989  7998       L1     6  0.87

> <Gold.Chemscore.Hbond.Weighted>
-9.7073

> <Gold.Chemscore.Metal.Weighted>
-0.0000

> <Gold.Chemscore.Lipo.Weighted>
-8.3450

> <Gold.Chemscore.Internal_Hbond.Weighted>
0.0000

> <Gold.Chemscore.DEClash.Weighted>
0.1580

> <Gold.Chemscore.DEInternal.Weighted>
2.3077

> <Gold.Chemscore.Rot.Weighted>
3.7964

> <Gold.Chemscore.Internal.Correction.Weighted>
   9.000000E+99

> <Gold.Protein.RotatedTorsions>
[ 6907 6896 6895 6894 ] final -146.26 input  -60.11 | X-H torsion
[ 7974 7965 7964 7962 ] final    6.03 input  175.53 | X-H torsion
[ 8008 7997 7996 7995 ] final  -10.71 input   59.86 | X-H torsion
[ 10167 10162 10161 10158 ] final   93.20 input  -65.29 | X-H torsion
[ 10718 10713 10712 10709 ] final   -3.05 input   66.30 | X-H torsion
[ 10763 10752 10751 10750 ] final   51.75 input  -60.55 | X-H torsion
[ 11005 11000 10999 10996 ] final   21.49 input  -57.11 | X-H torsion

> <Gold.Protein.ActiveResidues>
 VAL166  LYS551  ARG553  GLY616  TRP617  ASP618  TYR619  PRO620  LYS621  CYS622 
 ASP623  PHE694  ASN695  SER759  ASP760  ASP761  ALA762  ILE779  LEU786  VAL792 
 PHE793  MET794  SER795  GLU796  ALA797  LYS798  CYS799  TRP800  GLU811  SER814 

> <Gold.Protein.RotatedAtoms>
  151.1392  133.4983  159.2597 H   0  0  0  0  0  0  0  0  0  0  0  0  # atno 6907 bound_to 6896
  151.1673  135.0301  159.8746 H   0  0  0  0  0  0  0  0  0  0  0  0  # atno 6908 bound_to 6896
  152.5462  134.1259  159.8472 H   0  0  0  0  0  0  0  0  0  0  0  0  # atno 6909 bound_to 6896
  146.2437  140.0295  142.8391 H   0  0  0  0  0  0  0  0  0  0  0  0  # atno 7974 bound_to 7965
  154.5530  140.2321  155.8455 H   0  0  0  0  0  0  0  0  0  0  0  0  # atno 8008 bound_to 7997
  156.1963  140.3064  155.9395 H   0  0  0  0  0  0  0  0  0  0  0  0  # atno 8009 bound_to 7997
  155.3034  140.0432  157.3021 H   0  0  0  0  0  0  0  0  0  0  0  0  # atno 8010 bound_to 7997
  139.8202  144.6734  150.9528 H   0  0  0  0  0  0  0  0  0  0  0  0  # atno 10167 bound_to 10162
  156.7818  130.5333  149.5749 H   0  0  0  0  0  0  0  0  0  0  0  0  # atno 10718 bound_to 10713
  152.9786  135.5835  154.4466 H   0  0  0  0  0  0  0  0  0  0  0  0  # atno 10763 bound_to 10752
  154.4060  135.2769  155.2069 H   0  0  0  0  0  0  0  0  0  0  0  0  # atno 10764 bound_to 10752
  154.3879  135.6132  153.5881 H   0  0  0  0  0  0  0  0  0  0  0  0  # atno 10765 bound_to 10752
  140.3910  134.1819  155.7662 H   0  0  0  0  0  0  0  0  0  0  0  0  # atno 11005 bound_to 11000
  145.1168  140.9438  143.4624 LP  0  0  0  0  0  0  0  0  0  0  0  0  # atno 17320 bound_to 7965
  145.0521  139.3173  143.5923 LP  0  0  0  0  0  0  0  0  0  0  0  0  # atno 17321 bound_to 7965
  140.7813  143.4099  151.1010 LP  0  0  0  0  0  0  0  0  0  0  0  0  # atno 17342 bound_to 10162
  139.7760  143.8425  152.3129 LP  0  0  0  0  0  0  0  0  0  0  0  0  # atno 17343 bound_to 10162
  156.1213  130.6112  151.0197 LP  0  0  0  0  0  0  0  0  0  0  0  0  # atno 17370 bound_to 10713
  157.6642  131.0875  150.7767 LP  0  0  0  0  0  0  0  0  0  0  0  0  # atno 17371 bound_to 10713
  141.1890  133.8247  157.0971 LP  0  0  0  0  0  0  0  0  0  0  0  0  # atno 17394 bound_to 11000
  140.0406  134.9856  157.0955 LP  0  0  0  0  0  0  0  0  0  0  0  0  # atno 17395 bound_to 11000

$$$$
