AV-unprocessed.smi:249|AV-procd|sdf|1924|dock10
  -GOLD-   2262021 33D 1   1.00000     0.00000
 Structure written by MMmdl.
 64 67  0  0  0  0  0  0  0  0  2 V2000
  146.2154  129.3156  152.8584 C   0  0  0  0  0  0  0  0  0  0  0  0
  146.4445  130.8164  153.0943 C   0  0  0  0  0  0  0  0  0  0  0  0
  147.7984  131.2792  152.6679 N   0  3  2  0  0  0  0  0  0  0  0  0
  148.9122  130.7702  153.5179 C   0  0  0  0  0  0  0  0  0  0  0  0
  148.9520  131.4646  154.8928 C   0  0  0  0  0  0  0  0  0  0  0  0
  149.0459  132.9945  154.7301 C   0  0  2  0  0  0  0  0  0  0  0  0
  149.0887  133.6950  156.0190 N   0  0  0  0  0  0  0  0  0  0  0  0
  149.3115  132.9392  157.2514 C   0  0  0  0  0  0  0  0  0  0  0  0
  149.5912  134.9567  155.9794 C   0  0  0  0  0  0  0  0  0  0  0  0
  150.0795  135.4499  154.8098 N   0  0  0  0  0  0  0  0  0  0  0  0
  150.5585  136.6958  154.7494 C   0  0  0  0  0  0  0  0  0  0  0  0
  150.6387  137.6063  155.7212 N   0  0  0  0  0  0  0  0  0  0  0  0
  150.1553  137.1175  156.8985 C   0  0  0  0  0  0  0  0  0  0  0  0
  149.6252  135.8144  157.1157 C   0  0  0  0  0  0  0  0  0  0  0  0
  149.2543  135.6715  158.4480 N   0  0  0  0  0  0  0  0  0  0  0  0
  149.5362  136.8274  158.9839 C   0  0  0  0  0  0  0  0  0  0  0  0
  150.0563  137.7636  158.1187 N   0  0  0  0  0  0  0  0  0  0  0  0
  150.4558  139.1209  158.4482 C   0  0  0  0  0  0  0  0  0  0  0  0
  151.4271  139.7840  157.4308 C   0  0  2  0  0  0  0  0  0  0  0  0
  152.6225  138.8333  157.1791 C   0  0  0  0  0  0  0  0  0  0  0  0
  153.2531  139.1127  155.9459 O   0  0  0  0  0  0  0  0  0  0  0  0
  151.9119  141.1977  157.8732 C   0  0  1  0  0  0  0  0  0  0  0  0
  150.8057  142.2247  158.0675 C   0  0  0  0  0  0  0  0  0  0  0  0
  151.4932  143.2933  158.9048 C   0  0  0  0  0  0  0  0  0  0  0  0
  152.3371  142.5689  159.7855 O   0  0  0  0  0  0  0  0  0  0  0  0
  152.5941  141.2742  159.2500 C   0  0  0  0  0  0  0  0  0  0  0  0
  147.9212  133.5096  153.8103 C   0  0  0  0  0  0  0  0  0  0  0  0
  147.9306  132.7550  152.4643 C   0  0  2  0  0  0  0  0  0  0  0  0
  146.9191  133.3325  151.4579 C   0  0  0  0  0  0  0  0  0  0  0  0
  145.1706  129.0591  153.0341 H   0  0  0  0  0  0  0  0  0  0  0  0
  146.8090  128.6970  153.5305 H   0  0  0  0  0  0  0  0  0  0  0  0
  146.4550  129.0339  151.8327 H   0  0  0  0  0  0  0  0  0  0  0  0
  145.6814  131.3363  152.5184 H   0  0  0  0  0  0  0  0  0  0  0  0
  146.2572  131.0629  154.1391 H   0  0  0  0  0  0  0  0  0  0  0  0
  148.8614  129.6894  153.6369 H   0  0  0  0  0  0  0  0  0  0  0  0
  149.8526  130.9569  152.9968 H   0  0  0  0  0  0  0  0  0  0  0  0
  148.0697  131.1916  155.4714 H   0  0  0  0  0  0  0  0  0  0  0  0
  149.8102  131.0989  155.4581 H   0  0  0  0  0  0  0  0  0  0  0  0
  149.9779  133.1860  154.2002 H   0  0  0  0  0  0  0  0  0  0  0  0
  149.1363  133.5664  158.1265 H   0  0  0  0  0  0  0  0  0  0  0  0
  150.3341  132.5644  157.3004 H   0  0  0  0  0  0  0  0  0  0  0  0
  148.6331  132.0906  157.3255 H   0  0  0  0  0  0  0  0  0  0  0  0
  150.9259  137.0098  153.7835 H   0  0  0  0  0  0  0  0  0  0  0  0
  149.3579  137.0341  160.0294 H   0  0  0  0  0  0  0  0  0  0  0  0
  149.5574  139.7308  158.5520 H   0  0  0  0  0  0  0  0  0  0  0  0
  150.9083  139.0792  159.4391 H   0  0  0  0  0  0  0  0  0  0  0  0
  150.9092  139.8988  156.4779 H   0  0  0  0  0  0  0  0  0  0  0  0
  153.3884  138.9419  157.9455 H   0  0  0  0  0  0  0  0  0  0  0  0
  152.3000  137.7919  157.1931 H   0  0  0  0  0  0  0  0  0  0  0  0
  152.7256  138.7523  155.2495 H   0  0  0  0  0  0  0  0  0  0  0  0
  152.6009  141.5886  157.1224 H   0  0  0  0  0  0  0  0  0  0  0  0
  150.4191  142.6284  157.1314 H   0  0  0  0  0  0  0  0  0  0  0  0
  149.9744  141.7911  158.6260 H   0  0  0  0  0  0  0  0  0  0  0  0
  152.1084  143.9361  158.2740 H   0  0  0  0  0  0  0  0  0  0  0  0
  150.7879  143.9215  159.4493 H   0  0  0  0  0  0  0  0  0  0  0  0
  152.1763  140.5396  159.9392 H   0  0  0  0  0  0  0  0  0  0  0  0
  153.6688  141.1085  159.1879 H   0  0  0  0  0  0  0  0  0  0  0  0
  146.9456  133.4005  154.2827 H   0  0  0  0  0  0  0  0  0  0  0  0
  148.0598  134.5772  153.6345 H   0  0  0  0  0  0  0  0  0  0  0  0
  148.9126  132.9077  152.0130 H   0  0  0  0  0  0  0  0  0  0  0  0
  147.1898  134.3538  151.1884 H   0  0  0  0  0  0  0  0  0  0  0  0
  145.9083  133.3713  151.8639 H   0  0  0  0  0  0  0  0  0  0  0  0
  146.8963  132.7478  150.5379 H   0  0  0  0  0  0  0  0  0  0  0  0
  147.9392  130.8689  151.7558 H   0  0  0  0  0  0  0  0  0  0  0  0
  1  2  1  0  0  0  0
  1 30  1  0  0  0  0
  1 31  1  0  0  0  0
  1 32  1  0  0  0  0
  2  3  1  0  0  0  0
  2 33  1  0  0  0  0
  2 34  1  0  0  0  0
  3 28  1  0  0  0  0
  3  4  1  0  0  0  0
  3 64  1  0  0  0  0
  4  5  1  0  0  0  0
  4 35  1  0  0  0  0
  4 36  1  0  0  0  0
  5  6  1  0  0  0  0
  5 37  1  0  0  0  0
  5 38  1  0  0  0  0
  6  7  1  0  0  0  0
  6 27  1  0  0  0  0
  6 39  1  0  0  0  0
  7  8  1  0  0  0  0
  7  9  1  0  0  0  0
  8 40  1  0  0  0  0
  8 41  1  0  0  0  0
  8 42  1  0  0  0  0
  9 14  1  0  0  0  0
  9 10  2  0  0  0  0
 10 11  1  0  0  0  0
 11 12  2  0  0  0  0
 11 43  1  0  0  0  0
 12 13  1  0  0  0  0
 13 17  1  0  0  0  0
 13 14  2  0  0  0  0
 14 15  1  0  0  0  0
 15 16  2  0  0  0  0
 16 17  1  0  0  0  0
 16 44  1  0  0  0  0
 17 18  1  0  0  0  0
 18 19  1  0  0  0  0
 18 45  1  0  0  0  0
 18 46  1  0  0  0  0
 19 20  1  0  0  0  0
 19 22  1  0  0  0  0
 19 47  1  0  0  0  0
 20 21  1  0  0  0  0
 20 48  1  0  0  0  0
 20 49  1  0  0  0  0
 21 50  1  0  0  0  0
 22 26  1  0  0  0  0
 22 23  1  0  0  0  0
 22 51  1  0  0  0  0
 23 24  1  0  0  0  0
 23 52  1  0  0  0  0
 23 53  1  0  0  0  0
 24 25  1  0  0  0  0
 24 54  1  0  0  0  0
 24 55  1  0  0  0  0
 25 26  1  0  0  0  0
 26 56  1  0  0  0  0
 26 57  1  0  0  0  0
 27 28  1  0  0  0  0
 27 58  1  0  0  0  0
 27 59  1  0  0  0  0
 28 29  1  0  0  0  0
 28 60  1  0  0  0  0
 29 61  1  0  0  0  0
 29 62  1  0  0  0  0
 29 63  1  0  0  0  0
M  CHG  1   3   1
M  END
> <s_m_source_file>
AV-unprocessed.smi

> <i_m_source_file_index>
249

> <i_lp_mmshare_version>
43012

> <i_f3d_flags>
0

> <s_epik_input>
W0NIM11bQ0gyXU4xW0NIMl1bQ0gyXVtDQEhdKFtDSDJdW0NASF0xW0NIM10pTihbQ0gzXSljKG5bY0hdbjIpYyhjMjMpbltjSF1uM1tDSDJdW0NASF0oW0NIMl1bT0hdKVtDQEBIXTRbQ0gyXVtDSDJdT1tDSDJdNA==

> <s_epik_cmdline>
J2VwaWtfcHl0aG9uJywgJy1waCcsICc3LjAnLCAnLXRuJywgJzgnLCAnLW1hJywgJzIwMCcsICctbWV0YWxfYmluZGluZycsICctaW1hZScsICc8aW5maWxlLm1hZT4nLCAnLW9tYWUnLCAnPG91dGZpbGUubWFlPic=

> <r_lp_tautomer_probability>
1

> <r_epik_Ionization_Penalty>
0.00294688

> <r_epik_Ionization_Penalty_Charging>
0.00169971

> <r_epik_Ionization_Penalty_Neutral>
0.00124717

> <r_epik_State_Penalty>
-0

> <r_epik_Charging_Adjusted_Penalty>
0.00169971

> <i_epik_Tot_Q>
1

> <i_epik_Tot_abs_Q>
1

> <r_epik_Metal_State_Penalty>
-0

> <b_epik_Metal_Only>
0

> <s_lp_Force_Field>
OPLS_2005

> <r_lp_Energy>
54.5526

> <b_lp_Chiralities_Consistent>
1

> <s_lp_Variant>
AV-unprocessed.smi:249-27

> <Gold.Version>
5.8.1

> <Gold.Id.Protein>
6NUR|6NUR_protein|mol2

> <Gold.PLP.Fitness>
49.7945

> <Gold.PLP.PLP>
-39.5870

> <Gold.PLP.part.hbond>
-2.6733

> <Gold.PLP.part.metal>
0.0000

> <Gold.PLP.part.buried>
-4.7860

> <Gold.PLP.part.nonpolar>
-32.5542

> <Gold.PLP.part.repulsive>
0.2214

> <Gold.PLP.ligand.clash>
0.0000

> <Gold.PLP.ligand.torsion>
1.2522

> <Gold.PLP.Chemscore.Hbond>
2.8545

> <Gold.PLP.Chemscore.CHOScore>
1.0106

> <Gold.PLP.Chemscore.Metal>
0.0000

> <Gold.Chemscore.Hbonds>
donor molecule, donor type, donor heavy atom, donor atom, acceptor molecule, acceptor atom, score
      L1  H     3    64       P1 10747  0.91
      P1  H  6896  6908       L1    15  0.70
      P1  H  7997  8009       L1    21  0.99
      L1  C    11    43       P1  7948  0.06
      L1  C    11    43       P1  7949  0.98

> <Gold.PLP.Chemscore.Internal.Correction>
1.1166

> <Gold.Rescore>
     Score         DG    S(hbond)    S(metal)    S(lipo)     H(rot)  DE(clash)    DE(int)     intcor
     12.51     -17.32       2.43        0.00      89.92       2.65       0.01       4.81       ----

> <Gold.Chemscore.Fitness>
12.5054

> <Gold.Chemscore.DG>
-17.3189

> <Gold.Chemscore.ZeroCoef>
-5.4800

> <Gold.Chemscore.Hbond>
2.4271

> <Gold.Chemscore.Metal>
0.0000

> <Gold.Chemscore.Lipo>
89.9190

> <Gold.Chemscore.Internal_Hbond>
0.0000

> <Gold.Chemscore.DEClash>
0.0069

> <Gold.Chemscore.DEInternal>
4.8066

> <Gold.Chemscore.Rot>
2.6515

> <Gold.Chemscore.Internal.Correction>
   9.000000E+99

> <Gold.Chemscore.Hbonds>
donor molecule, donor type, donor heavy atom, donor atom, acceptor molecule, acceptor atom, score
      L1  H     3    64       P1 10747  0.88
      P1  H  6896  6908       L1    15  0.18
      P1  H  7997  8009       L1    21  0.68

> <Gold.Chemscore.Hbond.Weighted>
-8.1064

> <Gold.Chemscore.Metal.Weighted>
-0.0000

> <Gold.Chemscore.Lipo.Weighted>
-10.5205

> <Gold.Chemscore.Internal_Hbond.Weighted>
0.0000

> <Gold.Chemscore.DEClash.Weighted>
0.0069

> <Gold.Chemscore.DEInternal.Weighted>
4.8066

> <Gold.Chemscore.Rot.Weighted>
6.7880

> <Gold.Chemscore.Internal.Correction.Weighted>
   9.000000E+99

> <Gold.Protein.RotatedTorsions>
[ 6907 6896 6895 6894 ] final  154.90 input  -60.11 | X-H torsion
[ 7974 7965 7964 7962 ] final  143.53 input  175.53 | X-H torsion
[ 8008 7997 7996 7995 ] final -150.80 input   59.86 | X-H torsion
[ 10167 10162 10161 10158 ] final  -59.69 input  -65.29 | X-H torsion
[ 10718 10713 10712 10709 ] final  -82.93 input   66.30 | X-H torsion
[ 10763 10752 10751 10750 ] final   74.28 input  -60.55 | X-H torsion
[ 11005 11000 10999 10996 ] final   84.94 input  -57.11 | X-H torsion

> <Gold.Protein.ActiveResidues>
 VAL166  LYS551  ARG553  GLY616  TRP617  ASP618  TYR619  PRO620  LYS621  CYS622 
 ASP623  PHE694  ASN695  SER759  ASP760  ASP761  ALA762  ILE779  LEU786  VAL792 
 PHE793  MET794  SER795  GLU796  ALA797  LYS798  CYS799  TRP800  GLU811  SER814 

> <Gold.Protein.RotatedAtoms>
  152.0519  133.4023  159.4380 H   0  0  0  0  0  0  0  0  0  0  0  0  # atno 6907 bound_to 6896
  150.6870  134.3298  159.4831 H   0  0  0  0  0  0  0  0  0  0  0  0  # atno 6908 bound_to 6896
  152.1109  134.9275  160.0617 H   0  0  0  0  0  0  0  0  0  0  0  0  # atno 6909 bound_to 6896
  144.8913  139.5554  143.5797 H   0  0  0  0  0  0  0  0  0  0  0  0  # atno 7974 bound_to 7965
  155.6294  140.0690  157.2654 H   0  0  0  0  0  0  0  0  0  0  0  0  # atno 8008 bound_to 7997
  154.4209  140.1770  156.1504 H   0  0  0  0  0  0  0  0  0  0  0  0  # atno 8009 bound_to 7997
  155.9945  140.3342  155.6789 H   0  0  0  0  0  0  0  0  0  0  0  0  # atno 8010 bound_to 7997
  140.6119  143.2390  151.5690 H   0  0  0  0  0  0  0  0  0  0  0  0  # atno 10167 bound_to 10162
  156.0025  130.4649  150.4180 H   0  0  0  0  0  0  0  0  0  0  0  0  # atno 10718 bound_to 10713
  153.0576  135.5031  154.8018 H   0  0  0  0  0  0  0  0  0  0  0  0  # atno 10763 bound_to 10752
  154.6832  135.2972  154.9586 H   0  0  0  0  0  0  0  0  0  0  0  0  # atno 10764 bound_to 10752
  154.0365  135.6722  153.4838 H   0  0  0  0  0  0  0  0  0  0  0  0  # atno 10765 bound_to 10752
  139.8985  134.8252  156.2515 H   0  0  0  0  0  0  0  0  0  0  0  0  # atno 11005 bound_to 11000
  146.3055  139.7566  142.9059 LP  0  0  0  0  0  0  0  0  0  0  0  0  # atno 17320 bound_to 7965
  145.3778  141.0353  143.3194 LP  0  0  0  0  0  0  0  0  0  0  0  0  # atno 17321 bound_to 7965
  139.5368  144.2759  152.1267 LP  0  0  0  0  0  0  0  0  0  0  0  0  # atno 17342 bound_to 10162
  140.1960  144.4704  150.6455 LP  0  0  0  0  0  0  0  0  0  0  0  0  # atno 17343 bound_to 10162
  157.2238  131.0488  151.2531 LP  0  0  0  0  0  0  0  0  0  0  0  0  # atno 17370 bound_to 10713
  157.3776  130.7214  149.6607 LP  0  0  0  0  0  0  0  0  0  0  0  0  # atno 17371 bound_to 10713
  141.0221  133.7035  156.1286 LP  0  0  0  0  0  0  0  0  0  0  0  0  # atno 17394 bound_to 11000
  140.7219  134.4349  157.5574 LP  0  0  0  0  0  0  0  0  0  0  0  0  # atno 17395 bound_to 11000

$$$$
