AV-unprocessed.smi:3260|AV-procd|sdf|12477|dock10
  -GOLD-   2272018383D 1   1.00000     0.00000
 Structure written by MMmdl.
 38 39  0  0  0  0  0  0  0  0  1 V2000
  143.5526  132.9078  148.4084 C   0  0  0  0  0  0  0  0  0  0  0  0
  144.2803  132.4929  149.5886 N   0  0  0  0  0  0  0  0  0  0  0  0
  145.4185  133.0445  150.1361 C   0  0  0  0  0  0  0  0  0  0  0  0
  145.7373  132.3110  151.2444 C   0  0  0  0  0  0  0  0  0  0  0  0
  146.8873  132.4911  152.1955 C   0  0  0  0  0  0  0  0  0  0  0  0
  146.5266  133.4460  153.3450 C   0  0  0  0  0  0  0  0  0  0  0  0
  147.4928  134.5318  153.4625 N   0  0  0  0  0  0  0  0  0  0  0  0
  147.9154  135.0578  154.6204 C   0  0  0  0  0  0  0  0  0  0  0  0
  147.5308  134.6828  155.7283 O   0  0  0  0  0  0  0  0  0  0  0  0
  148.8072  136.0391  154.4251 N   0  0  0  0  0  0  0  0  0  0  0  0
  149.4775  136.7824  155.4857 C   0  0  0  0  0  0  0  0  0  0  0  0
  150.4279  137.8444  154.9093 C   0  0  1  0  0  0  0  0  0  0  0  0
  150.8542  138.9044  155.9219 C   0  0  0  0  0  0  0  0  0  0  0  0
  152.1670  139.4231  155.3568 C   0  0  0  0  0  0  0  0  0  0  0  0
  152.5956  138.3438  154.3576 C   0  0  0  0  0  0  0  0  0  0  0  0
  151.6739  137.2773  154.5369 O   0  0  0  0  0  0  0  0  0  0  0  0
  144.7147  131.3208  151.2901 C   0  0  0  0  0  0  0  0  0  0  0  0
  143.8446  131.4329  150.2996 N   0  0  0  0  0  0  0  0  0  0  0  0
  144.1037  133.6895  147.8849 H   0  0  0  0  0  0  0  0  0  0  0  0
  142.5745  133.2940  148.6960 H   0  0  0  0  0  0  0  0  0  0  0  0
  143.4202  132.0586  147.7370 H   0  0  0  0  0  0  0  0  0  0  0  0
  145.9052  133.9024  149.6960 H   0  0  0  0  0  0  0  0  0  0  0  0
  147.1924  131.5292  152.6090 H   0  0  0  0  0  0  0  0  0  0  0  0
  147.7597  132.8744  151.6646 H   0  0  0  0  0  0  0  0  0  0  0  0
  145.5228  133.8516  153.2050 H   0  0  0  0  0  0  0  0  0  0  0  0
  146.5121  132.9035  154.2907 H   0  0  0  0  0  0  0  0  0  0  0  0
  147.8680  134.9051  152.6031 H   0  0  0  0  0  0  0  0  0  0  0  0
  149.0564  136.2751  153.4760 H   0  0  0  0  0  0  0  0  0  0  0  0
  148.7071  137.2695  156.0839 H   0  0  0  0  0  0  0  0  0  0  0  0
  150.0106  136.1093  156.1599 H   0  0  0  0  0  0  0  0  0  0  0  0
  149.9794  138.3259  154.0378 H   0  0  0  0  0  0  0  0  0  0  0  0
  150.1074  139.6880  156.0521 H   0  0  0  0  0  0  0  0  0  0  0  0
  151.0335  138.4446  156.8949 H   0  0  0  0  0  0  0  0  0  0  0  0
  152.0299  140.3788  154.8500 H   0  0  0  0  0  0  0  0  0  0  0  0
  152.9061  139.5646  156.1459 H   0  0  0  0  0  0  0  0  0  0  0  0
  152.5198  138.7166  153.3351 H   0  0  0  0  0  0  0  0  0  0  0  0
  153.6188  138.0043  154.5206 H   0  0  0  0  0  0  0  0  0  0  0  0
  144.5811  130.5272  152.0106 H   0  0  0  0  0  0  0  0  0  0  0  0
  1  2  1  0  0  0  0
  1 19  1  0  0  0  0
  1 20  1  0  0  0  0
  1 21  1  0  0  0  0
  2 18  1  0  0  0  0
  2  3  1  0  0  0  0
  3  4  2  0  0  0  0
  3 22  1  0  0  0  0
  4  5  1  0  0  0  0
  4 17  1  0  0  0  0
  5  6  1  0  0  0  0
  5 23  1  0  0  0  0
  5 24  1  0  0  0  0
  6  7  1  0  0  0  0
  6 25  1  0  0  0  0
  6 26  1  0  0  0  0
  7  8  1  0  0  0  0
  7 27  1  0  0  0  0
  8  9  2  0  0  0  0
  8 10  1  0  0  0  0
 10 11  1  0  0  0  0
 10 28  1  0  0  0  0
 11 12  1  0  0  0  0
 11 29  1  0  0  0  0
 11 30  1  0  0  0  0
 12 16  1  0  0  0  0
 12 13  1  0  0  0  0
 12 31  1  0  0  0  0
 13 14  1  0  0  0  0
 13 32  1  0  0  0  0
 13 33  1  0  0  0  0
 14 15  1  0  0  0  0
 14 34  1  0  0  0  0
 14 35  1  0  0  0  0
 15 16  1  0  0  0  0
 15 36  1  0  0  0  0
 15 37  1  0  0  0  0
 17 18  2  0  0  0  0
 17 38  1  0  0  0  0
M  END
> <s_m_source_file>
AV-unprocessed.smi

> <i_m_source_file_index>
3260

> <i_lp_mmshare_version>
43012

> <i_f3d_flags>
0

> <s_epik_input>
W0NIM11uMVtjSF1jKFtjSF1uMSlbQ0gyXVtDSDJdW05IXUMoPU8pW05IXVtDSDJdW0NAQEhdMltDSDJdW0NIMl1bQ0gyXU8y

> <s_epik_cmdline>
J2VwaWtfcHl0aG9uJywgJy1waCcsICc3LjAnLCAnLXRuJywgJzgnLCAnLW1hJywgJzIwMCcsICctbWV0YWxfYmluZGluZycsICctaW1hZScsICc8aW5maWxlLm1hZT4nLCAnLW9tYWUnLCAnPG91dGZpbGUubWFlPic=

> <r_lp_tautomer_probability>
1

> <r_epik_Ionization_Penalty>
0.000550106

> <r_epik_Ionization_Penalty_Charging>
0

> <r_epik_Ionization_Penalty_Neutral>
0.000550106

> <r_epik_State_Penalty>
-0

> <r_epik_Charging_Adjusted_Penalty>
0

> <i_epik_Tot_Q>
0

> <i_epik_Tot_abs_Q>
0

> <r_epik_Metal_State_Penalty>
-0

> <b_epik_Metal_Only>
0

> <s_lp_Force_Field>
OPLS_2005

> <r_lp_Energy>
10.8429

> <b_lp_Chiralities_Consistent>
1

> <s_lp_Variant>
AV-unprocessed.smi:3260-2

> <Gold.Version>
5.8.1

> <Gold.Id.Protein>
6NUR|6NUR_protein|mol2

> <Gold.PLP.Fitness>
44.2508

> <Gold.PLP.PLP>
-32.7371

> <Gold.PLP.part.hbond>
-4.0000

> <Gold.PLP.part.metal>
0.0000

> <Gold.PLP.part.buried>
-2.3937

> <Gold.PLP.part.nonpolar>
-26.4282

> <Gold.PLP.part.repulsive>
0.3377

> <Gold.PLP.ligand.clash>
0.0000

> <Gold.PLP.ligand.torsion>
1.0738

> <Gold.PLP.Chemscore.Hbond>
3.5430

> <Gold.PLP.Chemscore.CHOScore>
1.0000

> <Gold.PLP.Chemscore.Metal>
0.0000

> <Gold.Chemscore.Hbonds>
donor molecule, donor type, donor heavy atom, donor atom, acceptor molecule, acceptor atom, score
      L1  H     7    27       P1  7948  0.93
      L1  H    10    28       P1  7948  1.00
      P1  H 10752 10764       L1    16  0.89
      P1  H 10785 10796       L1    18  0.59
      L1  C     3    22       P1  7921  0.99

> <Gold.PLP.Chemscore.Internal.Correction>
0.0322

> <Gold.Rescore>
     Score         DG    S(hbond)    S(metal)    S(lipo)     H(rot)  DE(clash)    DE(int)     intcor
     17.39     -18.59       2.57        0.00      79.20       1.85       0.21       0.99       ----

> <Gold.Chemscore.Fitness>
17.3858

> <Gold.Chemscore.DG>
-18.5913

> <Gold.Chemscore.ZeroCoef>
-5.4800

> <Gold.Chemscore.Hbond>
2.5711

> <Gold.Chemscore.Metal>
0.0000

> <Gold.Chemscore.Lipo>
79.2046

> <Gold.Chemscore.Internal_Hbond>
0.0000

> <Gold.Chemscore.DEClash>
0.2130

> <Gold.Chemscore.DEInternal>
0.9925

> <Gold.Chemscore.Rot>
1.8528

> <Gold.Chemscore.Internal.Correction>
   9.000000E+99

> <Gold.Chemscore.Hbonds>
donor molecule, donor type, donor heavy atom, donor atom, acceptor molecule, acceptor atom, score
      L1  H     7    27       P1  7948  0.81
      L1  H    10    28       P1  7948  0.95
      P1  H 10752 10764       L1    16  0.25
      P1  H 10785 10796       L1    18  0.20

> <Gold.Chemscore.Hbond.Weighted>
-8.5876

> <Gold.Chemscore.Metal.Weighted>
-0.0000

> <Gold.Chemscore.Lipo.Weighted>
-9.2669

> <Gold.Chemscore.Internal_Hbond.Weighted>
0.0000

> <Gold.Chemscore.DEClash.Weighted>
0.2130

> <Gold.Chemscore.DEInternal.Weighted>
0.9925

> <Gold.Chemscore.Rot.Weighted>
4.7433

> <Gold.Chemscore.Internal.Correction.Weighted>
   9.000000E+99

> <Gold.Protein.RotatedTorsions>
[ 6907 6896 6895 6894 ] final  -22.90 input  -60.11 | X-H torsion
[ 7974 7965 7964 7962 ] final   46.81 input  175.53 | X-H torsion
[ 8008 7997 7996 7995 ] final   39.59 input   59.86 | X-H torsion
[ 10167 10162 10161 10158 ] final -155.87 input  -65.29 | X-H torsion
[ 10718 10713 10712 10709 ] final -159.61 input   66.30 | X-H torsion
[ 10763 10752 10751 10750 ] final  -67.12 input  -60.55 | X-H torsion
[ 11005 11000 10999 10996 ] final -117.50 input  -57.11 | X-H torsion

> <Gold.Protein.ActiveResidues>
 VAL166  LYS551  ARG553  GLY616  TRP617  ASP618  TYR619  PRO620  LYS621  CYS622 
 ASP623  PHE694  ASN695  SER759  ASP760  ASP761  ALA762  ILE779  LEU786  VAL792 
 PHE793  MET794  SER795  GLU796  ALA797  LYS798  CYS799  TRP800  GLU811  SER814 

> <Gold.Protein.RotatedAtoms>
  151.2119  135.0484  159.8914 H   0  0  0  0  0  0  0  0  0  0  0  0  # atno 6907 bound_to 6896
  152.5424  134.0735  159.8215 H   0  0  0  0  0  0  0  0  0  0  0  0  # atno 6908 bound_to 6896
  151.0890  133.5283  159.2648 H   0  0  0  0  0  0  0  0  0  0  0  0  # atno 6909 bound_to 6896
  146.0355  139.4816  142.9811 H   0  0  0  0  0  0  0  0  0  0  0  0  # atno 7974 bound_to 7965
  155.2391  140.3344  155.4294 H   0  0  0  0  0  0  0  0  0  0  0  0  # atno 8008 bound_to 7997
  156.2263  140.1831  156.7400 H   0  0  0  0  0  0  0  0  0  0  0  0  # atno 8009 bound_to 7997
  154.5904  140.0639  156.9216 H   0  0  0  0  0  0  0  0  0  0  0  0  # atno 8010 bound_to 7997
  139.6896  143.9442  152.2378 H   0  0  0  0  0  0  0  0  0  0  0  0  # atno 10167 bound_to 10162
  156.5705  130.8686  151.2836 H   0  0  0  0  0  0  0  0  0  0  0  0  # atno 10718 bound_to 10713
  154.3698  135.6097  153.5734 H   0  0  0  0  0  0  0  0  0  0  0  0  # atno 10763 bound_to 10752
  152.9790  135.5835  154.4535 H   0  0  0  0  0  0  0  0  0  0  0  0  # atno 10764 bound_to 10752
  154.4287  135.2847  155.1905 H   0  0  0  0  0  0  0  0  0  0  0  0  # atno 10765 bound_to 10752
  141.0350  133.9923  157.3084 H   0  0  0  0  0  0  0  0  0  0  0  0  # atno 11005 bound_to 11000
  145.6970  141.0147  143.1525 LP  0  0  0  0  0  0  0  0  0  0  0  0  # atno 17320 bound_to 7965
  144.7050  139.8599  143.7433 LP  0  0  0  0  0  0  0  0  0  0  0  0  # atno 17321 bound_to 7965
  139.9255  144.6773  150.8417 LP  0  0  0  0  0  0  0  0  0  0  0  0  # atno 17342 bound_to 10162
  140.7678  143.3345  151.2339 LP  0  0  0  0  0  0  0  0  0  0  0  0  # atno 17343 bound_to 10162
  157.7349  130.9754  150.2054 LP  0  0  0  0  0  0  0  0  0  0  0  0  # atno 17370 bound_to 10713
  156.2719  130.3723  149.8023 LP  0  0  0  0  0  0  0  0  0  0  0  0  # atno 17371 bound_to 10713
  139.9234  135.0201  156.8149 LP  0  0  0  0  0  0  0  0  0  0  0  0  # atno 17394 bound_to 11000
  140.6338  133.9881  155.7674 LP  0  0  0  0  0  0  0  0  0  0  0  0  # atno 17395 bound_to 11000

$$$$
