AV-unprocessed.smi:2379|AV-procd|sdf|9452|dock6
  -GOLD-   2272013 83D 1   1.00000     0.00000
 Structure written by MMmdl.
 53 55  0  0  0  0  0  0  0  0  2 V2000
  153.3913  141.0686  160.3497 C   0  0  0  0  0  0  0  0  0  0  0  0
  152.5852  142.2460  159.8426 C   0  0  0  0  0  0  0  0  0  0  0  0
  152.6849  143.5088  160.4575 C   0  0  0  0  0  0  0  0  0  0  0  0
  151.9085  144.5637  159.9388 C   0  0  0  0  0  0  0  0  0  0  0  0
  151.9703  145.9491  160.5471 C   0  0  0  0  0  0  0  0  0  0  0  0
  151.0737  144.4166  158.8880 N   0  0  0  0  0  0  0  0  0  0  0  0
  150.9675  143.2043  158.2896 C   0  0  0  0  0  0  0  0  0  0  0  0
  150.1211  142.9473  157.1784 N   0  0  0  0  0  0  0  0  0  0  0  0
  149.5941  141.7718  156.7922 C   0  0  0  0  0  0  0  0  0  0  0  0
  149.7820  140.6886  157.3469 O   0  0  0  0  0  0  0  0  0  0  0  0
  148.8265  141.9163  155.7017 N   0  0  0  0  0  0  0  0  0  0  0  0
  148.1379  140.8288  155.0118 C   0  0  2  0  0  0  0  0  0  0  0  0
  149.1642  139.8838  154.3669 C   0  0  0  0  0  0  0  0  0  0  0  0
  148.4701  138.7687  153.5659 C   0  0  0  0  0  0  0  0  0  0  0  0
  147.5579  139.3315  152.5361 N   0  3  1  0  0  0  0  0  0  0  0  0
  146.9755  138.2881  151.6517 C   0  0  0  0  0  0  0  0  0  0  0  0
  145.8136  137.5319  152.3259 C   0  0  1  0  0  0  0  0  0  0  0  0
  145.3516  136.3190  151.5421 C   0  0  0  0  0  0  0  0  0  0  0  0
  144.5721  135.5345  152.5926 C   0  0  0  0  0  0  0  0  0  0  0  0
  145.2036  135.8234  153.8356 O   0  0  0  0  0  0  0  0  0  0  0  0
  146.1373  136.8859  153.6748 C   0  0  0  0  0  0  0  0  0  0  0  0
  146.5328  140.2179  153.1476 C   0  0  0  0  0  0  0  0  0  0  0  0
  147.1886  141.3693  153.9266 C   0  0  0  0  0  0  0  0  0  0  0  0
  151.7162  142.0949  158.7432 C   0  0  0  0  0  0  0  0  0  0  0  0
  154.0952  141.3741  161.1243 H   0  0  0  0  0  0  0  0  0  0  0  0
  153.9575  140.6175  159.5345 H   0  0  0  0  0  0  0  0  0  0  0  0
  152.7291  140.3110  160.7691 H   0  0  0  0  0  0  0  0  0  0  0  0
  153.3387  143.6651  161.3031 H   0  0  0  0  0  0  0  0  0  0  0  0
  152.7770  146.0246  161.2767 H   0  0  0  0  0  0  0  0  0  0  0  0
  151.0315  146.1836  161.0492 H   0  0  0  0  0  0  0  0  0  0  0  0
  152.1428  146.6975  159.7732 H   0  0  0  0  0  0  0  0  0  0  0  0
  149.8972  143.7504  156.6099 H   0  0  0  0  0  0  0  0  0  0  0  0
  148.7258  142.8419  155.3112 H   0  0  0  0  0  0  0  0  0  0  0  0
  147.5584  140.2594  155.7413 H   0  0  0  0  0  0  0  0  0  0  0  0
  149.8239  140.4470  153.7048 H   0  0  0  0  0  0  0  0  0  0  0  0
  149.8008  139.4425  155.1350 H   0  0  0  0  0  0  0  0  0  0  0  0
  149.2319  138.1525  153.0864 H   0  0  0  0  0  0  0  0  0  0  0  0
  147.9072  138.1164  154.2359 H   0  0  0  0  0  0  0  0  0  0  0  0
  146.5740  138.7624  150.7550 H   0  0  0  0  0  0  0  0  0  0  0  0
  147.7473  137.6021  151.2990 H   0  0  0  0  0  0  0  0  0  0  0  0
  144.9609  138.2025  152.4468 H   0  0  0  0  0  0  0  0  0  0  0  0
  144.7464  136.5749  150.6716 H   0  0  0  0  0  0  0  0  0  0  0  0
  146.2085  135.7353  151.2016 H   0  0  0  0  0  0  0  0  0  0  0  0
  143.5392  135.8815  152.6394 H   0  0  0  0  0  0  0  0  0  0  0  0
  144.5612  134.4635  152.3898 H   0  0  0  0  0  0  0  0  0  0  0  0
  147.1416  136.4601  153.6705 H   0  0  0  0  0  0  0  0  0  0  0  0
  146.0700  137.5912  154.5033 H   0  0  0  0  0  0  0  0  0  0  0  0
  145.8822  140.6336  152.3803 H   0  0  0  0  0  0  0  0  0  0  0  0
  145.8955  139.6336  153.8136 H   0  0  0  0  0  0  0  0  0  0  0  0
  146.4134  141.9914  154.3758 H   0  0  0  0  0  0  0  0  0  0  0  0
  147.7378  142.0108  153.2357 H   0  0  0  0  0  0  0  0  0  0  0  0
  151.6242  141.1342  158.2570 H   0  0  0  0  0  0  0  0  0  0  0  0
  148.1348  139.9122  151.9443 H   0  0  0  0  0  0  0  0  0  0  0  0
  1  2  1  0  0  0  0
  1 25  1  0  0  0  0
  1 26  1  0  0  0  0
  1 27  1  0  0  0  0
  2 24  1  0  0  0  0
  2  3  2  0  0  0  0
  3  4  1  0  0  0  0
  3 28  1  0  0  0  0
  4  5  1  0  0  0  0
  4  6  2  0  0  0  0
  5 29  1  0  0  0  0
  5 30  1  0  0  0  0
  5 31  1  0  0  0  0
  6  7  1  0  0  0  0
  7  8  1  0  0  0  0
  7 24  2  0  0  0  0
  8  9  1  0  0  0  0
  8 32  1  0  0  0  0
  9 10  2  0  0  0  0
  9 11  1  0  0  0  0
 11 12  1  0  0  0  0
 11 33  1  0  0  0  0
 12 23  1  0  0  0  0
 12 13  1  0  0  0  0
 12 34  1  0  0  0  0
 13 14  1  0  0  0  0
 13 35  1  0  0  0  0
 13 36  1  0  0  0  0
 14 15  1  0  0  0  0
 14 37  1  0  0  0  0
 14 38  1  0  0  0  0
 15 16  1  0  0  0  0
 15 22  1  0  0  0  0
 15 53  1  0  0  0  0
 16 17  1  0  0  0  0
 16 39  1  0  0  0  0
 16 40  1  0  0  0  0
 17 21  1  0  0  0  0
 17 18  1  0  0  0  0
 17 41  1  0  0  0  0
 18 19  1  0  0  0  0
 18 42  1  0  0  0  0
 18 43  1  0  0  0  0
 19 20  1  0  0  0  0
 19 44  1  0  0  0  0
 19 45  1  0  0  0  0
 20 21  1  0  0  0  0
 21 46  1  0  0  0  0
 21 47  1  0  0  0  0
 22 23  1  0  0  0  0
 22 48  1  0  0  0  0
 22 49  1  0  0  0  0
 23 50  1  0  0  0  0
 23 51  1  0  0  0  0
 24 52  1  0  0  0  0
M  CHG  1  15   1
M  END
> <s_m_source_file>
AV-unprocessed.smi

> <i_m_source_file_index>
2379

> <i_lp_mmshare_version>
43012

> <i_f3d_flags>
0

> <s_epik_input>
W0NIM11jMVtjSF1jKFtDSDNdKW5jKFtjSF0xKVtOSF1DKD1PKVtOSF1bQ0hdMltDSDJdW0NIMl1OKFtDSDJdW0NIMl0yKVtDSDJdW0NAQEhdM1tDSDJdW0NIMl1PW0NIMl0z

> <s_epik_cmdline>
J2VwaWtfcHl0aG9uJywgJy1waCcsICc3LjAnLCAnLXRuJywgJzgnLCAnLW1hJywgJzIwMCcsICctbWV0YWxfYmluZGluZycsICctaW1hZScsICc8aW5maWxlLm1hZT4nLCAnLW9tYWUnLCAnPG91dGZpbGUubWFlPic=

> <r_epik_Ionization_Penalty>
0.00766556

> <r_epik_Ionization_Penalty_Charging>
0.00747775

> <r_epik_Ionization_Penalty_Neutral>
0.00018781

> <r_epik_State_Penalty>
0.00558817

> <r_epik_Charging_Adjusted_Penalty>
0.0130659

> <i_epik_Tot_Q>
1

> <i_epik_Tot_abs_Q>
1

> <r_epik_Metal_State_Penalty>
-0

> <b_epik_Metal_Only>
0

> <s_lp_Force_Field>
OPLS_2005

> <r_lp_Energy>
35.6798

> <b_lp_Chiralities_Consistent>
1

> <s_lp_Variant>
AV-unprocessed.smi:2379-2

> <Gold.Version>
5.8.1

> <Gold.Id.Protein>
6NUR|6NUR_protein|mol2

> <Gold.PLP.Fitness>
48.6038

> <Gold.PLP.PLP>
-40.5585

> <Gold.PLP.part.hbond>
-3.0000

> <Gold.PLP.part.metal>
0.0000

> <Gold.PLP.part.buried>
1.2700

> <Gold.PLP.part.nonpolar>
-39.5117

> <Gold.PLP.part.repulsive>
0.3521

> <Gold.PLP.ligand.clash>
0.0076

> <Gold.PLP.ligand.torsion>
0.3196

> <Gold.PLP.Chemscore.Hbond>
2.8800

> <Gold.PLP.Chemscore.CHOScore>
0.0000

> <Gold.PLP.Chemscore.Metal>
0.0000

> <Gold.Chemscore.Hbonds>
donor molecule, donor type, donor heavy atom, donor atom, acceptor molecule, acceptor atom, score
      L1  H     8    32       P1  8028  1.00
      L1  H    11    33       P1  8028  0.93
      L1  H    15    53       P1  7957  0.91

> <Gold.PLP.Chemscore.Internal.Correction>
0.0520

> <Gold.Rescore>
     Score         DG    S(hbond)    S(metal)    S(lipo)     H(rot)  DE(clash)    DE(int)     intcor
     21.32     -25.52       2.72        0.00     123.69       1.37       2.36       1.84       ----

> <Gold.Chemscore.Fitness>
21.3218

> <Gold.Chemscore.DG>
-25.5227

> <Gold.Chemscore.ZeroCoef>
-5.4800

> <Gold.Chemscore.Hbond>
2.7199

> <Gold.Chemscore.Metal>
0.0000

> <Gold.Chemscore.Lipo>
123.6910

> <Gold.Chemscore.Internal_Hbond>
0.0000

> <Gold.Chemscore.DEClash>
2.3612

> <Gold.Chemscore.DEInternal>
1.8397

> <Gold.Chemscore.Rot>
1.3725

> <Gold.Chemscore.Internal.Correction>
   9.000000E+99

> <Gold.Chemscore.Hbonds>
donor molecule, donor type, donor heavy atom, donor atom, acceptor molecule, acceptor atom, score
      L1  H     8    32       P1  8028  0.98
      L1  H    11    33       P1  8028  0.89
      L1  H    15    53       P1  7957  0.89

> <Gold.Chemscore.Hbond.Weighted>
-9.0844

> <Gold.Chemscore.Metal.Weighted>
-0.0000

> <Gold.Chemscore.Lipo.Weighted>
-14.4719

> <Gold.Chemscore.Internal_Hbond.Weighted>
0.0000

> <Gold.Chemscore.DEClash.Weighted>
2.3612

> <Gold.Chemscore.DEInternal.Weighted>
1.8397

> <Gold.Chemscore.Rot.Weighted>
3.5136

> <Gold.Chemscore.Internal.Correction.Weighted>
   9.000000E+99

> <Gold.Protein.RotatedTorsions>
[ 6907 6896 6895 6894 ] final  110.45 input  -60.11 | X-H torsion
[ 7974 7965 7964 7962 ] final  -19.11 input  175.53 | X-H torsion
[ 8008 7997 7996 7995 ] final -156.92 input   59.86 | X-H torsion
[ 10167 10162 10161 10158 ] final  114.15 input  -65.29 | X-H torsion
[ 10718 10713 10712 10709 ] final  -56.68 input   66.30 | X-H torsion
[ 10763 10752 10751 10750 ] final  -52.08 input  -60.55 | X-H torsion
[ 11005 11000 10999 10996 ] final -130.77 input  -57.11 | X-H torsion

> <Gold.Protein.ActiveResidues>
 VAL166  LYS551  ARG553  GLY616  TRP617  ASP618  TYR619  PRO620  LYS621  CYS622 
 ASP623  PHE694  ASN695  SER759  ASP760  ASP761  ALA762  ILE779  LEU786  VAL792 
 PHE793  MET794  SER795  GLU796  ALA797  LYS798  CYS799  TRP800  GLU811  SER814 

> <Gold.Protein.RotatedAtoms>
  152.5019  133.8798  159.7340 H   0  0  0  0  0  0  0  0  0  0  0  0  # atno 6907 bound_to 6896
  150.9263  133.6810  159.2827 H   0  0  0  0  0  0  0  0  0  0  0  0  # atno 6908 bound_to 6896
  151.4170  135.0997  159.9655 H   0  0  0  0  0  0  0  0  0  0  0  0  # atno 6909 bound_to 6896
  146.1858  140.4015  142.8477 H   0  0  0  0  0  0  0  0  0  0  0  0  # atno 7974 bound_to 7965
  155.7246  140.0794  157.2316 H   0  0  0  0  0  0  0  0  0  0  0  0  # atno 8008 bound_to 7997
  154.4040  140.1606  156.2495 H   0  0  0  0  0  0  0  0  0  0  0  0  # atno 8009 bound_to 7997
  155.9165  140.3400  155.6142 H   0  0  0  0  0  0  0  0  0  0  0  0  # atno 8010 bound_to 7997
  139.6409  144.7123  151.2239 H   0  0  0  0  0  0  0  0  0  0  0  0  # atno 10167 bound_to 10162
  156.1270  130.4162  150.0337 H   0  0  0  0  0  0  0  0  0  0  0  0  # atno 10718 bound_to 10713
  154.1370  135.6511  153.4934 H   0  0  0  0  0  0  0  0  0  0  0  0  # atno 10763 bound_to 10752
  153.0177  135.5306  154.6943 H   0  0  0  0  0  0  0  0  0  0  0  0  # atno 10764 bound_to 10752
  154.6194  135.2963  155.0314 H   0  0  0  0  0  0  0  0  0  0  0  0  # atno 10765 bound_to 10752
  140.9317  134.1311  157.4229 H   0  0  0  0  0  0  0  0  0  0  0  0  # atno 11005 bound_to 11000
  144.8395  140.6835  143.6238 LP  0  0  0  0  0  0  0  0  0  0  0  0  # atno 17320 bound_to 7965
  145.3942  139.1610  143.4212 LP  0  0  0  0  0  0  0  0  0  0  0  0  # atno 17321 bound_to 7965
  140.7490  143.6313  150.8420 LP  0  0  0  0  0  0  0  0  0  0  0  0  # atno 17342 bound_to 10162
  139.9951  143.5805  152.2896 LP  0  0  0  0  0  0  0  0  0  0  0  0  # atno 17343 bound_to 10162
  156.8260  130.9375  151.3639 LP  0  0  0  0  0  0  0  0  0  0  0  0  # atno 17370 bound_to 10713
  157.6451  130.8837  149.9522 LP  0  0  0  0  0  0  0  0  0  0  0  0  # atno 17371 bound_to 10713
  139.8798  135.0007  156.6026 LP  0  0  0  0  0  0  0  0  0  0  0  0  # atno 17394 bound_to 11000
  140.7854  133.8626  155.8602 LP  0  0  0  0  0  0  0  0  0  0  0  0  # atno 17395 bound_to 11000

$$$$
