AV-unprocessed.smi:257|AV-procd|sdf|1963|dock9
  -GOLD-   2262021113D 1   1.00000     0.00000
 Structure written by MMmdl.
 50 53  0  0  0  0  0  0  0  0  1 V2000
  148.2390  132.8045  153.7303 C   0  0  0  0  0  0  0  0  0  0  0  0
  146.9373  133.4104  153.4981 N   0  0  0  0  0  0  0  0  0  0  0  0
  146.0859  133.0250  152.5370 C   0  0  0  0  0  0  0  0  0  0  0  0
  146.3266  132.1015  151.7576 O   0  0  0  0  0  0  0  0  0  0  0  0
  144.7588  133.8015  152.4577 C   0  0  2  0  0  0  0  0  0  0  0  0
  143.9280  133.3801  151.2329 C   0  0  0  0  0  0  0  0  0  0  0  0
  144.3650  134.3384  150.1265 C   0  0  0  0  0  0  0  0  0  0  0  0
  144.6298  135.6393  150.8828 C   0  0  0  0  0  0  0  0  0  0  0  0
  144.9679  135.2340  152.2437 N   0  0  0  0  0  0  0  0  0  0  0  0
  145.3110  136.1328  153.2083 C   0  0  0  0  0  0  0  0  0  0  0  0
  144.9469  135.8552  154.4888 N   0  0  0  0  0  0  0  0  0  0  0  0
  145.2468  136.6929  155.4838 C   0  0  0  0  0  0  0  0  0  0  0  0
  145.9001  137.8526  155.4263 N   0  0  0  0  0  0  0  0  0  0  0  0
  146.2760  138.1443  154.1493 C   0  0  0  0  0  0  0  0  0  0  0  0
  146.0257  137.3513  152.9902 C   0  0  0  0  0  0  0  0  0  0  0  0
  146.5643  137.9882  151.8764 N   0  0  0  0  0  0  0  0  0  0  0  0
  147.0940  139.0831  152.3456 C   0  0  0  0  0  0  0  0  0  0  0  0
  146.9757  139.2529  153.7048 N   0  0  0  0  0  0  0  0  0  0  0  0
  147.4727  140.3753  154.4877 C   0  0  0  0  0  0  0  0  0  0  0  0
  149.0170  140.5398  154.4525 C   0  0  0  0  0  0  0  0  0  0  0  0
  149.3600  141.0849  153.1914 O   0  0  0  0  0  0  0  0  0  0  0  0
  149.5108  141.5296  155.5266 C   0  0  0  0  0  0  0  0  0  0  0  0
  149.4803  140.9040  156.9332 C   0  0  0  0  0  0  0  0  0  0  0  0
  150.2456  139.7039  156.9494 O   0  0  0  0  0  0  0  0  0  0  0  0
  149.7397  138.7080  156.0673 C   0  0  0  0  0  0  0  0  0  0  0  0
  149.7952  139.2162  154.6155 C   0  0  0  0  0  0  0  0  0  0  0  0
  148.7271  133.2860  154.5774 H   0  0  0  0  0  0  0  0  0  0  0  0
  148.8809  132.9197  152.8558 H   0  0  0  0  0  0  0  0  0  0  0  0
  148.1392  131.7411  153.9518 H   0  0  0  0  0  0  0  0  0  0  0  0
  146.6687  134.1759  154.0994 H   0  0  0  0  0  0  0  0  0  0  0  0
  144.1694  133.6255  153.3581 H   0  0  0  0  0  0  0  0  0  0  0  0
  144.0601  132.3337  150.9537 H   0  0  0  0  0  0  0  0  0  0  0  0
  142.8680  133.5278  151.4444 H   0  0  0  0  0  0  0  0  0  0  0  0
  145.2885  133.9786  149.6706 H   0  0  0  0  0  0  0  0  0  0  0  0
  143.6208  134.4497  149.3376 H   0  0  0  0  0  0  0  0  0  0  0  0
  145.4323  136.2100  150.4138 H   0  0  0  0  0  0  0  0  0  0  0  0
  143.7325  136.2592  150.9052 H   0  0  0  0  0  0  0  0  0  0  0  0
  144.9155  136.3903  156.4661 H   0  0  0  0  0  0  0  0  0  0  0  0
  147.5936  139.7995  151.7097 H   0  0  0  0  0  0  0  0  0  0  0  0
  146.9918  141.2810  154.1155 H   0  0  0  0  0  0  0  0  0  0  0  0
  147.1192  140.2528  155.5111 H   0  0  0  0  0  0  0  0  0  0  0  0
  149.2499  140.4144  152.5344 H   0  0  0  0  0  0  0  0  0  0  0  0
  150.5385  141.8252  155.3093 H   0  0  0  0  0  0  0  0  0  0  0  0
  148.9194  142.4459  155.5074 H   0  0  0  0  0  0  0  0  0  0  0  0
  149.9067  141.5985  157.6571 H   0  0  0  0  0  0  0  0  0  0  0  0
  148.4589  140.7033  157.2580 H   0  0  0  0  0  0  0  0  0  0  0  0
  150.3472  137.8089  156.1697 H   0  0  0  0  0  0  0  0  0  0  0  0
  148.7248  138.4358  156.3569 H   0  0  0  0  0  0  0  0  0  0  0  0
  149.4307  138.4512  153.9300 H   0  0  0  0  0  0  0  0  0  0  0  0
  150.8426  139.3747  154.3538 H   0  0  0  0  0  0  0  0  0  0  0  0
  1  2  1  0  0  0  0
  1 27  1  0  0  0  0
  1 28  1  0  0  0  0
  1 29  1  0  0  0  0
  2  3  1  0  0  0  0
  2 30  1  0  0  0  0
  3  4  2  0  0  0  0
  3  5  1  0  0  0  0
  5  9  1  0  0  0  0
  5  6  1  0  0  0  0
  5 31  1  0  0  0  0
  6  7  1  0  0  0  0
  6 32  1  0  0  0  0
  6 33  1  0  0  0  0
  7  8  1  0  0  0  0
  7 34  1  0  0  0  0
  7 35  1  0  0  0  0
  8  9  1  0  0  0  0
  8 36  1  0  0  0  0
  8 37  1  0  0  0  0
  9 10  1  0  0  0  0
 10 15  1  0  0  0  0
 10 11  2  0  0  0  0
 11 12  1  0  0  0  0
 12 13  2  0  0  0  0
 12 38  1  0  0  0  0
 13 14  1  0  0  0  0
 14 18  1  0  0  0  0
 14 15  2  0  0  0  0
 15 16  1  0  0  0  0
 16 17  2  0  0  0  0
 17 18  1  0  0  0  0
 17 39  1  0  0  0  0
 18 19  1  0  0  0  0
 19 20  1  0  0  0  0
 19 40  1  0  0  0  0
 19 41  1  0  0  0  0
 20 26  1  0  0  0  0
 20 21  1  0  0  0  0
 20 22  1  0  0  0  0
 21 42  1  0  0  0  0
 22 23  1  0  0  0  0
 22 43  1  0  0  0  0
 22 44  1  0  0  0  0
 23 24  1  0  0  0  0
 23 45  1  0  0  0  0
 23 46  1  0  0  0  0
 24 25  1  0  0  0  0
 25 26  1  0  0  0  0
 25 47  1  0  0  0  0
 25 48  1  0  0  0  0
 26 49  1  0  0  0  0
 26 50  1  0  0  0  0
M  END
> <s_m_source_file>
AV-unprocessed.smi

> <i_m_source_file_index>
257

> <i_lp_mmshare_version>
43012

> <i_f3d_flags>
0

> <s_epik_input>
W0NIM11bTkhdQyg9TylbQ0BASF0xW0NIMl1bQ0gyXVtDSDJdTjFjKG5bY0hdbjIpYyhjMjMpbltjSF1uM1tDSDJdQzQoW09IXSlbQ0gyXVtDSDJdT1tDSDJdW0NIMl00

> <s_epik_cmdline>
J2VwaWtfcHl0aG9uJywgJy1waCcsICc3LjAnLCAnLXRuJywgJzgnLCAnLW1hJywgJzIwMCcsICctbWV0YWxfYmluZGluZycsICctaW1hZScsICc8aW5maWxlLm1hZT4nLCAnLW9tYWUnLCAnPG91dGZpbGUubWFlPic=

> <r_lp_tautomer_probability>
1

> <r_epik_Ionization_Penalty>
0.000951012

> <r_epik_Ionization_Penalty_Charging>
0

> <r_epik_Ionization_Penalty_Neutral>
0.000951012

> <r_epik_State_Penalty>
0.000495984

> <r_epik_Charging_Adjusted_Penalty>
0.000495984

> <i_epik_Tot_Q>
0

> <i_epik_Tot_abs_Q>
0

> <r_epik_Metal_State_Penalty>
-0

> <b_epik_Metal_Only>
0

> <s_lp_Force_Field>
OPLS_2005

> <r_lp_Energy>
35.0404

> <b_lp_Chiralities_Consistent>
1

> <s_lp_Variant>
AV-unprocessed.smi:257-1

> <Gold.Version>
5.8.1

> <Gold.Id.Protein>
6NUR|6NUR_protein|mol2

> <Gold.PLP.Fitness>
40.3890

> <Gold.PLP.PLP>
-33.1448

> <Gold.PLP.part.hbond>
-2.3806

> <Gold.PLP.part.metal>
0.0000

> <Gold.PLP.part.buried>
-3.7726

> <Gold.PLP.part.nonpolar>
-28.8364

> <Gold.PLP.part.repulsive>
1.3409

> <Gold.PLP.ligand.clash>
0.0000

> <Gold.PLP.ligand.torsion>
0.5823

> <Gold.PLP.Chemscore.Hbond>
1.9050

> <Gold.PLP.Chemscore.CHOScore>
0.8789

> <Gold.PLP.Chemscore.Metal>
0.0000

> <Gold.Chemscore.Hbonds>
donor molecule, donor type, donor heavy atom, donor atom, acceptor molecule, acceptor atom, score
      L1  H    21    42       P1  7957  0.73
      P1  H  7989  7998       L1    21  0.04
      P1  H  8011  8017       L1    21  1.00
      L1  C    17    39       P1  7957  1.00

> <Gold.PLP.Chemscore.Internal.Correction>
0.0570

> <Gold.Rescore>
     Score         DG    S(hbond)    S(metal)    S(lipo)     H(rot)  DE(clash)    DE(int)     intcor
     11.10     -11.97       1.27        0.00      69.42       2.29       0.21       0.65       ----

> <Gold.Chemscore.Fitness>
11.1004

> <Gold.Chemscore.DG>
-11.9679

> <Gold.Chemscore.ZeroCoef>
-5.4800

> <Gold.Chemscore.Hbond>
1.2650

> <Gold.Chemscore.Metal>
0.0000

> <Gold.Chemscore.Lipo>
69.4226

> <Gold.Chemscore.Internal_Hbond>
0.0000

> <Gold.Chemscore.DEClash>
0.2143

> <Gold.Chemscore.DEInternal>
0.6532

> <Gold.Chemscore.Rot>
2.2889

> <Gold.Chemscore.Internal.Correction>
   9.000000E+99

> <Gold.Chemscore.Hbonds>
donor molecule, donor type, donor heavy atom, donor atom, acceptor molecule, acceptor atom, score
      L1  H    21    42       P1  7957  0.70
      P1  H  8011  8017       L1    21  0.39

> <Gold.Chemscore.Hbond.Weighted>
-4.2251

> <Gold.Chemscore.Metal.Weighted>
-0.0000

> <Gold.Chemscore.Lipo.Weighted>
-8.1224

> <Gold.Chemscore.Internal_Hbond.Weighted>
0.0000

> <Gold.Chemscore.DEClash.Weighted>
0.2143

> <Gold.Chemscore.DEInternal.Weighted>
0.6532

> <Gold.Chemscore.Rot.Weighted>
5.8596

> <Gold.Chemscore.Internal.Correction.Weighted>
   9.000000E+99

> <Gold.Protein.RotatedTorsions>
[ 6907 6896 6895 6894 ] final   12.77 input  -60.11 | X-H torsion
[ 7974 7965 7964 7962 ] final  107.48 input  175.53 | X-H torsion
[ 8008 7997 7996 7995 ] final  122.74 input   59.86 | X-H torsion
[ 10167 10162 10161 10158 ] final   74.02 input  -65.29 | X-H torsion
[ 10718 10713 10712 10709 ] final  -90.50 input   66.30 | X-H torsion
[ 10763 10752 10751 10750 ] final   69.73 input  -60.55 | X-H torsion
[ 11005 11000 10999 10996 ] final  -35.36 input  -57.11 | X-H torsion

> <Gold.Protein.ActiveResidues>
 VAL166  LYS551  ARG553  GLY616  TRP617  ASP618  TYR619  PRO620  LYS621  CYS622 
 ASP623  PHE694  ASN695  SER759  ASP760  ASP761  ALA762  ILE779  LEU786  VAL792 
 PHE793  MET794  SER795  GLU796  ALA797  LYS798  CYS799  TRP800  GLU811  SER814 

> <Gold.Protein.RotatedAtoms>
  151.7757  135.0775  160.0366 H   0  0  0  0  0  0  0  0  0  0  0  0  # atno 6907 bound_to 6896
  152.3258  133.5899  159.5784 H   0  0  0  0  0  0  0  0  0  0  0  0  # atno 6908 bound_to 6896
  150.7394  133.9859  159.3633 H   0  0  0  0  0  0  0  0  0  0  0  0  # atno 6909 bound_to 6896
  145.2931  139.2594  143.3854 H   0  0  0  0  0  0  0  0  0  0  0  0  # atno 7974 bound_to 7965
  156.2739  140.2779  156.1515 H   0  0  0  0  0  0  0  0  0  0  0  0  # atno 8008 bound_to 7997
  155.0848  140.0388  157.2668 H   0  0  0  0  0  0  0  0  0  0  0  0  # atno 8009 bound_to 7997
  154.6936  140.2634  155.6794 H   0  0  0  0  0  0  0  0  0  0  0  0  # atno 8010 bound_to 7997
  140.0182  144.5561  150.7603 H   0  0  0  0  0  0  0  0  0  0  0  0  # atno 10167 bound_to 10162
  155.9988  130.4912  150.5333 H   0  0  0  0  0  0  0  0  0  0  0  0  # atno 10718 bound_to 10713
  153.0303  135.5200  154.7333 H   0  0  0  0  0  0  0  0  0  0  0  0  # atno 10763 bound_to 10752
  154.6354  135.2905  155.0169 H   0  0  0  0  0  0  0  0  0  0  0  0  # atno 10764 bound_to 10752
  154.1106  135.6622  153.4937 H   0  0  0  0  0  0  0  0  0  0  0  0  # atno 10765 bound_to 10752
  140.9790  133.7067  156.1651 H   0  0  0  0  0  0  0  0  0  0  0  0  # atno 11005 bound_to 11000
  146.3178  140.3427  142.8649 LP  0  0  0  0  0  0  0  0  0  0  0  0  # atno 17320 bound_to 7965
  144.9156  140.7808  143.5780 LP  0  0  0  0  0  0  0  0  0  0  0  0  # atno 17321 bound_to 7965
  140.7353  143.2740  151.3800 LP  0  0  0  0  0  0  0  0  0  0  0  0  # atno 17342 bound_to 10162
  139.6158  144.1006  152.2344 LP  0  0  0  0  0  0  0  0  0  0  0  0  # atno 17343 bound_to 10162
  157.3279  131.0694  151.1883 LP  0  0  0  0  0  0  0  0  0  0  0  0  # atno 17370 bound_to 10713
  157.2774  130.6733  149.6049 LP  0  0  0  0  0  0  0  0  0  0  0  0  # atno 17371 bound_to 10713
  140.7215  134.4353  157.5574 LP  0  0  0  0  0  0  0  0  0  0  0  0  # atno 17394 bound_to 11000
  139.8942  134.8712  156.2187 LP  0  0  0  0  0  0  0  0  0  0  0  0  # atno 17395 bound_to 11000

$$$$
