AV-unprocessed.smi:976|AV-procd|sdf|4302|dock10
  -GOLD-   22720 2213D 1   1.00000     0.00000
 Structure written by MMmdl.
 41 42  0  0  0  0  0  0  0  0  1 V2000
  148.5874  135.6247  159.0735 C   0  0  0  0  0  0  0  0  0  0  0  0
  148.4585  137.1353  159.3196 C   0  0  2  0  0  0  0  0  0  0  0  0
  147.8369  137.3118  160.5904 O   0  0  0  0  0  0  0  0  0  0  0  0
  146.6428  136.5641  160.8003 C   0  0  0  0  0  0  0  0  0  0  0  0
  146.4721  136.2891  162.2991 C   0  0  0  0  0  0  0  0  0  0  0  0
  147.3450  135.3555  162.6757 F   0  0  0  0  0  0  0  0  0  0  0  0
  146.7030  137.3981  163.0012 F   0  0  0  0  0  0  0  0  0  0  0  0
  145.2396  135.8482  162.5495 F   0  0  0  0  0  0  0  0  0  0  0  0
  147.6277  137.8134  158.2180 C   0  0  0  0  0  0  0  0  0  0  0  0
  146.5202  138.2794  158.4854 O   0  0  0  0  0  0  0  0  0  0  0  0
  148.1935  137.8458  156.9980 N   0  0  0  0  0  0  0  0  0  0  0  0
  147.6677  138.3973  155.7952 C   0  0  0  0  0  0  0  0  0  0  0  0
  146.2938  138.3158  155.4624 C   0  0  0  0  0  0  0  0  0  0  0  0
  145.8356  138.9272  154.2818 C   0  0  0  0  0  0  0  0  0  0  0  0
  146.7662  139.6095  153.4790 C   0  0  0  0  0  0  0  0  0  0  0  0
  148.0747  139.7091  153.7891 N   0  0  0  0  0  0  0  0  0  0  0  0
  148.5265  139.1204  154.9235 C   0  0  0  0  0  0  0  0  0  0  0  0
  149.9033  139.2265  155.2053 N   0  0  0  0  0  0  0  0  0  0  0  0
  150.7536  138.5964  154.2021 C   0  0  0  0  0  0  0  0  0  0  0  0
  152.2026  138.5250  154.7125 C   0  0  0  0  0  0  0  0  0  0  0  0
  152.6518  139.8300  155.0669 O   0  0  0  0  0  0  0  0  0  0  0  0
  151.8592  140.4096  156.0996 C   0  0  0  0  0  0  0  0  0  0  0  0
  150.4016  140.5332  155.6235 C   0  0  0  0  0  0  0  0  0  0  0  0
  149.0472  135.4184  158.1063 H   0  0  0  0  0  0  0  0  0  0  0  0
  147.6159  135.1293  159.0962 H   0  0  0  0  0  0  0  0  0  0  0  0
  149.2097  135.1610  159.8391 H   0  0  0  0  0  0  0  0  0  0  0  0
  149.4626  137.5635  159.3450 H   0  0  0  0  0  0  0  0  0  0  0  0
  145.7835  137.1235  160.4280 H   0  0  0  0  0  0  0  0  0  0  0  0
  146.6736  135.6171  160.2603 H   0  0  0  0  0  0  0  0  0  0  0  0
  149.0612  137.3390  156.8979 H   0  0  0  0  0  0  0  0  0  0  0  0
  145.5827  137.8141  156.1005 H   0  0  0  0  0  0  0  0  0  0  0  0
  144.7932  138.8813  154.0035 H   0  0  0  0  0  0  0  0  0  0  0  0
  146.4512  140.0936  152.5666 H   0  0  0  0  0  0  0  0  0  0  0  0
  150.3965  137.5957  153.9591 H   0  0  0  0  0  0  0  0  0  0  0  0
  150.7108  139.1805  153.2818 H   0  0  0  0  0  0  0  0  0  0  0  0
  152.2785  137.8563  155.5716 H   0  0  0  0  0  0  0  0  0  0  0  0
  152.8545  138.1232  153.9370 H   0  0  0  0  0  0  0  0  0  0  0  0
  151.9232  139.8044  157.0054 H   0  0  0  0  0  0  0  0  0  0  0  0
  152.2596  141.3934  156.3447 H   0  0  0  0  0  0  0  0  0  0  0  0
  150.3463  141.2335  154.7888 H   0  0  0  0  0  0  0  0  0  0  0  0
  149.7780  140.9303  156.4254 H   0  0  0  0  0  0  0  0  0  0  0  0
  1  2  1  0  0  0  0
  1 24  1  0  0  0  0
  1 25  1  0  0  0  0
  1 26  1  0  0  0  0
  2  3  1  0  0  0  0
  2  9  1  0  0  0  0
  2 27  1  0  0  0  0
  3  4  1  0  0  0  0
  4  5  1  0  0  0  0
  4 28  1  0  0  0  0
  4 29  1  0  0  0  0
  5  6  1  0  0  0  0
  5  7  1  0  0  0  0
  5  8  1  0  0  0  0
  9 10  2  0  0  0  0
  9 11  1  0  0  0  0
 11 12  1  0  0  0  0
 11 30  1  0  0  0  0
 12 17  1  0  0  0  0
 12 13  2  0  0  0  0
 13 14  1  0  0  0  0
 13 31  1  0  0  0  0
 14 15  2  0  0  0  0
 14 32  1  0  0  0  0
 15 16  1  0  0  0  0
 15 33  1  0  0  0  0
 16 17  2  0  0  0  0
 17 18  1  0  0  0  0
 18 23  1  0  0  0  0
 18 19  1  0  0  0  0
 19 20  1  0  0  0  0
 19 34  1  0  0  0  0
 19 35  1  0  0  0  0
 20 21  1  0  0  0  0
 20 36  1  0  0  0  0
 20 37  1  0  0  0  0
 21 22  1  0  0  0  0
 22 23  1  0  0  0  0
 22 38  1  0  0  0  0
 22 39  1  0  0  0  0
 23 40  1  0  0  0  0
 23 41  1  0  0  0  0
M  END
> <s_m_source_file>
AV-unprocessed.smi

> <i_m_source_file_index>
976

> <i_lp_mmshare_version>
43012

> <i_f3d_flags>
0

> <s_epik_input>
RkMoRikoRilbQ0gyXU9bQ0BASF0oW0NIM10pQyg9TylbTkhdYzFbY0hdW2NIXVtjSF1uYzFOMltDSDJdW0NIMl1PW0NIMl1bQ0gyXTI=

> <s_epik_cmdline>
J2VwaWtfcHl0aG9uJywgJy1waCcsICc3LjAnLCAnLXRuJywgJzgnLCAnLW1hJywgJzIwMCcsICctbWV0YWxfYmluZGluZycsICctaW1hZScsICc8aW5maWxlLm1hZT4nLCAnLW9tYWUnLCAnPG91dGZpbGUubWFlPic=

> <r_lp_tautomer_probability>
1

> <r_epik_Ionization_Penalty>
0.000443367

> <r_epik_Ionization_Penalty_Charging>
0

> <r_epik_Ionization_Penalty_Neutral>
0.000443367

> <r_epik_State_Penalty>
0.00027288

> <r_epik_Charging_Adjusted_Penalty>
0.00027288

> <i_epik_Tot_Q>
0

> <i_epik_Tot_abs_Q>
0

> <r_epik_Metal_State_Penalty>
-0

> <b_epik_Metal_Only>
0

> <s_lp_Force_Field>
OPLS_2005

> <r_lp_Energy>
26.1193

> <b_lp_Chiralities_Consistent>
1

> <s_lp_Variant>
AV-unprocessed.smi:976-1

> <Gold.Version>
5.8.1

> <Gold.Id.Protein>
6NUR|6NUR_protein|mol2

> <Gold.PLP.Fitness>
41.6735

> <Gold.PLP.PLP>
-33.9680

> <Gold.PLP.part.hbond>
-4.2526

> <Gold.PLP.part.metal>
0.0000

> <Gold.PLP.part.buried>
-5.6976

> <Gold.PLP.part.nonpolar>
-25.4037

> <Gold.PLP.part.repulsive>
0.6660

> <Gold.PLP.ligand.clash>
0.0000

> <Gold.PLP.ligand.torsion>
0.9002

> <Gold.PLP.Chemscore.Hbond>
2.8404

> <Gold.PLP.Chemscore.CHOScore>
0.2431

> <Gold.PLP.Chemscore.Metal>
0.0000

> <Gold.Chemscore.Hbonds>
donor molecule, donor type, donor heavy atom, donor atom, acceptor molecule, acceptor atom, score
      P1  H  6931  6943       L1     3  0.74
      P1  H  6934  6947       L1     3  0.82
      P1  H  7989  7998       L1    21  0.28
      P1  H  7997  8010       L1    21  0.95
      L1  C    15    33       P1 10175  0.23

> <Gold.PLP.Chemscore.Internal.Correction>
0.2555

> <Gold.Rescore>
     Score         DG    S(hbond)    S(metal)    S(lipo)     H(rot)  DE(clash)    DE(int)     intcor
     10.02     -13.03       1.74        0.00      57.41       1.95       0.09       2.91       ----

> <Gold.Chemscore.Fitness>
10.0231

> <Gold.Chemscore.DG>
-13.0254

> <Gold.Chemscore.ZeroCoef>
-5.4800

> <Gold.Chemscore.Hbond>
1.7421

> <Gold.Chemscore.Metal>
0.0000

> <Gold.Chemscore.Lipo>
57.4054

> <Gold.Chemscore.Internal_Hbond>
0.0000

> <Gold.Chemscore.DEClash>
0.0913

> <Gold.Chemscore.DEInternal>
2.9110

> <Gold.Chemscore.Rot>
1.9491

> <Gold.Chemscore.Internal.Correction>
   9.000000E+99

> <Gold.Chemscore.Hbonds>
donor molecule, donor type, donor heavy atom, donor atom, acceptor molecule, acceptor atom, score
      P1  H  6931  6943       L1     3  0.57
      P1  H  6934  6947       L1     3  0.19
      P1  H  7989  7998       L1    21  0.01
      P1  H  7997  8010       L1    21  0.20

> <Gold.Chemscore.Hbond.Weighted>
-5.8187

> <Gold.Chemscore.Metal.Weighted>
-0.0000

> <Gold.Chemscore.Lipo.Weighted>
-6.7164

> <Gold.Chemscore.Internal_Hbond.Weighted>
0.0000

> <Gold.Chemscore.DEClash.Weighted>
0.0913

> <Gold.Chemscore.DEInternal.Weighted>
2.9110

> <Gold.Chemscore.Rot.Weighted>
4.9897

> <Gold.Chemscore.Internal.Correction.Weighted>
   9.000000E+99

> <Gold.Protein.RotatedTorsions>
[ 6907 6896 6895 6894 ] final  113.46 input  -60.11 | X-H torsion
[ 7974 7965 7964 7962 ] final  158.47 input  175.53 | X-H torsion
[ 8008 7997 7996 7995 ] final  109.96 input   59.86 | X-H torsion
[ 10167 10162 10161 10158 ] final -100.74 input  -65.29 | X-H torsion
[ 10718 10713 10712 10709 ] final  114.81 input   66.30 | X-H torsion
[ 10763 10752 10751 10750 ] final  -87.90 input  -60.55 | X-H torsion
[ 11005 11000 10999 10996 ] final   75.41 input  -57.11 | X-H torsion

> <Gold.Protein.ActiveResidues>
 VAL166  LYS551  ARG553  GLY616  TRP617  ASP618  TYR619  PRO620  LYS621  CYS622 
 ASP623  PHE694  ASN695  SER759  ASP760  ASP761  ALA762  ILE779  LEU786  VAL792 
 PHE793  MET794  SER795  GLU796  ALA797  LYS798  CYS799  TRP800  GLU811  SER814 

> <Gold.Protein.RotatedAtoms>
  152.4859  133.8373  159.7133 H   0  0  0  0  0  0  0  0  0  0  0  0  # atno 6907 bound_to 6896
  150.8946  133.7189  159.2902 H   0  0  0  0  0  0  0  0  0  0  0  0  # atno 6908 bound_to 6896
  151.4650  135.1045  159.9788 H   0  0  0  0  0  0  0  0  0  0  0  0  # atno 6909 bound_to 6896
  144.7844  139.7483  143.6247 H   0  0  0  0  0  0  0  0  0  0  0  0  # atno 7974 bound_to 7965
  156.2018  140.3048  155.9542 H   0  0  0  0  0  0  0  0  0  0  0  0  # atno 8008 bound_to 7997
  155.2936  140.0443  157.3042 H   0  0  0  0  0  0  0  0  0  0  0  0  # atno 8009 bound_to 7997
  154.5580  140.2312  155.8388 H   0  0  0  0  0  0  0  0  0  0  0  0  # atno 8010 bound_to 7997
  140.2487  143.3487  152.0735 H   0  0  0  0  0  0  0  0  0  0  0  0  # atno 10167 bound_to 10162
  157.6259  131.1004  150.7239 H   0  0  0  0  0  0  0  0  0  0  0  0  # atno 10718 bound_to 10713
  154.6387  135.5396  153.7764 H   0  0  0  0  0  0  0  0  0  0  0  0  # atno 10763 bound_to 10752
  153.0322  135.6454  154.1193 H   0  0  0  0  0  0  0  0  0  0  0  0  # atno 10764 bound_to 10752
  154.1118  135.2926  155.3208 H   0  0  0  0  0  0  0  0  0  0  0  0  # atno 10765 bound_to 10752
  139.9345  134.7515  156.1267 H   0  0  0  0  0  0  0  0  0  0  0  0  # atno 11005 bound_to 11000
  146.2068  139.5398  142.9707 LP  0  0  0  0  0  0  0  0  0  0  0  0  # atno 17320 bound_to 7965
  145.5963  141.0362  143.2043 LP  0  0  0  0  0  0  0  0  0  0  0  0  # atno 17321 bound_to 7965
  139.5053  144.6792  151.6051 LP  0  0  0  0  0  0  0  0  0  0  0  0  # atno 17342 bound_to 10162
  140.6057  143.9528  150.6417 LP  0  0  0  0  0  0  0  0  0  0  0  0  # atno 17343 bound_to 10162
  156.7587  130.4792  149.5441 LP  0  0  0  0  0  0  0  0  0  0  0  0  # atno 17370 bound_to 10713
  156.1432  130.6259  151.0495 LP  0  0  0  0  0  0  0  0  0  0  0  0  # atno 17371 bound_to 10713
  141.0952  133.6698  156.2629 LP  0  0  0  0  0  0  0  0  0  0  0  0  # atno 17394 bound_to 11000
  140.6112  134.5456  157.5534 LP  0  0  0  0  0  0  0  0  0  0  0  0  # atno 17395 bound_to 11000

$$$$
