AV-unprocessed.smi:867|AV-procd|sdf|3999|dock10
  -GOLD-   22720 1483D 1   1.00000     0.00000
 Structure written by MMmdl.
 54 57  0  0  0  0  0  0  0  0  3 V2000
  151.9101  139.9481  156.5594 O   0  0  0  0  0  0  0  0  0  0  0  0
  150.9140  140.0165  155.8382 C   0  0  0  0  0  0  0  0  0  0  0  0
  149.9666  140.9535  156.0129 N   0  0  0  0  0  0  0  0  0  0  0  0
  149.9941  141.9919  157.0365 C   0  0  0  0  0  0  0  0  0  0  0  0
  151.2882  142.8188  156.9678 C   0  0  0  0  0  0  0  0  0  0  0  0
  151.6120  143.4800  158.2933 C   0  0  0  0  0  0  0  0  0  0  0  0
  152.4749  142.8492  159.2169 C   0  0  0  0  0  0  0  0  0  0  0  0
  152.7571  143.4838  160.4445 C   0  0  0  0  0  0  0  0  0  0  0  0
  152.1690  144.7349  160.7216 C   0  0  0  0  0  0  0  0  0  0  0  0
  151.3467  145.3071  159.8146 N   0  3  0  0  0  0  0  0  0  0  0  0
  151.0521  144.7324  158.6276 C   0  0  0  0  0  0  0  0  0  0  0  0
  150.6415  139.1137  154.8641 N   0  0  0  0  0  0  0  0  0  0  0  0
  151.5327  138.0388  154.4124 C   0  0  0  0  0  0  0  0  0  0  0  0
  151.0249  136.6870  154.9536 C   0  0  0  0  0  0  0  0  0  0  0  0
  149.5983  136.4321  154.5937 N   0  3  0  0  0  0  0  0  0  0  0  0
  149.0393  135.1559  155.1382 C   0  0  1  0  0  0  0  0  0  0  0  0
  147.7362  134.7374  154.4052 C   0  0  0  0  0  0  0  0  0  0  0  0
  148.0191  133.2959  153.9515 C   0  0  2  0  0  0  0  0  0  0  0  0
  148.0607  132.3692  155.1775 C   0  0  0  0  0  0  0  0  0  0  0  0
  149.3883  132.7642  155.8467 C   0  0  0  0  0  0  0  0  0  0  0  0
  149.9178  133.8884  154.9333 C   0  0  1  0  0  0  0  0  0  0  0  0
  149.4879  133.3859  153.5598 C   0  0  0  0  0  0  0  0  0  0  0  0
  148.7259  137.5984  154.9210 C   0  0  0  0  0  0  0  0  0  0  0  0
  149.2869  138.9107  154.3501 C   0  0  0  0  0  0  0  0  0  0  0  0
  149.1591  140.9310  155.4071 H   0  0  0  0  0  0  0  0  0  0  0  0
  149.1296  142.6395  156.8873 H   0  0  0  0  0  0  0  0  0  0  0  0
  149.8779  141.5441  158.0252 H   0  0  0  0  0  0  0  0  0  0  0  0
  152.1281  142.1861  156.6766 H   0  0  0  0  0  0  0  0  0  0  0  0
  151.2010  143.5864  156.1975 H   0  0  0  0  0  0  0  0  0  0  0  0
  152.9151  141.8890  158.9891 H   0  0  0  0  0  0  0  0  0  0  0  0
  153.4148  143.0166  161.1630 H   0  0  0  0  0  0  0  0  0  0  0  0
  152.3293  145.2902  161.6343 H   0  0  0  0  0  0  0  0  0  0  0  0
  150.3811  145.2877  157.9881 H   0  0  0  0  0  0  0  0  0  0  0  0
  151.5403  138.0223  153.3214 H   0  0  0  0  0  0  0  0  0  0  0  0
  152.5727  138.1777  154.7077 H   0  0  0  0  0  0  0  0  0  0  0  0
  151.6704  135.9162  154.5386 H   0  0  0  0  0  0  0  0  0  0  0  0
  151.1353  136.6550  156.0387 H   0  0  0  0  0  0  0  0  0  0  0  0
  148.8528  135.3000  156.2040 H   0  0  0  0  0  0  0  0  0  0  0  0
  146.8577  134.8068  155.0478 H   0  0  0  0  0  0  0  0  0  0  0  0
  147.5490  135.3512  153.5229 H   0  0  0  0  0  0  0  0  0  0  0  0
  147.3522  132.9475  153.1622 H   0  0  0  0  0  0  0  0  0  0  0  0
  147.2022  132.5137  155.8347 H   0  0  0  0  0  0  0  0  0  0  0  0
  148.0796  131.3211  154.8750 H   0  0  0  0  0  0  0  0  0  0  0  0
  149.2549  133.0902  156.8788 H   0  0  0  0  0  0  0  0  0  0  0  0
  150.0755  131.9169  155.8545 H   0  0  0  0  0  0  0  0  0  0  0  0
  150.9904  134.0167  155.0596 H   0  0  0  0  0  0  0  0  0  0  0  0
  149.9244  132.4210  153.2951 H   0  0  0  0  0  0  0  0  0  0  0  0
  149.6815  134.0992  152.7568 H   0  0  0  0  0  0  0  0  0  0  0  0
  147.7192  137.4517  154.5317 H   0  0  0  0  0  0  0  0  0  0  0  0
  148.6302  137.6842  156.0048 H   0  0  0  0  0  0  0  0  0  0  0  0
  148.6202  139.7406  154.5905 H   0  0  0  0  0  0  0  0  0  0  0  0
  149.3166  138.8636  153.2604 H   0  0  0  0  0  0  0  0  0  0  0  0
  149.5829  136.3420  153.5878 H   0  0  0  0  0  0  0  0  0  0  0  0
  150.9306  146.2122  160.0358 H   0  0  0  0  0  0  0  0  0  0  0  0
  1  2  2  0  0  0  0
  2  3  1  0  0  0  0
  2 12  1  0  0  0  0
  3  4  1  0  0  0  0
  3 25  1  0  0  0  0
  4  5  1  0  0  0  0
  4 26  1  0  0  0  0
  4 27  1  0  0  0  0
  5  6  1  0  0  0  0
  5 28  1  0  0  0  0
  5 29  1  0  0  0  0
  6 11  1  0  0  0  0
  6  7  2  0  0  0  0
  7  8  1  0  0  0  0
  7 30  1  0  0  0  0
  8  9  2  0  0  0  0
  8 31  1  0  0  0  0
  9 10  1  0  0  0  0
  9 32  1  0  0  0  0
 10 11  2  0  0  0  0
 10 54  1  0  0  0  0
 11 33  1  0  0  0  0
 12 24  1  0  0  0  0
 12 13  1  0  0  0  0
 13 14  1  0  0  0  0
 13 34  1  0  0  0  0
 13 35  1  0  0  0  0
 14 15  1  0  0  0  0
 14 36  1  0  0  0  0
 14 37  1  0  0  0  0
 15 16  1  0  0  0  0
 15 23  1  0  0  0  0
 15 53  1  0  0  0  0
 16 21  1  0  0  0  0
 16 17  1  0  0  0  0
 16 38  1  0  0  0  0
 17 18  1  0  0  0  0
 17 39  1  0  0  0  0
 17 40  1  0  0  0  0
 18 22  1  0  0  0  0
 18 19  1  0  0  0  0
 18 41  1  0  0  0  0
 19 20  1  0  0  0  0
 19 42  1  0  0  0  0
 19 43  1  0  0  0  0
 20 21  1  0  0  0  0
 20 44  1  0  0  0  0
 20 45  1  0  0  0  0
 21 22  1  0  0  0  0
 21 46  1  0  0  0  0
 22 47  1  0  0  0  0
 22 48  1  0  0  0  0
 23 24  1  0  0  0  0
 23 49  1  0  0  0  0
 23 50  1  0  0  0  0
 24 51  1  0  0  0  0
 24 52  1  0  0  0  0
M  CHG  1  10   1
M  CHG  1  15   1
M  END
> <s_m_source_file>
AV-unprocessed.smi

> <i_m_source_file_index>
867

> <i_lp_mmshare_version>
43012

> <i_f3d_flags>
0

> <s_epik_input>
W0NIMl0xW0NIMl1bQ0BASF0oW0NIMl0yKVtDQEBIXShbQ0gyXVtDQEhdMTIpTihbQ0gyXVtDSDJdMylbQ0gyXVtDSDJdTjNDKD1PKVtOSF1bQ0gyXVtDSDJdYzRbY0hdW2NIXVtjSF1uW2NIXTQ=

> <s_epik_cmdline>
J2VwaWtfcHl0aG9uJywgJy1waCcsICc3LjAnLCAnLXRuJywgJzgnLCAnLW1hJywgJzIwMCcsICctbWV0YWxfYmluZGluZycsICctaW1hZScsICc8aW5maWxlLm1hZT4nLCAnLW9tYWUnLCAnPG91dGZpbGUubWFlPic=

> <r_epik_Ionization_Penalty>
2.25108

> <r_epik_Ionization_Penalty_Charging>
2.25105

> <r_epik_Ionization_Penalty_Neutral>
2.64641e-05

> <r_epik_State_Penalty>
2.39519

> <r_epik_Charging_Adjusted_Penalty>
4.64625

> <i_epik_Tot_Q>
2

> <i_epik_Tot_abs_Q>
2

> <r_epik_Metal_State_Penalty>
2.40865

> <b_epik_Metal_Only>
0

> <s_lp_Force_Field>
OPLS_2005

> <r_lp_Energy>
104.459

> <b_lp_Chiralities_Consistent>
1

> <s_lp_Variant>
AV-unprocessed.smi:867-6

> <Gold.Version>
5.8.1

> <Gold.Id.Protein>
6NUR|6NUR_protein|mol2

> <Gold.PLP.Fitness>
48.9690

> <Gold.PLP.PLP>
-45.3579

> <Gold.PLP.part.hbond>
-1.0000

> <Gold.PLP.part.metal>
0.0000

> <Gold.PLP.part.buried>
-6.0805

> <Gold.PLP.part.nonpolar>
-38.1779

> <Gold.PLP.part.repulsive>
0.2916

> <Gold.PLP.ligand.clash>
1.0735

> <Gold.PLP.ligand.torsion>
0.7241

> <Gold.PLP.Chemscore.Hbond>
2.0000

> <Gold.PLP.Chemscore.CHOScore>
0.0000

> <Gold.PLP.Chemscore.Metal>
0.0000

> <Gold.Chemscore.Hbonds>
donor molecule, donor type, donor heavy atom, donor atom, acceptor molecule, acceptor atom, score
      L1  H    15    53       P1  7948  2.00

> <Gold.PLP.Chemscore.Internal.Correction>
0.1327

> <Gold.Rescore>
     Score         DG    S(hbond)    S(metal)    S(lipo)     H(rot)  DE(clash)    DE(int)     intcor
     17.97     -19.80       0.92        0.00     127.96       1.46       0.10       1.73       ----

> <Gold.Chemscore.Fitness>
17.9744

> <Gold.Chemscore.DG>
-19.8022

> <Gold.Chemscore.ZeroCoef>
-5.4800

> <Gold.Chemscore.Hbond>
0.9225

> <Gold.Chemscore.Metal>
0.0000

> <Gold.Chemscore.Lipo>
127.9635

> <Gold.Chemscore.Internal_Hbond>
0.0000

> <Gold.Chemscore.DEClash>
0.0955

> <Gold.Chemscore.DEInternal>
1.7323

> <Gold.Chemscore.Rot>
1.4572

> <Gold.Chemscore.Internal.Correction>
   9.000000E+99

> <Gold.Chemscore.Hbonds>
donor molecule, donor type, donor heavy atom, donor atom, acceptor molecule, acceptor atom, score
      L1  H    15    53       P1  7948  0.55

> <Gold.Chemscore.Hbond.Weighted>
-3.0810

> <Gold.Chemscore.Metal.Weighted>
-0.0000

> <Gold.Chemscore.Lipo.Weighted>
-14.9717

> <Gold.Chemscore.Internal_Hbond.Weighted>
0.0000

> <Gold.Chemscore.DEClash.Weighted>
0.0955

> <Gold.Chemscore.DEInternal.Weighted>
1.7323

> <Gold.Chemscore.Rot.Weighted>
3.7305

> <Gold.Chemscore.Internal.Correction.Weighted>
   9.000000E+99

> <Gold.Protein.RotatedTorsions>
[ 6907 6896 6895 6894 ] final   -0.40 input  -60.11 | X-H torsion
[ 7974 7965 7964 7962 ] final    4.13 input  175.53 | X-H torsion
[ 8008 7997 7996 7995 ] final  -80.87 input   59.86 | X-H torsion
[ 10167 10162 10161 10158 ] final  -81.05 input  -65.29 | X-H torsion
[ 10718 10713 10712 10709 ] final  -74.68 input   66.30 | X-H torsion
[ 10763 10752 10751 10750 ] final  -40.81 input  -60.55 | X-H torsion
[ 11005 11000 10999 10996 ] final -112.65 input  -57.11 | X-H torsion

> <Gold.Protein.ActiveResidues>
 VAL166  LYS551  ARG553  GLY616  TRP617  ASP618  TYR619  PRO620  LYS621  CYS622 
 ASP623  PHE694  ASN695  SER759  ASP760  ASP761  ALA762  ILE779  LEU786  VAL792 
 PHE793  MET794  SER795  GLU796  ALA797  LYS798  CYS799  TRP800  GLU811  SER814 

> <Gold.Protein.RotatedAtoms>
  151.5629  135.1065  159.9976 H   0  0  0  0  0  0  0  0  0  0  0  0  # atno 6907 bound_to 6896
  152.4438  133.7493  159.6696 H   0  0  0  0  0  0  0  0  0  0  0  0  # atno 6908 bound_to 6896
  150.8349  133.7962  159.3107 H   0  0  0  0  0  0  0  0  0  0  0  0  # atno 6909 bound_to 6896
  146.2444  140.0581  142.8370 H   0  0  0  0  0  0  0  0  0  0  0  0  # atno 7974 bound_to 7965
  154.5927  140.0656  156.9260 H   0  0  0  0  0  0  0  0  0  0  0  0  # atno 8008 bound_to 7997
  155.2268  140.3334  155.4290 H   0  0  0  0  0  0  0  0  0  0  0  0  # atno 8009 bound_to 7997
  156.2266  140.1822  156.7331 H   0  0  0  0  0  0  0  0  0  0  0  0  # atno 8010 bound_to 7997
  140.4447  143.2503  151.8575 H   0  0  0  0  0  0  0  0  0  0  0  0  # atno 10167 bound_to 10162
  156.0234  130.4422  150.2928 H   0  0  0  0  0  0  0  0  0  0  0  0  # atno 10718 bound_to 10713
  153.9520  135.6749  153.4744 H   0  0  0  0  0  0  0  0  0  0  0  0  # atno 10763 bound_to 10752
  153.0879  135.4889  154.8630 H   0  0  0  0  0  0  0  0  0  0  0  0  # atno 10764 bound_to 10752
  154.7320  135.3140  154.8835 H   0  0  0  0  0  0  0  0  0  0  0  0  # atno 10765 bound_to 10752
  141.0662  133.9455  157.2574 H   0  0  0  0  0  0  0  0  0  0  0  0  # atno 11005 bound_to 11000
  145.0925  140.9293  143.4761 LP  0  0  0  0  0  0  0  0  0  0  0  0  # atno 17320 bound_to 7965
  145.0756  139.2998  143.5809 LP  0  0  0  0  0  0  0  0  0  0  0  0  # atno 17321 bound_to 7965
  139.4792  144.5189  151.8829 LP  0  0  0  0  0  0  0  0  0  0  0  0  # atno 17342 bound_to 10162
  140.4277  144.2158  150.5887 LP  0  0  0  0  0  0  0  0  0  0  0  0  # atno 17343 bound_to 10162
  157.1032  131.0201  151.3077 LP  0  0  0  0  0  0  0  0  0  0  0  0  # atno 17370 bound_to 10713
  157.4764  130.7739  149.7371 LP  0  0  0  0  0  0  0  0  0  0  0  0  # atno 17371 bound_to 10713
  139.9479  135.0181  156.8906 LP  0  0  0  0  0  0  0  0  0  0  0  0  # atno 17394 bound_to 11000
  140.5768  134.0390  155.7450 LP  0  0  0  0  0  0  0  0  0  0  0  0  # atno 17395 bound_to 11000

$$$$
