#       Name:                AV-unprocessed.smi:49
#       Creating user name   scv26
#       Creation time:       Thu Mar 26 16:34:56 2020


#       File generated by GOLD software.
#

@<TRIPOS>MOLECULE
AV-unprocessed.smi:49
    32    33     1
SMALL
NO_CHARGES


@<TRIPOS>ATOM
      1 ****        -3.9718   1.5076   1.1831 C.3            1 S1                 0.0000
      2 ****        -3.7312   0.0118   0.9570 C.3            1 S1                 0.0000
      3 ****        -2.2621  -0.3097   0.7902 C.2            1 S1                 0.0000
      4 ****        -1.5875  -0.3005  -0.3552 N.2            1 S1                 0.0000
      5 ****        -0.3238  -0.6118  -0.0382 C.2            1 S1                 0.0000
      6 ****         0.8110  -0.6926  -1.0411 C.3            1 S1                 0.0000
      7 ****         1.5491   0.6453  -1.1940 C.3            1 S1                 0.0000
      8 ****         2.7697   0.4920  -0.2908 C.3            1 S1                 0.0000
      9 ****         3.8326   1.3343  -0.6841 O.3            1 S1                 0.0000
     10 ****         3.1161  -0.9880  -0.4449 C.3            1 S1                 0.0000
     11 ****         1.8221  -1.6774  -0.6004 N.4            1 S1                 1.0000
     12 ****        -0.1969  -0.7873   1.2871 N.2            1 S1                 0.0000
     13 ****        -1.4019  -0.5993   1.7824 N.pl3          1 S1                -1.0000
     14 ****         0.3991  -1.0064  -2.0010 H              1 S1                 0.0000
     15 ****         2.4945   0.7051   0.7433 H              1 S1                 0.0000
     16 ****        -5.0349   1.7167   1.3023 H              1 S1                 0.0000
     17 ****        -3.6077   2.0951   0.3399 H              1 S1                 0.0000
     18 ****        -3.4599   1.8556   2.0809 H              1 S1                 0.0000
     19 ****        -4.1243  -0.5605   1.7977 H              1 S1                 0.0000
     20 ****        -4.2693  -0.3228   0.0696 H              1 S1                 0.0000
     21 ****         1.8771   0.7506  -2.2297 H              1 S1                 0.0000
     22 ****         0.9347   1.5145  -0.9551 H              1 S1                 0.0000
     23 ****         3.5575   2.2332  -0.5837 H              1 S1                 0.0000
     24 ****         3.6975  -1.1526  -1.3532 H              1 S1                 0.0000
     25 ****         3.6853  -1.3803   0.3982 H              1 S1                 0.0000
     26 ****         1.5283  -2.0331   0.2987 H              1 S1                 0.0000
     27 ****         1.8970  -2.4382  -1.2597 H              1 S1                 0.0000
     28 ****        -1.9491  -0.1020  -1.2661 LP             1 S1                 0.0000
     29 ****         4.0661   1.1581  -1.6403 LP             1 S1                 0.0000
     30 ****         4.6314   1.1600  -0.1083 LP             1 S1                 0.0000
     31 ****         0.6367  -1.0131   1.7912 LP             1 S1                 0.0000
     32 ****        -1.6417  -0.6624   2.7512 LP             1 S1                 0.0000
@<TRIPOS>BOND
    1    1    2 1     
    2    1   16 1     
    3    1   17 1     
    4    1   18 1     
    5    2    3 1     
    6    2   19 1     
    7    2   20 1     
    8    3   13 1     
    9    3    4 2     
   10    4    5 1     
   11    5    6 1     
   12    5   12 2     
   13    6   14 1     
   14    6   11 1     
   15    6    7 1     
   16    7    8 1     
   17    7   21 1     
   18    7   22 1     
   19    8   15 1     
   20    8    9 1     
   21    8   10 1     
   22    9   23 1     
   23   10   11 1     
   24   10   24 1     
   25   10   25 1     
   26   11   26 1     
   27   11   27 1     
   28   12   13 1     
   29    4   28 1     
   30    9   29 1     
   31    9   30 1     
   32   12   31 1     
   33   13   32 1     
@<TRIPOS>SUBSTRUCTURE
      1 S1             1
@<TRIPOS>SET
LONE_PAIRS      STATIC     ATOMS    <user>   **** ""
5 28 29 30 31 32
DONOR_HYDROGENS      STATIC     ATOMS    <user>   **** ""
3 23 26 27
ATOM$BLUE        STATIC     ATOMS    COLORGROUP SYSTEM
5 28 29 30 31 32
ATOM$RED        STATIC     ATOMS    COLORGROUP SYSTEM
3 23 26 27
