#       Name:                AV-unprocessed.smi:2246
#       Creating user name   scv26
#       Creation time:       Fri Mar 27 12:28:51 2020


#       File generated by GOLD software.
#

@<TRIPOS>MOLECULE
AV-unprocessed.smi:2246
    35    36     1
SMALL
NO_CHARGES


@<TRIPOS>ATOM
      1 ****         0.8869  -1.1233  -1.7904 O.2            1 S1                 0.0000
      2 ****         0.4820  -0.0797  -1.2795 C.2            1 S1                 0.0000
      3 ****        -1.0035   0.2308  -1.1042 C.3            1 S1                 0.0000
      4 ****        -1.6429  -0.7412  -0.1839 N.am           1 S1                 0.0000
      5 ****        -1.2776  -0.7344   1.1799 C.2            1 S1                 0.0000
      6 ****        -1.7855  -1.6091   2.0684 C.2            1 S1                 0.0000
      7 ****        -1.3092  -1.5689   3.7287 Cl             1 S1                 0.0000
      8 ****        -2.7418  -2.5998   1.5839 C.2            1 S1                 0.0000
      9 ****        -3.2426  -3.4004   2.3725 O.2            1 S1                 0.0000
     10 ****        -3.0384  -2.5931   0.2524 N.pl3          1 S1                -1.0000
     11 ****        -2.5023  -1.7045  -0.6400 C.2            1 S1                 0.0000
     12 ****        -2.7772  -1.7463  -1.8392 O.2            1 S1                 0.0000
     13 ****        -0.9829   1.6726  -0.5496 C.3            1 S1                 0.0000
     14 ****         0.4865   2.0283  -0.2872 C.3            1 S1                 0.0000
     15 ****         1.2504   0.9196  -0.8312 N.am           1 S1                 0.0000
     16 ****         2.7115   0.9613  -0.8442 C.3            1 S1                 0.0000
     17 ****         3.3334   0.1722   0.3228 C.3            1 S1                 0.0000
     18 ****         3.0381  -1.1248   0.2441 F              1 S1                 0.0000
     19 ****         4.6582   0.3062   0.2769 F              1 S1                 0.0000
     20 ****         2.8995   0.6497   1.4892 F              1 S1                 0.0000
     21 ****        -1.4655   0.2493  -2.0922 H              1 S1                 0.0000
     22 ****        -0.5522   0.0132   1.4619 H              1 S1                 0.0000
     23 ****        -1.3881   2.3506  -1.3018 H              1 S1                 0.0000
     24 ****        -1.5987   1.8082   0.3403 H              1 S1                 0.0000
     25 ****         0.7626   2.9681  -0.7673 H              1 S1                 0.0000
     26 ****         0.6822   2.1204   0.7818 H              1 S1                 0.0000
     27 ****         3.0792   0.5735  -1.7955 H              1 S1                 0.0000
     28 ****         3.0369   2.0012  -0.7958 H              1 S1                 0.0000
     29 ****         1.8688  -1.2787  -1.8991 LP             1 S1                 0.0000
     30 ****         0.2341  -1.8160  -2.0970 LP             1 S1                 0.0000
     31 ****        -2.9940  -3.3706   3.3406 LP             1 S1                 0.0000
     32 ****        -3.8982  -4.0809   2.0453 LP             1 S1                 0.0000
     33 ****        -3.6836  -3.2756  -0.0909 LP             1 S1                 0.0000
     34 ****        -2.3741  -1.0814  -2.4681 LP             1 S1                 0.0000
     35 ****        -3.4035  -2.4451  -2.1845 LP             1 S1                 0.0000
@<TRIPOS>BOND
    1    1    2 2     
    2    2   15 am    
    3    2    3 1     
    4    3    4 1     
    5    3   13 1     
    6    3   21 1     
    7    4   11 am    
    8    4    5 1     
    9    5    6 2     
   10    5   22 1     
   11    6    7 1     
   12    6    8 1     
   13    8    9 2     
   14    8   10 1     
   15   10   11 1     
   16   11   12 2     
   17   13   14 1     
   18   13   23 1     
   19   13   24 1     
   20   14   15 1     
   21   14   25 1     
   22   14   26 1     
   23   15   16 1     
   24   16   17 1     
   25   16   27 1     
   26   16   28 1     
   27   17   18 1     
   28   17   19 1     
   29   17   20 1     
   30    1   29 1     
   31    1   30 1     
   32    9   31 1     
   33    9   32 1     
   34   10   33 1     
   35   12   34 1     
   36   12   35 1     
@<TRIPOS>SUBSTRUCTURE
      1 S1             1
@<TRIPOS>SET
LONE_PAIRS      STATIC     ATOMS    <user>   **** ""
7 29 30 31 32 33 34 35
ATOM$BLUE        STATIC     ATOMS    COLORGROUP SYSTEM
7 29 30 31 32 33 34 35
