AV-unprocessed.smi:1882|AV-procd|sdf|7641|dock7
  -GOLD-   22720 9373D 1   1.00000     0.00000
 Structure written by MMmdl.
 25 26  0  0  0  0  0  0  0  0  1 V2000
  153.9911  141.4493  161.3855 C   0  0  0  0  0  0  0  0  0  0  0  0
  153.1289  142.4779  160.7379 C   0  0  0  0  0  0  0  0  0  0  0  0
  152.8460  142.4892  159.4329 N   0  0  0  0  0  0  0  0  0  0  0  0
  152.0182  143.5563  159.0684 C   0  0  0  0  0  0  0  0  0  0  0  0
  151.5974  143.7214  157.6368 C   0  0  0  0  0  0  0  0  0  0  0  0
  151.0090  142.4140  157.1039 C   0  0  0  0  0  0  0  0  0  0  0  0
  151.6171  141.3555  157.2637 O   0  0  0  0  0  0  0  0  0  0  0  0
  149.8277  142.5042  156.4741 N   0  0  0  0  0  0  0  0  0  0  0  0
  149.1097  141.4143  155.8971 C   0  0  0  0  0  0  0  0  0  0  0  0
  149.8228  140.5763  154.8578 C   0  0  0  0  0  0  0  0  0  0  0  0
  148.7290  141.5181  154.4360 C   0  0  0  0  0  0  0  0  0  0  0  0
  151.6693  144.3545  160.1306 C   0  0  0  0  0  0  0  0  0  0  0  0
  152.3786  143.8004  161.6222 S   0  0  0  0  0  0  0  0  0  0  0  0
  154.3612  140.7374  160.6468 H   0  0  0  0  0  0  0  0  0  0  0  0
  153.4209  140.9063  162.1392 H   0  0  0  0  0  0  0  0  0  0  0  0
  154.8438  141.9278  161.8672 H   0  0  0  0  0  0  0  0  0  0  0  0
  150.8505  144.5106  157.5385 H   0  0  0  0  0  0  0  0  0  0  0  0
  152.4447  144.0250  157.0205 H   0  0  0  0  0  0  0  0  0  0  0  0
  149.4054  143.4177  156.3937 H   0  0  0  0  0  0  0  0  0  0  0  0
  148.4072  140.8827  156.5379 H   0  0  0  0  0  0  0  0  0  0  0  0
  150.8450  140.8459  154.5985 H   0  0  0  0  0  0  0  0  0  0  0  0
  149.6037  139.5107  154.8360 H   0  0  0  0  0  0  0  0  0  0  0  0
  147.7787  141.0822  154.1340 H   0  0  0  0  0  0  0  0  0  0  0  0
  149.0214  142.4161  153.8950 H   0  0  0  0  0  0  0  0  0  0  0  0
  151.0437  145.2346  160.1252 H   0  0  0  0  0  0  0  0  0  0  0  0
  1  2  1  0  0  0  0
  1 14  1  0  0  0  0
  1 15  1  0  0  0  0
  1 16  1  0  0  0  0
  2 13  1  0  0  0  0
  2  3  2  0  0  0  0
  3  4  1  0  0  0  0
  4  5  1  0  0  0  0
  4 12  2  0  0  0  0
  5  6  1  0  0  0  0
  5 17  1  0  0  0  0
  5 18  1  0  0  0  0
  6  7  2  0  0  0  0
  6  8  1  0  0  0  0
  8  9  1  0  0  0  0
  8 19  1  0  0  0  0
  9 11  1  0  0  0  0
  9 10  1  0  0  0  0
  9 20  1  0  0  0  0
 10 11  1  0  0  0  0
 10 21  1  0  0  0  0
 10 22  1  0  0  0  0
 11 23  1  0  0  0  0
 11 24  1  0  0  0  0
 12 13  1  0  0  0  0
 12 25  1  0  0  0  0
M  END
> <s_m_source_file>
AV-unprocessed.smi

> <i_m_source_file_index>
1882

> <i_lp_mmshare_version>
43012

> <i_f3d_flags>
0

> <s_epik_input>
W0NIM11jMW5jKFtjSF1zMSlbQ0gyXUMoPU8pW05IXVtDSF0yW0NIMl1bQ0gyXTI=

> <s_epik_cmdline>
J2VwaWtfcHl0aG9uJywgJy1waCcsICc3LjAnLCAnLXRuJywgJzgnLCAnLW1hJywgJzIwMCcsICctbWV0YWxfYmluZGluZycsICctaW1hZScsICc8aW5maWxlLm1hZT4nLCAnLW9tYWUnLCAnPG91dGZpbGUubWFlPic=

> <r_lp_tautomer_probability>
1

> <r_epik_Ionization_Penalty>
5.52242e-05

> <r_epik_Ionization_Penalty_Charging>
0

> <r_epik_Ionization_Penalty_Neutral>
5.52242e-05

> <r_epik_State_Penalty>
-0

> <r_epik_Charging_Adjusted_Penalty>
0

> <i_epik_Tot_Q>
0

> <i_epik_Tot_abs_Q>
0

> <r_epik_Metal_State_Penalty>
-0

> <b_epik_Metal_Only>
0

> <s_lp_Force_Field>
OPLS_2005

> <r_lp_Energy>
14.0294

> <b_lp_Chiralities_Consistent>
1

> <s_lp_Variant>
AV-unprocessed.smi:1882-1

> <Gold.Version>
5.8.1

> <Gold.Id.Protein>
6NUR|6NUR_protein|mol2

> <Gold.PLP.Fitness>
37.4367

> <Gold.PLP.PLP>
-34.7752

> <Gold.PLP.part.hbond>
-1.0000

> <Gold.PLP.part.metal>
0.0000

> <Gold.PLP.part.buried>
-3.0866

> <Gold.PLP.part.nonpolar>
-30.3294

> <Gold.PLP.part.repulsive>
0.0838

> <Gold.PLP.ligand.clash>
0.0000

> <Gold.PLP.ligand.torsion>
0.1867

> <Gold.PLP.Chemscore.Hbond>
1.0000

> <Gold.PLP.Chemscore.CHOScore>
0.0000

> <Gold.PLP.Chemscore.Metal>
0.0000

> <Gold.Chemscore.Hbonds>
donor molecule, donor type, donor heavy atom, donor atom, acceptor molecule, acceptor atom, score
      L1  H     8    19       P1  8028  1.00

> <Gold.PLP.Chemscore.Internal.Correction>
0.0349

> <Gold.Rescore>
     Score         DG    S(hbond)    S(metal)    S(lipo)     H(rot)  DE(clash)    DE(int)     intcor
     14.37     -15.94       1.00        0.00      90.56       1.36       0.06       1.50       ----

> <Gold.Chemscore.Fitness>
14.3748

> <Gold.Chemscore.DG>
-15.9366

> <Gold.Chemscore.ZeroCoef>
-5.4800

> <Gold.Chemscore.Hbond>
0.9986

> <Gold.Chemscore.Metal>
0.0000

> <Gold.Chemscore.Lipo>
90.5577

> <Gold.Chemscore.Internal_Hbond>
0.0000

> <Gold.Chemscore.DEClash>
0.0636

> <Gold.Chemscore.DEInternal>
1.4982

> <Gold.Chemscore.Rot>
1.3570

> <Gold.Chemscore.Internal.Correction>
   9.000000E+99

> <Gold.Chemscore.Hbonds>
donor molecule, donor type, donor heavy atom, donor atom, acceptor molecule, acceptor atom, score
      L1  H     8    19       P1  8028  0.97

> <Gold.Chemscore.Hbond.Weighted>
-3.3353

> <Gold.Chemscore.Metal.Weighted>
-0.0000

> <Gold.Chemscore.Lipo.Weighted>
-10.5952

> <Gold.Chemscore.Internal_Hbond.Weighted>
0.0000

> <Gold.Chemscore.DEClash.Weighted>
0.0636

> <Gold.Chemscore.DEInternal.Weighted>
1.4982

> <Gold.Chemscore.Rot.Weighted>
3.4740

> <Gold.Chemscore.Internal.Correction.Weighted>
   9.000000E+99

> <Gold.Protein.RotatedTorsions>
[ 6907 6896 6895 6894 ] final -145.87 input  -60.11 | X-H torsion
[ 7974 7965 7964 7962 ] final  173.59 input  175.53 | X-H torsion
[ 8008 7997 7996 7995 ] final  104.04 input   59.86 | X-H torsion
[ 10167 10162 10161 10158 ] final   26.19 input  -65.29 | X-H torsion
[ 10718 10713 10712 10709 ] final   43.13 input   66.30 | X-H torsion
[ 10763 10752 10751 10750 ] final  125.76 input  -60.55 | X-H torsion
[ 11005 11000 10999 10996 ] final  -53.68 input  -57.11 | X-H torsion

> <Gold.Protein.ActiveResidues>
 VAL166  LYS551  ARG553  GLY616  TRP617  ASP618  TYR619  PRO620  LYS621  CYS622 
 ASP623  PHE694  ASN695  SER759  ASP760  ASP761  ALA762  ILE779  LEU786  VAL792 
 PHE793  MET794  SER795  GLU796  ALA797  LYS798  CYS799  TRP800  GLU811  SER814 

> <Gold.Protein.RotatedAtoms>
  151.1338  133.5019  159.2598 H   0  0  0  0  0  0  0  0  0  0  0  0  # atno 6907 bound_to 6896
  151.1729  135.0326  159.8769 H   0  0  0  0  0  0  0  0  0  0  0  0  # atno 6908 bound_to 6896
  152.5460  134.1199  159.8447 H   0  0  0  0  0  0  0  0  0  0  0  0  # atno 6909 bound_to 6896
  144.7240  139.9671  143.6436 H   0  0  0  0  0  0  0  0  0  0  0  0  # atno 7974 bound_to 7965
  156.1537  140.3154  155.8691 H   0  0  0  0  0  0  0  0  0  0  0  0  # atno 8008 bound_to 7997
  155.3920  140.0494  157.3057 H   0  0  0  0  0  0  0  0  0  0  0  0  # atno 8009 bound_to 7997
  154.5082  140.2155  155.9220 H   0  0  0  0  0  0  0  0  0  0  0  0  # atno 8010 bound_to 7997
  140.5043  144.0264  150.6345 H   0  0  0  0  0  0  0  0  0  0  0  0  # atno 10167 bound_to 10162
  157.4125  130.7922  149.7443 H   0  0  0  0  0  0  0  0  0  0  0  0  # atno 10718 bound_to 10713
  153.6824  135.3312  155.3182 H   0  0  0  0  0  0  0  0  0  0  0  0  # atno 10763 bound_to 10752
  154.8462  135.4412  154.1592 H   0  0  0  0  0  0  0  0  0  0  0  0  # atno 10764 bound_to 10752
  153.2612  135.6991  153.7653 H   0  0  0  0  0  0  0  0  0  0  0  0  # atno 10765 bound_to 10752
  141.0988  133.6621  156.4209 H   0  0  0  0  0  0  0  0  0  0  0  0  # atno 11005 bound_to 11000
  146.0592  139.3586  143.0592 LP  0  0  0  0  0  0  0  0  0  0  0  0  # atno 17320 bound_to 7965
  145.8115  140.9723  143.0946 LP  0  0  0  0  0  0  0  0  0  0  0  0  # atno 17321 bound_to 7965
  140.3569  143.2931  152.0427 LP  0  0  0  0  0  0  0  0  0  0  0  0  # atno 17342 bound_to 10162
  139.4880  144.6332  151.7027 LP  0  0  0  0  0  0  0  0  0  0  0  0  # atno 17343 bound_to 10162
  155.9855  130.3982  150.3258 LP  0  0  0  0  0  0  0  0  0  0  0  0  # atno 17370 bound_to 10713
  157.1398  131.0293  151.2933 LP  0  0  0  0  0  0  0  0  0  0  0  0  # atno 17371 bound_to 10713
  140.5073  134.6428  157.5271 LP  0  0  0  0  0  0  0  0  0  0  0  0  # atno 17394 bound_to 11000
  139.9833  134.7102  155.9819 LP  0  0  0  0  0  0  0  0  0  0  0  0  # atno 17395 bound_to 11000

$$$$
