AV-unprocessed.smi:33|AV-procd|sdf|213|dock1
  -GOLD-   2262015513D 1   1.00000     0.00000
 Structure written by MMmdl.
 67 72  0  0  0  0  0  0  0  0  1 V2000
  145.0984  132.6579  161.6783 O   0  0  0  0  0  0  0  0  0  0  0  0
  144.8391  132.6193  160.4737 C   0  0  0  0  0  0  0  0  0  0  0  0
  145.4745  133.3641  159.5472 O   0  0  0  0  0  0  0  0  0  0  0  0
  146.8209  133.7629  159.7493 C   0  0  0  0  0  0  0  0  0  0  0  0
  147.6998  133.1391  158.6556 C   0  0  2  0  0  0  0  0  0  0  0  0
  148.8849  133.9259  158.5113 O   0  0  0  0  0  0  0  0  0  0  0  0
  148.9282  134.5402  157.2596 C   0  0  2  0  0  0  0  0  0  0  0  0
  149.3990  135.9558  157.3970 N   0  0  0  0  0  0  0  0  0  0  0  0
  149.5218  136.6772  158.5639 C   0  0  0  0  0  0  0  0  0  0  0  0
  149.9709  137.8953  158.4275 N   0  0  0  0  0  0  0  0  0  0  0  0
  150.1725  138.0258  157.0599 C   0  0  0  0  0  0  0  0  0  0  0  0
  150.6460  139.0765  156.2281 C   0  0  0  0  0  0  0  0  0  0  0  0
  151.0372  140.2785  156.7134 N   0  0  0  0  0  0  0  0  0  0  0  0
  150.3786  141.4694  156.1566 C   0  0  0  0  0  0  0  0  0  0  0  0
  150.9613  142.5552  156.1833 O   0  0  0  0  0  0  0  0  0  0  0  0
  149.0227  141.3621  155.5181 C   0  0  0  0  0  0  0  0  0  0  0  0
  148.9093  141.0290  154.1505 C   0  0  0  0  0  0  0  0  0  0  0  0
  147.6414  140.9421  153.5437 C   0  0  0  0  0  0  0  0  0  0  0  0
  146.4805  141.2071  154.2948 C   0  0  0  0  0  0  0  0  0  0  0  0
  146.5880  141.5681  155.6512 C   0  0  0  0  0  0  0  0  0  0  0  0
  147.8553  141.6533  156.2593 C   0  0  0  0  0  0  0  0  0  0  0  0
  152.0785  140.2818  157.7516 C   0  0  0  0  0  0  0  0  0  0  0  0
  152.8670  139.3373  157.8236 O   0  0  0  0  0  0  0  0  0  0  0  0
  152.2248  141.4520  158.6830 C   0  0  0  0  0  0  0  0  0  0  0  0
  153.4431  141.6634  159.3651 C   0  0  0  0  0  0  0  0  0  0  0  0
  153.5826  142.7502  160.2501 C   0  0  0  0  0  0  0  0  0  0  0  0
  152.4997  143.6219  160.4721 C   0  0  0  0  0  0  0  0  0  0  0  0
  151.2738  143.4009  159.8165 C   0  0  0  0  0  0  0  0  0  0  0  0
  151.1331  142.3141  158.9322 C   0  0  0  0  0  0  0  0  0  0  0  0
  150.7102  138.8519  154.8902 N   0  0  0  0  0  0  0  0  0  0  0  0
  150.3363  137.6675  154.3985 C   0  0  0  0  0  0  0  0  0  0  0  0
  149.8813  136.5987  155.0554 N   0  0  0  0  0  0  0  0  0  0  0  0
  149.8116  136.8189  156.3999 C   0  0  0  0  0  0  0  0  0  0  0  0
  147.5302  134.4326  156.6390 C   0  0  2  0  0  0  0  0  0  0  0  0
  146.6832  135.5335  156.9170 O   0  0  0  0  0  0  0  0  0  0  0  0
  147.0200  133.1570  157.2811 C   0  0  1  0  0  0  0  0  0  0  0  0
  147.4362  132.1095  156.5669 F   0  0  0  0  0  0  0  0  0  0  0  0
  143.7908  131.7357  159.8871 C   0  0  0  0  0  0  0  0  0  0  0  0
  143.1772  130.7541  160.7001 C   0  0  0  0  0  0  0  0  0  0  0  0
  142.1826  129.9066  160.1745 C   0  0  0  0  0  0  0  0  0  0  0  0
  141.7896  130.0301  158.8290 C   0  0  0  0  0  0  0  0  0  0  0  0
  142.3938  131.0010  158.0093 C   0  0  0  0  0  0  0  0  0  0  0  0
  143.3891  131.8490  158.5329 C   0  0  0  0  0  0  0  0  0  0  0  0
  146.8717  134.8508  159.6983 H   0  0  0  0  0  0  0  0  0  0  0  0
  147.1792  133.4697  160.7362 H   0  0  0  0  0  0  0  0  0  0  0  0
  147.9606  132.1187  158.9393 H   0  0  0  0  0  0  0  0  0  0  0  0
  149.6915  134.0487  156.6546 H   0  0  0  0  0  0  0  0  0  0  0  0
  149.2706  136.2645  159.5303 H   0  0  0  0  0  0  0  0  0  0  0  0
  149.7934  140.8240  153.5641 H   0  0  0  0  0  0  0  0  0  0  0  0
  147.5596  140.6732  152.5009 H   0  0  0  0  0  0  0  0  0  0  0  0
  145.5084  141.1404  153.8289 H   0  0  0  0  0  0  0  0  0  0  0  0
  145.6987  141.7814  156.2258 H   0  0  0  0  0  0  0  0  0  0  0  0
  147.9260  141.9356  157.3000 H   0  0  0  0  0  0  0  0  0  0  0  0
  154.2811  141.0012  159.2015 H   0  0  0  0  0  0  0  0  0  0  0  0
  154.5209  142.9141  160.7591 H   0  0  0  0  0  0  0  0  0  0  0  0
  152.6071  144.4552  161.1506 H   0  0  0  0  0  0  0  0  0  0  0  0
  150.4403  144.0645  159.9930 H   0  0  0  0  0  0  0  0  0  0  0  0
  150.1852  142.1514  158.4397 H   0  0  0  0  0  0  0  0  0  0  0  0
  150.4141  137.5582  153.3267 H   0  0  0  0  0  0  0  0  0  0  0  0
  147.6184  134.3426  155.5557 H   0  0  0  0  0  0  0  0  0  0  0  0
  145.8277  135.3509  156.5589 H   0  0  0  0  0  0  0  0  0  0  0  0
  145.9320  133.0926  157.3270 H   0  0  0  0  0  0  0  0  0  0  0  0
  143.4632  130.6403  161.7359 H   0  0  0  0  0  0  0  0  0  0  0  0
  141.7213  129.1611  160.8050 H   0  0  0  0  0  0  0  0  0  0  0  0
  141.0266  129.3805  158.4262 H   0  0  0  0  0  0  0  0  0  0  0  0
  142.0937  131.0964  156.9761 H   0  0  0  0  0  0  0  0  0  0  0  0
  143.8332  132.5827  157.8761 H   0  0  0  0  0  0  0  0  0  0  0  0
  1  2  2  0  0  0  0
  2  3  1  0  0  0  0
  2 38  1  0  0  0  0
  3  4  1  0  0  0  0
  4  5  1  0  0  0  0
  4 44  1  0  0  0  0
  4 45  1  0  0  0  0
  5 36  1  0  0  0  0
  5  6  1  0  0  0  0
  5 46  1  0  0  0  0
  6  7  1  0  0  0  0
  7  8  1  0  0  0  0
  7 34  1  0  0  0  0
  7 47  1  0  0  0  0
  8 33  1  0  0  0  0
  8  9  1  0  0  0  0
  9 10  2  0  0  0  0
  9 48  1  0  0  0  0
 10 11  1  0  0  0  0
 11 33  2  0  0  0  0
 11 12  1  0  0  0  0
 12 13  1  0  0  0  0
 12 30  2  0  0  0  0
 13 14  1  0  0  0  0
 13 22  1  0  0  0  0
 14 15  2  0  0  0  0
 14 16  1  0  0  0  0
 16 21  1  0  0  0  0
 16 17  2  0  0  0  0
 17 18  1  0  0  0  0
 17 49  1  0  0  0  0
 18 19  2  0  0  0  0
 18 50  1  0  0  0  0
 19 20  1  0  0  0  0
 19 51  1  0  0  0  0
 20 21  2  0  0  0  0
 20 52  1  0  0  0  0
 21 53  1  0  0  0  0
 22 23  2  0  0  0  0
 22 24  1  0  0  0  0
 24 29  1  0  0  0  0
 24 25  2  0  0  0  0
 25 26  1  0  0  0  0
 25 54  1  0  0  0  0
 26 27  2  0  0  0  0
 26 55  1  0  0  0  0
 27 28  1  0  0  0  0
 27 56  1  0  0  0  0
 28 29  2  0  0  0  0
 28 57  1  0  0  0  0
 29 58  1  0  0  0  0
 30 31  1  0  0  0  0
 31 32  2  0  0  0  0
 31 59  1  0  0  0  0
 32 33  1  0  0  0  0
 34 35  1  0  0  0  0
 34 36  1  0  0  0  0
 34 60  1  0  0  0  0
 35 61  1  0  0  0  0
 36 37  1  0  0  0  0
 36 62  1  0  0  0  0
 38 43  1  0  0  0  0
 38 39  2  0  0  0  0
 39 40  1  0  0  0  0
 39 63  1  0  0  0  0
 40 41  2  0  0  0  0
 40 64  1  0  0  0  0
 41 42  1  0  0  0  0
 41 65  1  0  0  0  0
 42 43  2  0  0  0  0
 42 66  1  0  0  0  0
 43 67  1  0  0  0  0
M  END
> <s_m_source_file>
AV-unprocessed.smi

> <i_m_source_file_index>
33

> <i_lp_mmshare_version>
43012

> <i_f3d_flags>
0

> <s_epik_input>
W2NIXTFbY0hdW2NIXVtjSF1bY0hdYzFDKD1PKU9bQ0gyXVtDQEBIXTJPW0NASF0oW0NAQEhdKFtPSF0pW0NAQEhdMkYpbihbY0hdbjMpYyhjMzQpbltjSF1uYzROKEMoPU8pYzVbY0hdW2NIXVtjSF1bY0hdW2NIXTUpQyg9TyljNltjSF1bY0hdW2NIXVtjSF1bY0hdNg==

> <s_epik_cmdline>
J2VwaWtfcHl0aG9uJywgJy1waCcsICc3LjAnLCAnLXRuJywgJzgnLCAnLW1hJywgJzIwMCcsICctbWV0YWxfYmluZGluZycsICctaW1hZScsICc8aW5maWxlLm1hZT4nLCAnLW9tYWUnLCAnPG91dGZpbGUubWFlPic=

> <r_lp_tautomer_probability>
1

> <r_epik_Ionization_Penalty>
0.00067664

> <r_epik_Ionization_Penalty_Charging>
0

> <r_epik_Ionization_Penalty_Neutral>
0.00067664

> <r_epik_State_Penalty>
0.000428095

> <r_epik_Charging_Adjusted_Penalty>
0.000428095

> <i_epik_Tot_Q>
0

> <i_epik_Tot_abs_Q>
0

> <r_epik_Metal_State_Penalty>
-0

> <b_epik_Metal_Only>
0

> <s_epik_Chemistry_Notes>
This compound has an ester and may undergo hydrolysis at high or low pH. This compound contains an acetal/aminal-like group ( X-CH(R)-Y where X, Y are N, S, or O) that may be acid/base labile, releasing an aldehyde.

> <s_lp_Force_Field>
OPLS_2005

> <r_lp_Energy>
74.9187

> <b_lp_Chiralities_Consistent>
1

> <s_lp_Variant>
AV-unprocessed.smi:33-15

> <Gold.Version>
5.8.1

> <Gold.Id.Protein>
6NUR|6NUR_protein|mol2

> <Gold.PLP.Fitness>
57.6232

> <Gold.PLP.PLP>
-51.5525

> <Gold.PLP.part.hbond>
-2.0000

> <Gold.PLP.part.metal>
0.0000

> <Gold.PLP.part.buried>
-4.3574

> <Gold.PLP.part.nonpolar>
-44.3776

> <Gold.PLP.part.repulsive>
1.0546

> <Gold.PLP.ligand.clash>
0.0750

> <Gold.PLP.ligand.torsion>
4.4639

> <Gold.PLP.Chemscore.Hbond>
2.0000

> <Gold.PLP.Chemscore.CHOScore>
1.1365

> <Gold.PLP.Chemscore.Metal>
0.0000

> <Gold.Chemscore.Hbonds>
donor molecule, donor type, donor heavy atom, donor atom, acceptor molecule, acceptor atom, score
      P1  H  6896  6907       L1     6  1.00
      P1  H  7997  8008       L1    23  1.00
      L1  C    31    59       P1  7948  0.69
      L1  C    31    59       P1  7949  0.42

> <Gold.PLP.Chemscore.Internal.Correction>
5.6641

> <Gold.Rescore>
     Score         DG    S(hbond)    S(metal)    S(lipo)     H(rot)  DE(clash)    DE(int)     intcor
     11.43     -22.51       2.53        0.00     128.62       2.52       2.02       9.06       ----

> <Gold.Chemscore.Fitness>
11.4319

> <Gold.Chemscore.DG>
-22.5118

> <Gold.Chemscore.ZeroCoef>
-5.4800

> <Gold.Chemscore.Hbond>
2.5287

> <Gold.Chemscore.Metal>
0.0000

> <Gold.Chemscore.Lipo>
128.6248

> <Gold.Chemscore.Internal_Hbond>
0.0000

> <Gold.Chemscore.DEClash>
2.0217

> <Gold.Chemscore.DEInternal>
9.0582

> <Gold.Chemscore.Rot>
2.5247

> <Gold.Chemscore.Internal.Correction>
   9.000000E+99

> <Gold.Chemscore.Hbonds>
donor molecule, donor type, donor heavy atom, donor atom, acceptor molecule, acceptor atom, score
      P1  H  6896  6907       L1     6  0.63
      P1  H  7997  8008       L1    23  0.43

> <Gold.Chemscore.Hbond.Weighted>
-8.4460

> <Gold.Chemscore.Metal.Weighted>
-0.0000

> <Gold.Chemscore.Lipo.Weighted>
-15.0491

> <Gold.Chemscore.Internal_Hbond.Weighted>
0.0000

> <Gold.Chemscore.DEClash.Weighted>
2.0217

> <Gold.Chemscore.DEInternal.Weighted>
9.0582

> <Gold.Chemscore.Rot.Weighted>
6.4633

> <Gold.Chemscore.Internal.Correction.Weighted>
   9.000000E+99

> <Gold.Protein.RotatedTorsions>
[ 6907 6896 6895 6894 ] final  -91.08 input  -60.11 | X-H torsion
[ 7974 7965 7964 7962 ] final   37.88 input  175.53 | X-H torsion
[ 8008 7997 7996 7995 ] final  -81.87 input   59.86 | X-H torsion
[ 10167 10162 10161 10158 ] final  100.00 input  -65.29 | X-H torsion
[ 10718 10713 10712 10709 ] final  -92.68 input   66.30 | X-H torsion
[ 10763 10752 10751 10750 ] final  -67.78 input  -60.55 | X-H torsion
[ 11005 11000 10999 10996 ] final  152.14 input  -57.11 | X-H torsion

> <Gold.Protein.ActiveResidues>
 VAL166  LYS551  ARG553  GLY616  TRP617  ASP618  TYR619  PRO620  LYS621  CYS622 
 ASP623  PHE694  ASN695  SER759  ASP760  ASP761  ALA762  ILE779  LEU786  VAL792 
 PHE793  MET794  SER795  GLU796  ALA797  LYS798  CYS799  TRP800  GLU811  SER814 

> <Gold.Protein.RotatedAtoms>
  150.6888  134.2333  159.4442 H   0  0  0  0  0  0  0  0  0  0  0  0  # atno 6907 bound_to 6896
  152.0282  134.9781  160.0581 H   0  0  0  0  0  0  0  0  0  0  0  0  # atno 6908 bound_to 6896
  152.1331  133.4384  159.4767 H   0  0  0  0  0  0  0  0  0  0  0  0  # atno 6909 bound_to 6896
  146.1104  139.5840  142.9356 H   0  0  0  0  0  0  0  0  0  0  0  0  # atno 7974 bound_to 7965
  154.6028  140.0641  156.9391 H   0  0  0  0  0  0  0  0  0  0  0  0  # atno 8008 bound_to 7997
  155.2104  140.3322  155.4311 H   0  0  0  0  0  0  0  0  0  0  0  0  # atno 8009 bound_to 7997
  156.2328  140.1849  156.7180 H   0  0  0  0  0  0  0  0  0  0  0  0  # atno 8010 bound_to 7997
  139.7566  144.6967  151.0353 H   0  0  0  0  0  0  0  0  0  0  0  0  # atno 10167 bound_to 10162
  156.0005  130.4997  150.5662 H   0  0  0  0  0  0  0  0  0  0  0  0  # atno 10718 bound_to 10713
  154.3794  135.6077  153.5782 H   0  0  0  0  0  0  0  0  0  0  0  0  # atno 10763 bound_to 10752
  152.9788  135.5857  154.4428 H   0  0  0  0  0  0  0  0  0  0  0  0  # atno 10764 bound_to 10752
  154.4195  135.2845  155.1963 H   0  0  0  0  0  0  0  0  0  0  0  0  # atno 10765 bound_to 10752
  140.1281  134.8820  157.2166 H   0  0  0  0  0  0  0  0  0  0  0  0  # atno 11005 bound_to 11000
  145.5674  141.0398  143.2193 LP  0  0  0  0  0  0  0  0  0  0  0  0  # atno 17320 bound_to 7965
  144.7507  139.7202  143.7274 LP  0  0  0  0  0  0  0  0  0  0  0  0  # atno 17321 bound_to 7965
  140.7803  143.4745  151.0101 LP  0  0  0  0  0  0  0  0  0  0  0  0  # atno 17342 bound_to 10162
  139.8432  143.7536  152.3180 LP  0  0  0  0  0  0  0  0  0  0  0  0  # atno 17343 bound_to 10162
  157.3564  131.0742  151.1672 LP  0  0  0  0  0  0  0  0  0  0  0  0  # atno 17370 bound_to 10713
  157.2471  130.6597  149.5915 LP  0  0  0  0  0  0  0  0  0  0  0  0  # atno 17371 bound_to 10713
  140.2877  134.3276  155.7324 LP  0  0  0  0  0  0  0  0  0  0  0  0  # atno 17394 bound_to 11000
  141.2165  133.7516  156.9457 LP  0  0  0  0  0  0  0  0  0  0  0  0  # atno 17395 bound_to 11000

$$$$
