#       Name:                AV-unprocessed.smi:2368
#       Creating user name   scv26
#       Creation time:       Fri Mar 27 13:06:25 2020


#       File generated by GOLD software.
#

@<TRIPOS>MOLECULE
AV-unprocessed.smi:2368
    40    41     1
SMALL
NO_CHARGES


@<TRIPOS>ATOM
      1 ****        -5.6023   1.9035   2.2551 C.3            1 S1                 0.0000
      2 ****        -4.4065   1.9940   1.3266 C.ar           1 S1                 0.0000
      3 ****        -4.3815   3.0052   0.4306 N.pl3          1 S1                 1.0000
      4 ****        -3.3745   3.1830  -0.4495 C.ar           1 S1                 0.0000
      5 ****        -2.2817   2.2946  -0.4556 C.ar           1 S1                 0.0000
      6 ****        -2.2474   1.2257   0.4753 C.ar           1 S1                 0.0000
      7 ****        -1.1897   0.2753   0.5249 N.am           1 S1                 0.0000
      8 ****         0.0957   0.4379   0.1686 C.2            1 S1                 0.0000
      9 ****         0.5783   1.4688  -0.2996 O.2            1 S1                 0.0000
     10 ****         0.8089  -0.6718   0.4053 N.am           1 S1                 0.0000
     11 ****         2.2381  -0.8134   0.1515 C.3            1 S1                 0.0000
     12 ****         2.7708  -2.0587   0.8080 C.2            1 S1                 0.0000
     13 ****         3.3606  -2.8837  -0.0541 C.2            1 S1                 0.0000
     14 ****         3.3244  -2.3666  -1.4689 C.3            1 S1                 0.0000
     15 ****         4.7208  -2.2607  -2.1112 C.3            1 S1                 0.0000
     16 ****         5.5790  -1.4214  -1.3638 O.3            1 S1                 0.0000
     17 ****         2.5675  -1.0183  -1.3514 C.3            1 S1                 0.0000
     18 ****        -3.3365   1.0691   1.3684 C.ar           1 S1                 0.0000
     19 ****        -3.3597  -0.2344   2.5084 Cl             1 S1                 0.0000
     20 ****         2.7806   0.0442   0.5536 H              1 S1                 0.0000
     21 ****         2.7232  -3.0635  -2.0543 H              1 S1                 0.0000
     22 ****        -6.1135   0.9494   2.1234 H              1 S1                 0.0000
     23 ****        -6.3202   2.7015   2.0608 H              1 S1                 0.0000
     24 ****        -5.2818   1.9818   3.2944 H              1 S1                 0.0000
     25 ****        -3.4751   4.0221  -1.1226 H              1 S1                 0.0000
     26 ****        -1.4967   2.4427  -1.1815 H              1 S1                 0.0000
     27 ****        -1.4168  -0.6008   0.9726 H              1 S1                 0.0000
     28 ****         0.3351  -1.4742   0.7941 H              1 S1                 0.0000
     29 ****         2.6837  -2.2312   1.8708 H              1 S1                 0.0000
     30 ****         3.8157  -3.8292   0.2019 H              1 S1                 0.0000
     31 ****         5.1776  -3.2480  -2.1853 H              1 S1                 0.0000
     32 ****         4.6411  -1.8697  -3.1260 H              1 S1                 0.0000
     33 ****         6.4171  -1.3837  -1.7990 H              1 S1                 0.0000
     34 ****         1.6634  -1.0462  -1.9613 H              1 S1                 0.0000
     35 ****         3.1646  -0.1851  -1.7239 H              1 S1                 0.0000
     36 ****        -5.1627   3.6615   0.4153 H              1 S1                 0.0000
     37 ****        -0.0001   2.2721  -0.4415 LP             1 S1                 0.0000
     38 ****         1.5488   1.5031  -0.5382 LP             1 S1                 0.0000
     39 ****         5.6942  -1.7920  -0.4422 LP             1 S1                 0.0000
     40 ****         5.1870  -0.5032  -1.3072 LP             1 S1                 0.0000
@<TRIPOS>BOND
    1    1    2 1     
    2    1   22 1     
    3    1   23 1     
    4    1   24 1     
    5    2   18 ar    
    6    2    3 ar    
    7    3    4 ar    
    8    3   36 1     
    9    4    5 ar    
   10    4   25 1     
   11    5    6 ar    
   12    5   26 1     
   13    6    7 1     
   14    6   18 ar    
   15    7    8 am    
   16    7   27 1     
   17    8    9 2     
   18    8   10 am    
   19   10   11 1     
   20   10   28 1     
   21   11   20 1     
   22   11   17 1     
   23   11   12 1     
   24   12   13 2     
   25   12   29 1     
   26   13   14 1     
   27   13   30 1     
   28   14   21 1     
   29   14   15 1     
   30   14   17 1     
   31   15   16 1     
   32   15   31 1     
   33   15   32 1     
   34   16   33 1     
   35   17   34 1     
   36   17   35 1     
   37   18   19 1     
   38    9   37 1     
   39    9   38 1     
   40   16   39 1     
   41   16   40 1     
@<TRIPOS>SUBSTRUCTURE
      1 S1             1
@<TRIPOS>SET
LONE_PAIRS      STATIC     ATOMS    <user>   **** ""
4 37 38 39 40
DONOR_HYDROGENS      STATIC     ATOMS    <user>   **** ""
4 36 27 28 33
ATOM$BLUE        STATIC     ATOMS    COLORGROUP SYSTEM
4 37 38 39 40
ATOM$RED        STATIC     ATOMS    COLORGROUP SYSTEM
4 36 27 28 33
