AV-unprocessed.smi:994|AV-procd|sdf|4342|dock2
  -GOLD-   22720 2243D 1   1.00000     0.00000
 Structure written by MMmdl.
 37 38  0  0  0  0  0  0  0  0  2 V2000
  150.2016  140.4669  158.3079 O   0  0  0  0  0  0  0  0  0  0  0  0
  150.9990  141.0382  157.5632 C   0  0  0  0  0  0  0  0  0  0  0  0
  151.3567  140.5618  156.3597 N   0  0  0  0  0  0  0  0  0  0  0  0
  150.9169  139.2932  155.7811 C   0  0  1  0  0  0  0  0  0  0  0  0
  150.4228  139.5695  154.3406 C   0  0  0  0  0  0  0  0  0  0  0  0
  149.1200  140.3294  154.2264 C   0  0  0  0  0  0  0  0  0  0  0  0
  148.7399  141.5633  154.7080 C   0  0  0  0  0  0  0  0  0  0  0  0
  147.4167  141.8311  154.3463 N   0  0  0  0  0  0  0  0  0  0  0  0
  147.0442  140.7528  153.6669 C   0  0  0  0  0  0  0  0  0  0  0  0
  148.0094  139.8361  153.5618 N   0  0  0  0  0  0  0  0  0  0  0  0
  152.1041  138.3127  155.7586 C   0  0  0  0  0  0  0  0  0  0  0  0
  151.8843  137.1666  155.3093 O   0  0  0  0  0  0  0  0  0  0  0  0
  153.2102  138.7246  156.1760 O   0  5  0  0  0  0  0  0  0  0  0  0
  151.6431  142.3634  157.9921 C   0  0  0  0  0  0  0  0  0  0  0  0
  152.5050  142.1725  159.2590 C   0  0  0  0  0  0  0  0  0  0  0  0
  153.1427  143.4973  159.7087 C   0  0  0  0  0  0  0  0  0  0  0  0
  152.0751  144.5791  159.9358 C   0  0  0  0  0  0  0  0  0  0  0  0
  151.2067  144.7743  158.6829 C   0  0  0  0  0  0  0  0  0  0  0  0
  150.5713  143.4483  158.2321 C   0  0  0  0  0  0  0  0  0  0  0  0
  147.9393  138.9385  153.1025 H   0  0  0  0  0  0  0  0  0  0  0  0
  152.0251  141.0926  155.8209 H   0  0  0  0  0  0  0  0  0  0  0  0
  150.0984  138.8775  156.3721 H   0  0  0  0  0  0  0  0  0  0  0  0
  151.1768  140.1611  153.8194 H   0  0  0  0  0  0  0  0  0  0  0  0
  150.3334  138.6412  153.7740 H   0  0  0  0  0  0  0  0  0  0  0  0
  149.3123  142.2736  155.2859 H   0  0  0  0  0  0  0  0  0  0  0  0
  146.0586  140.6275  153.2434 H   0  0  0  0  0  0  0  0  0  0  0  0
  152.2968  142.7039  157.1865 H   0  0  0  0  0  0  0  0  0  0  0  0
  151.8963  141.7748  160.0727 H   0  0  0  0  0  0  0  0  0  0  0  0
  153.2882  141.4363  159.0726 H   0  0  0  0  0  0  0  0  0  0  0  0
  153.7149  143.3423  160.6236 H   0  0  0  0  0  0  0  0  0  0  0  0
  153.8525  143.8359  158.9530 H   0  0  0  0  0  0  0  0  0  0  0  0
  151.4422  144.2961  160.7779 H   0  0  0  0  0  0  0  0  0  0  0  0
  152.5519  145.5209  160.2091 H   0  0  0  0  0  0  0  0  0  0  0  0
  150.4278  145.5105  158.8825 H   0  0  0  0  0  0  0  0  0  0  0  0
  151.8168  145.1804  157.8752 H   0  0  0  0  0  0  0  0  0  0  0  0
  149.9943  143.6134  157.3211 H   0  0  0  0  0  0  0  0  0  0  0  0
  149.8613  143.1148  158.9905 H   0  0  0  0  0  0  0  0  0  0  0  0
  1  2  2  0  0  0  0
  2  3  1  0  0  0  0
  2 14  1  0  0  0  0
  3  4  1  0  0  0  0
  3 21  1  0  0  0  0
  4  5  1  0  0  0  0
  4 11  1  0  0  0  0
  4 22  1  0  0  0  0
  5 23  1  0  0  0  0
  5 24  1  0  0  0  0
  5  6  1  0  0  0  0
  6  7  2  0  0  0  0
  6 10  1  0  0  0  0
  7 25  1  0  0  0  0
  7  8  1  0  0  0  0
  8  9  2  0  0  0  0
  9 10  1  0  0  0  0
  9 26  1  0  0  0  0
 10 20  1  0  0  0  0
 11 12  2  0  0  0  0
 11 13  1  0  0  0  0
 14 19  1  0  0  0  0
 14 15  1  0  0  0  0
 14 27  1  0  0  0  0
 15 16  1  0  0  0  0
 15 28  1  0  0  0  0
 15 29  1  0  0  0  0
 16 17  1  0  0  0  0
 16 30  1  0  0  0  0
 16 31  1  0  0  0  0
 17 18  1  0  0  0  0
 17 32  1  0  0  0  0
 17 33  1  0  0  0  0
 18 19  1  0  0  0  0
 18 34  1  0  0  0  0
 18 35  1  0  0  0  0
 19 36  1  0  0  0  0
 19 37  1  0  0  0  0
M  CHG  1  13  -1
M  END
> <s_m_source_file>
AV-unprocessed.smi

> <i_m_source_file_index>
994

> <i_lp_mmshare_version>
43012

> <i_f3d_flags>
0

> <s_epik_input>
W0NIMl0xW0NIMl1bQ0gyXVtDSDJdW0NIMl1bQ0hdMUMoPU8pW05IXVtDQEBIXShDKD1PKVtPSF0pW0NIMl1jMltjSF1bbkhdW2NIXW4y

> <s_epik_cmdline>
J2VwaWtfcHl0aG9uJywgJy1waCcsICc3LjAnLCAnLXRuJywgJzgnLCAnLW1hJywgJzIwMCcsICctbWV0YWxfYmluZGluZycsICctaW1hZScsICc8aW5maWxlLm1hZT4nLCAnLW9tYWUnLCAnPG91dGZpbGUubWFlPic=

> <r_lp_tautomer_probability>
0.5

> <r_epik_Ionization_Penalty>
0.540742

> <r_epik_Ionization_Penalty_Charging>
0.540742

> <r_epik_Ionization_Penalty_Neutral>
4.77468e-08

> <r_epik_State_Penalty>
0.78427

> <r_epik_Charging_Adjusted_Penalty>
1.32501

> <i_epik_Tot_Q>
-1

> <i_epik_Tot_abs_Q>
1

> <r_epik_Metal_State_Penalty>
0.663709

> <b_epik_Metal_Only>
0

> <s_lp_Force_Field>
OPLS_2005

> <r_lp_Energy>
10.9518

> <b_lp_Chiralities_Consistent>
1

> <s_lp_Variant>
AV-unprocessed.smi:994-4

> <Gold.Version>
5.8.1

> <Gold.Id.Protein>
6NUR|6NUR_protein|mol2

> <Gold.PLP.Fitness>
55.3242

> <Gold.PLP.PLP>
-37.7327

> <Gold.PLP.part.hbond>
-3.0000

> <Gold.PLP.part.metal>
0.0000

> <Gold.PLP.part.buried>
-3.4678

> <Gold.PLP.part.nonpolar>
-32.7525

> <Gold.PLP.part.repulsive>
0.4188

> <Gold.PLP.ligand.clash>
0.0000

> <Gold.PLP.ligand.torsion>
0.1864

> <Gold.PLP.Chemscore.Hbond>
4.0000

> <Gold.PLP.Chemscore.CHOScore>
1.9736

> <Gold.PLP.Chemscore.Metal>
0.0000

> <Gold.Chemscore.Hbonds>
donor molecule, donor type, donor heavy atom, donor atom, acceptor molecule, acceptor atom, score
      P1  H  7997  8010       L1    13  2.00
      P1  H 10752 10765       L1    12  1.98
      L1  C     7    25       P1  8028  0.97
      L1  C     9    26       P1 10175  1.00

> <Gold.PLP.Chemscore.Internal.Correction>
0.0436

> <Gold.Rescore>
     Score         DG    S(hbond)    S(metal)    S(lipo)     H(rot)  DE(clash)    DE(int)     intcor
     16.01     -16.15       1.89        0.00      95.37       2.66       0.01       0.13       ----

> <Gold.Chemscore.Fitness>
16.0096

> <Gold.Chemscore.DG>
-16.1464

> <Gold.Chemscore.ZeroCoef>
-5.4800

> <Gold.Chemscore.Hbond>
1.8901

> <Gold.Chemscore.Metal>
0.0000

> <Gold.Chemscore.Lipo>
95.3708

> <Gold.Chemscore.Internal_Hbond>
0.0000

> <Gold.Chemscore.DEClash>
0.0080

> <Gold.Chemscore.DEInternal>
0.1287

> <Gold.Chemscore.Rot>
2.6581

> <Gold.Chemscore.Internal.Correction>
   9.000000E+99

> <Gold.Chemscore.Hbonds>
donor molecule, donor type, donor heavy atom, donor atom, acceptor molecule, acceptor atom, score
      P1  H  7997  8010       L1    13  0.96
      P1  H 10752 10765       L1    12  0.90

> <Gold.Chemscore.Hbond.Weighted>
-6.3128

> <Gold.Chemscore.Metal.Weighted>
-0.0000

> <Gold.Chemscore.Lipo.Weighted>
-11.1584

> <Gold.Chemscore.Internal_Hbond.Weighted>
0.0000

> <Gold.Chemscore.DEClash.Weighted>
0.0080

> <Gold.Chemscore.DEInternal.Weighted>
0.1287

> <Gold.Chemscore.Rot.Weighted>
6.8048

> <Gold.Chemscore.Internal.Correction.Weighted>
   9.000000E+99

> <Gold.Protein.RotatedTorsions>
[ 6907 6896 6895 6894 ] final   -7.18 input  -60.11 | X-H torsion
[ 7974 7965 7964 7962 ] final   86.68 input  175.53 | X-H torsion
[ 8008 7997 7996 7995 ] final   73.10 input   59.86 | X-H torsion
[ 10167 10162 10161 10158 ] final -143.56 input  -65.29 | X-H torsion
[ 10718 10713 10712 10709 ] final   44.05 input   66.30 | X-H torsion
[ 10763 10752 10751 10750 ] final -174.84 input  -60.55 | X-H torsion
[ 11005 11000 10999 10996 ] final  110.29 input  -57.11 | X-H torsion

> <Gold.Protein.ActiveResidues>
 VAL166  LYS551  ARG553  GLY616  TRP617  ASP618  TYR619  PRO620  LYS621  CYS622 
 ASP623  PHE694  ASN695  SER759  ASP760  ASP761  ALA762  ILE779  LEU786  VAL792 
 PHE793  MET794  SER795  GLU796  ALA797  LYS798  CYS799  TRP800  GLU811  SER814 

> <Gold.Protein.RotatedAtoms>
  151.4538  135.1032  159.9704 H   0  0  0  0  0  0  0  0  0  0  0  0  # atno 6907 bound_to 6896
  152.4878  133.8416  159.7166 H   0  0  0  0  0  0  0  0  0  0  0  0  # atno 6908 bound_to 6896
  150.9004  133.7066  159.2908 H   0  0  0  0  0  0  0  0  0  0  0  0  # atno 6909 bound_to 6896
  145.5690  139.2312  143.2417 H   0  0  0  0  0  0  0  0  0  0  0  0  # atno 7974 bound_to 7965
  155.7787  140.3482  155.5286 H   0  0  0  0  0  0  0  0  0  0  0  0  # atno 8008 bound_to 7997
  155.8750  140.0992  157.1545 H   0  0  0  0  0  0  0  0  0  0  0  0  # atno 8009 bound_to 7997
  154.4020  140.1333  156.4112 H   0  0  0  0  0  0  0  0  0  0  0  0  # atno 8010 bound_to 7997
  139.7982  143.7871  152.2656 H   0  0  0  0  0  0  0  0  0  0  0  0  # atno 10167 bound_to 10162
  157.4226  130.7978  149.7529 H   0  0  0  0  0  0  0  0  0  0  0  0  # atno 10718 bound_to 10713
  154.5915  135.2845  155.0631 H   0  0  0  0  0  0  0  0  0  0  0  0  # atno 10763 bound_to 10752
  154.1929  135.6437  153.5069 H   0  0  0  0  0  0  0  0  0  0  0  0  # atno 10764 bound_to 10752
  153.0123  135.5450  154.6602 H   0  0  0  0  0  0  0  0  0  0  0  0  # atno 10765 bound_to 10752
  139.8879  134.9480  156.6256 H   0  0  0  0  0  0  0  0  0  0  0  0  # atno 11005 bound_to 11000
  146.1797  140.6516  142.9195 LP  0  0  0  0  0  0  0  0  0  0  0  0  # atno 17320 bound_to 7965
  144.7446  140.5035  143.6844 LP  0  0  0  0  0  0  0  0  0  0  0  0  # atno 17321 bound_to 7965
  139.7983  144.7384  150.9860 LP  0  0  0  0  0  0  0  0  0  0  0  0  # atno 17342 bound_to 10162
  140.7820  143.4371  151.0606 LP  0  0  0  0  0  0  0  0  0  0  0  0  # atno 17343 bound_to 10162
  155.9886  130.3958  150.3112 LP  0  0  0  0  0  0  0  0  0  0  0  0  # atno 17370 bound_to 10713
  157.1262  131.0259  151.2988 LP  0  0  0  0  0  0  0  0  0  0  0  0  # atno 17371 bound_to 10713
  140.7706  133.8741  155.8489 LP  0  0  0  0  0  0  0  0  0  0  0  0  # atno 17394 bound_to 11000
  140.9845  134.1361  157.4464 LP  0  0  0  0  0  0  0  0  0  0  0  0  # atno 17395 bound_to 11000

$$$$
