#       Name:                AV-unprocessed.smi:1967
#       Creating user name   scv26
#       Creation time:       Fri Mar 27 10:12:28 2020


#       File generated by GOLD software.
#

@<TRIPOS>MOLECULE
AV-unprocessed.smi:1967
    40    41     1
SMALL
NO_CHARGES


@<TRIPOS>ATOM
      1 ****         1.2110   2.4892   1.9155 O.2            1 S1                 0.0000
      2 ****         0.7536   1.9673   0.6186 S.o2           1 S1                 0.0000
      3 ****         1.0419   2.6878  -0.6311 O.2            1 S1                 0.0000
      4 ****         1.3268   0.3531   0.4426 N.3            1 S1                 0.0000
      5 ****         2.7677   0.1335   0.3279 C.3            1 S1                 0.0000
      6 ****         3.0925  -1.3684   0.2943 C.3            1 S1                 0.0000
      7 ****         2.5189  -2.0768  -0.9209 C.ar           1 S1                 0.0000
      8 ****         1.3256  -2.8247  -0.8239 C.ar           1 S1                 0.0000
      9 ****         0.8322  -3.4547  -1.9829 C.ar           1 S1                 0.0000
     10 ****         1.5474  -3.3138  -3.1878 C.ar           1 S1                 0.0000
     11 ****         2.7283  -2.5450  -3.1804 C.ar           1 S1                 0.0000
     12 ****         3.2091  -1.9358  -2.0751 N.ar           1 S1                 0.0000
     13 ****        -0.9492   1.6594   0.7138 N.3            1 S1                 0.0000
     14 ****        -1.4252   0.8351   1.8460 C.3            1 S1                 0.0000
     15 ****        -2.8688   0.3516   1.6301 C.3            1 S1                 0.0000
     16 ****        -3.8107   1.5262   1.3546 C.3            1 S1                 0.0000
     17 ****        -3.2903   2.3139   0.1496 C.3            1 S1                 0.0000
     18 ****        -1.8434   2.7846   0.3734 C.3            1 S1                 0.0000
     19 ****         0.7940  -0.1650  -0.2558 H              1 S1                 0.0000
     20 ****         3.1376   0.6280  -0.5710 H              1 S1                 0.0000
     21 ****         3.2636   0.6011   1.1789 H              1 S1                 0.0000
     22 ****         4.1747  -1.5053   0.2984 H              1 S1                 0.0000
     23 ****         2.7255  -1.8487   1.2024 H              1 S1                 0.0000
     24 ****         0.7981  -2.9112   0.1149 H              1 S1                 0.0000
     25 ****        -0.0784  -4.0345  -1.9484 H              1 S1                 0.0000
     26 ****         1.2002  -3.7833  -4.0963 H              1 S1                 0.0000
     27 ****         3.3018  -2.4162  -4.0863 H              1 S1                 0.0000
     28 ****        -0.7736  -0.0276   1.9803 H              1 S1                 0.0000
     29 ****        -1.3581   1.4232   2.7622 H              1 S1                 0.0000
     30 ****        -2.8991  -0.3481   0.7937 H              1 S1                 0.0000
     31 ****        -3.2094  -0.1999   2.5069 H              1 S1                 0.0000
     32 ****        -4.8214   1.1646   1.1635 H              1 S1                 0.0000
     33 ****        -3.8665   2.1743   2.2302 H              1 S1                 0.0000
     34 ****        -3.3367   1.6902  -0.7443 H              1 S1                 0.0000
     35 ****        -3.9345   3.1730  -0.0396 H              1 S1                 0.0000
     36 ****        -1.8034   3.5229   1.1754 H              1 S1                 0.0000
     37 ****        -1.4832   3.2791  -0.5287 H              1 S1                 0.0000
     38 ****         1.1483  -0.0297   1.3490 LP             1 S1                 0.0000
     39 ****         4.0505  -1.3965  -2.1093 LP             1 S1                 0.0000
     40 ****        -1.0390   1.0391  -0.0654 LP             1 S1                 0.0000
@<TRIPOS>BOND
    1    1    2 2     
    2    2    3 2     
    3    2    4 1     
    4    2   13 1     
    5    4    5 1     
    6    4   19 1     
    7    5    6 1     
    8    5   20 1     
    9    5   21 1     
   10    6    7 1     
   11    6   22 1     
   12    6   23 1     
   13    7   12 ar    
   14    7    8 ar    
   15    8    9 ar    
   16    8   24 1     
   17    9   10 ar    
   18    9   25 1     
   19   10   11 ar    
   20   10   26 1     
   21   11   12 ar    
   22   11   27 1     
   23   13   18 1     
   24   13   14 1     
   25   14   15 1     
   26   14   28 1     
   27   14   29 1     
   28   15   16 1     
   29   15   30 1     
   30   15   31 1     
   31   16   17 1     
   32   16   32 1     
   33   16   33 1     
   34   17   18 1     
   35   17   34 1     
   36   17   35 1     
   37   18   36 1     
   38   18   37 1     
   39    4   38 1     
   40   12   39 1     
   41   13   40 1     
@<TRIPOS>SUBSTRUCTURE
      1 S1             1
@<TRIPOS>SET
LONE_PAIRS      STATIC     ATOMS    <user>   **** ""
5 1 3 38 39 40
DONOR_HYDROGENS      STATIC     ATOMS    <user>   **** ""
1 19
ATOM$BLUE        STATIC     ATOMS    COLORGROUP SYSTEM
5 1 3 38 39 40
ATOM$RED        STATIC     ATOMS    COLORGROUP SYSTEM
1 19
