AV-unprocessed.smi:2675|AV-procd|sdf|10362|dock4
  -GOLD-   2272014393D 1   1.00000     0.00000
 Structure written by MMmdl.
 36 37  0  0  0  0  0  0  0  0  1 V2000
  152.6940  143.8527  162.2334 C   0  0  0  0  0  0  0  0  0  0  0  0
  152.0859  144.0871  160.8856 C   0  0  0  0  0  0  0  0  0  0  0  0
  150.9686  144.9037  160.7279 N   0  0  0  0  0  0  0  0  0  0  0  0
  150.7284  144.8627  159.4251 C   0  0  0  0  0  0  0  0  0  0  0  0
  151.5762  144.0952  158.7258 N   0  0  0  0  0  0  0  0  0  0  0  0
  151.5374  143.8458  157.2930 C   0  0  0  0  0  0  0  0  0  0  0  0
  150.9530  142.4650  156.9919 C   0  0  0  0  0  0  0  0  0  0  0  0
  151.3050  141.4945  157.6604 O   0  0  0  0  0  0  0  0  0  0  0  0
  150.0447  142.4093  156.0016 N   0  0  0  0  0  0  0  0  0  0  0  0
  149.2315  141.2684  155.5646 C   0  0  1  0  0  0  0  0  0  0  0  0
  150.2207  140.1250  155.2842 C   0  0  0  0  0  0  0  0  0  0  0  0
  148.3052  140.8131  156.6201 C   0  0  0  0  0  0  0  0  0  0  0  0
  147.5815  140.4564  157.4501 N   0  0  0  0  0  0  0  0  0  0  0  0
  148.4075  141.5185  154.2990 C   0  0  0  0  0  0  0  0  0  0  0  0
  147.0177  142.1166  154.3445 C   0  0  0  0  0  0  0  0  0  0  0  0
  147.2112  140.6875  153.8887 C   0  0  0  0  0  0  0  0  0  0  0  0
  152.4732  143.5832  159.6620 C   0  0  0  0  0  0  0  0  0  0  0  0
  153.6002  142.6662  159.3094 C   0  0  0  0  0  0  0  0  0  0  0  0
  153.7678  144.0397  162.2185 H   0  0  0  0  0  0  0  0  0  0  0  0
  152.5413  142.8231  162.5574 H   0  0  0  0  0  0  0  0  0  0  0  0
  152.2581  144.5054  162.9903 H   0  0  0  0  0  0  0  0  0  0  0  0
  149.9076  145.3967  158.9691 H   0  0  0  0  0  0  0  0  0  0  0  0
  150.9336  144.6146  156.8091 H   0  0  0  0  0  0  0  0  0  0  0  0
  152.5471  143.9286  156.8888 H   0  0  0  0  0  0  0  0  0  0  0  0
  149.8515  143.2786  155.5261 H   0  0  0  0  0  0  0  0  0  0  0  0
  149.7003  139.2166  154.9784 H   0  0  0  0  0  0  0  0  0  0  0  0
  150.8070  139.8806  156.1710 H   0  0  0  0  0  0  0  0  0  0  0  0
  150.9183  140.3880  154.4877 H   0  0  0  0  0  0  0  0  0  0  0  0
  149.0245  141.8478  153.4645 H   0  0  0  0  0  0  0  0  0  0  0  0
  146.5488  142.2704  155.3144 H   0  0  0  0  0  0  0  0  0  0  0  0
  146.7661  142.8558  153.5869 H   0  0  0  0  0  0  0  0  0  0  0  0
  147.0878  140.4808  152.8277 H   0  0  0  0  0  0  0  0  0  0  0  0
  146.8574  139.9032  154.5517 H   0  0  0  0  0  0  0  0  0  0  0  0
  154.1936  142.4153  160.1888 H   0  0  0  0  0  0  0  0  0  0  0  0
  154.2648  143.1296  158.5800 H   0  0  0  0  0  0  0  0  0  0  0  0
  153.2264  141.7351  158.8840 H   0  0  0  0  0  0  0  0  0  0  0  0
  1  2  1  0  0  0  0
  1 19  1  0  0  0  0
  1 20  1  0  0  0  0
  1 21  1  0  0  0  0
  2 17  2  0  0  0  0
  2  3  1  0  0  0  0
  3  4  2  0  0  0  0
  4  5  1  0  0  0  0
  4 22  1  0  0  0  0
  5  6  1  0  0  0  0
  5 17  1  0  0  0  0
  6  7  1  0  0  0  0
  6 23  1  0  0  0  0
  6 24  1  0  0  0  0
  7  8  2  0  0  0  0
  7  9  1  0  0  0  0
  9 10  1  0  0  0  0
  9 25  1  0  0  0  0
 10 11  1  0  0  0  0
 10 12  1  0  0  0  0
 10 14  1  0  0  0  0
 11 26  1  0  0  0  0
 11 27  1  0  0  0  0
 11 28  1  0  0  0  0
 12 13  3  0  0  0  0
 14 16  1  0  0  0  0
 14 15  1  0  0  0  0
 14 29  1  0  0  0  0
 15 16  1  0  0  0  0
 15 30  1  0  0  0  0
 15 31  1  0  0  0  0
 16 32  1  0  0  0  0
 16 33  1  0  0  0  0
 17 18  1  0  0  0  0
 18 34  1  0  0  0  0
 18 35  1  0  0  0  0
 18 36  1  0  0  0  0
M  END
> <s_m_source_file>
AV-unprocessed.smi

> <i_m_source_file_index>
2675

> <i_lp_mmshare_version>
43012

> <i_f3d_flags>
0

> <s_epik_input>
W0NIM11jMW5bY0hdbihjMVtDSDNdKVtDSDJdQyg9TylbTkhdW0NAQF0oW0NIM10pKEMjTilbQ0hdMltDSDJdW0NIMl0y

> <s_epik_cmdline>
J2VwaWtfcHl0aG9uJywgJy1waCcsICc3LjAnLCAnLXRuJywgJzgnLCAnLW1hJywgJzIwMCcsICctbWV0YWxfYmluZGluZycsICctaW1hZScsICc8aW5maWxlLm1hZT4nLCAnLW9tYWUnLCAnPG91dGZpbGUubWFlPic=

> <r_lp_tautomer_probability>
1

> <r_epik_Ionization_Penalty>
0.876174

> <r_epik_Ionization_Penalty_Charging>
0.876172

> <r_epik_Ionization_Penalty_Neutral>
2.64295e-06

> <r_epik_State_Penalty>
0.913958

> <r_epik_Charging_Adjusted_Penalty>
1.79013

> <i_epik_Tot_Q>
0

> <i_epik_Tot_abs_Q>
0

> <r_epik_Metal_State_Penalty>
0.359336

> <b_epik_Metal_Only>
0

> <s_lp_Force_Field>
OPLS_2005

> <r_lp_Energy>
14.5701

> <b_lp_Chiralities_Consistent>
1

> <s_lp_Variant>
AV-unprocessed.smi:2675-3

> <Gold.Version>
5.8.1

> <Gold.Id.Protein>
6NUR|6NUR_protein|mol2

> <Gold.PLP.Fitness>
46.2964

> <Gold.PLP.PLP>
-42.4669

> <Gold.PLP.part.hbond>
-1.0000

> <Gold.PLP.part.metal>
0.0000

> <Gold.PLP.part.buried>
-4.0763

> <Gold.PLP.part.nonpolar>
-38.4769

> <Gold.PLP.part.repulsive>
0.5188

> <Gold.PLP.ligand.clash>
0.0000

> <Gold.PLP.ligand.torsion>
1.2159

> <Gold.PLP.Chemscore.Hbond>
0.7520

> <Gold.PLP.Chemscore.CHOScore>
0.8306

> <Gold.PLP.Chemscore.Metal>
0.0000

> <Gold.Chemscore.Hbonds>
donor molecule, donor type, donor heavy atom, donor atom, acceptor molecule, acceptor atom, score
      L1  H     9    25       P1  8028  0.85
      L1  C     4    22       P1  8029  0.64

> <Gold.PLP.Chemscore.Internal.Correction>
1.5135

> <Gold.Rescore>
     Score         DG    S(hbond)    S(metal)    S(lipo)     H(rot)  DE(clash)    DE(int)     intcor
     13.51     -15.01       0.95        0.00      92.41       1.74       0.11       1.40       ----

> <Gold.Chemscore.Fitness>
13.5099

> <Gold.Chemscore.DG>
-15.0136

> <Gold.Chemscore.ZeroCoef>
-5.4800

> <Gold.Chemscore.Hbond>
0.9533

> <Gold.Chemscore.Metal>
0.0000

> <Gold.Chemscore.Lipo>
92.4056

> <Gold.Chemscore.Internal_Hbond>
0.0000

> <Gold.Chemscore.DEClash>
0.1071

> <Gold.Chemscore.DEInternal>
1.3967

> <Gold.Chemscore.Rot>
1.7429

> <Gold.Chemscore.Internal.Correction>
   9.000000E+99

> <Gold.Chemscore.Hbonds>
donor molecule, donor type, donor heavy atom, donor atom, acceptor molecule, acceptor atom, score
      L1  H     9    25       P1  8028  0.83

> <Gold.Chemscore.Hbond.Weighted>
-3.1839

> <Gold.Chemscore.Metal.Weighted>
-0.0000

> <Gold.Chemscore.Lipo.Weighted>
-10.8115

> <Gold.Chemscore.Internal_Hbond.Weighted>
0.0000

> <Gold.Chemscore.DEClash.Weighted>
0.1071

> <Gold.Chemscore.DEInternal.Weighted>
1.3967

> <Gold.Chemscore.Rot.Weighted>
4.4617

> <Gold.Chemscore.Internal.Correction.Weighted>
   9.000000E+99

> <Gold.Protein.RotatedTorsions>
[ 6907 6896 6895 6894 ] final  -57.94 input  -60.11 | X-H torsion
[ 7974 7965 7964 7962 ] final  132.52 input  175.53 | X-H torsion
[ 8008 7997 7996 7995 ] final  -71.65 input   59.86 | X-H torsion
[ 10167 10162 10161 10158 ] final   55.71 input  -65.29 | X-H torsion
[ 10718 10713 10712 10709 ] final   21.69 input   66.30 | X-H torsion
[ 10763 10752 10751 10750 ] final   68.00 input  -60.55 | X-H torsion
[ 11005 11000 10999 10996 ] final -117.44 input  -57.11 | X-H torsion

> <Gold.Protein.ActiveResidues>
 VAL166  LYS551  ARG553  GLY616  TRP617  ASP618  TYR619  PRO620  LYS621  CYS622 
 ASP623  PHE694  ASN695  SER759  ASP760  ASP761  ALA762  ILE779  LEU786  VAL792 
 PHE793  MET794  SER795  GLU796  ALA797  LYS798  CYS799  TRP800  GLU811  SER814 

> <Gold.Protein.RotatedAtoms>
  150.8046  134.7162  159.6631 H   0  0  0  0  0  0  0  0  0  0  0  0  # atno 6907 bound_to 6896
  152.4164  134.6030  160.0015 H   0  0  0  0  0  0  0  0  0  0  0  0  # atno 6908 bound_to 6896
  151.6258  133.3298  159.3134 H   0  0  0  0  0  0  0  0  0  0  0  0  # atno 6909 bound_to 6896
  144.9960  139.4359  143.5315 H   0  0  0  0  0  0  0  0  0  0  0  0  # atno 7974 bound_to 7965
  154.5104  140.0811  156.7979 H   0  0  0  0  0  0  0  0  0  0  0  0  # atno 8008 bound_to 7997
  155.3797  140.3427  155.4228 H   0  0  0  0  0  0  0  0  0  0  0  0  # atno 8009 bound_to 7997
  156.1567  140.1575  156.8669 H   0  0  0  0  0  0  0  0  0  0  0  0  # atno 8010 bound_to 7997
  140.2165  144.3834  150.6467 H   0  0  0  0  0  0  0  0  0  0  0  0  # atno 10167 bound_to 10162
  157.1420  130.6636  149.5984 H   0  0  0  0  0  0  0  0  0  0  0  0  # atno 10718 bound_to 10713
  153.0213  135.5263  154.7066 H   0  0  0  0  0  0  0  0  0  0  0  0  # atno 10763 bound_to 10752
  154.6160  135.2883  155.0382 H   0  0  0  0  0  0  0  0  0  0  0  0  # atno 10764 bound_to 10752
  154.1386  135.6581  153.4989 H   0  0  0  0  0  0  0  0  0  0  0  0  # atno 10765 bound_to 10752
  141.0354  133.9917  157.3079 H   0  0  0  0  0  0  0  0  0  0  0  0  # atno 11005 bound_to 11000
  146.3442  139.9320  142.8752 LP  0  0  0  0  0  0  0  0  0  0  0  0  # atno 17320 bound_to 7965
  145.2219  140.9938  143.4041 LP  0  0  0  0  0  0  0  0  0  0  0  0  # atno 17321 bound_to 7965
  140.6286  143.2184  151.6544 LP  0  0  0  0  0  0  0  0  0  0  0  0  # atno 17342 bound_to 10162
  139.5160  144.3361  152.0783 LP  0  0  0  0  0  0  0  0  0  0  0  0  # atno 17343 bound_to 10162
  155.9787  130.4774  150.6670 LP  0  0  0  0  0  0  0  0  0  0  0  0  # atno 17370 bound_to 10713
  157.4299  131.0848  151.1049 LP  0  0  0  0  0  0  0  0  0  0  0  0  # atno 17371 bound_to 10713
  139.9237  135.0201  156.8157 LP  0  0  0  0  0  0  0  0  0  0  0  0  # atno 17394 bound_to 11000
  140.6331  133.9887  155.7671 LP  0  0  0  0  0  0  0  0  0  0  0  0  # atno 17395 bound_to 11000

$$$$
