AV-unprocessed.smi:530|AV-procd|sdf|2842|dock1
  -GOLD-   2262023333D 1   1.00000     0.00000
 Structure written by MMmdl.
 35 37  0  0  0  0  0  0  0  0  1 V2000
  152.4325  138.0685  157.1710 C   0  0  0  0  0  0  0  0  0  0  0  0
  152.4406  139.3905  157.8706 C   0  0  0  0  0  0  0  0  0  0  0  0
  153.4671  139.7906  158.6220 N   0  0  0  0  0  0  0  0  0  0  0  0
  153.0580  141.0374  159.0547 C   0  0  0  0  0  0  0  0  0  0  0  0
  153.7033  141.9788  159.8883 C   0  0  0  0  0  0  0  0  0  0  0  0
  153.0807  143.2070  160.1936 C   0  0  0  0  0  0  0  0  0  0  0  0
  151.8072  143.5117  159.6705 C   0  0  0  0  0  0  0  0  0  0  0  0
  151.1459  142.5871  158.8395 C   0  0  0  0  0  0  0  0  0  0  0  0
  151.7712  141.3621  158.5395 C   0  0  0  0  0  0  0  0  0  0  0  0
  151.4027  140.2583  157.7778 N   0  0  0  0  0  0  0  0  0  0  0  0
  150.1533  140.1026  157.0452 C   0  0  0  0  0  0  0  0  0  0  0  0
  150.3752  139.6211  155.5976 C   0  0  2  0  0  0  0  0  0  0  0  0
  151.5605  140.1899  155.0755 O   0  0  0  0  0  0  0  0  0  0  0  0
  149.1638  139.9115  154.7255 C   0  0  0  0  0  0  0  0  0  0  0  0
  148.7336  141.2430  154.5400 C   0  0  0  0  0  0  0  0  0  0  0  0
  147.6163  141.5224  153.7294 C   0  0  0  0  0  0  0  0  0  0  0  0
  146.9238  140.4719  153.0975 C   0  0  0  0  0  0  0  0  0  0  0  0
  147.3512  139.1422  153.2742 C   0  0  0  0  0  0  0  0  0  0  0  0
  148.4688  138.8624  154.0844 C   0  0  0  0  0  0  0  0  0  0  0  0
  153.3244  137.4951  157.4257 H   0  0  0  0  0  0  0  0  0  0  0  0
  152.4155  138.2154  156.0911 H   0  0  0  0  0  0  0  0  0  0  0  0
  151.5574  137.4885  157.4636 H   0  0  0  0  0  0  0  0  0  0  0  0
  154.6792  141.7556  160.2931 H   0  0  0  0  0  0  0  0  0  0  0  0
  153.5829  143.9192  160.8317 H   0  0  0  0  0  0  0  0  0  0  0  0
  151.3378  144.4551  159.9080 H   0  0  0  0  0  0  0  0  0  0  0  0
  150.1700  142.8158  158.4378 H   0  0  0  0  0  0  0  0  0  0  0  0
  149.5395  139.3805  157.5852 H   0  0  0  0  0  0  0  0  0  0  0  0
  149.5982  141.0407  157.0586 H   0  0  0  0  0  0  0  0  0  0  0  0
  150.5314  138.5417  155.6075 H   0  0  0  0  0  0  0  0  0  0  0  0
  152.1933  140.2564  155.7742 H   0  0  0  0  0  0  0  0  0  0  0  0
  149.2600  142.0562  155.0180 H   0  0  0  0  0  0  0  0  0  0  0  0
  147.2907  142.5429  153.5917 H   0  0  0  0  0  0  0  0  0  0  0  0
  146.0665  140.6860  152.4762 H   0  0  0  0  0  0  0  0  0  0  0  0
  146.8220  138.3364  152.7873 H   0  0  0  0  0  0  0  0  0  0  0  0
  148.7918  137.8393  154.2107 H   0  0  0  0  0  0  0  0  0  0  0  0
  1  2  1  0  0  0  0
  1 20  1  0  0  0  0
  1 21  1  0  0  0  0
  1 22  1  0  0  0  0
  2 10  1  0  0  0  0
  2  3  2  0  0  0  0
  3  4  1  0  0  0  0
  4  9  2  0  0  0  0
  4  5  1  0  0  0  0
  5  6  2  0  0  0  0
  5 23  1  0  0  0  0
  6  7  1  0  0  0  0
  6 24  1  0  0  0  0
  7  8  2  0  0  0  0
  7 25  1  0  0  0  0
  8  9  1  0  0  0  0
  8 26  1  0  0  0  0
  9 10  1  0  0  0  0
 10 11  1  0  0  0  0
 11 12  1  0  0  0  0
 11 27  1  0  0  0  0
 11 28  1  0  0  0  0
 12 13  1  0  0  0  0
 12 14  1  0  0  0  0
 12 29  1  0  0  0  0
 13 30  1  0  0  0  0
 14 19  1  0  0  0  0
 14 15  2  0  0  0  0
 15 16  1  0  0  0  0
 15 31  1  0  0  0  0
 16 17  2  0  0  0  0
 16 32  1  0  0  0  0
 17 18  1  0  0  0  0
 17 33  1  0  0  0  0
 18 19  2  0  0  0  0
 18 34  1  0  0  0  0
 19 35  1  0  0  0  0
M  END
> <s_m_source_file>
AV-unprocessed.smi

> <i_m_source_file_index>
530

> <i_lp_mmshare_version>
43012

> <i_f3d_flags>
0

> <s_epik_input>
W2NIXTFbY0hdW2NIXVtjSF1jKGMxMiluKGMobjIpW0NIM10pW0NIMl1bQ0BIXShbT0hdKWMzW2NIXVtjSF1bY0hdW2NIXVtjSF0z

> <s_epik_cmdline>
J2VwaWtfcHl0aG9uJywgJy1waCcsICc3LjAnLCAnLXRuJywgJzgnLCAnLW1hJywgJzIwMCcsICctbWV0YWxfYmluZGluZycsICctaW1hZScsICc8aW5maWxlLm1hZT4nLCAnLW9tYWUnLCAnPG91dGZpbGUubWFlPic=

> <r_epik_Ionization_Penalty>
0.129663

> <r_epik_Ionization_Penalty_Charging>
0

> <r_epik_Ionization_Penalty_Neutral>
0.129663

> <r_epik_State_Penalty>
0.119073

> <r_epik_Charging_Adjusted_Penalty>
0.119073

> <i_epik_Tot_Q>
0

> <i_epik_Tot_abs_Q>
0

> <r_epik_Metal_State_Penalty>
0.000131867

> <b_epik_Metal_Only>
0

> <s_lp_Force_Field>
OPLS_2005

> <r_lp_Energy>
11.6946

> <b_lp_Chiralities_Consistent>
1

> <s_lp_Variant>
AV-unprocessed.smi:530-1

> <Gold.Version>
5.8.1

> <Gold.Id.Protein>
6NUR|6NUR_protein|mol2

> <Gold.PLP.Fitness>
44.3123

> <Gold.PLP.PLP>
-39.0860

> <Gold.PLP.part.hbond>
-2.0000

> <Gold.PLP.part.metal>
0.0000

> <Gold.PLP.part.buried>
-3.2189

> <Gold.PLP.part.nonpolar>
-33.4385

> <Gold.PLP.part.repulsive>
0.0000

> <Gold.PLP.ligand.clash>
0.0000

> <Gold.PLP.ligand.torsion>
0.3644

> <Gold.PLP.Chemscore.Hbond>
1.9760

> <Gold.PLP.Chemscore.CHOScore>
0.0000

> <Gold.PLP.Chemscore.Metal>
0.0000

> <Gold.Chemscore.Hbonds>
donor molecule, donor type, donor heavy atom, donor atom, acceptor molecule, acceptor atom, score
      P1  H  7989  7998       L1    13  1.00
      P1  H  7997  8010       L1     3  1.00

> <Gold.PLP.Chemscore.Internal.Correction>
0.0271

> <Gold.Rescore>
     Score         DG    S(hbond)    S(metal)    S(lipo)     H(rot)  DE(clash)    DE(int)     intcor
     18.09     -18.28       1.01        0.00     117.73       1.70       0.02       0.18       ----

> <Gold.Chemscore.Fitness>
18.0871

> <Gold.Chemscore.DG>
-18.2829

> <Gold.Chemscore.ZeroCoef>
-5.4800

> <Gold.Chemscore.Hbond>
1.0133

> <Gold.Chemscore.Metal>
0.0000

> <Gold.Chemscore.Lipo>
117.7258

> <Gold.Chemscore.Internal_Hbond>
0.0000

> <Gold.Chemscore.DEClash>
0.0199

> <Gold.Chemscore.DEInternal>
0.1759

> <Gold.Chemscore.Rot>
1.7013

> <Gold.Chemscore.Internal.Correction>
   9.000000E+99

> <Gold.Chemscore.Hbonds>
donor molecule, donor type, donor heavy atom, donor atom, acceptor molecule, acceptor atom, score
      P1  H  7989  7998       L1    13  0.94
      P1  H  7997  8010       L1     3  0.17

> <Gold.Chemscore.Hbond.Weighted>
-3.3843

> <Gold.Chemscore.Metal.Weighted>
-0.0000

> <Gold.Chemscore.Lipo.Weighted>
-13.7739

> <Gold.Chemscore.Internal_Hbond.Weighted>
0.0000

> <Gold.Chemscore.DEClash.Weighted>
0.0199

> <Gold.Chemscore.DEInternal.Weighted>
0.1759

> <Gold.Chemscore.Rot.Weighted>
4.3554

> <Gold.Chemscore.Internal.Correction.Weighted>
   9.000000E+99

> <Gold.Protein.RotatedTorsions>
[ 6907 6896 6895 6894 ] final   46.47 input  -60.11 | X-H torsion
[ 7974 7965 7964 7962 ] final   79.43 input  175.53 | X-H torsion
[ 8008 7997 7996 7995 ] final   15.23 input   59.86 | X-H torsion
[ 10167 10162 10161 10158 ] final  172.97 input  -65.29 | X-H torsion
[ 10718 10713 10712 10709 ] final  108.20 input   66.30 | X-H torsion
[ 10763 10752 10751 10750 ] final  154.48 input  -60.55 | X-H torsion
[ 11005 11000 10999 10996 ] final   33.68 input  -57.11 | X-H torsion

> <Gold.Protein.ActiveResidues>
 VAL166  LYS551  ARG553  GLY616  TRP617  ASP618  TYR619  PRO620  LYS621  CYS622 
 ASP623  PHE694  ASN695  SER759  ASP760  ASP761  ALA762  ILE779  LEU786  VAL792 
 PHE793  MET794  SER795  GLU796  ALA797  LYS798  CYS799  TRP800  GLU811  SER814 

> <Gold.Protein.RotatedAtoms>
  152.2568  134.8076  160.0436 H   0  0  0  0  0  0  0  0  0  0  0  0  # atno 6907 bound_to 6896
  151.8737  133.3475  159.3751 H   0  0  0  0  0  0  0  0  0  0  0  0  # atno 6908 bound_to 6896
  150.7102  134.5014  159.5607 H   0  0  0  0  0  0  0  0  0  0  0  0  # atno 6909 bound_to 6896
  145.6643  139.2479  143.1905 H   0  0  0  0  0  0  0  0  0  0  0  0  # atno 7974 bound_to 7965
  154.8596  140.2942  155.5547 H   0  0  0  0  0  0  0  0  0  0  0  0  # atno 8008 bound_to 7997
  156.3019  140.2480  156.3501 H   0  0  0  0  0  0  0  0  0  0  0  0  # atno 8009 bound_to 7997
  154.8932  140.0394  157.1840 H   0  0  0  0  0  0  0  0  0  0  0  0  # atno 8010 bound_to 7997
  139.5093  144.3313  152.0108 H   0  0  0  0  0  0  0  0  0  0  0  0  # atno 10167 bound_to 10162
  157.6596  131.0888  150.6269 H   0  0  0  0  0  0  0  0  0  0  0  0  # atno 10718 bound_to 10713
  154.1530  135.2814  155.3130 H   0  0  0  0  0  0  0  0  0  0  0  0  # atno 10763 bound_to 10752
  154.6203  135.5469  153.7572 H   0  0  0  0  0  0  0  0  0  0  0  0  # atno 10764 bound_to 10752
  153.0215  135.6437  154.1673 H   0  0  0  0  0  0  0  0  0  0  0  0  # atno 10765 bound_to 10752
  140.2606  134.3197  155.7859 H   0  0  0  0  0  0  0  0  0  0  0  0  # atno 11005 bound_to 11000
  146.1099  140.7441  142.9508 LP  0  0  0  0  0  0  0  0  0  0  0  0  # atno 17320 bound_to 7965
  144.7078  140.3922  143.7104 LP  0  0  0  0  0  0  0  0  0  0  0  0  # atno 17321 bound_to 7965
  140.2753  144.3919  150.6137 LP  0  0  0  0  0  0  0  0  0  0  0  0  # atno 17342 bound_to 10162
  140.6058  143.2167  151.6983 LP  0  0  0  0  0  0  0  0  0  0  0  0  # atno 17343 bound_to 10162
  156.6573  130.4502  149.5699 LP  0  0  0  0  0  0  0  0  0  0  0  0  # atno 17370 bound_to 10713
  156.2093  130.6669  151.1252 LP  0  0  0  0  0  0  0  0  0  0  0  0  # atno 17371 bound_to 10713
  141.2191  133.7407  156.9181 LP  0  0  0  0  0  0  0  0  0  0  0  0  # atno 17394 bound_to 11000
  140.1468  134.9257  157.2540 LP  0  0  0  0  0  0  0  0  0  0  0  0  # atno 17395 bound_to 11000

$$$$
