AV-unprocessed.smi:1512|AV-procd|sdf|6107|dock10
  -GOLD-   22720 6243D 1   1.00000     0.00000
 Structure written by MMmdl.
 44 46  0  0  0  0  0  0  0  0  3 V2000
  151.1401  140.9165  157.6073 C   0  0  0  0  0  0  0  0  0  0  0  0
  151.1130  142.1782  156.7293 C   0  0  1  0  0  0  0  0  0  0  0  0
  149.9233  142.1285  155.8810 N   0  0  0  0  0  0  0  0  0  0  0  0
  149.6574  141.1998  154.9495 C   0  0  0  0  0  0  0  0  0  0  0  0
  150.3745  140.2210  154.7387 O   0  0  0  0  0  0  0  0  0  0  0  0
  148.3763  141.4141  154.1320 C   0  0  0  0  0  0  0  0  0  0  0  0
  147.5396  140.2038  154.0596 N   0  0  0  0  0  0  0  0  0  0  0  0
  147.2573  139.6976  152.7769 C   0  0  0  0  0  0  0  0  0  0  0  0
  146.4934  138.6107  152.5966 C   0  0  0  0  0  0  0  0  0  0  0  0
  145.9568  137.9520  153.7624 C   0  0  0  0  0  0  0  0  0  0  0  0
  146.2159  138.4188  155.0056 C   0  0  0  0  0  0  0  0  0  0  0  0
  145.6508  137.7086  156.1299 N   0  3  0  0  0  0  0  0  0  0  0  0
  144.9650  136.7132  155.9186 O   0  0  0  0  0  0  0  0  0  0  0  0
  145.8660  138.1357  157.2605 O   0  5  0  0  0  0  0  0  0  0  0  0
  147.0528  139.6209  155.1998 C   0  0  0  0  0  0  0  0  0  0  0  0
  147.2998  140.0910  156.3124 O   0  0  0  0  0  0  0  0  0  0  0  0
  151.1096  143.4806  157.5679 C   0  0  1  0  0  0  0  0  0  0  0  0
  150.1017  143.4574  158.7431 C   0  0  0  0  0  0  0  0  0  0  0  0
  150.9705  143.8086  159.9640 C   0  0  2  0  0  0  0  0  0  0  0  0
  151.4059  145.2827  159.8797 C   0  0  0  0  0  0  0  0  0  0  0  0
  152.4445  145.2627  158.7431 C   0  0  0  0  0  0  0  0  0  0  0  0
  152.4407  143.7856  158.3051 C   0  0  1  0  0  0  0  0  0  0  0  0
  152.2645  143.0735  159.6415 C   0  0  0  0  0  0  0  0  0  0  0  0
  152.0374  140.8767  158.2245 H   0  0  0  0  0  0  0  0  0  0  0  0
  151.1287  140.0141  156.9950 H   0  0  0  0  0  0  0  0  0  0  0  0
  150.2775  140.8773  158.2733 H   0  0  0  0  0  0  0  0  0  0  0  0
  152.0115  142.1687  156.1106 H   0  0  0  0  0  0  0  0  0  0  0  0
  149.2679  142.8898  155.9827 H   0  0  0  0  0  0  0  0  0  0  0  0
  147.8262  142.2439  154.5777 H   0  0  0  0  0  0  0  0  0  0  0  0
  148.6300  141.7473  153.1236 H   0  0  0  0  0  0  0  0  0  0  0  0
  147.6908  140.2501  151.9559 H   0  0  0  0  0  0  0  0  0  0  0  0
  146.2834  138.2390  151.6045 H   0  0  0  0  0  0  0  0  0  0  0  0
  145.3478  137.0700  153.6270 H   0  0  0  0  0  0  0  0  0  0  0  0
  150.8742  144.3095  156.8981 H   0  0  0  0  0  0  0  0  0  0  0  0
  149.2826  144.1630  158.6004 H   0  0  0  0  0  0  0  0  0  0  0  0
  149.6636  142.4675  158.8767 H   0  0  0  0  0  0  0  0  0  0  0  0
  150.5136  143.5410  160.9171 H   0  0  0  0  0  0  0  0  0  0  0  0
  150.5687  145.9487  159.6673 H   0  0  0  0  0  0  0  0  0  0  0  0
  151.8660  145.6080  160.8135 H   0  0  0  0  0  0  0  0  0  0  0  0
  152.1876  145.9413  157.9290 H   0  0  0  0  0  0  0  0  0  0  0  0
  153.4273  145.5515  159.1181 H   0  0  0  0  0  0  0  0  0  0  0  0
  153.3428  143.5099  157.7593 H   0  0  0  0  0  0  0  0  0  0  0  0
  153.0681  143.2795  160.3509 H   0  0  0  0  0  0  0  0  0  0  0  0
  152.1402  141.9936  159.5478 H   0  0  0  0  0  0  0  0  0  0  0  0
  1  2  1  0  0  0  0
  1 24  1  0  0  0  0
  1 25  1  0  0  0  0
  1 26  1  0  0  0  0
  2  3  1  0  0  0  0
  2 17  1  0  0  0  0
  2 27  1  0  0  0  0
  3  4  1  0  0  0  0
  3 28  1  0  0  0  0
  4  5  2  0  0  0  0
  4  6  1  0  0  0  0
  6  7  1  0  0  0  0
  6 29  1  0  0  0  0
  6 30  1  0  0  0  0
  7 15  1  0  0  0  0
  7  8  1  0  0  0  0
  8  9  2  0  0  0  0
  8 31  1  0  0  0  0
  9 10  1  0  0  0  0
  9 32  1  0  0  0  0
 10 11  2  0  0  0  0
 10 33  1  0  0  0  0
 11 12  1  0  0  0  0
 11 15  1  0  0  0  0
 12 13  2  0  0  0  0
 12 14  1  0  0  0  0
 15 16  2  0  0  0  0
 17 22  1  0  0  0  0
 17 18  1  0  0  0  0
 17 34  1  0  0  0  0
 18 19  1  0  0  0  0
 18 35  1  0  0  0  0
 18 36  1  0  0  0  0
 19 23  1  0  0  0  0
 19 20  1  0  0  0  0
 19 37  1  0  0  0  0
 20 21  1  0  0  0  0
 20 38  1  0  0  0  0
 20 39  1  0  0  0  0
 21 22  1  0  0  0  0
 21 40  1  0  0  0  0
 21 41  1  0  0  0  0
 22 23  1  0  0  0  0
 22 42  1  0  0  0  0
 23 43  1  0  0  0  0
 23 44  1  0  0  0  0
M  CHG  1  12   1
M  CHG  1  14  -1
M  END
> <s_m_source_file>
AV-unprocessed.smi

> <i_m_source_file_index>
1512

> <i_lp_mmshare_version>
43012

> <i_f3d_flags>
0

> <s_epik_input>
W0NIMl0xW0NIMl1bQ0BIXShbQ0gyXTIpW0NAQEhdKFtDSDJdW0NAQEhdMTIpW0NASF0oW0NIM10pW05IXUMoPU8pW0NIMl1uM1tjSF1bY0hdW2NIXWMoW04rXSg9TylbTy1dKWMzPU8=

> <s_epik_cmdline>
J2VwaWtfcHl0aG9uJywgJy1waCcsICc3LjAnLCAnLXRuJywgJzgnLCAnLW1hJywgJzIwMCcsICctbWV0YWxfYmluZGluZycsICctaW1hZScsICc8aW5maWxlLm1hZT4nLCAnLW9tYWUnLCAnPG91dGZpbGUubWFlPic=

> <r_lp_tautomer_probability>
1

> <r_epik_Ionization_Penalty>
2.17697e-08

> <r_epik_Ionization_Penalty_Charging>
1.42735e-10

> <r_epik_Ionization_Penalty_Neutral>
2.16269e-08

> <r_epik_State_Penalty>
-0

> <r_epik_Charging_Adjusted_Penalty>
1.42735e-10

> <i_epik_Tot_Q>
0

> <i_epik_Tot_abs_Q>
2

> <r_epik_Metal_State_Penalty>
-0

> <b_epik_Metal_Only>
0

> <s_lp_Force_Field>
OPLS_2005

> <r_lp_Energy>
63.9552

> <b_lp_Chiralities_Consistent>
1

> <s_lp_Variant>
AV-unprocessed.smi:1512-8

> <Gold.Version>
5.8.1

> <Gold.Id.Protein>
6NUR|6NUR_protein|mol2

> <Gold.PLP.Fitness>
49.0034

> <Gold.PLP.PLP>
-40.5915

> <Gold.PLP.part.hbond>
-2.0000

> <Gold.PLP.part.metal>
0.0000

> <Gold.PLP.part.buried>
-2.7140

> <Gold.PLP.part.nonpolar>
-34.7034

> <Gold.PLP.part.repulsive>
0.2143

> <Gold.PLP.ligand.clash>
0.0000

> <Gold.PLP.ligand.torsion>
0.2933

> <Gold.PLP.Chemscore.Hbond>
1.9920

> <Gold.PLP.Chemscore.CHOScore>
0.9938

> <Gold.PLP.Chemscore.Metal>
0.0000

> <Gold.Chemscore.Hbonds>
donor molecule, donor type, donor heavy atom, donor atom, acceptor molecule, acceptor atom, score
      L1  H     3    28       P1  8028  0.94
      P1  H  7989  7998       L1     5  1.00
      L1  C     8    31       P1  7957  0.97

> <Gold.PLP.Chemscore.Internal.Correction>
0.0412

> <Gold.Rescore>
     Score         DG    S(hbond)    S(metal)    S(lipo)     H(rot)  DE(clash)    DE(int)     intcor
     16.19     -20.34       1.65        0.00     118.14       1.75       0.40       3.76       ----

> <Gold.Chemscore.Fitness>
16.1896

> <Gold.Chemscore.DG>
-20.3438

> <Gold.Chemscore.ZeroCoef>
-5.4800

> <Gold.Chemscore.Hbond>
1.6512

> <Gold.Chemscore.Metal>
0.0000

> <Gold.Chemscore.Lipo>
118.1374

> <Gold.Chemscore.Internal_Hbond>
0.0000

> <Gold.Chemscore.DEClash>
0.3952

> <Gold.Chemscore.DEInternal>
3.7590

> <Gold.Chemscore.Rot>
1.7474

> <Gold.Chemscore.Internal.Correction>
   9.000000E+99

> <Gold.Chemscore.Hbonds>
donor molecule, donor type, donor heavy atom, donor atom, acceptor molecule, acceptor atom, score
      L1  H     3    28       P1  8028  0.91
      P1  H  7989  7998       L1     5  0.39

> <Gold.Chemscore.Hbond.Weighted>
-5.5151

> <Gold.Chemscore.Metal.Weighted>
-0.0000

> <Gold.Chemscore.Lipo.Weighted>
-13.8221

> <Gold.Chemscore.Internal_Hbond.Weighted>
0.0000

> <Gold.Chemscore.DEClash.Weighted>
0.3952

> <Gold.Chemscore.DEInternal.Weighted>
3.7590

> <Gold.Chemscore.Rot.Weighted>
4.4733

> <Gold.Chemscore.Internal.Correction.Weighted>
   9.000000E+99

> <Gold.Protein.RotatedTorsions>
[ 6907 6896 6895 6894 ] final -138.45 input  -60.11 | X-H torsion
[ 7974 7965 7964 7962 ] final  147.22 input  175.53 | X-H torsion
[ 8008 7997 7996 7995 ] final -116.07 input   59.86 | X-H torsion
[ 10167 10162 10161 10158 ] final  -49.83 input  -65.29 | X-H torsion
[ 10718 10713 10712 10709 ] final   96.65 input   66.30 | X-H torsion
[ 10763 10752 10751 10750 ] final  166.27 input  -60.55 | X-H torsion
[ 11005 11000 10999 10996 ] final   81.36 input  -57.11 | X-H torsion

> <Gold.Protein.ActiveResidues>
 VAL166  LYS551  ARG553  GLY616  TRP617  ASP618  TYR619  PRO620  LYS621  CYS622 
 ASP623  PHE694  ASN695  SER759  ASP760  ASP761  ALA762  ILE779  LEU786  VAL792 
 PHE793  MET794  SER795  GLU796  ALA797  LYS798  CYS799  TRP800  GLU811  SER814 

> <Gold.Protein.RotatedAtoms>
  151.0352  133.5754  159.2656 H   0  0  0  0  0  0  0  0  0  0  0  0  # atno 6907 bound_to 6896
  151.2821  135.0716  159.9183 H   0  0  0  0  0  0  0  0  0  0  0  0  # atno 6908 bound_to 6896
  152.5353  134.0065  159.7973 H   0  0  0  0  0  0  0  0  0  0  0  0  # atno 6909 bound_to 6896
  144.8609  139.6002  143.5931 H   0  0  0  0  0  0  0  0  0  0  0  0  # atno 7974 bound_to 7965
  155.0620  140.0393  157.2580 H   0  0  0  0  0  0  0  0  0  0  0  0  # atno 8008 bound_to 7997
  154.7052  140.2681  155.6657 H   0  0  0  0  0  0  0  0  0  0  0  0  # atno 8009 bound_to 7997
  156.2773  140.2732  156.1676 H   0  0  0  0  0  0  0  0  0  0  0  0  # atno 8010 bound_to 7997
  140.6667  143.2682  151.4271 H   0  0  0  0  0  0  0  0  0  0  0  0  # atno 10167 bound_to 10162
  157.6924  131.0585  150.4524 H   0  0  0  0  0  0  0  0  0  0  0  0  # atno 10718 bound_to 10713
  154.3365  135.2754  155.2444 H   0  0  0  0  0  0  0  0  0  0  0  0  # atno 10763 bound_to 10752
  154.4733  135.5877  153.6341 H   0  0  0  0  0  0  0  0  0  0  0  0  # atno 10764 bound_to 10752
  152.9861  135.6093  154.3563 H   0  0  0  0  0  0  0  0  0  0  0  0  # atno 10765 bound_to 10752
  139.9101  134.7990  156.2031 H   0  0  0  0  0  0  0  0  0  0  0  0  # atno 11005 bound_to 11000
  146.2859  139.7004  142.9195 LP  0  0  0  0  0  0  0  0  0  0  0  0  # atno 17320 bound_to 7965
  145.4315  141.0415  143.2908 LP  0  0  0  0  0  0  0  0  0  0  0  0  # atno 17321 bound_to 7965
  139.5918  144.1482  152.2097 LP  0  0  0  0  0  0  0  0  0  0  0  0  # atno 17342 bound_to 10162
  140.0839  144.5677  150.7102 LP  0  0  0  0  0  0  0  0  0  0  0  0  # atno 17343 bound_to 10162
  156.4874  130.4087  149.6426 LP  0  0  0  0  0  0  0  0  0  0  0  0  # atno 17370 bound_to 10713
  156.3449  130.7401  151.2352 LP  0  0  0  0  0  0  0  0  0  0  0  0  # atno 17371 bound_to 10713
  141.0512  133.6887  156.1776 LP  0  0  0  0  0  0  0  0  0  0  0  0  # atno 17394 bound_to 11000
  140.6806  134.4771  157.5589 LP  0  0  0  0  0  0  0  0  0  0  0  0  # atno 17395 bound_to 11000

$$$$
