AV-unprocessed.smi:3151|AV-procd|sdf|12015|dock2
  -GOLD-   2272017423D 1   1.00000     0.00000
 Structure written by MMmdl.
 36 37  0  0  0  0  0  0  0  0  2 V2000
  153.9309  140.1430  158.8408 O   0  0  0  0  0  0  0  0  0  0  0  0
  152.7636  140.4788  159.0431 C   0  0  0  0  0  0  0  0  0  0  0  0
  152.4171  141.4202  160.2015 C   0  0  0  0  0  0  0  0  0  0  0  0
  152.7052  142.9044  159.8922 C   0  0  0  0  0  0  0  0  0  0  0  0
  152.1017  143.8997  160.8929 C   0  0  0  0  0  0  0  0  0  0  0  0
  151.9672  145.2270  160.1332 C   0  0  0  0  0  0  0  0  0  0  0  0
  152.1413  144.8955  158.6440 C   0  0  0  0  0  0  0  0  0  0  0  0
  152.1334  143.3684  158.5513 C   0  0  0  0  0  0  0  0  0  0  0  0
  151.7386  140.0619  158.2837 N   0  0  0  0  0  0  0  0  0  0  0  0
  151.8598  139.1548  157.1488 C   0  0  0  0  0  0  0  0  0  0  0  0
  151.7881  139.9101  155.8116 C   0  0  0  0  0  0  0  0  0  0  0  0
  150.5686  139.5825  155.0719 N   0  0  0  0  0  0  0  0  0  0  0  0
  149.4510  140.3620  154.9192 C   0  0  0  0  0  0  0  0  0  0  0  0
  148.5717  139.6378  154.1556 C   0  0  0  0  0  0  0  0  0  0  0  0
  149.1892  138.4479  153.8765 N   0  3  0  0  0  0  0  0  0  0  0  0
  150.4033  138.4159  154.4354 C   0  0  0  0  0  0  0  0  0  0  0  0
  151.3583  141.2941  160.4299 H   0  0  0  0  0  0  0  0  0  0  0  0
  152.9631  141.1174  161.0965 H   0  0  0  0  0  0  0  0  0  0  0  0
  153.7849  143.0629  159.8611 H   0  0  0  0  0  0  0  0  0  0  0  0
  151.1118  143.5606  161.2020 H   0  0  0  0  0  0  0  0  0  0  0  0
  152.7077  144.0012  161.7938 H   0  0  0  0  0  0  0  0  0  0  0  0
  150.9957  145.6828  160.3278 H   0  0  0  0  0  0  0  0  0  0  0  0
  152.7298  145.9382  160.4526 H   0  0  0  0  0  0  0  0  0  0  0  0
  151.3669  145.3481  158.0240 H   0  0  0  0  0  0  0  0  0  0  0  0
  153.1027  145.2767  158.2967 H   0  0  0  0  0  0  0  0  0  0  0  0
  152.7069  143.0003  157.6999 H   0  0  0  0  0  0  0  0  0  0  0  0
  151.1072  143.0149  158.4389 H   0  0  0  0  0  0  0  0  0  0  0  0
  150.8110  140.3869  158.5160 H   0  0  0  0  0  0  0  0  0  0  0  0
  152.7925  138.5926  157.2228 H   0  0  0  0  0  0  0  0  0  0  0  0
  151.0528  138.4237  157.2076 H   0  0  0  0  0  0  0  0  0  0  0  0
  151.8039  140.9886  155.9751 H   0  0  0  0  0  0  0  0  0  0  0  0
  152.6421  139.6692  155.1763 H   0  0  0  0  0  0  0  0  0  0  0  0
  149.3664  141.3475  155.3539 H   0  0  0  0  0  0  0  0  0  0  0  0
  147.5789  139.8735  153.8001 H   0  0  0  0  0  0  0  0  0  0  0  0
  151.1104  137.6068  154.3841 H   0  0  0  0  0  0  0  0  0  0  0  0
  148.7871  137.6985  153.3275 H   0  0  0  0  0  0  0  0  0  0  0  0
  1  2  2  0  0  0  0
  2  3  1  0  0  0  0
  2  9  1  0  0  0  0
  3  4  1  0  0  0  0
  3 17  1  0  0  0  0
  3 18  1  0  0  0  0
  4  8  1  0  0  0  0
  4  5  1  0  0  0  0
  4 19  1  0  0  0  0
  5  6  1  0  0  0  0
  5 20  1  0  0  0  0
  5 21  1  0  0  0  0
  6  7  1  0  0  0  0
  6 22  1  0  0  0  0
  6 23  1  0  0  0  0
  7  8  1  0  0  0  0
  7 24  1  0  0  0  0
  7 25  1  0  0  0  0
  8 26  1  0  0  0  0
  8 27  1  0  0  0  0
  9 10  1  0  0  0  0
  9 28  1  0  0  0  0
 10 11  1  0  0  0  0
 10 29  1  0  0  0  0
 10 30  1  0  0  0  0
 11 12  1  0  0  0  0
 11 31  1  0  0  0  0
 11 32  1  0  0  0  0
 12 16  1  0  0  0  0
 12 13  1  0  0  0  0
 13 14  2  0  0  0  0
 13 33  1  0  0  0  0
 14 15  1  0  0  0  0
 14 34  1  0  0  0  0
 15 16  2  0  0  0  0
 15 36  1  0  0  0  0
 16 35  1  0  0  0  0
M  CHG  1  15   1
M  END
> <s_m_source_file>
AV-unprocessed.smi

> <i_m_source_file_index>
3151

> <i_lp_mmshare_version>
43012

> <i_f3d_flags>
0

> <s_epik_input>
W0NIMl0xW0NIMl1bQ0gyXVtDSDJdW0NIXTFbQ0gyXUMoPU8pW05IXVtDSDJdW0NIMl1uMltjSF1bY0hdbltjSF0y

> <s_epik_cmdline>
J2VwaWtfcHl0aG9uJywgJy1waCcsICc3LjAnLCAnLXRuJywgJzgnLCAnLW1hJywgJzIwMCcsICctbWV0YWxfYmluZGluZycsICctaW1hZScsICc8aW5maWxlLm1hZT4nLCAnLW9tYWUnLCAnPG91dGZpbGUubWFlPic=

> <r_lp_tautomer_probability>
1

> <r_epik_Ionization_Penalty>
0.269485

> <r_epik_Ionization_Penalty_Charging>
0

> <r_epik_Ionization_Penalty_Neutral>
0.269485

> <r_epik_State_Penalty>
0.261564

> <r_epik_Charging_Adjusted_Penalty>
0.261564

> <i_epik_Tot_Q>
1

> <i_epik_Tot_abs_Q>
1

> <r_epik_Metal_State_Penalty>
0.546677

> <b_epik_Metal_Only>
0

> <s_lp_Force_Field>
OPLS_2005

> <r_lp_Energy>
22.4511

> <b_lp_Chiralities_Consistent>
1

> <s_lp_Variant>
AV-unprocessed.smi:3151-1

> <Gold.Version>
5.8.1

> <Gold.Id.Protein>
6NUR|6NUR_protein|mol2

> <Gold.PLP.Fitness>
47.8839

> <Gold.PLP.PLP>
-41.0240

> <Gold.PLP.part.hbond>
-2.6147

> <Gold.PLP.part.metal>
0.0000

> <Gold.PLP.part.buried>
-0.7643

> <Gold.PLP.part.nonpolar>
-37.7026

> <Gold.PLP.part.repulsive>
0.1516

> <Gold.PLP.ligand.clash>
0.0000

> <Gold.PLP.ligand.torsion>
0.9979

> <Gold.PLP.Chemscore.Hbond>
2.9440

> <Gold.PLP.Chemscore.CHOScore>
0.0000

> <Gold.PLP.Chemscore.Metal>
0.0000

> <Gold.Chemscore.Hbonds>
donor molecule, donor type, donor heavy atom, donor atom, acceptor molecule, acceptor atom, score
      L1  H    15    36       P1  7948  1.84
      P1  H  7997  8010       L1     1  0.94

> <Gold.PLP.Chemscore.Internal.Correction>
0.0238

> <Gold.Rescore>
     Score         DG    S(hbond)    S(metal)    S(lipo)     H(rot)  DE(clash)    DE(int)     intcor
     16.92     -17.92       1.92        0.00      96.91       2.08       0.04       0.96       ----

> <Gold.Chemscore.Fitness>
16.9193

> <Gold.Chemscore.DG>
-17.9233

> <Gold.Chemscore.ZeroCoef>
-5.4800

> <Gold.Chemscore.Hbond>
1.9232

> <Gold.Chemscore.Metal>
0.0000

> <Gold.Chemscore.Lipo>
96.9082

> <Gold.Chemscore.Internal_Hbond>
0.0000

> <Gold.Chemscore.DEClash>
0.0396

> <Gold.Chemscore.DEInternal>
0.9644

> <Gold.Chemscore.Rot>
2.0774

> <Gold.Chemscore.Internal.Correction>
   9.000000E+99

> <Gold.Chemscore.Hbonds>
donor molecule, donor type, donor heavy atom, donor atom, acceptor molecule, acceptor atom, score
      L1  H    15    36       P1  7948  0.84
      P1  H  7997  8010       L1     1  0.91

> <Gold.Chemscore.Hbond.Weighted>
-6.4233

> <Gold.Chemscore.Metal.Weighted>
-0.0000

> <Gold.Chemscore.Lipo.Weighted>
-11.3383

> <Gold.Chemscore.Internal_Hbond.Weighted>
0.0000

> <Gold.Chemscore.DEClash.Weighted>
0.0396

> <Gold.Chemscore.DEInternal.Weighted>
0.9644

> <Gold.Chemscore.Rot.Weighted>
5.3183

> <Gold.Chemscore.Internal.Correction.Weighted>
   9.000000E+99

> <Gold.Protein.RotatedTorsions>
[ 6907 6896 6895 6894 ] final  -53.53 input  -60.11 | X-H torsion
[ 7974 7965 7964 7962 ] final   32.93 input  175.53 | X-H torsion
[ 8008 7997 7996 7995 ] final   11.79 input   59.86 | X-H torsion
[ 10167 10162 10161 10158 ] final  -51.05 input  -65.29 | X-H torsion
[ 10718 10713 10712 10709 ] final -145.07 input   66.30 | X-H torsion
[ 10763 10752 10751 10750 ] final  127.66 input  -60.55 | X-H torsion
[ 11005 11000 10999 10996 ] final -107.13 input  -57.11 | X-H torsion

> <Gold.Protein.ActiveResidues>
 VAL166  LYS551  ARG553  GLY616  TRP617  ASP618  TYR619  PRO620  LYS621  CYS622 
 ASP623  PHE694  ASN695  SER759  ASP760  ASP761  ALA762  ILE779  LEU786  VAL792 
 PHE793  MET794  SER795  GLU796  ALA797  LYS798  CYS799  TRP800  GLU811  SER814 

> <Gold.Protein.RotatedAtoms>
  150.8419  134.7714  159.6938 H   0  0  0  0  0  0  0  0  0  0  0  0  # atno 6907 bound_to 6896
  152.4504  134.5402  159.9846 H   0  0  0  0  0  0  0  0  0  0  0  0  # atno 6908 bound_to 6896
  151.5540  133.3375  159.2994 H   0  0  0  0  0  0  0  0  0  0  0  0  # atno 6909 bound_to 6896
  146.1454  139.6463  142.9135 H   0  0  0  0  0  0  0  0  0  0  0  0  # atno 7974 bound_to 7965
  154.8117  140.2869  155.5848 H   0  0  0  0  0  0  0  0  0  0  0  0  # atno 8008 bound_to 7997
  156.2989  140.2567  156.2936 H   0  0  0  0  0  0  0  0  0  0  0  0  # atno 8009 bound_to 7997
  154.9440  140.0380  157.2100 H   0  0  0  0  0  0  0  0  0  0  0  0  # atno 8010 bound_to 7997
  140.6607  143.2634  151.4448 H   0  0  0  0  0  0  0  0  0  0  0  0  # atno 10167 bound_to 10162
  156.3779  130.7822  151.2011 H   0  0  0  0  0  0  0  0  0  0  0  0  # atno 10718 bound_to 10713
  153.7130  135.3265  155.3250 H   0  0  0  0  0  0  0  0  0  0  0  0  # atno 10763 bound_to 10752
  154.8379  135.4481  154.1295 H   0  0  0  0  0  0  0  0  0  0  0  0  # atno 10764 bound_to 10752
  153.2394  135.6969  153.7880 H   0  0  0  0  0  0  0  0  0  0  0  0  # atno 10765 bound_to 10752
  141.0970  133.8953  157.1939 H   0  0  0  0  0  0  0  0  0  0  0  0  # atno 11005 bound_to 11000
  145.4949  141.0438  143.2572 LP  0  0  0  0  0  0  0  0  0  0  0  0  # atno 17320 bound_to 7965
  144.7840  139.6465  143.7142 LP  0  0  0  0  0  0  0  0  0  0  0  0  # atno 17321 bound_to 7965
  139.5841  144.1645  152.2006 LP  0  0  0  0  0  0  0  0  0  0  0  0  # atno 17342 bound_to 10162
  140.0979  144.5565  150.7009 LP  0  0  0  0  0  0  0  0  0  0  0  0  # atno 17343 bound_to 10162
  157.7490  131.0353  150.4355 LP  0  0  0  0  0  0  0  0  0  0  0  0  # atno 17370 bound_to 10713
  156.4594  130.4028  149.6586 LP  0  0  0  0  0  0  0  0  0  0  0  0  # atno 17371 bound_to 10713
  139.9809  135.0098  156.9747 LP  0  0  0  0  0  0  0  0  0  0  0  0  # atno 17394 bound_to 11000
  140.5116  134.0996  155.7271 LP  0  0  0  0  0  0  0  0  0  0  0  0  # atno 17395 bound_to 11000

$$$$
