AV-unprocessed.smi:2718|AV-procd|sdf|10486|dock10
  -GOLD-   2272014533D 1   1.00000     0.00000
 Structure written by MMmdl.
 47 48  0  0  0  0  0  0  0  0  1 V2000
  150.0911  127.9122  153.7561 C   0  0  0  0  0  0  0  0  0  0  0  0
  150.1407  129.0465  154.7603 C   0  0  0  0  0  0  0  0  0  0  0  0
  149.7180  128.6662  156.1686 C   0  0  0  0  0  0  0  0  0  0  0  0
  150.5343  130.2859  154.4102 C   0  0  0  0  0  0  0  0  0  0  0  0
  150.6272  131.4687  155.3058 C   0  0  2  0  0  0  0  0  0  0  0  0
  149.4406  131.9094  156.1446 C   0  0  1  0  0  0  0  0  0  0  0  0
  149.6833  132.4103  157.5338 C   0  0  0  0  0  0  0  0  0  0  0  0
  150.7890  132.4037  158.0761 O   0  0  0  0  0  0  0  0  0  0  0  0
  148.5763  132.8666  158.1374 N   0  0  0  0  0  0  0  0  0  0  0  0
  148.4997  133.4002  159.4954 C   0  0  0  0  0  0  0  0  0  0  0  0
  147.1214  134.0041  159.8544 C   0  0  2  0  0  0  0  0  0  0  0  0
  146.3177  134.3682  158.5978 C   0  0  0  0  0  0  0  0  0  0  0  0
  147.2156  135.1665  160.8066 C   0  0  0  0  0  0  0  0  0  0  0  0
  147.8444  136.3133  160.5156 N   0  0  0  0  0  0  0  0  0  0  0  0
  147.7008  137.1124  161.6314 N   0  0  0  0  0  0  0  0  0  0  0  0
  146.9850  136.3767  162.4800 C   0  0  0  0  0  0  0  0  0  0  0  0
  146.6421  135.1611  162.0287 N   0  0  0  0  0  0  0  0  0  0  0  0
  145.8578  134.1416  162.6975 C   0  0  0  0  0  0  0  0  0  0  0  0
  149.9019  132.7598  154.9669 C   0  0  0  0  0  0  0  0  0  0  0  0
  150.6466  134.0780  155.1314 C   0  0  0  0  0  0  0  0  0  0  0  0
  148.9748  132.8541  153.7643 C   0  0  0  0  0  0  0  0  0  0  0  0
  149.0780  127.5155  153.6834 H   0  0  0  0  0  0  0  0  0  0  0  0
  150.7544  127.1047  154.0667 H   0  0  0  0  0  0  0  0  0  0  0  0
  150.3987  128.2408  152.7628 H   0  0  0  0  0  0  0  0  0  0  0  0
  150.3759  127.8903  156.5609 H   0  0  0  0  0  0  0  0  0  0  0  0
  148.6993  128.2780  156.1622 H   0  0  0  0  0  0  0  0  0  0  0  0
  149.7483  129.5102  156.8570 H   0  0  0  0  0  0  0  0  0  0  0  0
  150.8141  130.4663  153.3825 H   0  0  0  0  0  0  0  0  0  0  0  0
  151.6166  131.5543  155.7523 H   0  0  0  0  0  0  0  0  0  0  0  0
  148.5045  131.3706  156.0025 H   0  0  0  0  0  0  0  0  0  0  0  0
  147.7125  132.8401  157.6148 H   0  0  0  0  0  0  0  0  0  0  0  0
  148.7148  132.5692  160.1678 H   0  0  0  0  0  0  0  0  0  0  0  0
  149.2919  134.1337  159.6523 H   0  0  0  0  0  0  0  0  0  0  0  0
  146.5608  133.2121  160.3494 H   0  0  0  0  0  0  0  0  0  0  0  0
  145.3150  134.7077  158.8597 H   0  0  0  0  0  0  0  0  0  0  0  0
  146.2132  133.5084  157.9357 H   0  0  0  0  0  0  0  0  0  0  0  0
  146.8022  135.1655  158.0331 H   0  0  0  0  0  0  0  0  0  0  0  0
  146.6974  136.7384  163.4563 H   0  0  0  0  0  0  0  0  0  0  0  0
  145.6149  134.4602  163.7118 H   0  0  0  0  0  0  0  0  0  0  0  0
  146.4218  133.2105  162.7463 H   0  0  0  0  0  0  0  0  0  0  0  0
  144.9325  133.9716  162.1467 H   0  0  0  0  0  0  0  0  0  0  0  0
  149.9573  134.8650  155.4374 H   0  0  0  0  0  0  0  0  0  0  0  0
  151.1086  134.3714  154.1885 H   0  0  0  0  0  0  0  0  0  0  0  0
  151.4407  134.0001  155.8728 H   0  0  0  0  0  0  0  0  0  0  0  0
  148.2797  133.6852  153.8864 H   0  0  0  0  0  0  0  0  0  0  0  0
  148.3910  131.9411  153.6449 H   0  0  0  0  0  0  0  0  0  0  0  0
  149.5505  133.0116  152.8519 H   0  0  0  0  0  0  0  0  0  0  0  0
  1  2  1  0  0  0  0
  1 22  1  0  0  0  0
  1 23  1  0  0  0  0
  1 24  1  0  0  0  0
  2  3  1  0  0  0  0
  2  4  2  0  0  0  0
  3 25  1  0  0  0  0
  3 26  1  0  0  0  0
  3 27  1  0  0  0  0
  4  5  1  0  0  0  0
  4 28  1  0  0  0  0
  5 19  1  0  0  0  0
  5  6  1  0  0  0  0
  5 29  1  0  0  0  0
  6  7  1  0  0  0  0
  6 19  1  0  0  0  0
  6 30  1  0  0  0  0
  7  8  2  0  0  0  0
  7  9  1  0  0  0  0
  9 10  1  0  0  0  0
  9 31  1  0  0  0  0
 10 11  1  0  0  0  0
 10 32  1  0  0  0  0
 10 33  1  0  0  0  0
 11 12  1  0  0  0  0
 11 13  1  0  0  0  0
 11 34  1  0  0  0  0
 12 35  1  0  0  0  0
 12 36  1  0  0  0  0
 12 37  1  0  0  0  0
 13 17  1  0  0  0  0
 13 14  2  0  0  0  0
 14 15  1  0  0  0  0
 15 16  2  0  0  0  0
 16 17  1  0  0  0  0
 16 38  1  0  0  0  0
 17 18  1  0  0  0  0
 18 39  1  0  0  0  0
 18 40  1  0  0  0  0
 18 41  1  0  0  0  0
 19 20  1  0  0  0  0
 19 21  1  0  0  0  0
 20 42  1  0  0  0  0
 20 43  1  0  0  0  0
 20 44  1  0  0  0  0
 21 45  1  0  0  0  0
 21 46  1  0  0  0  0
 21 47  1  0  0  0  0
M  END
> <s_m_source_file>
AV-unprocessed.smi

> <i_m_source_file_index>
2718

> <i_lp_mmshare_version>
43012

> <i_f3d_flags>
0

> <s_epik_input>
W0NIM11DKFtDSDNdKT1bQ0hdW0NAQEhdKEMxKFtDSDNdKVtDSDNdKVtDQEhdMUMoPU8pW05IXVtDSDJdW0NASF0oW0NIM10pYzJubltjSF1uMltDSDNd

> <s_epik_cmdline>
J2VwaWtfcHl0aG9uJywgJy1waCcsICc3LjAnLCAnLXRuJywgJzgnLCAnLW1hJywgJzIwMCcsICctbWV0YWxfYmluZGluZycsICctaW1hZScsICc8aW5maWxlLm1hZT4nLCAnLW9tYWUnLCAnPG91dGZpbGUubWFlPic=

> <r_lp_tautomer_probability>
1

> <r_epik_Ionization_Penalty>
0.000449586

> <r_epik_Ionization_Penalty_Charging>
0

> <r_epik_Ionization_Penalty_Neutral>
0.000449586

> <r_epik_State_Penalty>
0.000243372

> <r_epik_Charging_Adjusted_Penalty>
0.000243372

> <i_epik_Tot_Q>
0

> <i_epik_Tot_abs_Q>
0

> <r_epik_Metal_State_Penalty>
-0

> <b_epik_Metal_Only>
0

> <s_lp_Force_Field>
OPLS_2005

> <r_lp_Energy>
15.15

> <b_lp_Chiralities_Consistent>
1

> <s_lp_Variant>
AV-unprocessed.smi:2718-1

> <Gold.Version>
5.8.1

> <Gold.Id.Protein>
6NUR|6NUR_protein|mol2

> <Gold.PLP.Fitness>
38.3287

> <Gold.PLP.PLP>
-31.4728

> <Gold.PLP.part.hbond>
-3.0000

> <Gold.PLP.part.metal>
0.0000

> <Gold.PLP.part.buried>
-2.1176

> <Gold.PLP.part.nonpolar>
-25.9843

> <Gold.PLP.part.repulsive>
0.0610

> <Gold.PLP.ligand.clash>
0.0000

> <Gold.PLP.ligand.torsion>
0.7783

> <Gold.PLP.Chemscore.Hbond>
2.7200

> <Gold.PLP.Chemscore.CHOScore>
0.0000

> <Gold.PLP.Chemscore.Metal>
0.0000

> <Gold.Chemscore.Hbonds>
donor molecule, donor type, donor heavy atom, donor atom, acceptor molecule, acceptor atom, score
      P1  H  6896  6909       L1     8  1.00
      P1  H  6931  6943       L1    15  1.00
      P1  H  6934  6947       L1    15  0.64

> <Gold.PLP.Chemscore.Internal.Correction>
0.2526

> <Gold.Rescore>
     Score         DG    S(hbond)    S(metal)    S(lipo)     H(rot)  DE(clash)    DE(int)     intcor
     15.18     -16.07       2.70        0.00      56.13       1.95       0.04       0.84       ----

> <Gold.Chemscore.Fitness>
15.1849

> <Gold.Chemscore.DG>
-16.0655

> <Gold.Chemscore.ZeroCoef>
-5.4800

> <Gold.Chemscore.Hbond>
2.7002

> <Gold.Chemscore.Metal>
0.0000

> <Gold.Chemscore.Lipo>
56.1319

> <Gold.Chemscore.Internal_Hbond>
0.0000

> <Gold.Chemscore.DEClash>
0.0431

> <Gold.Chemscore.DEInternal>
0.8374

> <Gold.Chemscore.Rot>
1.9533

> <Gold.Chemscore.Internal.Correction>
   9.000000E+99

> <Gold.Chemscore.Hbonds>
donor molecule, donor type, donor heavy atom, donor atom, acceptor molecule, acceptor atom, score
      P1  H  6896  6909       L1     8  0.98
      P1  H  6931  6943       L1    15  0.88
      P1  H  6934  6947       L1    15  0.37

> <Gold.Chemscore.Hbond.Weighted>
-9.0186

> <Gold.Chemscore.Metal.Weighted>
-0.0000

> <Gold.Chemscore.Lipo.Weighted>
-6.5674

> <Gold.Chemscore.Internal_Hbond.Weighted>
0.0000

> <Gold.Chemscore.DEClash.Weighted>
0.0431

> <Gold.Chemscore.DEInternal.Weighted>
0.8374

> <Gold.Chemscore.Rot.Weighted>
5.0005

> <Gold.Chemscore.Internal.Correction.Weighted>
   9.000000E+99

> <Gold.Protein.RotatedTorsions>
[ 6907 6896 6895 6894 ] final  -47.70 input  -60.11 | X-H torsion
[ 7974 7965 7964 7962 ] final  175.09 input  175.53 | X-H torsion
[ 8008 7997 7996 7995 ] final   99.75 input   59.86 | X-H torsion
[ 10167 10162 10161 10158 ] final -136.81 input  -65.29 | X-H torsion
[ 10718 10713 10712 10709 ] final  -60.16 input   66.30 | X-H torsion
[ 10763 10752 10751 10750 ] final   99.94 input  -60.55 | X-H torsion
[ 11005 11000 10999 10996 ] final  150.55 input  -57.11 | X-H torsion

> <Gold.Protein.ActiveResidues>
 VAL166  LYS551  ARG553  GLY616  TRP617  ASP618  TYR619  PRO620  LYS621  CYS622 
 ASP623  PHE694  ASN695  SER759  ASP760  ASP761  ALA762  ILE779  LEU786  VAL792 
 PHE793  MET794  SER795  GLU796  ALA797  LYS798  CYS799  TRP800  GLU811  SER814 

> <Gold.Protein.RotatedAtoms>
  150.8981  134.8391  159.7340 H   0  0  0  0  0  0  0  0  0  0  0  0  # atno 6907 bound_to 6896
  152.4877  134.4544  159.9595 H   0  0  0  0  0  0  0  0  0  0  0  0  # atno 6908 bound_to 6896
  151.4599  133.3556  159.2843 H   0  0  0  0  0  0  0  0  0  0  0  0  # atno 6909 bound_to 6896
  144.7208  139.9894  143.6439 H   0  0  0  0  0  0  0  0  0  0  0  0  # atno 7974 bound_to 7965
  156.1136  140.3224  155.8108 H   0  0  0  0  0  0  0  0  0  0  0  0  # atno 8008 bound_to 7997
  155.4629  140.0541  157.3006 H   0  0  0  0  0  0  0  0  0  0  0  0  # atno 8009 bound_to 7997
  154.4777  140.2039  155.9852 H   0  0  0  0  0  0  0  0  0  0  0  0  # atno 8010 bound_to 7997
  139.8641  143.7040  152.2647 H   0  0  0  0  0  0  0  0  0  0  0  0  # atno 10167 bound_to 10162
  156.1010  130.4186  150.0815 H   0  0  0  0  0  0  0  0  0  0  0  0  # atno 10718 bound_to 10713
  153.3077  135.4096  155.1308 H   0  0  0  0  0  0  0  0  0  0  0  0  # atno 10763 bound_to 10752
  154.8567  135.3557  154.5766 H   0  0  0  0  0  0  0  0  0  0  0  0  # atno 10764 bound_to 10752
  153.6193  135.7065  153.5375 H   0  0  0  0  0  0  0  0  0  0  0  0  # atno 10765 bound_to 10752
  140.1141  134.8905  157.1979 H   0  0  0  0  0  0  0  0  0  0  0  0  # atno 11005 bound_to 11000
  146.0424  139.3434  143.0689 LP  0  0  0  0  0  0  0  0  0  0  0  0  # atno 17320 bound_to 7965
  145.8318  140.9627  143.0845 LP  0  0  0  0  0  0  0  0  0  0  0  0  # atno 17321 bound_to 7965
  139.7346  144.7574  151.0748 LP  0  0  0  0  0  0  0  0  0  0  0  0  # atno 17342 bound_to 10162
  140.7771  143.5046  150.9728 LP  0  0  0  0  0  0  0  0  0  0  0  0  # atno 17343 bound_to 10162
  156.8803  130.9554  151.3600 LP  0  0  0  0  0  0  0  0  0  0  0  0  # atno 17370 bound_to 10713
  157.6180  130.8633  149.9061 LP  0  0  0  0  0  0  0  0  0  0  0  0  # atno 17371 bound_to 10713
  140.3051  134.3087  155.7280 LP  0  0  0  0  0  0  0  0  0  0  0  0  # atno 17394 bound_to 11000
  141.2137  133.7616  156.9697 LP  0  0  0  0  0  0  0  0  0  0  0  0  # atno 17395 bound_to 11000

$$$$
