AV-unprocessed.smi:1535|AV-procd|sdf|6173|dock9
  -GOLD-   22720 6323D 1   1.00000     0.00000
 Structure written by MMmdl.
 46 47  0  0  0  0  0  0  0  0  1 V2000
  152.6699  143.1951  161.3739 C   0  0  0  0  0  0  0  0  0  0  0  0
  152.2342  142.7114  160.0021 C   0  0  0  0  0  0  0  0  0  0  0  0
  152.6803  141.4512  159.5445 C   0  0  0  0  0  0  0  0  0  0  0  0
  152.2962  140.9637  158.2760 C   0  0  0  0  0  0  0  0  0  0  0  0
  152.6104  139.7764  157.6375 N   0  0  0  0  0  0  0  0  0  0  0  0
  151.9511  139.9073  156.4901 C   0  0  0  0  0  0  0  0  0  0  0  0
  151.2473  141.0410  156.3084 N   0  0  0  0  0  0  0  0  0  0  0  0
  150.4554  141.3963  155.1438 C   0  0  0  0  0  0  0  0  0  0  0  0
  149.3469  140.3677  154.8497 C   0  0  1  0  0  0  0  0  0  0  0  0
  148.5473  140.8391  153.7822 O   0  0  0  0  0  0  0  0  0  0  0  0
  149.9381  138.9968  154.4574 C   0  0  0  0  0  0  0  0  0  0  0  0
  149.3837  137.8355  155.1597 N   0  0  0  0  0  0  0  0  0  0  0  0
  148.0132  137.5995  154.7177 C   0  0  0  0  0  0  0  0  0  0  0  0
  150.2066  136.6336  154.9810 C   0  0  0  0  0  0  0  0  0  0  0  0
  149.6814  135.3625  155.6760 C   0  0  1  0  0  0  0  0  0  0  0  0
  150.4904  134.1289  155.2564 C   0  0  0  0  0  0  0  0  0  0  0  0
  149.6803  135.5065  157.1415 C   0  0  0  0  0  0  0  0  0  0  0  0
  149.6787  135.6199  158.2930 N   0  0  0  0  0  0  0  0  0  0  0  0
  151.4469  141.7780  157.4709 C   0  0  0  0  0  0  0  0  0  0  0  0
  150.9976  143.0342  157.9149 C   0  0  0  0  0  0  0  0  0  0  0  0
  151.3917  143.5066  159.1844 C   0  0  0  0  0  0  0  0  0  0  0  0
  150.9013  144.8647  159.6542 C   0  0  0  0  0  0  0  0  0  0  0  0
  153.2733  142.4458  161.8872 H   0  0  0  0  0  0  0  0  0  0  0  0
  151.8022  143.4090  161.9983 H   0  0  0  0  0  0  0  0  0  0  0  0
  153.2667  144.1032  161.2863 H   0  0  0  0  0  0  0  0  0  0  0  0
  153.3229  140.8455  160.1664 H   0  0  0  0  0  0  0  0  0  0  0  0
  151.9795  139.1338  155.7367 H   0  0  0  0  0  0  0  0  0  0  0  0
  150.0304  142.3893  155.2962 H   0  0  0  0  0  0  0  0  0  0  0  0
  151.1289  141.4750  154.2894 H   0  0  0  0  0  0  0  0  0  0  0  0
  148.7183  140.2875  155.7350 H   0  0  0  0  0  0  0  0  0  0  0  0
  148.9767  140.6267  152.9678 H   0  0  0  0  0  0  0  0  0  0  0  0
  149.7950  138.8728  153.3827 H   0  0  0  0  0  0  0  0  0  0  0  0
  151.0188  139.0159  154.6070 H   0  0  0  0  0  0  0  0  0  0  0  0
  147.5356  136.8152  155.3035 H   0  0  0  0  0  0  0  0  0  0  0  0
  147.9808  137.3117  153.6660 H   0  0  0  0  0  0  0  0  0  0  0  0
  147.4065  138.4973  154.8412 H   0  0  0  0  0  0  0  0  0  0  0  0
  150.3324  136.4365  153.9152 H   0  0  0  0  0  0  0  0  0  0  0  0
  151.2083  136.8089  155.3683 H   0  0  0  0  0  0  0  0  0  0  0  0
  148.6468  135.1844  155.3856 H   0  0  0  0  0  0  0  0  0  0  0  0
  150.0985  133.2271  155.7274 H   0  0  0  0  0  0  0  0  0  0  0  0
  151.5375  134.2265  155.5447 H   0  0  0  0  0  0  0  0  0  0  0  0
  150.4521  133.9816  154.1767 H   0  0  0  0  0  0  0  0  0  0  0  0
  150.3532  143.6281  157.2840 H   0  0  0  0  0  0  0  0  0  0  0  0
  150.3103  145.3626  158.8850 H   0  0  0  0  0  0  0  0  0  0  0  0
  151.7430  145.5127  159.8991 H   0  0  0  0  0  0  0  0  0  0  0  0
  150.2763  144.7576  160.5409 H   0  0  0  0  0  0  0  0  0  0  0  0
  1  2  1  0  0  0  0
  1 23  1  0  0  0  0
  1 24  1  0  0  0  0
  1 25  1  0  0  0  0
  2 21  1  0  0  0  0
  2  3  2  0  0  0  0
  3  4  1  0  0  0  0
  3 26  1  0  0  0  0
  4 19  2  0  0  0  0
  4  5  1  0  0  0  0
  5  6  2  0  0  0  0
  6  7  1  0  0  0  0
  6 27  1  0  0  0  0
  7  8  1  0  0  0  0
  7 19  1  0  0  0  0
  8  9  1  0  0  0  0
  8 28  1  0  0  0  0
  8 29  1  0  0  0  0
  9 10  1  0  0  0  0
  9 11  1  0  0  0  0
  9 30  1  0  0  0  0
 10 31  1  0  0  0  0
 11 12  1  0  0  0  0
 11 32  1  0  0  0  0
 11 33  1  0  0  0  0
 12 13  1  0  0  0  0
 12 14  1  0  0  0  0
 13 34  1  0  0  0  0
 13 35  1  0  0  0  0
 13 36  1  0  0  0  0
 14 15  1  0  0  0  0
 14 37  1  0  0  0  0
 14 38  1  0  0  0  0
 15 16  1  0  0  0  0
 15 17  1  0  0  0  0
 15 39  1  0  0  0  0
 16 40  1  0  0  0  0
 16 41  1  0  0  0  0
 16 42  1  0  0  0  0
 17 18  3  0  0  0  0
 19 20  1  0  0  0  0
 20 21  2  0  0  0  0
 20 43  1  0  0  0  0
 21 22  1  0  0  0  0
 22 44  1  0  0  0  0
 22 45  1  0  0  0  0
 22 46  1  0  0  0  0
M  END
> <s_m_source_file>
AV-unprocessed.smi

> <i_m_source_file_index>
1535

> <i_lp_mmshare_version>
43012

> <i_f3d_flags>
0

> <s_epik_input>
W0NIM11jKFtjSF0xKWMoW0NIM10pW2NIXWMoYzEyKW4oW2NIXW4yKVtDSDJdW0NASF0oW09IXSlbQ0gyXU4oW0NIM10pW0NIMl1bQ0BIXShbQ0gzXSlDI04=

> <s_epik_cmdline>
J2VwaWtfcHl0aG9uJywgJy1waCcsICc3LjAnLCAnLXRuJywgJzgnLCAnLW1hJywgJzIwMCcsICctbWV0YWxfYmluZGluZycsICctaW1hZScsICc8aW5maWxlLm1hZT4nLCAnLW9tYWUnLCAnPG91dGZpbGUubWFlPic=

> <r_epik_Ionization_Penalty>
0.098511

> <r_epik_Ionization_Penalty_Charging>
0

> <r_epik_Ionization_Penalty_Neutral>
0.098511

> <r_epik_State_Penalty>
0.0881608

> <r_epik_Charging_Adjusted_Penalty>
0.0881608

> <i_epik_Tot_Q>
0

> <i_epik_Tot_abs_Q>
0

> <r_epik_Metal_State_Penalty>
0.0128087

> <b_epik_Metal_Only>
0

> <s_lp_Force_Field>
OPLS_2005

> <r_lp_Energy>
24.0286

> <b_lp_Chiralities_Consistent>
1

> <s_lp_Variant>
AV-unprocessed.smi:1535-4

> <Gold.Version>
5.8.1

> <Gold.Id.Protein>
6NUR|6NUR_protein|mol2

> <Gold.PLP.Fitness>
47.7860

> <Gold.PLP.PLP>
-40.3110

> <Gold.PLP.part.hbond>
-3.0000

> <Gold.PLP.part.metal>
0.0000

> <Gold.PLP.part.buried>
-4.0943

> <Gold.PLP.part.nonpolar>
-32.6856

> <Gold.PLP.part.repulsive>
0.1110

> <Gold.PLP.ligand.clash>
0.0000

> <Gold.PLP.ligand.torsion>
0.8059

> <Gold.PLP.Chemscore.Hbond>
3.0000

> <Gold.PLP.Chemscore.CHOScore>
0.0000

> <Gold.PLP.Chemscore.Metal>
0.0000

> <Gold.Chemscore.Hbonds>
donor molecule, donor type, donor heavy atom, donor atom, acceptor molecule, acceptor atom, score
      L1  H    10    31       P1  7957  1.00
      P1  H  6896  6909       L1    18  1.00
      P1  H  7997  8009       L1     5  0.93

> <Gold.PLP.Chemscore.Internal.Correction>
0.0867

> <Gold.Rescore>
     Score         DG    S(hbond)    S(metal)    S(lipo)     H(rot)  DE(clash)    DE(int)     intcor
     16.18     -19.16       1.98        0.00     115.45       2.51       2.15       0.82       ----

> <Gold.Chemscore.Fitness>
16.1844

> <Gold.Chemscore.DG>
-19.1565

> <Gold.Chemscore.ZeroCoef>
-5.4800

> <Gold.Chemscore.Hbond>
1.9752

> <Gold.Chemscore.Metal>
0.0000

> <Gold.Chemscore.Lipo>
115.4538

> <Gold.Chemscore.Internal_Hbond>
0.0000

> <Gold.Chemscore.DEClash>
2.1532

> <Gold.Chemscore.DEInternal>
0.8188

> <Gold.Chemscore.Rot>
2.5113

> <Gold.Chemscore.Internal.Correction>
   9.000000E+99

> <Gold.Chemscore.Hbonds>
donor molecule, donor type, donor heavy atom, donor atom, acceptor molecule, acceptor atom, score
      L1  H    10    31       P1  7957  0.96
      P1  H  6896  6909       L1    18  0.99
      P1  H  7997  8009       L1     5  0.10

> <Gold.Chemscore.Hbond.Weighted>
-6.5973

> <Gold.Chemscore.Metal.Weighted>
-0.0000

> <Gold.Chemscore.Lipo.Weighted>
-13.5081

> <Gold.Chemscore.Internal_Hbond.Weighted>
0.0000

> <Gold.Chemscore.DEClash.Weighted>
2.1532

> <Gold.Chemscore.DEInternal.Weighted>
0.8188

> <Gold.Chemscore.Rot.Weighted>
6.4289

> <Gold.Chemscore.Internal.Correction.Weighted>
   9.000000E+99

> <Gold.Protein.RotatedTorsions>
[ 6907 6896 6895 6894 ] final   52.46 input  -60.11 | X-H torsion
[ 7974 7965 7964 7962 ] final   27.93 input  175.53 | X-H torsion
[ 8008 7997 7996 7995 ] final  158.34 input   59.86 | X-H torsion
[ 10167 10162 10161 10158 ] final  -47.49 input  -65.29 | X-H torsion
[ 10718 10713 10712 10709 ] final -170.82 input   66.30 | X-H torsion
[ 10763 10752 10751 10750 ] final  151.63 input  -60.55 | X-H torsion
[ 11005 11000 10999 10996 ] final  -10.05 input  -57.11 | X-H torsion

> <Gold.Protein.ActiveResidues>
 VAL166  LYS551  ARG553  GLY616  TRP617  ASP618  TYR619  PRO620  LYS621  CYS622 
 ASP623  PHE694  ASN695  SER759  ASP760  ASP761  ALA762  ILE779  LEU786  VAL792 
 PHE793  MET794  SER795  GLU796  ALA797  LYS798  CYS799  TRP800  GLU811  SER814 

> <Gold.Protein.RotatedAtoms>
  152.3236  134.7350  160.0307 H   0  0  0  0  0  0  0  0  0  0  0  0  # atno 6907 bound_to 6896
  151.7790  133.3342  159.3474 H   0  0  0  0  0  0  0  0  0  0  0  0  # atno 6908 bound_to 6896
  150.7383  134.5880  159.6017 H   0  0  0  0  0  0  0  0  0  0  0  0  # atno 6909 bound_to 6896
  146.1757  139.7124  142.8936 H   0  0  0  0  0  0  0  0  0  0  0  0  # atno 7974 bound_to 7965
  156.2308  140.1861  156.7246 H   0  0  0  0  0  0  0  0  0  0  0  0  # atno 8008 bound_to 7997
  154.6020  140.0634  156.9408 H   0  0  0  0  0  0  0  0  0  0  0  0  # atno 8009 bound_to 7997
  155.2159  140.3303  155.4325 H   0  0  0  0  0  0  0  0  0  0  0  0  # atno 8010 bound_to 7997
  140.6772  143.2782  151.3935 H   0  0  0  0  0  0  0  0  0  0  0  0  # atno 10167 bound_to 10162
  156.7317  130.9309  151.3105 H   0  0  0  0  0  0  0  0  0  0  0  0  # atno 10718 bound_to 10713
  154.1069  135.2842  155.3239 H   0  0  0  0  0  0  0  0  0  0  0  0  # atno 10763 bound_to 10752
  154.6517  135.5366  153.7913 H   0  0  0  0  0  0  0  0  0  0  0  0  # atno 10764 bound_to 10752
  153.0359  135.6511  154.1229 H   0  0  0  0  0  0  0  0  0  0  0  0  # atno 10765 bound_to 10752
  140.7406  133.8673  155.8964 H   0  0  0  0  0  0  0  0  0  0  0  0  # atno 11005 bound_to 11000
  145.4219  141.0407  143.2959 LP  0  0  0  0  0  0  0  0  0  0  0  0  # atno 17320 bound_to 7965
  144.8232  139.5755  143.6977 LP  0  0  0  0  0  0  0  0  0  0  0  0  # atno 17321 bound_to 7965
  139.6072  144.1172  152.2261 LP  0  0  0  0  0  0  0  0  0  0  0  0  # atno 17342 bound_to 10162
  140.0575  144.5883  150.7288 LP  0  0  0  0  0  0  0  0  0  0  0  0  # atno 17343 bound_to 10162
  157.6856  130.9182  150.0377 LP  0  0  0  0  0  0  0  0  0  0  0  0  # atno 17370 bound_to 10713
  156.1524  130.3642  149.9418 LP  0  0  0  0  0  0  0  0  0  0  0  0  # atno 17371 bound_to 10713
  140.9840  134.1367  157.4469 LP  0  0  0  0  0  0  0  0  0  0  0  0  # atno 17394 bound_to 11000
  139.8807  135.0019  156.6098 LP  0  0  0  0  0  0  0  0  0  0  0  0  # atno 17395 bound_to 11000

$$$$
