AV-unprocessed.smi:93|AV-procd|sdf|850|dock6
  -GOLD-   2262017293D 1   1.00000     0.00000
 Structure written by MMmdl.
 50 52  0  0  0  0  0  0  0  0  1 V2000
  146.8687  131.3800  152.2085 C   0  0  0  0  0  0  0  0  0  0  0  0
  146.9321  132.7105  152.8035 N   0  0  0  0  0  0  0  0  0  0  0  0
  145.7572  133.5891  152.7403 C   0  0  0  0  0  0  0  0  0  0  0  0
  144.9797  133.5624  151.3889 C   0  0  0  0  0  0  0  0  0  0  0  0
  145.9528  133.4902  150.1892 C   0  0  0  0  0  0  0  0  0  0  0  0
  144.0608  132.3111  151.3862 C   0  0  0  0  0  0  0  0  0  0  0  0
  143.2799  132.2100  150.2111 O   0  0  0  0  0  0  0  0  0  0  0  0
  144.0963  134.8327  151.2658 C   0  0  0  0  0  0  0  0  0  0  0  0
  143.3431  134.8629  150.0692 O   0  0  0  0  0  0  0  0  0  0  0  0
  148.0939  133.1267  153.3793 C   0  0  0  0  0  0  0  0  0  0  0  0
  149.2149  132.3788  153.2008 N   0  0  0  0  0  0  0  0  0  0  0  0
  150.3791  132.7539  153.7363 C   0  0  0  0  0  0  0  0  0  0  0  0
  150.6482  133.8319  154.4728 N   0  0  0  0  0  0  0  0  0  0  0  0
  149.5341  134.5962  154.6537 C   0  0  0  0  0  0  0  0  0  0  0  0
  148.2277  134.3176  154.1560 C   0  0  0  0  0  0  0  0  0  0  0  0
  147.3581  135.3302  154.5482 N   0  0  0  0  0  0  0  0  0  0  0  0
  148.1021  136.1513  155.2357 C   0  0  0  0  0  0  0  0  0  0  0  0
  149.4273  135.7965  155.3357 N   0  0  0  0  0  0  0  0  0  0  0  0
  150.4784  136.5336  156.0213 C   0  0  0  0  0  0  0  0  0  0  0  0
  151.0732  137.6889  155.1805 C   0  0  2  0  0  0  0  0  0  0  0  0
  151.4912  137.1804  153.9256 O   0  0  0  0  0  0  0  0  0  0  0  0
  152.2684  138.3559  155.8486 C   0  0  0  0  0  0  0  0  0  0  0  0
  152.2193  139.7699  155.2859 C   0  0  0  0  0  0  0  0  0  0  0  0
  150.8313  140.0573  155.2683 O   0  0  0  0  0  0  0  0  0  0  0  0
  150.1152  138.8724  154.9308 C   0  0  0  0  0  0  0  0  0  0  0  0
  147.7814  131.1599  151.6537 H   0  0  0  0  0  0  0  0  0  0  0  0
  146.0336  131.2997  151.5122 H   0  0  0  0  0  0  0  0  0  0  0  0
  146.7367  130.6179  152.9761 H   0  0  0  0  0  0  0  0  0  0  0  0
  145.0829  133.3743  153.5693 H   0  0  0  0  0  0  0  0  0  0  0  0
  146.0964  134.6088  152.9255 H   0  0  0  0  0  0  0  0  0  0  0  0
  145.4193  133.3420  149.2501 H   0  0  0  0  0  0  0  0  0  0  0  0
  146.6586  132.6656  150.2930 H   0  0  0  0  0  0  0  0  0  0  0  0
  146.5328  134.4069  150.0852 H   0  0  0  0  0  0  0  0  0  0  0  0
  144.6551  131.4016  151.4810 H   0  0  0  0  0  0  0  0  0  0  0  0
  143.3759  132.3262  152.2345 H   0  0  0  0  0  0  0  0  0  0  0  0
  142.9356  133.0655  150.0051 H   0  0  0  0  0  0  0  0  0  0  0  0
  143.4073  134.9038  152.1082 H   0  0  0  0  0  0  0  0  0  0  0  0
  144.7096  135.7333  151.2798 H   0  0  0  0  0  0  0  0  0  0  0  0
  142.4254  134.8898  150.2929 H   0  0  0  0  0  0  0  0  0  0  0  0
  151.2153  132.0986  153.5425 H   0  0  0  0  0  0  0  0  0  0  0  0
  147.7012  137.0491  155.6834 H   0  0  0  0  0  0  0  0  0  0  0  0
  150.0650  136.9220  156.9531 H   0  0  0  0  0  0  0  0  0  0  0  0
  151.2630  135.8311  156.3055 H   0  0  0  0  0  0  0  0  0  0  0  0
  151.1029  137.7070  153.2437 H   0  0  0  0  0  0  0  0  0  0  0  0
  152.1236  138.3986  156.9290 H   0  0  0  0  0  0  0  0  0  0  0  0
  153.2166  137.8505  155.6602 H   0  0  0  0  0  0  0  0  0  0  0  0
  152.7710  140.4874  155.8937 H   0  0  0  0  0  0  0  0  0  0  0  0
  152.6133  139.8020  154.2690 H   0  0  0  0  0  0  0  0  0  0  0  0
  149.7719  138.9178  153.8960 H   0  0  0  0  0  0  0  0  0  0  0  0
  149.2314  138.8287  155.5662 H   0  0  0  0  0  0  0  0  0  0  0  0
  1  2  1  0  0  0  0
  1 26  1  0  0  0  0
  1 27  1  0  0  0  0
  1 28  1  0  0  0  0
  2  3  1  0  0  0  0
  2 10  1  0  0  0  0
  3  4  1  0  0  0  0
  3 29  1  0  0  0  0
  3 30  1  0  0  0  0
  4  5  1  0  0  0  0
  4  6  1  0  0  0  0
  4  8  1  0  0  0  0
  5 31  1  0  0  0  0
  5 32  1  0  0  0  0
  5 33  1  0  0  0  0
  6  7  1  0  0  0  0
  6 34  1  0  0  0  0
  6 35  1  0  0  0  0
  7 36  1  0  0  0  0
  8  9  1  0  0  0  0
  8 37  1  0  0  0  0
  8 38  1  0  0  0  0
  9 39  1  0  0  0  0
 10 15  1  0  0  0  0
 10 11  2  0  0  0  0
 11 12  1  0  0  0  0
 12 13  2  0  0  0  0
 12 40  1  0  0  0  0
 13 14  1  0  0  0  0
 14 18  1  0  0  0  0
 14 15  2  0  0  0  0
 15 16  1  0  0  0  0
 16 17  2  0  0  0  0
 17 18  1  0  0  0  0
 17 41  1  0  0  0  0
 18 19  1  0  0  0  0
 19 20  1  0  0  0  0
 19 42  1  0  0  0  0
 19 43  1  0  0  0  0
 20 25  1  0  0  0  0
 20 21  1  0  0  0  0
 20 22  1  0  0  0  0
 21 44  1  0  0  0  0
 22 23  1  0  0  0  0
 22 45  1  0  0  0  0
 22 46  1  0  0  0  0
 23 24  1  0  0  0  0
 23 47  1  0  0  0  0
 23 48  1  0  0  0  0
 24 25  1  0  0  0  0
 25 49  1  0  0  0  0
 25 50  1  0  0  0  0
M  END
> <s_m_source_file>
AV-unprocessed.smi

> <i_m_source_file_index>
93

> <i_lp_mmshare_version>
43012

> <i_f3d_flags>
0

> <s_epik_input>
W09IXVtDSDJdQyhbQ0gzXSkoW0NIMl1bT0hdKVtDSDJdTihbQ0gzXSljKG5bY0hdbjEpYyhjMTIpbltjSF1uMltDSDJdW0NAQF0zKFtPSF0pW0NIMl1bQ0gyXU9bQ0gyXTM=

> <s_epik_cmdline>
J2VwaWtfcHl0aG9uJywgJy1waCcsICc3LjAnLCAnLXRuJywgJzgnLCAnLW1hJywgJzIwMCcsICctbWV0YWxfYmluZGluZycsICctaW1hZScsICc8aW5maWxlLm1hZT4nLCAnLW9tYWUnLCAnPG91dGZpbGUubWFlPic=

> <r_lp_tautomer_probability>
1

> <r_epik_Ionization_Penalty>
0.00325397

> <r_epik_Ionization_Penalty_Charging>
0

> <r_epik_Ionization_Penalty_Neutral>
0.00325397

> <r_epik_State_Penalty>
0.00225047

> <r_epik_Charging_Adjusted_Penalty>
0.00225047

> <i_epik_Tot_Q>
0

> <i_epik_Tot_abs_Q>
0

> <r_epik_Metal_State_Penalty>
-0

> <b_epik_Metal_Only>
0

> <s_lp_Force_Field>
OPLS_2005

> <r_lp_Energy>
41.2901

> <b_lp_Chiralities_Consistent>
1

> <s_lp_Variant>
AV-unprocessed.smi:93-2

> <Gold.Version>
5.8.1

> <Gold.Id.Protein>
6NUR|6NUR_protein|mol2

> <Gold.PLP.Fitness>
55.2772

> <Gold.PLP.PLP>
-43.1361

> <Gold.PLP.part.hbond>
-7.0000

> <Gold.PLP.part.metal>
0.0000

> <Gold.PLP.part.buried>
-8.0642

> <Gold.PLP.part.nonpolar>
-30.4918

> <Gold.PLP.part.repulsive>
0.4347

> <Gold.PLP.ligand.clash>
0.0000

> <Gold.PLP.ligand.torsion>
0.9442

> <Gold.PLP.Chemscore.Hbond>
4.6080

> <Gold.PLP.Chemscore.CHOScore>
0.0000

> <Gold.PLP.Chemscore.Metal>
0.0000

> <Gold.Chemscore.Hbonds>
donor molecule, donor type, donor heavy atom, donor atom, acceptor molecule, acceptor atom, score
      L1  H     7    36       P1 10186  0.08
      L1  H     9    39       P1 10186  0.52
      P1  H 10752 10765       L1    21  0.78

> <Gold.PLP.Chemscore.Internal.Correction>
0.2054

> <Gold.Rescore>
     Score         DG    S(hbond)    S(metal)    S(lipo)     H(rot)  DE(clash)    DE(int)     intcor
     10.95     -12.78       3.10        0.00      74.66       4.60       0.09       1.74       ----

> <Gold.Chemscore.Fitness>
10.9466

> <Gold.Chemscore.DG>
-12.7769

> <Gold.Chemscore.ZeroCoef>
-5.4800

> <Gold.Chemscore.Hbond>
3.0958

> <Gold.Chemscore.Metal>
0.0000

> <Gold.Chemscore.Lipo>
74.6628

> <Gold.Chemscore.Internal_Hbond>
0.0000

> <Gold.Chemscore.DEClash>
0.0942

> <Gold.Chemscore.DEInternal>
1.7362

> <Gold.Chemscore.Rot>
4.6010

> <Gold.Chemscore.Internal.Correction>
   9.000000E+99

> <Gold.Chemscore.Hbonds>
donor molecule, donor type, donor heavy atom, donor atom, acceptor molecule, acceptor atom, score
      L1  H     7    36       P1 10186  0.10
      L1  H     9    39       P1 10186  0.05
      P1  H 10752 10765       L1    21  0.58

> <Gold.Chemscore.Hbond.Weighted>
-10.3401

> <Gold.Chemscore.Metal.Weighted>
-0.0000

> <Gold.Chemscore.Lipo.Weighted>
-8.7356

> <Gold.Chemscore.Internal_Hbond.Weighted>
0.0000

> <Gold.Chemscore.DEClash.Weighted>
0.0942

> <Gold.Chemscore.DEInternal.Weighted>
1.7362

> <Gold.Chemscore.Rot.Weighted>
11.7787

> <Gold.Chemscore.Internal.Correction.Weighted>
   9.000000E+99

> <Gold.Protein.RotatedTorsions>
[ 6907 6896 6895 6894 ] final  144.60 input  -60.11 | X-H torsion
[ 7974 7965 7964 7962 ] final   19.20 input  175.53 | X-H torsion
[ 8008 7997 7996 7995 ] final -147.18 input   59.86 | X-H torsion
[ 10167 10162 10161 10158 ] final   36.61 input  -65.29 | X-H torsion
[ 10718 10713 10712 10709 ] final   63.21 input   66.30 | X-H torsion
[ 10763 10752 10751 10750 ] final  157.94 input  -60.55 | X-H torsion
[ 11005 11000 10999 10996 ] final   -8.44 input  -57.11 | X-H torsion

> <Gold.Protein.ActiveResidues>
 VAL166  LYS551  ARG553  GLY616  TRP617  ASP618  TYR619  PRO620  LYS621  CYS622 
 ASP623  PHE694  ASN695  SER759  ASP760  ASP761  ALA762  ILE779  LEU786  VAL792 
 PHE793  MET794  SER795  GLU796  ALA797  LYS798  CYS799  TRP800  GLU811  SER814 

> <Gold.Protein.RotatedAtoms>
  152.1916  133.4777  159.5010 H   0  0  0  0  0  0  0  0  0  0  0  0  # atno 6907 bound_to 6896
  150.6952  134.1705  159.4219 H   0  0  0  0  0  0  0  0  0  0  0  0  # atno 6908 bound_to 6896
  151.9619  135.0119  160.0599 H   0  0  0  0  0  0  0  0  0  0  0  0  # atno 6909 bound_to 6896
  146.2158  139.8348  142.8653 H   0  0  0  0  0  0  0  0  0  0  0  0  # atno 7974 bound_to 7965
  155.5714  140.0634  157.2805 H   0  0  0  0  0  0  0  0  0  0  0  0  # atno 8008 bound_to 7997
  154.4360  140.1868  156.0929 H   0  0  0  0  0  0  0  0  0  0  0  0  # atno 8009 bound_to 7997
  156.0373  140.3299  155.7209 H   0  0  0  0  0  0  0  0  0  0  0  0  # atno 8010 bound_to 7997
  140.4111  144.1591  150.6139 H   0  0  0  0  0  0  0  0  0  0  0  0  # atno 10167 bound_to 10162
  157.5955  130.9093  149.9687 H   0  0  0  0  0  0  0  0  0  0  0  0  # atno 10718 bound_to 10713
  154.2082  135.2787  155.2967 H   0  0  0  0  0  0  0  0  0  0  0  0  # atno 10763 bound_to 10752
  154.5800  135.5592  153.7179 H   0  0  0  0  0  0  0  0  0  0  0  0  # atno 10764 bound_to 10752
  153.0071  135.6342  154.2221 H   0  0  0  0  0  0  0  0  0  0  0  0  # atno 10765 bound_to 10752
  140.7235  133.8809  155.8838 H   0  0  0  0  0  0  0  0  0  0  0  0  # atno 11005 bound_to 11000
  145.2960  141.0181  143.3636 LP  0  0  0  0  0  0  0  0  0  0  0  0  # atno 17320 bound_to 7965
  144.9041  139.4611  143.6618 LP  0  0  0  0  0  0  0  0  0  0  0  0  # atno 17321 bound_to 7965
  140.4637  143.2439  151.9185 LP  0  0  0  0  0  0  0  0  0  0  0  0  # atno 17342 bound_to 10162
  139.4782  144.5441  151.8484 LP  0  0  0  0  0  0  0  0  0  0  0  0  # atno 17343 bound_to 10162
  156.1017  130.3655  150.0205 LP  0  0  0  0  0  0  0  0  0  0  0  0  # atno 17370 bound_to 10713
  156.8319  130.9395  151.3636 LP  0  0  0  0  0  0  0  0  0  0  0  0  # atno 17371 bound_to 10713
  140.9983  134.1185  157.4342 LP  0  0  0  0  0  0  0  0  0  0  0  0  # atno 17394 bound_to 11000
  139.8842  135.0061  156.6356 LP  0  0  0  0  0  0  0  0  0  0  0  0  # atno 17395 bound_to 11000

$$$$
