AV-unprocessed.smi:1550|AV-procd|sdf|6224|dock6
  -GOLD-   22720 6403D 1   1.00000     0.00000
 Structure written by MMmdl.
 43 44  0  0  0  0  0  0  0  0  1 V2000
  150.4771  139.1861  154.4002 C   0  0  0  0  0  0  0  0  0  0  0  0
  151.2732  138.2085  155.2777 C   0  0  2  0  0  0  0  0  0  0  0  0
  150.3338  137.3654  155.9388 O   0  0  0  0  0  0  0  0  0  0  0  0
  150.8904  136.4298  156.8559 C   0  0  0  0  0  0  0  0  0  0  0  0
  150.9037  135.0418  156.2038 C   0  0  2  0  0  0  0  0  0  0  0  0
  149.7582  134.8620  155.1877 C   0  0  0  0  0  0  0  0  0  0  0  0
  149.7526  133.4348  154.6290 C   0  0  0  0  0  0  0  0  0  0  0  0
  149.7363  132.4282  155.7843 C   0  0  0  0  0  0  0  0  0  0  0  0
  150.8775  132.7267  156.7696 C   0  0  0  0  0  0  0  0  0  0  0  0
  150.7776  134.0683  157.2381 O   0  0  0  0  0  0  0  0  0  0  0  0
  152.1373  138.9535  156.3087 C   0  0  0  0  0  0  0  0  0  0  0  0
  153.3479  138.7371  156.3496 O   0  0  0  0  0  0  0  0  0  0  0  0
  151.4744  139.8330  157.0862 N   0  0  0  0  0  0  0  0  0  0  0  0
  151.9499  140.6833  158.0997 C   0  0  0  0  0  0  0  0  0  0  0  0
  151.6302  141.9972  158.2385 C   0  0  0  0  0  0  0  0  0  0  0  0
  152.1644  142.8119  159.3174 C   0  0  0  0  0  0  0  0  0  0  0  0
  151.8443  144.2949  159.4286 C   0  0  0  0  0  0  0  0  0  0  0  0
  152.2130  144.7833  160.6137 F   0  0  0  0  0  0  0  0  0  0  0  0
  152.4667  144.9913  158.4773 F   0  0  0  0  0  0  0  0  0  0  0  0
  150.5330  144.4858  159.2910 F   0  0  0  0  0  0  0  0  0  0  0  0
  153.0179  142.2050  160.1624 C   0  0  0  0  0  0  0  0  0  0  0  0
  153.3490  140.8551  160.0294 N   0  0  0  0  0  0  0  0  0  0  0  0
  152.8743  140.0485  159.0543 C   0  0  0  0  0  0  0  0  0  0  0  0
  153.2179  138.8679  159.0040 O   0  0  0  0  0  0  0  0  0  0  0  0
  153.9876  140.4698  160.7100 H   0  0  0  0  0  0  0  0  0  0  0  0
  151.1386  139.8707  153.8680 H   0  0  0  0  0  0  0  0  0  0  0  0
  149.7813  139.7828  154.9913 H   0  0  0  0  0  0  0  0  0  0  0  0
  149.8936  138.6466  153.6538 H   0  0  0  0  0  0  0  0  0  0  0  0
  151.9066  137.6029  154.6263 H   0  0  0  0  0  0  0  0  0  0  0  0
  151.9103  136.7313  157.0987 H   0  0  0  0  0  0  0  0  0  0  0  0
  150.3310  136.3945  157.7915 H   0  0  0  0  0  0  0  0  0  0  0  0
  151.8656  134.8992  155.7078 H   0  0  0  0  0  0  0  0  0  0  0  0
  148.8019  135.0679  155.6703 H   0  0  0  0  0  0  0  0  0  0  0  0
  149.8567  135.5797  154.3726 H   0  0  0  0  0  0  0  0  0  0  0  0
  148.8901  133.2835  153.9795 H   0  0  0  0  0  0  0  0  0  0  0  0
  150.6408  133.2771  154.0158 H   0  0  0  0  0  0  0  0  0  0  0  0
  148.7806  132.4854  156.3069 H   0  0  0  0  0  0  0  0  0  0  0  0
  149.8235  131.4114  155.4009 H   0  0  0  0  0  0  0  0  0  0  0  0
  150.8211  132.0508  157.6229 H   0  0  0  0  0  0  0  0  0  0  0  0
  151.8493  132.5652  156.3005 H   0  0  0  0  0  0  0  0  0  0  0  0
  150.4858  139.9241  156.9003 H   0  0  0  0  0  0  0  0  0  0  0  0
  150.9675  142.4888  157.5464 H   0  0  0  0  0  0  0  0  0  0  0  0
  153.5087  142.6966  160.9894 H   0  0  0  0  0  0  0  0  0  0  0  0
  1  2  1  0  0  0  0
  1 26  1  0  0  0  0
  1 27  1  0  0  0  0
  1 28  1  0  0  0  0
  2  3  1  0  0  0  0
  2 11  1  0  0  0  0
  2 29  1  0  0  0  0
  3  4  1  0  0  0  0
  4  5  1  0  0  0  0
  4 30  1  0  0  0  0
  4 31  1  0  0  0  0
  5 10  1  0  0  0  0
  5  6  1  0  0  0  0
  5 32  1  0  0  0  0
  6  7  1  0  0  0  0
  6 33  1  0  0  0  0
  6 34  1  0  0  0  0
  7  8  1  0  0  0  0
  7 35  1  0  0  0  0
  7 36  1  0  0  0  0
  8  9  1  0  0  0  0
  8 37  1  0  0  0  0
  8 38  1  0  0  0  0
  9 10  1  0  0  0  0
  9 39  1  0  0  0  0
  9 40  1  0  0  0  0
 11 12  2  0  0  0  0
 11 13  1  0  0  0  0
 13 14  1  0  0  0  0
 13 41  1  0  0  0  0
 14 23  1  0  0  0  0
 14 15  2  0  0  0  0
 15 16  1  0  0  0  0
 15 42  1  0  0  0  0
 16 17  1  0  0  0  0
 16 21  2  0  0  0  0
 17 18  1  0  0  0  0
 17 19  1  0  0  0  0
 17 20  1  0  0  0  0
 21 22  1  0  0  0  0
 21 43  1  0  0  0  0
 22 25  1  0  0  0  0
 22 23  1  0  0  0  0
 23 24  2  0  0  0  0
M  END
> <s_m_source_file>
AV-unprocessed.smi

> <i_m_source_file_index>
1550

> <i_lp_mmshare_version>
43012

> <i_f3d_flags>
0

> <s_epik_input>
TzFbQ0gyXVtDSDJdW0NIMl1bQ0gyXVtDQEhdMVtDSDJdT1tDQEBIXShbQ0gzXSlDKD1PKVtOSF1jMltjSF1jKEMoRikoRilGKVtjSF1bbkhdYzI9Tw==

> <s_epik_cmdline>
J2VwaWtfcHl0aG9uJywgJy1waCcsICc3LjAnLCAnLXRuJywgJzgnLCAnLW1hJywgJzIwMCcsICctbWV0YWxfYmluZGluZycsICctaW1hZScsICc8aW5maWxlLm1hZT4nLCAnLW9tYWUnLCAnPG91dGZpbGUubWFlPic=

> <r_lp_tautomer_probability>
0.999

> <r_epik_Ionization_Penalty>
0.00891333

> <r_epik_Ionization_Penalty_Charging>
0.00891323

> <r_epik_Ionization_Penalty_Neutral>
1.00146e-07

> <r_epik_State_Penalty>
0.00674197

> <r_epik_Charging_Adjusted_Penalty>
0.0156552

> <i_epik_Tot_Q>
0

> <i_epik_Tot_abs_Q>
0

> <r_epik_Metal_State_Penalty>
0.321024

> <b_epik_Metal_Only>
0

> <s_lp_Force_Field>
OPLS_2005

> <r_lp_Energy>
25.3727

> <b_lp_Chiralities_Consistent>
1

> <s_lp_Variant>
AV-unprocessed.smi:1550-1

> <Gold.Version>
5.8.1

> <Gold.Id.Protein>
6NUR|6NUR_protein|mol2

> <Gold.PLP.Fitness>
49.1274

> <Gold.PLP.PLP>
-47.9942

> <Gold.PLP.part.hbond>
-2.0000

> <Gold.PLP.part.metal>
0.0000

> <Gold.PLP.part.buried>
-7.7321

> <Gold.PLP.part.nonpolar>
-38.7180

> <Gold.PLP.part.repulsive>
0.1999

> <Gold.PLP.ligand.clash>
0.4182

> <Gold.PLP.ligand.torsion>
1.6320

> <Gold.PLP.Chemscore.Hbond>
1.5551

> <Gold.PLP.Chemscore.CHOScore>
0.0000

> <Gold.PLP.Chemscore.Metal>
0.0000

> <Gold.Chemscore.Hbonds>
donor molecule, donor type, donor heavy atom, donor atom, acceptor molecule, acceptor atom, score
      P1  H  6896  6909       L1    10  0.55
      P1  H  7997  8010       L1    12  1.00

> <Gold.PLP.Chemscore.Internal.Correction>
0.1502

> <Gold.Rescore>
     Score         DG    S(hbond)    S(metal)    S(lipo)     H(rot)  DE(clash)    DE(int)     intcor
     10.87     -15.74       1.46        0.00      86.48       1.86       0.03       4.83       ----

> <Gold.Chemscore.Fitness>
10.8749

> <Gold.Chemscore.DG>
-15.7361

> <Gold.Chemscore.ZeroCoef>
-5.4800

> <Gold.Chemscore.Hbond>
1.4647

> <Gold.Chemscore.Metal>
0.0000

> <Gold.Chemscore.Lipo>
86.4781

> <Gold.Chemscore.Internal_Hbond>
0.0000

> <Gold.Chemscore.DEClash>
0.0290

> <Gold.Chemscore.DEInternal>
4.8321

> <Gold.Chemscore.Rot>
1.8571

> <Gold.Chemscore.Internal.Correction>
   9.000000E+99

> <Gold.Chemscore.Hbonds>
donor molecule, donor type, donor heavy atom, donor atom, acceptor molecule, acceptor atom, score
      P1  H  6896  6909       L1    10  0.12
      P1  H  7997  8010       L1    12  0.89

> <Gold.Chemscore.Hbond.Weighted>
-4.8922

> <Gold.Chemscore.Metal.Weighted>
-0.0000

> <Gold.Chemscore.Lipo.Weighted>
-10.1179

> <Gold.Chemscore.Internal_Hbond.Weighted>
0.0000

> <Gold.Chemscore.DEClash.Weighted>
0.0290

> <Gold.Chemscore.DEInternal.Weighted>
4.8321

> <Gold.Chemscore.Rot.Weighted>
4.7541

> <Gold.Chemscore.Internal.Correction.Weighted>
   9.000000E+99

> <Gold.Protein.RotatedTorsions>
[ 6907 6896 6895 6894 ] final   -7.83 input  -60.11 | X-H torsion
[ 7974 7965 7964 7962 ] final -125.69 input  175.53 | X-H torsion
[ 8008 7997 7996 7995 ] final   71.31 input   59.86 | X-H torsion
[ 10167 10162 10161 10158 ] final -111.17 input  -65.29 | X-H torsion
[ 10718 10713 10712 10709 ] final -125.08 input   66.30 | X-H torsion
[ 10763 10752 10751 10750 ] final   65.09 input  -60.55 | X-H torsion
[ 11005 11000 10999 10996 ] final  -34.75 input  -57.11 | X-H torsion

> <Gold.Protein.ActiveResidues>
 VAL166  LYS551  ARG553  GLY616  TRP617  ASP618  TYR619  PRO620  LYS621  CYS622 
 ASP623  PHE694  ASN695  SER759  ASP760  ASP761  ALA762  ILE779  LEU786  VAL792 
 PHE793  MET794  SER795  GLU796  ALA797  LYS798  CYS799  TRP800  GLU811  SER814 

> <Gold.Protein.RotatedAtoms>
  151.4433  135.1022  159.9676 H   0  0  0  0  0  0  0  0  0  0  0  0  # atno 6907 bound_to 6896
  152.4915  133.8508  159.7211 H   0  0  0  0  0  0  0  0  0  0  0  0  # atno 6908 bound_to 6896
  150.9073  133.6983  159.2891 H   0  0  0  0  0  0  0  0  0  0  0  0  # atno 6909 bound_to 6896
  144.9950  140.7767  143.4531 H   0  0  0  0  0  0  0  0  0  0  0  0  # atno 7974 bound_to 7965
  155.7520  140.3488  155.5155 H   0  0  0  0  0  0  0  0  0  0  0  0  # atno 8008 bound_to 7997
  155.8995  140.1031  157.1381 H   0  0  0  0  0  0  0  0  0  0  0  0  # atno 8009 bound_to 7997
  154.4042  140.1289  156.4405 H   0  0  0  0  0  0  0  0  0  0  0  0  # atno 8010 bound_to 7997
  140.1365  143.4316  152.1592 H   0  0  0  0  0  0  0  0  0  0  0  0  # atno 10167 bound_to 10162
  156.1644  130.6624  151.0094 H   0  0  0  0  0  0  0  0  0  0  0  0  # atno 10718 bound_to 10713
  153.0082  135.5369  154.6613 H   0  0  0  0  0  0  0  0  0  0  0  0  # atno 10763 bound_to 10752
  154.5821  135.2851  155.0724 H   0  0  0  0  0  0  0  0  0  0  0  0  # atno 10764 bound_to 10752
  154.1850  135.6510  153.5097 H   0  0  0  0  0  0  0  0  0  0  0  0  # atno 10765 bound_to 10752
  140.9741  133.7093  156.1573 H   0  0  0  0  0  0  0  0  0  0  0  0  # atno 11005 bound_to 11000
  145.2233  139.2149  143.5081 LP  0  0  0  0  0  0  0  0  0  0  0  0  # atno 17320 bound_to 7965
  146.3440  140.2095  142.8590 LP  0  0  0  0  0  0  0  0  0  0  0  0  # atno 17321 bound_to 7965
  139.5493  144.7325  151.4484 LP  0  0  0  0  0  0  0  0  0  0  0  0  # atno 17342 bound_to 10162
  140.6786  143.8133  150.7091 LP  0  0  0  0  0  0  0  0  0  0  0  0  # atno 17343 bound_to 10162
  157.6756  131.0851  150.7502 LP  0  0  0  0  0  0  0  0  0  0  0  0  # atno 17370 bound_to 10713
  156.7563  130.4784  149.5446 LP  0  0  0  0  0  0  0  0  0  0  0  0  # atno 17371 bound_to 10713
  140.7284  134.4281  157.5568 LP  0  0  0  0  0  0  0  0  0  0  0  0  # atno 17394 bound_to 11000
  139.8924  134.8756  156.2274 LP  0  0  0  0  0  0  0  0  0  0  0  0  # atno 17395 bound_to 11000

$$$$
