AV-unprocessed.smi:49|AV-procd|sdf|472|dock4
  -GOLD-   2262016333D 1   1.00000     0.00000
 Structure written by MMmdl.
 27 28  0  0  0  0  0  0  0  0  1 V2000
  152.8016  141.9843  159.1912 C   0  0  0  0  0  0  0  0  0  0  0  0
  152.1975  140.6362  158.7837 C   0  0  0  0  0  0  0  0  0  0  0  0
  151.6181  140.6603  157.4075 C   0  0  0  0  0  0  0  0  0  0  0  0
  150.5342  141.3378  157.0451 N   0  0  0  0  0  0  0  0  0  0  0  0
  150.4778  141.0159  155.7173 C   0  0  0  0  0  0  0  0  0  0  0  0
  149.4302  141.5790  154.8059 C   0  0  1  0  0  0  0  0  0  0  0  0
  148.7402  140.4964  153.9641 C   0  0  0  0  0  0  0  0  0  0  0  0
  147.3592  141.0894  153.7247 C   0  0  1  0  0  0  0  0  0  0  0  0
  146.3872  140.1139  153.4143 O   0  0  0  0  0  0  0  0  0  0  0  0
  147.0792  141.7879  155.0519 C   0  0  0  0  0  0  0  0  0  0  0  0
  148.3653  142.3171  155.4988 N   0  0  0  0  0  0  0  0  0  0  0  0
  151.4552  140.2267  155.2682 N   0  0  0  0  0  0  0  0  0  0  0  0
  152.1755  140.0053  156.3874 N   0  0  0  0  0  0  0  0  0  0  0  0
  149.9217  142.2703  154.1199 H   0  0  0  0  0  0  0  0  0  0  0  0
  147.4048  141.8241  152.9196 H   0  0  0  0  0  0  0  0  0  0  0  0
  153.0079  139.4336  156.4038 H   0  0  0  0  0  0  0  0  0  0  0  0
  153.2173  141.9357  160.1977 H   0  0  0  0  0  0  0  0  0  0  0  0
  152.0479  142.7721  159.1798 H   0  0  0  0  0  0  0  0  0  0  0  0
  153.6030  142.2773  158.5124 H   0  0  0  0  0  0  0  0  0  0  0  0
  152.9589  139.8571  158.8365 H   0  0  0  0  0  0  0  0  0  0  0  0
  151.4136  140.3531  159.4871 H   0  0  0  0  0  0  0  0  0  0  0  0
  149.2795  140.2589  153.0468 H   0  0  0  0  0  0  0  0  0  0  0  0
  148.6434  139.5759  154.5432 H   0  0  0  0  0  0  0  0  0  0  0  0
  145.5907  140.5537  153.1591 H   0  0  0  0  0  0  0  0  0  0  0  0
  146.3244  142.5697  154.9648 H   0  0  0  0  0  0  0  0  0  0  0  0
  146.7194  141.0602  155.7809 H   0  0  0  0  0  0  0  0  0  0  0  0
  148.4255  143.2932  155.2284 H   0  0  0  0  0  0  0  0  0  0  0  0
  1  2  1  0  0  0  0
  1 17  1  0  0  0  0
  1 18  1  0  0  0  0
  1 19  1  0  0  0  0
  2  3  1  0  0  0  0
  2 20  1  0  0  0  0
  2 21  1  0  0  0  0
  3 13  1  0  0  0  0
  3  4  2  0  0  0  0
  4  5  1  0  0  0  0
  5  6  1  0  0  0  0
  5 12  2  0  0  0  0
  6 14  1  0  0  0  0
  6 11  1  0  0  0  0
  6  7  1  0  0  0  0
  7  8  1  0  0  0  0
  7 22  1  0  0  0  0
  7 23  1  0  0  0  0
  8 15  1  0  0  0  0
  8  9  1  0  0  0  0
  8 10  1  0  0  0  0
  9 24  1  0  0  0  0
 10 11  1  0  0  0  0
 10 25  1  0  0  0  0
 10 26  1  0  0  0  0
 11 27  1  0  0  0  0
 12 13  1  0  0  0  0
 13 16  1  0  0  0  0
M  END
> <s_m_source_file>
AV-unprocessed.smi

> <i_m_source_file_index>
49

> <i_lp_mmshare_version>
43012

> <i_f3d_flags>
0

> <s_epik_input>
W0NIM11bQ0gyXWMxbmMobltuSF0xKVtDQEBIXTJbQ0gyXVtDQEBIXShbT0hdKVtDSDJdW05IXTI=

> <s_epik_cmdline>
J2VwaWtfcHl0aG9uJywgJy1waCcsICc3LjAnLCAnLXRuJywgJzgnLCAnLW1hJywgJzIwMCcsICctbWV0YWxfYmluZGluZycsICctaW1hZScsICc8aW5maWxlLm1hZT4nLCAnLW9tYWUnLCAnPG91dGZpbGUubWFlPic=

> <r_lp_tautomer_probability>
0.948284

> <r_epik_Ionization_Penalty>
1.6657

> <r_epik_Ionization_Penalty_Charging>
0

> <r_epik_Ionization_Penalty_Neutral>
1.6657

> <r_epik_State_Penalty>
2.01417

> <r_epik_Charging_Adjusted_Penalty>
2.01417

> <i_epik_Tot_Q>
0

> <i_epik_Tot_abs_Q>
0

> <r_epik_Metal_State_Penalty>
2.28256

> <b_epik_Metal_Only>
0

> <s_lp_Force_Field>
OPLS_2005

> <r_lp_Energy>
18.9273

> <b_lp_Chiralities_Consistent>
1

> <s_lp_Variant>
AV-unprocessed.smi:49-10

> <Gold.Version>
5.8.1

> <Gold.Id.Protein>
6NUR|6NUR_protein|mol2

> <Gold.PLP.Fitness>
32.7436

> <Gold.PLP.PLP>
-24.2827

> <Gold.PLP.part.hbond>
-2.8089

> <Gold.PLP.part.metal>
0.0000

> <Gold.PLP.part.buried>
-2.7043

> <Gold.PLP.part.nonpolar>
-19.5872

> <Gold.PLP.part.repulsive>
0.2287

> <Gold.PLP.ligand.clash>
0.0000

> <Gold.PLP.ligand.torsion>
0.2186

> <Gold.PLP.Chemscore.Hbond>
2.9600

> <Gold.PLP.Chemscore.CHOScore>
0.0000

> <Gold.PLP.Chemscore.Metal>
0.0000

> <Gold.Chemscore.Hbonds>
donor molecule, donor type, donor heavy atom, donor atom, acceptor molecule, acceptor atom, score
      L1  H     9    24       P1 10175  1.00
      L1  H    11    27       P1  8028  0.94
      P1  H  7989  7998       L1    12  0.99

> <Gold.PLP.Chemscore.Internal.Correction>
0.0182

> <Gold.Rescore>
     Score         DG    S(hbond)    S(metal)    S(lipo)     H(rot)  DE(clash)    DE(int)     intcor
     14.01     -14.40       2.61        0.00      42.51       1.86       0.28       0.12       ----

> <Gold.Chemscore.Fitness>
14.0067

> <Gold.Chemscore.DG>
-14.4042

> <Gold.Chemscore.ZeroCoef>
-5.4800

> <Gold.Chemscore.Hbond>
2.6053

> <Gold.Chemscore.Metal>
0.0000

> <Gold.Chemscore.Lipo>
42.5075

> <Gold.Chemscore.Internal_Hbond>
0.0000

> <Gold.Chemscore.DEClash>
0.2762

> <Gold.Chemscore.DEInternal>
0.1213

> <Gold.Chemscore.Rot>
1.8558

> <Gold.Chemscore.Internal.Correction>
   9.000000E+99

> <Gold.Chemscore.Hbonds>
donor molecule, donor type, donor heavy atom, donor atom, acceptor molecule, acceptor atom, score
      L1  H     9    24       P1 10175  0.79
      L1  H    11    27       P1  8028  0.85
      P1  H  7989  7998       L1    12  0.28

> <Gold.Chemscore.Hbond.Weighted>
-8.7015

> <Gold.Chemscore.Metal.Weighted>
-0.0000

> <Gold.Chemscore.Lipo.Weighted>
-4.9734

> <Gold.Chemscore.Internal_Hbond.Weighted>
0.0000

> <Gold.Chemscore.DEClash.Weighted>
0.2762

> <Gold.Chemscore.DEInternal.Weighted>
0.1213

> <Gold.Chemscore.Rot.Weighted>
4.7507

> <Gold.Chemscore.Internal.Correction.Weighted>
   9.000000E+99

> <Gold.Protein.RotatedTorsions>
[ 6907 6896 6895 6894 ] final   71.32 input  -60.11 | X-H torsion
[ 7974 7965 7964 7962 ] final  -85.57 input  175.53 | X-H torsion
[ 8008 7997 7996 7995 ] final  -60.81 input   59.86 | X-H torsion
[ 10167 10162 10161 10158 ] final  -41.34 input  -65.29 | X-H torsion
[ 10718 10713 10712 10709 ] final   55.59 input   66.30 | X-H torsion
[ 10763 10752 10751 10750 ] final   69.70 input  -60.55 | X-H torsion
[ 11005 11000 10999 10996 ] final  -32.97 input  -57.11 | X-H torsion

> <Gold.Protein.ActiveResidues>
 VAL166  LYS551  ARG553  GLY616  TRP617  ASP618  TYR619  PRO620  LYS621  CYS622 
 ASP623  PHE694  ASN695  SER759  ASP760  ASP761  ALA762  ILE779  LEU786  VAL792 
 PHE793  MET794  SER795  GLU796  ALA797  LYS798  CYS799  TRP800  GLU811  SER814 

> <Gold.Protein.RotatedAtoms>
  152.4803  134.4737  159.9643 H   0  0  0  0  0  0  0  0  0  0  0  0  # atno 6907 bound_to 6896
  151.4745  133.3555  159.2836 H   0  0  0  0  0  0  0  0  0  0  0  0  # atno 6908 bound_to 6896
  150.8870  134.8295  159.7327 H   0  0  0  0  0  0  0  0  0  0  0  0  # atno 6909 bound_to 6896
  145.4914  140.9552  143.1809 H   0  0  0  0  0  0  0  0  0  0  0  0  # atno 7974 bound_to 7965
  154.4417  140.1031  156.6333 H   0  0  0  0  0  0  0  0  0  0  0  0  # atno 8008 bound_to 7997
  155.5581  140.3487  155.4466 H   0  0  0  0  0  0  0  0  0  0  0  0  # atno 8009 bound_to 7997
  156.0480  140.1297  157.0072 H   0  0  0  0  0  0  0  0  0  0  0  0  # atno 8010 bound_to 7997
  140.7006  143.3100  151.3052 H   0  0  0  0  0  0  0  0  0  0  0  0  # atno 10167 bound_to 10162
  157.5358  130.8662  149.8751 H   0  0  0  0  0  0  0  0  0  0  0  0  # atno 10718 bound_to 10713
  153.0301  135.5201  154.7329 H   0  0  0  0  0  0  0  0  0  0  0  0  # atno 10763 bound_to 10752
  154.6351  135.2905  155.0172 H   0  0  0  0  0  0  0  0  0  0  0  0  # atno 10764 bound_to 10752
  154.1110  135.6622  153.4937 H   0  0  0  0  0  0  0  0  0  0  0  0  # atno 10765 bound_to 10752
  140.9596  133.7172  156.1348 H   0  0  0  0  0  0  0  0  0  0  0  0  # atno 11005 bound_to 11000
  144.7831  139.6483  143.7145 LP  0  0  0  0  0  0  0  0  0  0  0  0  # atno 17320 bound_to 7965
  146.2281  139.5762  142.9573 LP  0  0  0  0  0  0  0  0  0  0  0  0  # atno 17321 bound_to 7965
  139.6520  144.0345  152.2633 LP  0  0  0  0  0  0  0  0  0  0  0  0  # atno 17342 bound_to 10162
  139.9885  144.6378  150.7836 LP  0  0  0  0  0  0  0  0  0  0  0  0  # atno 17343 bound_to 10162
  156.0457  130.3728  150.1323 LP  0  0  0  0  0  0  0  0  0  0  0  0  # atno 17370 bound_to 10713
  156.9505  130.9773  151.3499 LP  0  0  0  0  0  0  0  0  0  0  0  0  # atno 17371 bound_to 10713
  140.7486  134.4070  157.5544 LP  0  0  0  0  0  0  0  0  0  0  0  0  # atno 17394 bound_to 11000
  139.8874  134.8885  156.2533 LP  0  0  0  0  0  0  0  0  0  0  0  0  # atno 17395 bound_to 11000

$$$$
