AV-unprocessed.smi:3204|AV-procd|sdf|12251|dock7
  -GOLD-   2272018 83D 1   1.00000     0.00000
 Structure written by MMmdl.
 30 31  0  0  0  0  0  0  0  0  1 V2000
  153.3513  141.4779  159.6507 C   0  0  0  0  0  0  0  0  0  0  0  0
  152.7799  140.1134  159.2482 C   0  0  0  0  0  0  0  0  0  0  0  0
  152.1310  140.1411  157.8766 C   0  0  0  0  0  0  0  0  0  0  0  0
  152.6353  139.2964  156.9491 N   0  0  0  0  0  0  0  0  0  0  0  0
  152.0686  139.3223  155.7404 C   0  0  0  0  0  0  0  0  0  0  0  0
  151.0542  140.0986  155.3505 N   0  0  0  0  0  0  0  0  0  0  0  0
  150.5404  140.9537  156.2667 C   0  0  0  0  0  0  0  0  0  0  0  0
  149.4760  141.7936  155.9098 N   0  0  0  0  0  0  0  0  0  0  0  0
  148.2799  141.2738  155.2533 C   0  0  1  0  0  0  0  0  0  0  0  0
  147.3673  142.3577  154.6950 C   0  0  0  0  0  0  0  0  0  0  0  0
  146.5026  141.6309  153.8337 O   0  0  0  0  0  0  0  0  0  0  0  0
  147.2180  140.5445  153.2454 C   0  0  0  0  0  0  0  0  0  0  0  0
  148.5391  140.4168  154.0182 C   0  0  1  0  0  0  0  0  0  0  0  0
  149.5904  140.9310  153.2189 O   0  0  0  0  0  0  0  0  0  0  0  0
  151.0608  141.0126  157.5774 C   0  0  0  0  0  0  0  0  0  0  0  0
  150.5576  141.8670  158.5018 F   0  0  0  0  0  0  0  0  0  0  0  0
  153.8109  141.4299  160.6380 H   0  0  0  0  0  0  0  0  0  0  0  0
  152.5690  142.2368  159.6836 H   0  0  0  0  0  0  0  0  0  0  0  0
  154.1130  141.8106  158.9451 H   0  0  0  0  0  0  0  0  0  0  0  0
  153.5742  139.3659  159.2496 H   0  0  0  0  0  0  0  0  0  0  0  0
  152.0523  139.7849  159.9911 H   0  0  0  0  0  0  0  0  0  0  0  0
  152.4724  138.6471  155.0010 H   0  0  0  0  0  0  0  0  0  0  0  0
  149.5545  142.7887  156.0623 H   0  0  0  0  0  0  0  0  0  0  0  0
  147.7024  140.6928  155.9741 H   0  0  0  0  0  0  0  0  0  0  0  0
  146.8119  142.8858  155.4703 H   0  0  0  0  0  0  0  0  0  0  0  0
  147.9279  143.0893  154.1106 H   0  0  0  0  0  0  0  0  0  0  0  0
  146.6173  139.6409  153.3513 H   0  0  0  0  0  0  0  0  0  0  0  0
  147.3693  140.7158  152.1786 H   0  0  0  0  0  0  0  0  0  0  0  0
  148.7645  139.3813  154.2748 H   0  0  0  0  0  0  0  0  0  0  0  0
  149.8327  140.2717  152.5868 H   0  0  0  0  0  0  0  0  0  0  0  0
  1  2  1  0  0  0  0
  1 17  1  0  0  0  0
  1 18  1  0  0  0  0
  1 19  1  0  0  0  0
  2  3  1  0  0  0  0
  2 20  1  0  0  0  0
  2 21  1  0  0  0  0
  3 15  1  0  0  0  0
  3  4  2  0  0  0  0
  4  5  1  0  0  0  0
  5  6  2  0  0  0  0
  5 22  1  0  0  0  0
  6  7  1  0  0  0  0
  7  8  1  0  0  0  0
  7 15  2  0  0  0  0
  8  9  1  0  0  0  0
  8 23  1  0  0  0  0
  9 13  1  0  0  0  0
  9 10  1  0  0  0  0
  9 24  1  0  0  0  0
 10 11  1  0  0  0  0
 10 25  1  0  0  0  0
 10 26  1  0  0  0  0
 11 12  1  0  0  0  0
 12 13  1  0  0  0  0
 12 27  1  0  0  0  0
 12 28  1  0  0  0  0
 13 14  1  0  0  0  0
 13 29  1  0  0  0  0
 14 30  1  0  0  0  0
 15 16  1  0  0  0  0
M  END
> <s_m_source_file>
AV-unprocessed.smi

> <i_m_source_file_index>
3204

> <i_lp_mmshare_version>
43012

> <i_f3d_flags>
0

> <s_epik_input>
W0NIM11bQ0gyXWMxbltjSF1uYyhjMUYpW05IXVtDQEBIXTJbQ0gyXU9bQ0gyXVtDQEhdMltPSF0=

> <s_epik_cmdline>
J2VwaWtfcHl0aG9uJywgJy1waCcsICc3LjAnLCAnLXRuJywgJzgnLCAnLW1hJywgJzIwMCcsICctbWV0YWxfYmluZGluZycsICctaW1hZScsICc8aW5maWxlLm1hZT4nLCAnLW9tYWUnLCAnPG91dGZpbGUubWFlPic=

> <r_lp_tautomer_probability>
1

> <r_epik_Ionization_Penalty>
0.000484964

> <r_epik_Ionization_Penalty_Charging>
0

> <r_epik_Ionization_Penalty_Neutral>
0.000484964

> <r_epik_State_Penalty>
-0

> <r_epik_Charging_Adjusted_Penalty>
0

> <i_epik_Tot_Q>
0

> <i_epik_Tot_abs_Q>
0

> <r_epik_Metal_State_Penalty>
-0

> <b_epik_Metal_Only>
0

> <s_lp_Force_Field>
OPLS_2005

> <r_lp_Energy>
19.2614

> <b_lp_Chiralities_Consistent>
1

> <s_lp_Variant>
AV-unprocessed.smi:3204-2

> <Gold.Version>
5.8.1

> <Gold.Id.Protein>
6NUR|6NUR_protein|mol2

> <Gold.PLP.Fitness>
45.2731

> <Gold.PLP.PLP>
-32.3152

> <Gold.PLP.part.hbond>
-5.2723

> <Gold.PLP.part.metal>
0.0000

> <Gold.PLP.part.buried>
-2.3014

> <Gold.PLP.part.nonpolar>
-25.3699

> <Gold.PLP.part.repulsive>
0.3574

> <Gold.PLP.ligand.clash>
0.0000

> <Gold.PLP.ligand.torsion>
0.5383

> <Gold.PLP.Chemscore.Hbond>
4.6764

> <Gold.PLP.Chemscore.CHOScore>
0.0000

> <Gold.PLP.Chemscore.Metal>
0.0000

> <Gold.Chemscore.Hbonds>
donor molecule, donor type, donor heavy atom, donor atom, acceptor molecule, acceptor atom, score
      L1  H     8    23       P1  8028  0.84
      L1  H    14    30       P1  7957  0.60
      P1  H  7989  7998       L1     6  0.86
      P1  H  7997  8008       L1     4  0.95
      P1  H  8011  8017       L1    14  1.00

> <Gold.PLP.Chemscore.Internal.Correction>
0.0052

> <Gold.Rescore>
     Score         DG    S(hbond)    S(metal)    S(lipo)     H(rot)  DE(clash)    DE(int)     intcor
     16.22     -18.13       3.05        0.00      61.09       1.83       0.05       1.86       ----

> <Gold.Chemscore.Fitness>
16.2168

> <Gold.Chemscore.DG>
-18.1276

> <Gold.Chemscore.ZeroCoef>
-5.4800

> <Gold.Chemscore.Hbond>
3.0523

> <Gold.Chemscore.Metal>
0.0000

> <Gold.Chemscore.Lipo>
61.0869

> <Gold.Chemscore.Internal_Hbond>
0.0000

> <Gold.Chemscore.DEClash>
0.0543

> <Gold.Chemscore.DEInternal>
1.8565

> <Gold.Chemscore.Rot>
1.8337

> <Gold.Chemscore.Internal.Correction>
   9.000000E+99

> <Gold.Chemscore.Hbonds>
donor molecule, donor type, donor heavy atom, donor atom, acceptor molecule, acceptor atom, score
      L1  H     8    23       P1  8028  0.78
      L1  H    14    30       P1  7957  0.58
      P1  H  7989  7998       L1     6  0.40
      P1  H  7997  8008       L1     4  0.15
      P1  H  8011  8017       L1    14  0.35

> <Gold.Chemscore.Hbond.Weighted>
-10.1947

> <Gold.Chemscore.Metal.Weighted>
-0.0000

> <Gold.Chemscore.Lipo.Weighted>
-7.1472

> <Gold.Chemscore.Internal_Hbond.Weighted>
0.0000

> <Gold.Chemscore.DEClash.Weighted>
0.0543

> <Gold.Chemscore.DEInternal.Weighted>
1.8565

> <Gold.Chemscore.Rot.Weighted>
4.6942

> <Gold.Chemscore.Internal.Correction.Weighted>
   9.000000E+99

> <Gold.Protein.RotatedTorsions>
[ 6907 6896 6895 6894 ] final   84.98 input  -60.11 | X-H torsion
[ 7974 7965 7964 7962 ] final  148.58 input  175.53 | X-H torsion
[ 8008 7997 7996 7995 ] final  -71.93 input   59.86 | X-H torsion
[ 10167 10162 10161 10158 ] final  139.23 input  -65.29 | X-H torsion
[ 10718 10713 10712 10709 ] final -150.51 input   66.30 | X-H torsion
[ 10763 10752 10751 10750 ] final  -34.26 input  -60.55 | X-H torsion
[ 11005 11000 10999 10996 ] final -152.80 input  -57.11 | X-H torsion

> <Gold.Protein.ActiveResidues>
 VAL166  LYS551  ARG553  GLY616  TRP617  ASP618  TYR619  PRO620  LYS621  CYS622 
 ASP623  PHE694  ASN695  SER759  ASP760  ASP761  ALA762  ILE779  LEU786  VAL792 
 PHE793  MET794  SER795  GLU796  ALA797  LYS798  CYS799  TRP800  GLU811  SER814 

> <Gold.Protein.RotatedAtoms>
  152.5365  134.2657  159.8952 H   0  0  0  0  0  0  0  0  0  0  0  0  # atno 6907 bound_to 6896
  151.2615  133.4293  159.2624 H   0  0  0  0  0  0  0  0  0  0  0  0  # atno 6908 bound_to 6896
  151.0448  134.9647  159.8237 H   0  0  0  0  0  0  0  0  0  0  0  0  # atno 6909 bound_to 6896
  144.8503  139.6172  143.5977 H   0  0  0  0  0  0  0  0  0  0  0  0  # atno 7974 bound_to 7965
  154.5126  140.0806  156.8019 H   0  0  0  0  0  0  0  0  0  0  0  0  # atno 8008 bound_to 7997
  155.3751  140.3425  155.4226 H   0  0  0  0  0  0  0  0  0  0  0  0  # atno 8009 bound_to 7997
  156.1591  140.1582  156.8630 H   0  0  0  0  0  0  0  0  0  0  0  0  # atno 8010 bound_to 7997
  139.5085  144.6307  151.5825 H   0  0  0  0  0  0  0  0  0  0  0  0  # atno 10167 bound_to 10162
  156.4471  130.8150  151.2380 H   0  0  0  0  0  0  0  0  0  0  0  0  # atno 10718 bound_to 10713
  153.8437  135.6855  153.4800 H   0  0  0  0  0  0  0  0  0  0  0  0  # atno 10763 bound_to 10752
  153.1438  135.4646  154.9533 H   0  0  0  0  0  0  0  0  0  0  0  0  # atno 10764 bound_to 10752
  154.7833  135.3276  154.7888 H   0  0  0  0  0  0  0  0  0  0  0  0  # atno 10765 bound_to 10752
  140.7150  134.3790  157.5192 H   0  0  0  0  0  0  0  0  0  0  0  0  # atno 11005 bound_to 11000
  146.2779  139.6800  142.9250 LP  0  0  0  0  0  0  0  0  0  0  0  0  # atno 17320 bound_to 7965
  145.4513  141.0428  143.2803 LP  0  0  0  0  0  0  0  0  0  0  0  0  # atno 17321 bound_to 7965
  140.6039  143.9561  150.6405 LP  0  0  0  0  0  0  0  0  0  0  0  0  # atno 17342 bound_to 10162
  140.2781  143.3408  152.1176 LP  0  0  0  0  0  0  0  0  0  0  0  0  # atno 17343 bound_to 10162
  157.7504  131.0149  150.3485 LP  0  0  0  0  0  0  0  0  0  0  0  0  # atno 17370 bound_to 10713
  156.3855  130.3888  149.7069 LP  0  0  0  0  0  0  0  0  0  0  0  0  # atno 17371 bound_to 10713
  139.8862  134.8916  156.2599 LP  0  0  0  0  0  0  0  0  0  0  0  0  # atno 17394 bound_to 11000
  141.0052  133.7128  156.1023 LP  0  0  0  0  0  0  0  0  0  0  0  0  # atno 17395 bound_to 11000

$$$$
