AV-unprocessed.smi:2379|AV-procd|sdf|9454|dock2
  -GOLD-   2272013 83D 1   1.00000     0.00000
 Structure written by MMmdl.
 53 55  0  0  0  0  0  0  0  0  2 V2000
  152.4323  145.6867  160.3768 C   0  0  0  0  0  0  0  0  0  0  0  0
  152.1539  144.3313  159.7621 C   0  0  0  0  0  0  0  0  0  0  0  0
  152.8815  143.1969  160.1682 C   0  0  0  0  0  0  0  0  0  0  0  0
  152.5817  141.9620  159.5606 C   0  0  0  0  0  0  0  0  0  0  0  0
  153.3288  140.7031  159.9467 C   0  0  0  0  0  0  0  0  0  0  0  0
  151.6338  141.8198  158.6095 N   0  0  0  0  0  0  0  0  0  0  0  0
  150.9272  142.9058  158.2096 C   0  0  0  0  0  0  0  0  0  0  0  0
  149.9155  142.8630  157.2135 N   0  0  0  0  0  0  0  0  0  0  0  0
  149.4804  141.7973  156.5182 C   0  0  0  0  0  0  0  0  0  0  0  0
  149.8759  140.6404  156.6635 O   0  0  0  0  0  0  0  0  0  0  0  0
  148.5397  142.1483  155.6286 N   0  0  0  0  0  0  0  0  0  0  0  0
  147.8379  141.2301  154.7314 C   0  0  2  0  0  0  0  0  0  0  0  0
  147.1076  141.9727  153.5946 C   0  0  0  0  0  0  0  0  0  0  0  0
  145.8884  142.7589  154.1072 C   0  0  0  0  0  0  0  0  0  0  0  0
  144.9462  141.8725  154.8387 N   0  3  2  0  0  0  0  0  0  0  0  0
  143.6873  142.5662  155.2185 C   0  0  0  0  0  0  0  0  0  0  0  0
  143.9213  144.0375  155.6169 C   0  0  1  0  0  0  0  0  0  0  0  0
  143.9228  145.0412  154.4732 C   0  0  0  0  0  0  0  0  0  0  0  0
  143.4633  146.3485  155.1264 C   0  0  0  0  0  0  0  0  0  0  0  0
  143.0248  146.0058  156.4364 O   0  0  0  0  0  0  0  0  0  0  0  0
  142.8099  144.6058  156.4950 C   0  0  0  0  0  0  0  0  0  0  0  0
  145.6146  141.2007  155.9844 C   0  0  0  0  0  0  0  0  0  0  0  0
  146.8290  140.3763  155.5187 C   0  0  0  0  0  0  0  0  0  0  0  0
  151.1660  144.1820  158.7674 C   0  0  0  0  0  0  0  0  0  0  0  0
  152.7705  145.5827  161.4083 H   0  0  0  0  0  0  0  0  0  0  0  0
  151.5345  146.3057  160.3768 H   0  0  0  0  0  0  0  0  0  0  0  0
  153.2073  146.2037  159.8112 H   0  0  0  0  0  0  0  0  0  0  0  0
  153.6497  143.2719  160.9242 H   0  0  0  0  0  0  0  0  0  0  0  0
  153.8990  140.8490  160.8644 H   0  0  0  0  0  0  0  0  0  0  0  0
  154.0218  140.4190  159.1547 H   0  0  0  0  0  0  0  0  0  0  0  0
  152.6330  139.8790  160.1080 H   0  0  0  0  0  0  0  0  0  0  0  0
  149.4778  143.7477  157.0040 H   0  0  0  0  0  0  0  0  0  0  0  0
  148.2733  143.1209  155.5840 H   0  0  0  0  0  0  0  0  0  0  0  0
  148.5809  140.5601  154.2946 H   0  0  0  0  0  0  0  0  0  0  0  0
  147.7886  142.6413  153.0671 H   0  0  0  0  0  0  0  0  0  0  0  0
  146.7726  141.2452  152.8540 H   0  0  0  0  0  0  0  0  0  0  0  0
  146.2060  143.5749  154.7581 H   0  0  0  0  0  0  0  0  0  0  0  0
  145.3811  143.2128  153.2549 H   0  0  0  0  0  0  0  0  0  0  0  0
  142.9404  142.4786  154.4279 H   0  0  0  0  0  0  0  0  0  0  0  0
  143.2549  142.0656  156.0861 H   0  0  0  0  0  0  0  0  0  0  0  0
  144.8599  144.1239  156.1674 H   0  0  0  0  0  0  0  0  0  0  0  0
  144.9023  145.1385  154.0039 H   0  0  0  0  0  0  0  0  0  0  0  0
  143.2065  144.7485  153.7041 H   0  0  0  0  0  0  0  0  0  0  0  0
  144.2735  147.0749  155.1929 H   0  0  0  0  0  0  0  0  0  0  0  0
  142.6476  146.8018  154.5621 H   0  0  0  0  0  0  0  0  0  0  0  0
  141.8249  144.3733  156.0862 H   0  0  0  0  0  0  0  0  0  0  0  0
  142.8521  144.2393  157.5211 H   0  0  0  0  0  0  0  0  0  0  0  0
  145.9247  141.9491  156.7151 H   0  0  0  0  0  0  0  0  0  0  0  0
  144.9180  140.5397  156.4958 H   0  0  0  0  0  0  0  0  0  0  0  0
  146.4810  139.5590  154.8853 H   0  0  0  0  0  0  0  0  0  0  0  0
  147.3158  139.9083  156.3752 H   0  0  0  0  0  0  0  0  0  0  0  0
  150.5975  145.0396  158.4375 H   0  0  0  0  0  0  0  0  0  0  0  0
  144.6838  141.1499  154.1835 H   0  0  0  0  0  0  0  0  0  0  0  0
  1  2  1  0  0  0  0
  1 25  1  0  0  0  0
  1 26  1  0  0  0  0
  1 27  1  0  0  0  0
  2 24  1  0  0  0  0
  2  3  2  0  0  0  0
  3  4  1  0  0  0  0
  3 28  1  0  0  0  0
  4  5  1  0  0  0  0
  4  6  2  0  0  0  0
  5 29  1  0  0  0  0
  5 30  1  0  0  0  0
  5 31  1  0  0  0  0
  6  7  1  0  0  0  0
  7  8  1  0  0  0  0
  7 24  2  0  0  0  0
  8  9  1  0  0  0  0
  8 32  1  0  0  0  0
  9 10  2  0  0  0  0
  9 11  1  0  0  0  0
 11 12  1  0  0  0  0
 11 33  1  0  0  0  0
 12 23  1  0  0  0  0
 12 13  1  0  0  0  0
 12 34  1  0  0  0  0
 13 14  1  0  0  0  0
 13 35  1  0  0  0  0
 13 36  1  0  0  0  0
 14 15  1  0  0  0  0
 14 37  1  0  0  0  0
 14 38  1  0  0  0  0
 15 16  1  0  0  0  0
 15 22  1  0  0  0  0
 15 53  1  0  0  0  0
 16 17  1  0  0  0  0
 16 39  1  0  0  0  0
 16 40  1  0  0  0  0
 17 21  1  0  0  0  0
 17 18  1  0  0  0  0
 17 41  1  0  0  0  0
 18 19  1  0  0  0  0
 18 42  1  0  0  0  0
 18 43  1  0  0  0  0
 19 20  1  0  0  0  0
 19 44  1  0  0  0  0
 19 45  1  0  0  0  0
 20 21  1  0  0  0  0
 21 46  1  0  0  0  0
 21 47  1  0  0  0  0
 22 23  1  0  0  0  0
 22 48  1  0  0  0  0
 22 49  1  0  0  0  0
 23 50  1  0  0  0  0
 23 51  1  0  0  0  0
 24 52  1  0  0  0  0
M  CHG  1  15   1
M  END
> <s_m_source_file>
AV-unprocessed.smi

> <i_m_source_file_index>
2379

> <i_lp_mmshare_version>
43012

> <i_f3d_flags>
0

> <s_epik_input>
W0NIM11jMVtjSF1jKFtDSDNdKW5jKFtjSF0xKVtOSF1DKD1PKVtOSF1bQ0hdMltDSDJdW0NIMl1OKFtDSDJdW0NIMl0yKVtDSDJdW0NAQEhdM1tDSDJdW0NIMl1PW0NIMl0z

> <s_epik_cmdline>
J2VwaWtfcHl0aG9uJywgJy1waCcsICc3LjAnLCAnLXRuJywgJzgnLCAnLW1hJywgJzIwMCcsICctbWV0YWxfYmluZGluZycsICctaW1hZScsICc8aW5maWxlLm1hZT4nLCAnLW9tYWUnLCAnPG91dGZpbGUubWFlPic=

> <r_epik_Ionization_Penalty>
0.00766556

> <r_epik_Ionization_Penalty_Charging>
0.00747775

> <r_epik_Ionization_Penalty_Neutral>
0.00018781

> <r_epik_State_Penalty>
0.00558817

> <r_epik_Charging_Adjusted_Penalty>
0.0130659

> <i_epik_Tot_Q>
1

> <i_epik_Tot_abs_Q>
1

> <r_epik_Metal_State_Penalty>
-0

> <b_epik_Metal_Only>
0

> <s_lp_Force_Field>
OPLS_2005

> <r_lp_Energy>
36.2098

> <b_lp_Chiralities_Consistent>
1

> <s_lp_Variant>
AV-unprocessed.smi:2379-4

> <Gold.Version>
5.8.1

> <Gold.Id.Protein>
6NUR|6NUR_protein|mol2

> <Gold.PLP.Fitness>
50.8927

> <Gold.PLP.PLP>
-40.9109

> <Gold.PLP.part.hbond>
-3.0000

> <Gold.PLP.part.metal>
0.0000

> <Gold.PLP.part.buried>
-5.8975

> <Gold.PLP.part.nonpolar>
-32.7755

> <Gold.PLP.part.repulsive>
0.1538

> <Gold.PLP.ligand.clash>
0.0000

> <Gold.PLP.ligand.torsion>
0.7516

> <Gold.PLP.Chemscore.Hbond>
3.8080

> <Gold.PLP.Chemscore.CHOScore>
0.0000

> <Gold.PLP.Chemscore.Metal>
0.0000

> <Gold.Chemscore.Hbonds>
donor molecule, donor type, donor heavy atom, donor atom, acceptor molecule, acceptor atom, score
      L1  H     8    32       P1  8028  0.86
      L1  H    11    33       P1  8028  0.90
      L1  H    15    53       P1 10175  1.82

> <Gold.PLP.Chemscore.Internal.Correction>
0.0610

> <Gold.Rescore>
     Score         DG    S(hbond)    S(metal)    S(lipo)     H(rot)  DE(clash)    DE(int)     intcor
     20.33     -24.08       2.58        0.00     115.40       1.37       1.77       1.98       ----

> <Gold.Chemscore.Fitness>
20.3308

> <Gold.Chemscore.DG>
-24.0811

> <Gold.Chemscore.ZeroCoef>
-5.4800

> <Gold.Chemscore.Hbond>
2.5786

> <Gold.Chemscore.Metal>
0.0000

> <Gold.Chemscore.Lipo>
115.4030

> <Gold.Chemscore.Internal_Hbond>
0.0000

> <Gold.Chemscore.DEClash>
1.7736

> <Gold.Chemscore.DEInternal>
1.9767

> <Gold.Chemscore.Rot>
1.3725

> <Gold.Chemscore.Internal.Correction>
   9.000000E+99

> <Gold.Chemscore.Hbonds>
donor molecule, donor type, donor heavy atom, donor atom, acceptor molecule, acceptor atom, score
      L1  H     8    32       P1  8028  0.72
      L1  H    11    33       P1  8028  0.83
      L1  H    15    53       P1 10175  0.65

> <Gold.Chemscore.Hbond.Weighted>
-8.6125

> <Gold.Chemscore.Metal.Weighted>
-0.0000

> <Gold.Chemscore.Lipo.Weighted>
-13.5022

> <Gold.Chemscore.Internal_Hbond.Weighted>
0.0000

> <Gold.Chemscore.DEClash.Weighted>
1.7736

> <Gold.Chemscore.DEInternal.Weighted>
1.9767

> <Gold.Chemscore.Rot.Weighted>
3.5136

> <Gold.Chemscore.Internal.Correction.Weighted>
   9.000000E+99

> <Gold.Protein.RotatedTorsions>
[ 6907 6896 6895 6894 ] final  -76.20 input  -60.11 | X-H torsion
[ 7974 7965 7964 7962 ] final  -84.12 input  175.53 | X-H torsion
[ 8008 7997 7996 7995 ] final  -99.63 input   59.86 | X-H torsion
[ 10167 10162 10161 10158 ] final  -72.75 input  -65.29 | X-H torsion
[ 10718 10713 10712 10709 ] final  -20.64 input   66.30 | X-H torsion
[ 10763 10752 10751 10750 ] final   76.74 input  -60.55 | X-H torsion
[ 11005 11000 10999 10996 ] final  116.79 input  -57.11 | X-H torsion

> <Gold.Protein.ActiveResidues>
 VAL166  LYS551  ARG553  GLY616  TRP617  ASP618  TYR619  PRO620  LYS621  CYS622 
 ASP623  PHE694  ASN695  SER759  ASP760  ASP761  ALA762  ILE779  LEU786  VAL792 
 PHE793  MET794  SER795  GLU796  ALA797  LYS798  CYS799  TRP800  GLU811  SER814 

> <Gold.Protein.RotatedAtoms>
  150.7035  134.4607  159.5379 H   0  0  0  0  0  0  0  0  0  0  0  0  # atno 6907 bound_to 6896
  152.2282  134.8344  160.0486 H   0  0  0  0  0  0  0  0  0  0  0  0  # atno 6908 bound_to 6896
  151.9170  133.3540  159.3920 H   0  0  0  0  0  0  0  0  0  0  0  0  # atno 6909 bound_to 6896
  145.5109  140.9540  143.1708 H   0  0  0  0  0  0  0  0  0  0  0  0  # atno 7974 bound_to 7965
  154.8175  140.0446  157.1387 H   0  0  0  0  0  0  0  0  0  0  0  0  # atno 8008 bound_to 7997
  154.9298  140.3038  155.5154 H   0  0  0  0  0  0  0  0  0  0  0  0  # atno 8009 bound_to 7997
  156.2977  140.2325  156.4356 H   0  0  0  0  0  0  0  0  0  0  0  0  # atno 8010 bound_to 7997
  140.5166  143.2337  151.7502 H   0  0  0  0  0  0  0  0  0  0  0  0  # atno 10167 bound_to 10162
  156.5290  130.4650  149.6557 H   0  0  0  0  0  0  0  0  0  0  0  0  # atno 10718 bound_to 10713
  153.0747  135.4940  154.8379 H   0  0  0  0  0  0  0  0  0  0  0  0  # atno 10763 bound_to 10752
  154.7071  135.3012  154.9256 H   0  0  0  0  0  0  0  0  0  0  0  0  # atno 10764 bound_to 10752
  153.9962  135.6772  153.4809 H   0  0  0  0  0  0  0  0  0  0  0  0  # atno 10765 bound_to 10752
  139.9053  134.9602  156.7252 H   0  0  0  0  0  0  0  0  0  0  0  0  # atno 11005 bound_to 11000
  144.7728  139.6696  143.7187 LP  0  0  0  0  0  0  0  0  0  0  0  0  # atno 17320 bound_to 7965
  146.2167  139.5562  142.9645 LP  0  0  0  0  0  0  0  0  0  0  0  0  # atno 17321 bound_to 7965
  139.4911  144.4314  151.9867 LP  0  0  0  0  0  0  0  0  0  0  0  0  # atno 17342 bound_to 10162
  140.3409  144.3204  150.5967 LP  0  0  0  0  0  0  0  0  0  0  0  0  # atno 17343 bound_to 10162
  156.3077  130.7212  151.2098 LP  0  0  0  0  0  0  0  0  0  0  0  0  # atno 17370 bound_to 10713
  157.7425  131.0489  150.5021 LP  0  0  0  0  0  0  0  0  0  0  0  0  # atno 17371 bound_to 10713
  140.6969  133.9341  155.8000 LP  0  0  0  0  0  0  0  0  0  0  0  0  # atno 17394 bound_to 11000
  141.0400  134.0634  157.3913 LP  0  0  0  0  0  0  0  0  0  0  0  0  # atno 17395 bound_to 11000

$$$$
