AV-unprocessed.smi:1353|AV-procd|sdf|5532|dock5
  -GOLD-   22720 5123D 1   1.00000     0.00000
 Structure written by MMmdl.
 39 41  0  0  0  0  0  0  0  0  1 V2000
  151.6258  136.7384  155.2197 O   0  0  0  0  0  0  0  0  0  0  0  0
  151.6277  137.5770  156.3555 C   0  0  0  0  0  0  0  0  0  0  0  0
  151.9431  139.0332  155.9716 C   0  0  0  0  0  0  0  0  0  0  0  0
  152.2035  139.9206  157.1566 C   0  0  0  0  0  0  0  0  0  0  0  0
  153.1534  139.6240  158.0454 N   0  0  0  0  0  0  0  0  0  0  0  0
  153.0598  140.6594  158.9532 C   0  0  0  0  0  0  0  0  0  0  0  0
  153.7885  140.9098  160.1380 C   0  0  0  0  0  0  0  0  0  0  0  0
  153.5111  142.0508  160.9189 C   0  0  0  0  0  0  0  0  0  0  0  0
  152.5039  142.9558  160.5265 C   0  0  0  0  0  0  0  0  0  0  0  0
  151.7684  142.7260  159.3480 C   0  0  0  0  0  0  0  0  0  0  0  0
  152.0491  141.5853  158.5713 C   0  0  0  0  0  0  0  0  0  0  0  0
  151.5272  141.0776  157.3843 N   0  0  0  0  0  0  0  0  0  0  0  0
  150.4746  141.6956  156.5876 C   0  0  0  0  0  0  0  0  0  0  0  0
  149.3863  140.6960  156.1736 C   0  0  0  0  0  0  0  0  0  0  0  0
  148.7948  141.1229  154.9531 O   0  0  0  0  0  0  0  0  0  0  0  0
  147.6126  141.8278  155.0102 C   0  0  0  0  0  0  0  0  0  0  0  0
  147.1173  142.3430  153.7945 C   0  0  0  0  0  0  0  0  0  0  0  0
  145.9163  143.0772  153.7588 C   0  0  0  0  0  0  0  0  0  0  0  0
  145.1949  143.3035  154.9455 C   0  0  0  0  0  0  0  0  0  0  0  0
  145.6765  142.7934  156.1654 C   0  0  0  0  0  0  0  0  0  0  0  0
  146.8780  142.0589  156.2009 C   0  0  0  0  0  0  0  0  0  0  0  0
  150.8670  136.9439  154.6951 H   0  0  0  0  0  0  0  0  0  0  0  0
  150.6705  137.5026  156.8724 H   0  0  0  0  0  0  0  0  0  0  0  0
  152.3892  137.2055  157.0415 H   0  0  0  0  0  0  0  0  0  0  0  0
  152.8391  139.0480  155.3502 H   0  0  0  0  0  0  0  0  0  0  0  0
  151.1442  139.4293  155.3474 H   0  0  0  0  0  0  0  0  0  0  0  0
  154.5611  140.2216  160.4472 H   0  0  0  0  0  0  0  0  0  0  0  0
  154.0730  142.2319  161.8234 H   0  0  0  0  0  0  0  0  0  0  0  0
  152.2960  143.8267  161.1307 H   0  0  0  0  0  0  0  0  0  0  0  0
  150.9951  143.4172  159.0475 H   0  0  0  0  0  0  0  0  0  0  0  0
  150.0246  142.4967  157.1741 H   0  0  0  0  0  0  0  0  0  0  0  0
  150.9134  142.1800  155.7155 H   0  0  0  0  0  0  0  0  0  0  0  0
  149.8265  139.7053  156.0526 H   0  0  0  0  0  0  0  0  0  0  0  0
  148.6351  140.6301  156.9596 H   0  0  0  0  0  0  0  0  0  0  0  0
  147.6662  142.1748  152.8794 H   0  0  0  0  0  0  0  0  0  0  0  0
  145.5495  143.4671  152.8209 H   0  0  0  0  0  0  0  0  0  0  0  0
  144.2737  143.8668  154.9199 H   0  0  0  0  0  0  0  0  0  0  0  0
  145.1235  142.9655  157.0769 H   0  0  0  0  0  0  0  0  0  0  0  0
  147.2144  141.6823  157.1547 H   0  0  0  0  0  0  0  0  0  0  0  0
  1  2  1  0  0  0  0
  1 22  1  0  0  0  0
  2  3  1  0  0  0  0
  2 23  1  0  0  0  0
  2 24  1  0  0  0  0
  3  4  1  0  0  0  0
  3 25  1  0  0  0  0
  3 26  1  0  0  0  0
  4 12  1  0  0  0  0
  4  5  2  0  0  0  0
  5  6  1  0  0  0  0
  6 11  2  0  0  0  0
  6  7  1  0  0  0  0
  7  8  2  0  0  0  0
  7 27  1  0  0  0  0
  8  9  1  0  0  0  0
  8 28  1  0  0  0  0
  9 10  2  0  0  0  0
  9 29  1  0  0  0  0
 10 11  1  0  0  0  0
 10 30  1  0  0  0  0
 11 12  1  0  0  0  0
 12 13  1  0  0  0  0
 13 14  1  0  0  0  0
 13 31  1  0  0  0  0
 13 32  1  0  0  0  0
 14 15  1  0  0  0  0
 14 33  1  0  0  0  0
 14 34  1  0  0  0  0
 15 16  1  0  0  0  0
 16 21  1  0  0  0  0
 16 17  2  0  0  0  0
 17 18  1  0  0  0  0
 17 35  1  0  0  0  0
 18 19  2  0  0  0  0
 18 36  1  0  0  0  0
 19 20  1  0  0  0  0
 19 37  1  0  0  0  0
 20 21  2  0  0  0  0
 20 38  1  0  0  0  0
 21 39  1  0  0  0  0
M  END
> <s_m_source_file>
AV-unprocessed.smi

> <i_m_source_file_index>
1353

> <i_lp_mmshare_version>
43012

> <i_f3d_flags>
0

> <s_epik_input>
W2NIXTFbY0hdW2NIXVtjSF1jKGMxMiluKGMobjIpW0NIMl1bQ0gyXVtPSF0pW0NIMl1bQ0gyXU9jM1tjSF1bY0hdW2NIXVtjSF1bY0hdMw==

> <s_epik_cmdline>
J2VwaWtfcHl0aG9uJywgJy1waCcsICc3LjAnLCAnLXRuJywgJzgnLCAnLW1hJywgJzIwMCcsICctbWV0YWxfYmluZGluZycsICctaW1hZScsICc8aW5maWxlLm1hZT4nLCAnLW9tYWUnLCAnPG91dGZpbGUubWFlPic=

> <r_lp_tautomer_probability>
1

> <r_epik_Ionization_Penalty>
0.230562

> <r_epik_Ionization_Penalty_Charging>
0

> <r_epik_Ionization_Penalty_Neutral>
0.230562

> <r_epik_State_Penalty>
0.221203

> <r_epik_Charging_Adjusted_Penalty>
0.221203

> <i_epik_Tot_Q>
0

> <i_epik_Tot_abs_Q>
0

> <r_epik_Metal_State_Penalty>
0.000268091

> <b_epik_Metal_Only>
0

> <s_lp_Force_Field>
OPLS_2005

> <r_lp_Energy>
15.7907

> <b_lp_Chiralities_Consistent>
1

> <s_lp_Variant>
AV-unprocessed.smi:1353-1

> <Gold.Version>
5.8.1

> <Gold.Id.Protein>
6NUR|6NUR_protein|mol2

> <Gold.PLP.Fitness>
47.6790

> <Gold.PLP.PLP>
-42.9299

> <Gold.PLP.part.hbond>
-2.0000

> <Gold.PLP.part.metal>
0.0000

> <Gold.PLP.part.buried>
-4.9516

> <Gold.PLP.part.nonpolar>
-35.7072

> <Gold.PLP.part.repulsive>
0.1254

> <Gold.PLP.ligand.clash>
0.0000

> <Gold.PLP.ligand.torsion>
0.6524

> <Gold.PLP.Chemscore.Hbond>
2.0000

> <Gold.PLP.Chemscore.CHOScore>
0.0000

> <Gold.PLP.Chemscore.Metal>
0.0000

> <Gold.Chemscore.Hbonds>
donor molecule, donor type, donor heavy atom, donor atom, acceptor molecule, acceptor atom, score
      P1  H  7997  8010       L1     5  1.00
      P1  H 10752 10765       L1     1  1.00

> <Gold.PLP.Chemscore.Internal.Correction>
0.0538

> <Gold.Rescore>
     Score         DG    S(hbond)    S(metal)    S(lipo)     H(rot)  DE(clash)    DE(int)     intcor
     16.91     -17.61       1.49        0.00     111.63       2.31       0.19       0.51       ----

> <Gold.Chemscore.Fitness>
16.9061

> <Gold.Chemscore.DG>
-17.6114

> <Gold.Chemscore.ZeroCoef>
-5.4800

> <Gold.Chemscore.Hbond>
1.4922

> <Gold.Chemscore.Metal>
0.0000

> <Gold.Chemscore.Lipo>
111.6280

> <Gold.Chemscore.Internal_Hbond>
0.0000

> <Gold.Chemscore.DEClash>
0.1924

> <Gold.Chemscore.DEInternal>
0.5129

> <Gold.Chemscore.Rot>
2.3098

> <Gold.Chemscore.Internal.Correction>
   9.000000E+99

> <Gold.Chemscore.Hbonds>
donor molecule, donor type, donor heavy atom, donor atom, acceptor molecule, acceptor atom, score
      P1  H  7997  8010       L1     5  0.14
      P1  H 10752 10765       L1     1  0.88

> <Gold.Chemscore.Hbond.Weighted>
-4.9841

> <Gold.Chemscore.Metal.Weighted>
-0.0000

> <Gold.Chemscore.Lipo.Weighted>
-13.0605

> <Gold.Chemscore.Internal_Hbond.Weighted>
0.0000

> <Gold.Chemscore.DEClash.Weighted>
0.1924

> <Gold.Chemscore.DEInternal.Weighted>
0.5129

> <Gold.Chemscore.Rot.Weighted>
5.9131

> <Gold.Chemscore.Internal.Correction.Weighted>
   9.000000E+99

> <Gold.Protein.RotatedTorsions>
[ 6907 6896 6895 6894 ] final   76.71 input  -60.11 | X-H torsion
[ 7974 7965 7964 7962 ] final   26.68 input  175.53 | X-H torsion
[ 8008 7997 7996 7995 ] final   25.53 input   59.86 | X-H torsion
[ 10167 10162 10161 10158 ] final -135.98 input  -65.29 | X-H torsion
[ 10718 10713 10712 10709 ] final  -92.17 input   66.30 | X-H torsion
[ 10763 10752 10751 10750 ] final  166.08 input  -60.55 | X-H torsion
[ 11005 11000 10999 10996 ] final   -9.30 input  -57.11 | X-H torsion

> <Gold.Protein.ActiveResidues>
 VAL166  LYS551  ARG553  GLY616  TRP617  ASP618  TYR619  PRO620  LYS621  CYS622 
 ASP623  PHE694  ASN695  SER759  ASP760  ASP761  ALA762  ILE779  LEU786  VAL792 
 PHE793  MET794  SER795  GLU796  ALA797  LYS798  CYS799  TRP800  GLU811  SER814 

> <Gold.Protein.RotatedAtoms>
  152.5085  134.3928  159.9389 H   0  0  0  0  0  0  0  0  0  0  0  0  # atno 6907 bound_to 6896
  151.3889  133.3789  159.2726 H   0  0  0  0  0  0  0  0  0  0  0  0  # atno 6908 bound_to 6896
  150.9448  134.8874  159.7693 H   0  0  0  0  0  0  0  0  0  0  0  0  # atno 6909 bound_to 6896
  146.1825  139.7295  142.8890 H   0  0  0  0  0  0  0  0  0  0  0  0  # atno 7974 bound_to 7965
  155.0132  140.3139  155.4822 H   0  0  0  0  0  0  0  0  0  0  0  0  # atno 8008 bound_to 7997
  156.2905  140.2211  156.5189 H   0  0  0  0  0  0  0  0  0  0  0  0  # atno 8009 bound_to 7997
  154.7516  140.0466  157.0886 H   0  0  0  0  0  0  0  0  0  0  0  0  # atno 8010 bound_to 7997
  139.8724  143.6940  152.2638 H   0  0  0  0  0  0  0  0  0  0  0  0  # atno 10167 bound_to 10162
  156.0000  130.4976  150.5585 H   0  0  0  0  0  0  0  0  0  0  0  0  # atno 10718 bound_to 10713
  154.3337  135.2754  155.2458 H   0  0  0  0  0  0  0  0  0  0  0  0  # atno 10763 bound_to 10752
  154.4759  135.5871  153.6358 H   0  0  0  0  0  0  0  0  0  0  0  0  # atno 10764 bound_to 10752
  152.9864  135.6099  154.3532 H   0  0  0  0  0  0  0  0  0  0  0  0  # atno 10765 bound_to 10752
  140.7327  133.8736  155.8905 H   0  0  0  0  0  0  0  0  0  0  0  0  # atno 11005 bound_to 11000
  145.4036  141.0388  143.3056 LP  0  0  0  0  0  0  0  0  0  0  0  0  # atno 17320 bound_to 7965
  144.8339  139.5583  143.6931 LP  0  0  0  0  0  0  0  0  0  0  0  0  # atno 17321 bound_to 7965
  139.7271  144.7590  151.0861 LP  0  0  0  0  0  0  0  0  0  0  0  0  # atno 17342 bound_to 10162
  140.7758  143.5134  150.9624 LP  0  0  0  0  0  0  0  0  0  0  0  0  # atno 17343 bound_to 10162
  157.3498  131.0731  151.1723 LP  0  0  0  0  0  0  0  0  0  0  0  0  # atno 17370 bound_to 10713
  157.2543  130.6629  149.5945 LP  0  0  0  0  0  0  0  0  0  0  0  0  # atno 17371 bound_to 10713
  140.9907  134.1282  157.4411 LP  0  0  0  0  0  0  0  0  0  0  0  0  # atno 17394 bound_to 11000
  139.8823  135.0039  156.6218 LP  0  0  0  0  0  0  0  0  0  0  0  0  # atno 17395 bound_to 11000

$$$$
