AV-unprocessed.smi:887|AV-procd|sdf|4052|dock8
  -GOLD-   22720 1543D 1   1.00000     0.00000
 Structure written by MMmdl.
 31 32  0  0  0  0  0  0  0  0  1 V2000
  146.9322  140.4594  153.5345 C   0  0  0  0  0  0  0  0  0  0  0  0
  148.2590  139.8762  153.6624 N   0  0  0  0  0  0  0  0  0  0  0  0
  148.7303  139.3107  154.7835 C   0  0  0  0  0  0  0  0  0  0  0  0
  148.0785  139.2305  155.8249 O   0  0  0  0  0  0  0  0  0  0  0  0
  150.1521  138.7473  154.7228 C   0  0  0  0  0  0  0  0  0  0  0  0
  151.0184  139.3778  155.7660 C   0  0  0  0  0  0  0  0  0  0  0  0
  152.2876  139.0179  155.9200 N   0  0  0  0  0  0  0  0  0  0  0  0
  152.7228  139.8153  156.9878 O   0  0  0  0  0  0  0  0  0  0  0  0
  151.6638  140.5878  157.3323 C   0  0  0  0  0  0  0  0  0  0  0  0
  151.7902  141.4936  158.5174 C   0  0  2  0  0  0  0  0  0  0  0  0
  151.5270  142.9683  158.1428 C   0  0  0  0  0  0  0  0  0  0  0  0
  151.9358  143.9343  159.2414 C   0  0  0  0  0  0  0  0  0  0  0  0
  152.6817  143.5824  160.3025 C   0  0  0  0  0  0  0  0  0  0  0  0
  153.2133  142.1782  160.5216 C   0  0  0  0  0  0  0  0  0  0  0  0
  153.1389  141.3230  159.2434 C   0  0  0  0  0  0  0  0  0  0  0  0
  150.5622  140.3249  156.6314 N   0  0  0  0  0  0  0  0  0  0  0  0
  146.8037  140.8745  152.5349 H   0  0  0  0  0  0  0  0  0  0  0  0
  146.7883  141.2627  154.2583 H   0  0  0  0  0  0  0  0  0  0  0  0
  146.1604  139.7053  153.6928 H   0  0  0  0  0  0  0  0  0  0  0  0
  148.8565  139.9041  152.8486 H   0  0  0  0  0  0  0  0  0  0  0  0
  150.1169  137.6684  154.8781 H   0  0  0  0  0  0  0  0  0  0  0  0
  150.5885  138.9102  153.7361 H   0  0  0  0  0  0  0  0  0  0  0  0
  151.0145  141.1948  159.2242 H   0  0  0  0  0  0  0  0  0  0  0  0
  152.0943  143.2384  157.2514 H   0  0  0  0  0  0  0  0  0  0  0  0
  150.4731  143.1119  157.9033 H   0  0  0  0  0  0  0  0  0  0  0  0
  151.6002  144.9559  159.1382 H   0  0  0  0  0  0  0  0  0  0  0  0
  152.9196  144.3165  161.0582 H   0  0  0  0  0  0  0  0  0  0  0  0
  154.2448  142.2336  160.8706 H   0  0  0  0  0  0  0  0  0  0  0  0
  152.6315  141.7166  161.3201 H   0  0  0  0  0  0  0  0  0  0  0  0
  153.3052  140.2753  159.4966 H   0  0  0  0  0  0  0  0  0  0  0  0
  153.9494  141.6096  158.5714 H   0  0  0  0  0  0  0  0  0  0  0  0
  1  2  1  0  0  0  0
  1 17  1  0  0  0  0
  1 18  1  0  0  0  0
  1 19  1  0  0  0  0
  2  3  1  0  0  0  0
  2 20  1  0  0  0  0
  3  4  2  0  0  0  0
  3  5  1  0  0  0  0
  5  6  1  0  0  0  0
  5 21  1  0  0  0  0
  5 22  1  0  0  0  0
  6 16  1  0  0  0  0
  6  7  2  0  0  0  0
  7  8  1  0  0  0  0
  8  9  1  0  0  0  0
  9 10  1  0  0  0  0
  9 16  2  0  0  0  0
 10 15  1  0  0  0  0
 10 11  1  0  0  0  0
 10 23  1  0  0  0  0
 11 12  1  0  0  0  0
 11 24  1  0  0  0  0
 11 25  1  0  0  0  0
 12 13  2  0  0  0  0
 12 26  1  0  0  0  0
 13 14  1  0  0  0  0
 13 27  1  0  0  0  0
 14 15  1  0  0  0  0
 14 28  1  0  0  0  0
 14 29  1  0  0  0  0
 15 30  1  0  0  0  0
 15 31  1  0  0  0  0
M  END
> <s_m_source_file>
AV-unprocessed.smi

> <i_m_source_file_index>
887

> <i_lp_mmshare_version>
43012

> <i_f3d_flags>
0

> <s_epik_input>
W0NIM11bTkhdQyg9TylbQ0gyXWMxbm9jKG4xKVtDQEBIXTJbQ0gyXVtDSF09W0NIXVtDSDJdW0NIMl0y

> <s_epik_cmdline>
J2VwaWtfcHl0aG9uJywgJy1waCcsICc3LjAnLCAnLXRuJywgJzgnLCAnLW1hJywgJzIwMCcsICctbWV0YWxfYmluZGluZycsICctaW1hZScsICc8aW5maWxlLm1hZT4nLCAnLW9tYWUnLCAnPG91dGZpbGUubWFlPic=

> <r_lp_tautomer_probability>
1

> <r_epik_Ionization_Penalty>
1.02915e-07

> <r_epik_Ionization_Penalty_Charging>
0

> <r_epik_Ionization_Penalty_Neutral>
1.02915e-07

> <r_epik_State_Penalty>
-0

> <r_epik_Charging_Adjusted_Penalty>
0

> <i_epik_Tot_Q>
0

> <i_epik_Tot_abs_Q>
0

> <r_epik_Metal_State_Penalty>
-0

> <b_epik_Metal_Only>
0

> <s_lp_Force_Field>
OPLS_2005

> <r_lp_Energy>
6.3781

> <b_lp_Chiralities_Consistent>
1

> <s_lp_Variant>
AV-unprocessed.smi:887-1

> <Gold.Version>
5.8.1

> <Gold.Id.Protein>
6NUR|6NUR_protein|mol2

> <Gold.PLP.Fitness>
39.9330

> <Gold.PLP.PLP>
-34.0280

> <Gold.PLP.part.hbond>
-1.9593

> <Gold.PLP.part.metal>
0.0000

> <Gold.PLP.part.buried>
-4.6598

> <Gold.PLP.part.nonpolar>
-27.3288

> <Gold.PLP.part.repulsive>
0.1707

> <Gold.PLP.ligand.clash>
0.0000

> <Gold.PLP.ligand.torsion>
0.1007

> <Gold.PLP.Chemscore.Hbond>
2.0000

> <Gold.PLP.Chemscore.CHOScore>
0.0000

> <Gold.PLP.Chemscore.Metal>
0.0000

> <Gold.Chemscore.Hbonds>
donor molecule, donor type, donor heavy atom, donor atom, acceptor molecule, acceptor atom, score
      L1  H     2    20       P1  7957  1.00
      P1  H  7997  8008       L1     8  0.95

> <Gold.PLP.Chemscore.Internal.Correction>
0.1064

> <Gold.Rescore>
     Score         DG    S(hbond)    S(metal)    S(lipo)     H(rot)  DE(clash)    DE(int)     intcor
     15.65     -17.11       1.95        0.00      79.36       1.63       0.04       1.42       ----

> <Gold.Chemscore.Fitness>
15.6456

> <Gold.Chemscore.DG>
-17.1090

> <Gold.Chemscore.ZeroCoef>
-5.4800

> <Gold.Chemscore.Hbond>
1.9521

> <Gold.Chemscore.Metal>
0.0000

> <Gold.Chemscore.Lipo>
79.3576

> <Gold.Chemscore.Internal_Hbond>
0.0000

> <Gold.Chemscore.DEClash>
0.0417

> <Gold.Chemscore.DEInternal>
1.4217

> <Gold.Chemscore.Rot>
1.6312

> <Gold.Chemscore.Internal.Correction>
   9.000000E+99

> <Gold.Chemscore.Hbonds>
donor molecule, donor type, donor heavy atom, donor atom, acceptor molecule, acceptor atom, score
      L1  H     2    20       P1  7957  1.00
      P1  H  7997  8008       L1     8  0.21

> <Gold.Chemscore.Hbond.Weighted>
-6.5200

> <Gold.Chemscore.Metal.Weighted>
-0.0000

> <Gold.Chemscore.Lipo.Weighted>
-9.2848

> <Gold.Chemscore.Internal_Hbond.Weighted>
0.0000

> <Gold.Chemscore.DEClash.Weighted>
0.0417

> <Gold.Chemscore.DEInternal.Weighted>
1.4217

> <Gold.Chemscore.Rot.Weighted>
4.1758

> <Gold.Chemscore.Internal.Correction.Weighted>
   9.000000E+99

> <Gold.Protein.RotatedTorsions>
[ 6907 6896 6895 6894 ] final   68.00 input  -60.11 | X-H torsion
[ 7974 7965 7964 7962 ] final   14.25 input  175.53 | X-H torsion
[ 8008 7997 7996 7995 ] final  -47.90 input   59.86 | X-H torsion
[ 10167 10162 10161 10158 ] final  156.07 input  -65.29 | X-H torsion
[ 10718 10713 10712 10709 ] final -100.82 input   66.30 | X-H torsion
[ 10763 10752 10751 10750 ] final  -13.45 input  -60.55 | X-H torsion
[ 11005 11000 10999 10996 ] final   97.20 input  -57.11 | X-H torsion

> <Gold.Protein.ActiveResidues>
 VAL166  LYS551  ARG553  GLY616  TRP617  ASP618  TYR619  PRO620  LYS621  CYS622 
 ASP623  PHE694  ASN695  SER759  ASP760  ASP761  ALA762  ILE779  LEU786  VAL792 
 PHE793  MET794  SER795  GLU796  ALA797  LYS798  CYS799  TRP800  GLU811  SER814 

> <Gold.Protein.RotatedAtoms>
  152.4591  134.5226  159.9786 H   0  0  0  0  0  0  0  0  0  0  0  0  # atno 6907 bound_to 6896
  151.5279  133.3448  159.2921 H   0  0  0  0  0  0  0  0  0  0  0  0  # atno 6908 bound_to 6896
  150.8546  134.7911  159.7098 H   0  0  0  0  0  0  0  0  0  0  0  0  # atno 6909 bound_to 6896
  146.2310  139.9069  142.8530 H   0  0  0  0  0  0  0  0  0  0  0  0  # atno 7974 bound_to 7965
  154.4022  140.1335  156.4252 H   0  0  0  0  0  0  0  0  0  0  0  0  # atno 8008 bound_to 7997
  155.7604  140.3486  155.5175 H   0  0  0  0  0  0  0  0  0  0  0  0  # atno 8009 bound_to 7997
  155.8864  140.0996  157.1440 H   0  0  0  0  0  0  0  0  0  0  0  0  # atno 8010 bound_to 7997
  139.4821  144.5042  151.8122 H   0  0  0  0  0  0  0  0  0  0  0  0  # atno 10167 bound_to 10162
  156.0175  130.5345  150.6873 H   0  0  0  0  0  0  0  0  0  0  0  0  # atno 10718 bound_to 10713
  153.5135  135.7016  153.5768 H   0  0  0  0  0  0  0  0  0  0  0  0  # atno 10763 bound_to 10752
  153.3848  135.3911  155.1882 H   0  0  0  0  0  0  0  0  0  0  0  0  # atno 10764 bound_to 10752
  154.8701  135.3844  154.4617 H   0  0  0  0  0  0  0  0  0  0  0  0  # atno 10765 bound_to 10752
  139.8777  134.8989  156.4271 H   0  0  0  0  0  0  0  0  0  0  0  0  # atno 11005 bound_to 11000
  145.2268  140.9957  143.4014 LP  0  0  0  0  0  0  0  0  0  0  0  0  # atno 17320 bound_to 7965
  144.9564  139.4027  143.6377 LP  0  0  0  0  0  0  0  0  0  0  0  0  # atno 17321 bound_to 7965
  140.4538  144.1817  150.5900 LP  0  0  0  0  0  0  0  0  0  0  0  0  # atno 17342 bound_to 10162
  140.4556  143.2469  151.9289 LP  0  0  0  0  0  0  0  0  0  0  0  0  # atno 17343 bound_to 10162
  157.4562  131.0878  151.0794 LP  0  0  0  0  0  0  0  0  0  0  0  0  # atno 17370 bound_to 10713
  157.1295  130.6096  149.5525 LP  0  0  0  0  0  0  0  0  0  0  0  0  # atno 17371 bound_to 10713
  140.9092  133.7723  155.9772 LP  0  0  0  0  0  0  0  0  0  0  0  0  # atno 17394 bound_to 11000
  140.8565  134.2892  157.5253 LP  0  0  0  0  0  0  0  0  0  0  0  0  # atno 17395 bound_to 11000

$$$$
