#       Name:                AV-unprocessed.smi:347
#       Creating user name   scv26
#       Creation time:       Thu Mar 26 22:32:29 2020


#       File generated by GOLD software.
#

@<TRIPOS>MOLECULE
AV-unprocessed.smi:347
    50    51     1
SMALL
NO_CHARGES


@<TRIPOS>ATOM
      1 ****        -6.3683   3.5666   0.7690 C.3            1 S1                 0.0000
      2 ****        -4.9233   3.2023   0.7764 C.2            1 S1                 0.0000
      3 ****        -4.2650   2.0132   0.9187 C.2            1 S1                 0.0000
      4 ****        -2.8990   2.3912   0.8290 C.2            1 S1                 0.0000
      5 ****        -1.8683   1.4221   0.9258 N.am           1 S1                 0.0000
      6 ****        -0.5423   1.6281   0.8566 C.2            1 S1                 0.0000
      7 ****         0.0012   2.7253   0.7295 O.2            1 S1                 0.0000
      8 ****         0.1332   0.4726   0.9391 N.am           1 S1                 0.0000
      9 ****         1.5866   0.3294   0.8837 C.3            1 S1                 0.0000
     10 ****         2.1846   0.5852  -0.5135 C.3            1 S1                 0.0000
     11 ****         1.9858  -0.5621  -1.5357 C.3            1 S1                 0.0000
     12 ****         0.5689  -0.5618  -2.1510 C.3            1 S1                 0.0000
     13 ****         2.9697  -0.3357  -2.7004 C.3            1 S1                 0.0000
     14 ****         2.3250  -1.8841  -0.9370 N.4            1 S1                 1.0000
     15 ****         1.8547  -2.2253   0.4358 C.3            1 S1                 0.0000
     16 ****         0.3996  -2.7445   0.4243 C.3            1 S1                 0.0000
     17 ****         2.7333  -3.3926   0.9267 C.3            1 S1                 0.0000
     18 ****         2.0502  -1.0370   1.4137 C.3            1 S1                 0.0000
     19 ****        -2.7373   3.6927   0.6475 N.2            1 S1                 0.0000
     20 ****        -4.0339   4.2195   0.6141 O.3            1 S1                 0.0000
     21 ****        -6.9883   2.6936   0.5646 H              1 S1                 0.0000
     22 ****        -6.5771   4.3151   0.0045 H              1 S1                 0.0000
     23 ****        -6.6674   3.9756   1.7341 H              1 S1                 0.0000
     24 ****        -4.6952   1.0335   1.0633 H              1 S1                 0.0000
     25 ****        -2.1757   0.4686   1.0463 H              1 S1                 0.0000
     26 ****        -0.4010  -0.3766   1.0528 H              1 S1                 0.0000
     27 ****         1.9892   1.0858   1.5604 H              1 S1                 0.0000
     28 ****         1.8190   1.5264  -0.9260 H              1 S1                 0.0000
     29 ****         3.2558   0.7381  -0.3718 H              1 S1                 0.0000
     30 ****         0.3953   0.3517  -2.7210 H              1 S1                 0.0000
     31 ****        -0.2287  -0.6121  -1.4175 H              1 S1                 0.0000
     32 ****         0.4346  -1.3996  -2.8360 H              1 S1                 0.0000
     33 ****         2.8001   0.6276  -3.1834 H              1 S1                 0.0000
     34 ****         2.8685  -1.1066  -3.4658 H              1 S1                 0.0000
     35 ****         4.0062  -0.3509  -2.3607 H              1 S1                 0.0000
     36 ****         2.0409  -2.6154  -1.5732 H              1 S1                 0.0000
     37 ****         0.1220  -3.1398   1.4021 H              1 S1                 0.0000
     38 ****         0.2738  -3.5527  -0.2971 H              1 S1                 0.0000
     39 ****        -0.3367  -1.9836   0.1884 H              1 S1                 0.0000
     40 ****         2.4702  -3.6905   1.9425 H              1 S1                 0.0000
     41 ****         3.7910  -3.1252   0.9300 H              1 S1                 0.0000
     42 ****         2.6240  -4.2713   0.2894 H              1 S1                 0.0000
     43 ****         3.1146  -0.9440   1.6357 H              1 S1                 0.0000
     44 ****         1.5754  -1.2507   2.3727 H              1 S1                 0.0000
     45 ****         3.3335  -1.9009  -0.8845 H              1 S1                 0.0000
     46 ****        -0.5544   3.5545   0.6692 LP             1 S1                 0.0000
     47 ****         0.9984   2.7873   0.6865 LP             1 S1                 0.0000
     48 ****        -1.8755   4.1914   0.5544 LP             1 S1                 0.0000
     49 ****        -4.1457   4.8850   1.3520 LP             1 S1                 0.0000
     50 ****        -4.1923   4.6676  -0.2658 LP             1 S1                 0.0000
@<TRIPOS>BOND
    1    1    2 1     
    2    1   21 1     
    3    1   22 1     
    4    1   23 1     
    5    2   20 1     
    6    2    3 2     
    7    3    4 1     
    8    3   24 1     
    9    4    5 1     
   10    4   19 2     
   11    5    6 am    
   12    5   25 1     
   13    6    7 2     
   14    6    8 am    
   15    8    9 1     
   16    8   26 1     
   17    9   18 1     
   18    9   10 1     
   19    9   27 1     
   20   10   11 1     
   21   10   28 1     
   22   10   29 1     
   23   11   12 1     
   24   11   13 1     
   25   11   14 1     
   26   12   30 1     
   27   12   31 1     
   28   12   32 1     
   29   13   33 1     
   30   13   34 1     
   31   13   35 1     
   32   14   15 1     
   33   14   36 1     
   34   14   45 1     
   35   15   16 1     
   36   15   17 1     
   37   15   18 1     
   38   16   37 1     
   39   16   38 1     
   40   16   39 1     
   41   17   40 1     
   42   17   41 1     
   43   17   42 1     
   44   18   43 1     
   45   18   44 1     
   46   19   20 1     
   47    7   46 1     
   48    7   47 1     
   49   19   48 1     
   50   20   49 1     
   51   20   50 1     
@<TRIPOS>SUBSTRUCTURE
      1 S1             1
@<TRIPOS>SET
LONE_PAIRS      STATIC     ATOMS    <user>   **** ""
5 46 47 48 49 50
DONOR_HYDROGENS      STATIC     ATOMS    <user>   **** ""
4 25 26 36 45
ATOM$BLUE        STATIC     ATOMS    COLORGROUP SYSTEM
5 46 47 48 49 50
ATOM$RED        STATIC     ATOMS    COLORGROUP SYSTEM
4 25 26 36 45
