AV-unprocessed.smi:265|AV-procd|sdf|2021|dock7
  -GOLD-   2262021223D 1   1.00000     0.00000
 Structure written by MMmdl.
 52 56  0  0  0  0  0  0  0  0  1 V2000
  153.0451  142.2716  159.9868 C   0  0  0  0  0  0  0  0  0  0  0  0
  152.8313  140.8619  160.5626 C   0  0  2  0  0  0  0  0  0  0  0  0
  153.0487  140.9298  161.9709 O   0  0  0  0  0  0  0  0  0  0  0  0
  153.6801  139.7388  162.4069 C   0  0  0  0  0  0  0  0  0  0  0  0
  154.6275  139.4299  161.2598 C   0  0  0  0  0  0  0  0  0  0  0  0
  153.7756  139.7476  160.0318 C   0  0  2  0  0  0  0  0  0  0  0  0
  154.6314  140.2017  158.9975 O   0  0  0  0  0  0  0  0  0  0  0  0
  152.9615  138.5369  159.5006 C   0  0  0  0  0  0  0  0  0  0  0  0
  151.9393  138.8789  158.5222 N   0  0  0  0  0  0  0  0  0  0  0  0
  150.6257  139.1976  158.7851 C   0  0  0  0  0  0  0  0  0  0  0  0
  149.8994  139.4768  157.7378 N   0  0  0  0  0  0  0  0  0  0  0  0
  150.7806  139.3515  156.6702 C   0  0  0  0  0  0  0  0  0  0  0  0
  150.6605  139.5197  155.2617 C   0  0  0  0  0  0  0  0  0  0  0  0
  149.4902  139.8559  154.6617 N   0  0  0  0  0  0  0  0  0  0  0  0
  148.6204  138.7710  154.2082 C   0  0  0  0  0  0  0  0  0  0  0  0
  147.5761  139.2938  153.2101 C   0  0  0  0  0  0  0  0  0  0  0  0
  146.7892  140.4869  153.7768 C   0  0  1  0  0  0  0  0  0  0  0  0
  145.9559  140.0642  154.8486 O   0  0  0  0  0  0  0  0  0  0  0  0
  145.0565  141.0734  155.3113 C   0  0  0  0  0  0  0  0  0  0  0  0
  145.7655  142.4154  155.5725 C   0  0  0  0  0  0  0  0  0  0  0  0
  145.2063  143.2851  156.2365 O   0  0  0  0  0  0  0  0  0  0  0  0
  146.9747  142.6097  155.0219 N   0  0  0  0  0  0  0  0  0  0  0  0
  147.7351  141.5777  154.3248 C   0  0  1  0  0  0  0  0  0  0  0  0
  148.7931  140.9835  155.2768 C   0  0  0  0  0  0  0  0  0  0  0  0
  151.7795  139.3298  154.5122 N   0  0  0  0  0  0  0  0  0  0  0  0
  152.9336  138.9925  155.0950 C   0  0  0  0  0  0  0  0  0  0  0  0
  153.1881  138.7969  156.3900 N   0  0  0  0  0  0  0  0  0  0  0  0
  152.0716  138.9887  157.1485 C   0  0  0  0  0  0  0  0  0  0  0  0
  146.1602  140.8958  152.9836 H   0  0  0  0  0  0  0  0  0  0  0  0
  148.2486  142.0496  153.4861 H   0  0  0  0  0  0  0  0  0  0  0  0
  152.8716  142.2905  158.9105 H   0  0  0  0  0  0  0  0  0  0  0  0
  154.0590  142.6271  160.1735 H   0  0  0  0  0  0  0  0  0  0  0  0
  152.3567  142.9836  160.4424 H   0  0  0  0  0  0  0  0  0  0  0  0
  151.7902  140.5775  160.4021 H   0  0  0  0  0  0  0  0  0  0  0  0
  154.1973  139.8821  163.3557 H   0  0  0  0  0  0  0  0  0  0  0  0
  152.9384  138.9484  162.5311 H   0  0  0  0  0  0  0  0  0  0  0  0
  155.4780  140.1115  161.3201 H   0  0  0  0  0  0  0  0  0  0  0  0
  155.0239  138.4165  161.2943 H   0  0  0  0  0  0  0  0  0  0  0  0
  154.7267  141.1386  159.0755 H   0  0  0  0  0  0  0  0  0  0  0  0
  153.6303  137.8086  159.0400 H   0  0  0  0  0  0  0  0  0  0  0  0
  152.4787  138.0176  160.3298 H   0  0  0  0  0  0  0  0  0  0  0  0
  150.2189  139.2109  159.7860 H   0  0  0  0  0  0  0  0  0  0  0  0
  149.2116  137.9868  153.7330 H   0  0  0  0  0  0  0  0  0  0  0  0
  148.1229  138.3231  155.0695 H   0  0  0  0  0  0  0  0  0  0  0  0
  148.0835  139.6039  152.2958 H   0  0  0  0  0  0  0  0  0  0  0  0
  146.8929  138.4928  152.9265 H   0  0  0  0  0  0  0  0  0  0  0  0
  144.2717  141.2276  154.5698 H   0  0  0  0  0  0  0  0  0  0  0  0
  144.5744  140.7267  156.2255 H   0  0  0  0  0  0  0  0  0  0  0  0
  147.4255  143.5026  155.1610 H   0  0  0  0  0  0  0  0  0  0  0  0
  148.3155  140.6294  156.1919 H   0  0  0  0  0  0  0  0  0  0  0  0
  149.4885  141.7666  155.5773 H   0  0  0  0  0  0  0  0  0  0  0  0
  153.7732  138.8607  154.4283 H   0  0  0  0  0  0  0  0  0  0  0  0
  1  2  1  0  0  0  0
  1 31  1  0  0  0  0
  1 32  1  0  0  0  0
  1 33  1  0  0  0  0
  2  6  1  0  0  0  0
  2  3  1  0  0  0  0
  2 34  1  0  0  0  0
  3  4  1  0  0  0  0
  4  5  1  0  0  0  0
  4 35  1  0  0  0  0
  4 36  1  0  0  0  0
  5  6  1  0  0  0  0
  5 37  1  0  0  0  0
  5 38  1  0  0  0  0
  6  7  1  0  0  0  0
  6  8  1  0  0  0  0
  7 39  1  0  0  0  0
  8  9  1  0  0  0  0
  8 40  1  0  0  0  0
  8 41  1  0  0  0  0
  9 28  1  0  0  0  0
  9 10  1  0  0  0  0
 10 11  2  0  0  0  0
 10 42  1  0  0  0  0
 11 12  1  0  0  0  0
 12 28  2  0  0  0  0
 12 13  1  0  0  0  0
 13 14  1  0  0  0  0
 13 25  2  0  0  0  0
 14 24  1  0  0  0  0
 14 15  1  0  0  0  0
 15 16  1  0  0  0  0
 15 43  1  0  0  0  0
 15 44  1  0  0  0  0
 16 17  1  0  0  0  0
 16 45  1  0  0  0  0
 16 46  1  0  0  0  0
 17 29  1  0  0  0  0
 17 23  1  0  0  0  0
 17 18  1  0  0  0  0
 18 19  1  0  0  0  0
 19 20  1  0  0  0  0
 19 47  1  0  0  0  0
 19 48  1  0  0  0  0
 20 21  2  0  0  0  0
 20 22  1  0  0  0  0
 22 23  1  0  0  0  0
 22 49  1  0  0  0  0
 23 30  1  0  0  0  0
 23 24  1  0  0  0  0
 24 50  1  0  0  0  0
 24 51  1  0  0  0  0
 25 26  1  0  0  0  0
 26 27  2  0  0  0  0
 26 52  1  0  0  0  0
 27 28  1  0  0  0  0
M  END
> <s_m_source_file>
AV-unprocessed.smi

> <i_m_source_file_index>
265

> <i_lp_mmshare_version>
43012

> <i_f3d_flags>
0

> <s_epik_input>
W0NIMl0xW0NIMl1PW0NAQEhdKFtDSDNdKVtDQEBdMShbT0hdKVtDSDJdbihbY0hdbjIpYyhjMjMpbltjSF1uYzNOKFtDSDJdW0NIMl00KVtDSDJdW0NAQEhdKFtDQEhdNDUpW05IXUMoPU8pW0NIMl1PNQ==

> <s_epik_cmdline>
J2VwaWtfcHl0aG9uJywgJy1waCcsICc3LjAnLCAnLXRuJywgJzgnLCAnLW1hJywgJzIwMCcsICctbWV0YWxfYmluZGluZycsICctaW1hZScsICc8aW5maWxlLm1hZT4nLCAnLW9tYWUnLCAnPG91dGZpbGUubWFlPic=

> <r_lp_tautomer_probability>
1

> <r_epik_Ionization_Penalty>
0.00221504

> <r_epik_Ionization_Penalty_Charging>
0

> <r_epik_Ionization_Penalty_Neutral>
0.00221504

> <r_epik_State_Penalty>
-0

> <r_epik_Charging_Adjusted_Penalty>
0

> <i_epik_Tot_Q>
0

> <i_epik_Tot_abs_Q>
0

> <r_epik_Metal_State_Penalty>
-0

> <b_epik_Metal_Only>
0

> <s_lp_Force_Field>
OPLS_2005

> <r_lp_Energy>
45.2978

> <b_lp_Chiralities_Consistent>
1

> <s_lp_Variant>
AV-unprocessed.smi:265-7

> <Gold.Version>
5.8.1

> <Gold.Id.Protein>
6NUR|6NUR_protein|mol2

> <Gold.PLP.Fitness>
42.6651

> <Gold.PLP.PLP>
-36.9129

> <Gold.PLP.part.hbond>
-2.9394

> <Gold.PLP.part.metal>
0.0000

> <Gold.PLP.part.buried>
2.3646

> <Gold.PLP.part.nonpolar>
-37.5454

> <Gold.PLP.part.repulsive>
0.6014

> <Gold.PLP.ligand.clash>
0.0000

> <Gold.PLP.ligand.torsion>
0.9542

> <Gold.PLP.Chemscore.Hbond>
2.4276

> <Gold.PLP.Chemscore.CHOScore>
0.0000

> <Gold.PLP.Chemscore.Metal>
0.0000

> <Gold.Chemscore.Hbonds>
donor molecule, donor type, donor heavy atom, donor atom, acceptor molecule, acceptor atom, score
      L1  H    22    49       P1  8028  0.70
      P1  H  7989  7998       L1    25  0.90
      P1  H  7997  8008       L1    27  0.55
      P1  H  7997  8010       L1     7  0.08

> <Gold.PLP.Chemscore.Internal.Correction>
0.3777

> <Gold.Rescore>
     Score         DG    S(hbond)    S(metal)    S(lipo)     H(rot)  DE(clash)    DE(int)     intcor
      9.05     -12.88       1.19        0.00      78.52       2.25       1.64       2.19       ----

> <Gold.Chemscore.Fitness>
9.0494

> <Gold.Chemscore.DG>
-12.8822

> <Gold.Chemscore.ZeroCoef>
-5.4800

> <Gold.Chemscore.Hbond>
1.1865

> <Gold.Chemscore.Metal>
0.0000

> <Gold.Chemscore.Lipo>
78.5222

> <Gold.Chemscore.Internal_Hbond>
0.0000

> <Gold.Chemscore.DEClash>
1.6382

> <Gold.Chemscore.DEInternal>
2.1947

> <Gold.Chemscore.Rot>
2.2453

> <Gold.Chemscore.Internal.Correction>
   9.000000E+99

> <Gold.Chemscore.Hbonds>
donor molecule, donor type, donor heavy atom, donor atom, acceptor molecule, acceptor atom, score
      L1  H    22    49       P1  8028  0.07
      P1  H  7989  7998       L1    25  0.17
      P1  H  7997  8008       L1    27  0.03
      P1  H  7997  8010       L1     7  0.01

> <Gold.Chemscore.Hbond.Weighted>
-3.9631

> <Gold.Chemscore.Metal.Weighted>
-0.0000

> <Gold.Chemscore.Lipo.Weighted>
-9.1871

> <Gold.Chemscore.Internal_Hbond.Weighted>
0.0000

> <Gold.Chemscore.DEClash.Weighted>
1.6382

> <Gold.Chemscore.DEInternal.Weighted>
2.1947

> <Gold.Chemscore.Rot.Weighted>
5.7479

> <Gold.Chemscore.Internal.Correction.Weighted>
   9.000000E+99

> <Gold.Protein.RotatedTorsions>
[ 6907 6896 6895 6894 ] final  -77.18 input  -60.11 | X-H torsion
[ 7974 7965 7964 7962 ] final -120.34 input  175.53 | X-H torsion
[ 8008 7997 7996 7995 ] final  -45.89 input   59.86 | X-H torsion
[ 10167 10162 10161 10158 ] final  -56.97 input  -65.29 | X-H torsion
[ 10718 10713 10712 10709 ] final  -68.92 input   66.30 | X-H torsion
[ 10763 10752 10751 10750 ] final  162.12 input  -60.55 | X-H torsion
[ 11005 11000 10999 10996 ] final -163.60 input  -57.11 | X-H torsion

> <Gold.Protein.ActiveResidues>
 VAL166  LYS551  ARG553  GLY616  TRP617  ASP618  TYR619  PRO620  LYS621  CYS622 
 ASP623  PHE694  ASN695  SER759  ASP760  ASP761  ALA762  ILE779  LEU786  VAL792 
 PHE793  MET794  SER795  GLU796  ALA797  LYS798  CYS799  TRP800  GLU811  SER814 

> <Gold.Protein.RotatedAtoms>
  150.7006  134.4461  159.5314 H   0  0  0  0  0  0  0  0  0  0  0  0  # atno 6907 bound_to 6896
  152.2162  134.8453  160.0500 H   0  0  0  0  0  0  0  0  0  0  0  0  # atno 6908 bound_to 6896
  151.9320  133.3578  159.3971 H   0  0  0  0  0  0  0  0  0  0  0  0  # atno 6909 bound_to 6896
  145.0525  140.8229  143.4201 H   0  0  0  0  0  0  0  0  0  0  0  0  # atno 7974 bound_to 7965
  154.4003  140.1385  156.3921 H   0  0  0  0  0  0  0  0  0  0  0  0  # atno 8008 bound_to 7997
  155.7904  140.3479  155.5326 H   0  0  0  0  0  0  0  0  0  0  0  0  # atno 8009 bound_to 7997
  155.8585  140.0952  157.1619 H   0  0  0  0  0  0  0  0  0  0  0  0  # atno 8010 bound_to 7997
  140.6285  143.2449  151.5301 H   0  0  0  0  0  0  0  0  0  0  0  0  # atno 10167 bound_to 10162
  156.0481  130.4303  150.2071 H   0  0  0  0  0  0  0  0  0  0  0  0  # atno 10718 bound_to 10713
  154.2735  135.2765  155.2728 H   0  0  0  0  0  0  0  0  0  0  0  0  # atno 10763 bound_to 10752
  154.5280  135.5737  153.6739 H   0  0  0  0  0  0  0  0  0  0  0  0  # atno 10764 bound_to 10752
  152.9941  135.6221  154.2891 H   0  0  0  0  0  0  0  0  0  0  0  0  # atno 10765 bound_to 10752
  140.5963  134.4993  157.5199 H   0  0  0  0  0  0  0  0  0  0  0  0  # atno 11005 bound_to 11000
  145.1510  139.2515  143.5441 LP  0  0  0  0  0  0  0  0  0  0  0  0  # atno 17320 bound_to 7965
  146.3519  140.1212  142.8600 LP  0  0  0  0  0  0  0  0  0  0  0  0  # atno 17321 bound_to 7965
  139.5502  144.2414  152.1517 LP  0  0  0  0  0  0  0  0  0  0  0  0  # atno 17342 bound_to 10162
  140.1652  144.4988  150.6610 LP  0  0  0  0  0  0  0  0  0  0  0  0  # atno 17343 bound_to 10162
  157.0158  130.9964  151.3353 LP  0  0  0  0  0  0  0  0  0  0  0  0  # atno 17370 bound_to 10713
  157.5378  130.8100  149.7993 LP  0  0  0  0  0  0  0  0  0  0  0  0  # atno 17371 bound_to 10713
  139.9252  134.8071  156.1091 LP  0  0  0  0  0  0  0  0  0  0  0  0  # atno 17394 bound_to 11000
  141.0902  133.6717  156.2523 LP  0  0  0  0  0  0  0  0  0  0  0  0  # atno 17395 bound_to 11000

$$$$
