AV-unprocessed.smi:1703|AV-procd|sdf|6875|dock3
  -GOLD-   22720 8 73D 1   1.00000     0.00000
 Structure written by MMmdl.
 50 52  0  0  0  0  0  0  0  0  3 V2000
  149.7247  132.7338  154.4018 C   0  0  0  0  0  0  0  0  0  0  0  0
  149.1563  134.1448  154.2149 C   0  0  2  0  0  0  0  0  0  0  0  0
  150.1799  135.2336  154.5846 C   0  0  0  0  0  0  0  0  0  0  0  0
  149.5651  136.5790  154.4799 N   0  3  2  0  0  0  0  0  0  0  0  0
  150.5176  137.6890  154.7358 C   0  0  0  0  0  0  0  0  0  0  0  0
  150.5749  138.0971  156.2249 C   0  0  1  0  0  0  0  0  0  0  0  0
  150.8384  136.9518  157.0094 O   0  0  0  0  0  0  0  0  0  0  0  0
  151.6732  139.1318  156.5416 C   0  0  0  0  0  0  0  0  0  0  0  0
  151.1696  140.5153  156.5819 N   0  0  0  0  0  0  0  0  0  0  0  0
  150.2179  141.1237  155.8149 C   0  0  0  0  0  0  0  0  0  0  0  0
  149.4389  140.5165  154.6949 C   0  0  0  0  0  0  0  0  0  0  0  0
  149.8516  140.9971  153.4346 O   0  0  0  0  0  0  0  0  0  0  0  0
  150.1131  142.4117  156.2461 N   0  3  0  0  0  0  0  0  0  0  0  0
  151.0008  142.6320  157.2991 C   0  0  0  0  0  0  0  0  0  0  0  0
  151.2514  143.7753  158.0515 C   0  0  0  0  0  0  0  0  0  0  0  0
  152.2325  143.6678  159.0584 C   0  0  0  0  0  0  0  0  0  0  0  0
  152.9219  142.4592  159.2847 C   0  0  0  0  0  0  0  0  0  0  0  0
  152.6593  141.3066  158.5151 C   0  0  0  0  0  0  0  0  0  0  0  0
  151.6848  141.4186  157.5221 C   0  0  0  0  0  0  0  0  0  0  0  0
  148.3585  136.6601  155.3366 C   0  0  0  0  0  0  0  0  0  0  0  0
  147.3587  135.5375  154.9965 C   0  0  1  0  0  0  0  0  0  0  0  0
  146.6179  135.7578  153.6654 C   0  0  0  0  0  0  0  0  0  0  0  0
  148.0084  134.2677  155.0506 O   0  0  0  0  0  0  0  0  0  0  0  0
  150.6048  132.5783  153.7771 H   0  0  0  0  0  0  0  0  0  0  0  0
  148.9874  131.9778  154.1301 H   0  0  0  0  0  0  0  0  0  0  0  0
  150.0144  132.5580  155.4380 H   0  0  0  0  0  0  0  0  0  0  0  0
  148.8652  134.2556  153.1702 H   0  0  0  0  0  0  0  0  0  0  0  0
  150.5460  135.0781  155.6008 H   0  0  0  0  0  0  0  0  0  0  0  0
  151.0418  135.1552  153.9229 H   0  0  0  0  0  0  0  0  0  0  0  0
  151.5205  137.3978  154.4195 H   0  0  0  0  0  0  0  0  0  0  0  0
  150.2359  138.5335  154.1063 H   0  0  0  0  0  0  0  0  0  0  0  0
  149.6185  138.5063  156.5459 H   0  0  0  0  0  0  0  0  0  0  0  0
  150.0633  136.7316  157.5029 H   0  0  0  0  0  0  0  0  0  0  0  0
  152.1138  138.9209  157.5168 H   0  0  0  0  0  0  0  0  0  0  0  0
  152.4921  139.0621  155.8266 H   0  0  0  0  0  0  0  0  0  0  0  0
  149.5419  139.4317  154.7179 H   0  0  0  0  0  0  0  0  0  0  0  0
  148.3799  140.7394  154.8289 H   0  0  0  0  0  0  0  0  0  0  0  0
  149.6639  140.3357  152.7857 H   0  0  0  0  0  0  0  0  0  0  0  0
  150.7254  144.7030  157.8792 H   0  0  0  0  0  0  0  0  0  0  0  0
  152.4611  144.5294  159.6691 H   0  0  0  0  0  0  0  0  0  0  0  0
  153.6680  142.4150  160.0648 H   0  0  0  0  0  0  0  0  0  0  0  0
  153.1995  140.3906  158.7015 H   0  0  0  0  0  0  0  0  0  0  0  0
  148.6594  136.5805  156.3827 H   0  0  0  0  0  0  0  0  0  0  0  0
  147.8772  137.6320  155.2197 H   0  0  0  0  0  0  0  0  0  0  0  0
  146.5997  135.5205  155.7794 H   0  0  0  0  0  0  0  0  0  0  0  0
  146.0157  136.6659  153.7047 H   0  0  0  0  0  0  0  0  0  0  0  0
  145.9455  134.9265  153.4529 H   0  0  0  0  0  0  0  0  0  0  0  0
  147.3006  135.8596  152.8222 H   0  0  0  0  0  0  0  0  0  0  0  0
  149.2420  136.6881  153.5292 H   0  0  0  0  0  0  0  0  0  0  0  0
  149.4788  143.0903  155.8443 H   0  0  0  0  0  0  0  0  0  0  0  0
  1  2  1  0  0  0  0
  1 24  1  0  0  0  0
  1 25  1  0  0  0  0
  1 26  1  0  0  0  0
  2 23  1  0  0  0  0
  2  3  1  0  0  0  0
  2 27  1  0  0  0  0
  3  4  1  0  0  0  0
  3 28  1  0  0  0  0
  3 29  1  0  0  0  0
  4  5  1  0  0  0  0
  4 20  1  0  0  0  0
  4 49  1  0  0  0  0
  5  6  1  0  0  0  0
  5 30  1  0  0  0  0
  5 31  1  0  0  0  0
  6  7  1  0  0  0  0
  6  8  1  0  0  0  0
  6 32  1  0  0  0  0
  7 33  1  0  0  0  0
  8  9  1  0  0  0  0
  8 34  1  0  0  0  0
  8 35  1  0  0  0  0
  9 19  1  0  0  0  0
  9 10  1  0  0  0  0
 10 11  1  0  0  0  0
 10 13  2  0  0  0  0
 11 12  1  0  0  0  0
 11 36  1  0  0  0  0
 11 37  1  0  0  0  0
 12 38  1  0  0  0  0
 13 14  1  0  0  0  0
 13 50  1  0  0  0  0
 14 19  2  0  0  0  0
 14 15  1  0  0  0  0
 15 16  2  0  0  0  0
 15 39  1  0  0  0  0
 16 17  1  0  0  0  0
 16 40  1  0  0  0  0
 17 18  2  0  0  0  0
 17 41  1  0  0  0  0
 18 19  1  0  0  0  0
 18 42  1  0  0  0  0
 20 21  1  0  0  0  0
 20 43  1  0  0  0  0
 20 44  1  0  0  0  0
 21 22  1  0  0  0  0
 21 23  1  0  0  0  0
 21 45  1  0  0  0  0
 22 46  1  0  0  0  0
 22 47  1  0  0  0  0
 22 48  1  0  0  0  0
M  CHG  1   4   1
M  CHG  1  13   1
M  END
> <s_m_source_file>
AV-unprocessed.smi

> <i_m_source_file_index>
1703

> <i_lp_mmshare_version>
43012

> <i_f3d_flags>
0

> <s_epik_input>
W0NIM11bQ0BASF0xW0NIMl1OKFtDSDJdW0NASF0oTzEpW0NIM10pW0NIMl1bQ0BIXShbT0hdKVtDSDJdbihjKG4yKVtDSDJdW09IXSljKGMyMylbY0hdW2NIXVtjSF1bY0hdMw==

> <s_epik_cmdline>
J2VwaWtfcHl0aG9uJywgJy1waCcsICc3LjAnLCAnLXRuJywgJzgnLCAnLW1hJywgJzIwMCcsICctbWV0YWxfYmluZGluZycsICctaW1hZScsICc8aW5maWxlLm1hZT4nLCAnLW9tYWUnLCAnPG91dGZpbGUubWFlPic=

> <r_epik_Ionization_Penalty>
2.22579

> <r_epik_Ionization_Penalty_Charging>
2.22492

> <r_epik_Ionization_Penalty_Neutral>
0.000870007

> <r_epik_State_Penalty>
2.3141

> <r_epik_Charging_Adjusted_Penalty>
4.53902

> <i_epik_Tot_Q>
2

> <i_epik_Tot_abs_Q>
2

> <r_epik_Metal_State_Penalty>
6.36517

> <b_epik_Metal_Only>
0

> <s_lp_Force_Field>
OPLS_2005

> <r_lp_Energy>
32.2753

> <b_lp_Chiralities_Consistent>
1

> <s_lp_Variant>
AV-unprocessed.smi:1703-23

> <Gold.Version>
5.8.1

> <Gold.Id.Protein>
6NUR|6NUR_protein|mol2

> <Gold.PLP.Fitness>
55.3836

> <Gold.PLP.PLP>
-39.7991

> <Gold.PLP.part.hbond>
-4.4487

> <Gold.PLP.part.metal>
0.0000

> <Gold.PLP.part.buried>
-3.4163

> <Gold.PLP.part.nonpolar>
-31.6786

> <Gold.PLP.part.repulsive>
0.1597

> <Gold.PLP.ligand.clash>
0.0000

> <Gold.PLP.ligand.torsion>
1.3118

> <Gold.PLP.Chemscore.Hbond>
6.0560

> <Gold.PLP.Chemscore.CHOScore>
0.0000

> <Gold.PLP.Chemscore.Metal>
0.0000

> <Gold.Chemscore.Hbonds>
donor molecule, donor type, donor heavy atom, donor atom, acceptor molecule, acceptor atom, score
      L1  H     4    49       P1  7948  2.00
      L1  H    12    38       P1  7957  0.86
      L1  H    13    50       P1  8028  2.00
      P1  H  7989  7998       L1    12  0.24
      P1  H  8011  8017       L1    12  0.85

> <Gold.PLP.Chemscore.Internal.Correction>
0.0401

> <Gold.Rescore>
     Score         DG    S(hbond)    S(metal)    S(lipo)     H(rot)  DE(clash)    DE(int)     intcor
     16.63     -18.85       2.80        0.00     100.71       3.04       0.35       1.86       ----

> <Gold.Chemscore.Fitness>
16.6335

> <Gold.Chemscore.DG>
-18.8455

> <Gold.Chemscore.ZeroCoef>
-5.4800

> <Gold.Chemscore.Hbond>
2.8022

> <Gold.Chemscore.Metal>
0.0000

> <Gold.Chemscore.Lipo>
100.7067

> <Gold.Chemscore.Internal_Hbond>
0.0000

> <Gold.Chemscore.DEClash>
0.3481

> <Gold.Chemscore.DEInternal>
1.8638

> <Gold.Chemscore.Rot>
3.0378

> <Gold.Chemscore.Internal.Correction>
   9.000000E+99

> <Gold.Chemscore.Hbonds>
donor molecule, donor type, donor heavy atom, donor atom, acceptor molecule, acceptor atom, score
      L1  H     4    49       P1  7948  0.95
      L1  H    12    38       P1  7957  0.85
      L1  H    13    50       P1  8028  0.96
      P1  H  7989  7998       L1    12  0.03
      P1  H  8011  8017       L1    12  0.14

> <Gold.Chemscore.Hbond.Weighted>
-9.3595

> <Gold.Chemscore.Metal.Weighted>
-0.0000

> <Gold.Chemscore.Lipo.Weighted>
-11.7827

> <Gold.Chemscore.Internal_Hbond.Weighted>
0.0000

> <Gold.Chemscore.DEClash.Weighted>
0.3481

> <Gold.Chemscore.DEInternal.Weighted>
1.8638

> <Gold.Chemscore.Rot.Weighted>
7.7767

> <Gold.Chemscore.Internal.Correction.Weighted>
   9.000000E+99

> <Gold.Protein.RotatedTorsions>
[ 6907 6896 6895 6894 ] final -139.69 input  -60.11 | X-H torsion
[ 7974 7965 7964 7962 ] final   13.60 input  175.53 | X-H torsion
[ 8008 7997 7996 7995 ] final   73.36 input   59.86 | X-H torsion
[ 10167 10162 10161 10158 ] final  -47.52 input  -65.29 | X-H torsion
[ 10718 10713 10712 10709 ] final  -62.70 input   66.30 | X-H torsion
[ 10763 10752 10751 10750 ] final   95.16 input  -60.55 | X-H torsion
[ 11005 11000 10999 10996 ] final  106.26 input  -57.11 | X-H torsion

> <Gold.Protein.ActiveResidues>
 VAL166  LYS551  ARG553  GLY616  TRP617  ASP618  TYR619  PRO620  LYS621  CYS622 
 ASP623  PHE694  ASN695  SER759  ASP760  ASP761  ALA762  ILE779  LEU786  VAL792 
 PHE793  MET794  SER795  GLU796  ALA797  LYS798  CYS799  TRP800  GLU811  SER814 

> <Gold.Protein.RotatedAtoms>
  151.0510  133.5624  159.2642 H   0  0  0  0  0  0  0  0  0  0  0  0  # atno 6907 bound_to 6896
  151.2634  135.0661  159.9117 H   0  0  0  0  0  0  0  0  0  0  0  0  # atno 6908 bound_to 6896
  152.5382  134.0252  159.8054 H   0  0  0  0  0  0  0  0  0  0  0  0  # atno 6909 bound_to 6896
  146.2325  139.9165  142.8516 H   0  0  0  0  0  0  0  0  0  0  0  0  # atno 7974 bound_to 7965
  155.7825  140.3481  155.5305 H   0  0  0  0  0  0  0  0  0  0  0  0  # atno 8008 bound_to 7997
  155.8714  140.0987  157.1568 H   0  0  0  0  0  0  0  0  0  0  0  0  # atno 8009 bound_to 7997
  154.4018  140.1340  156.4070 H   0  0  0  0  0  0  0  0  0  0  0  0  # atno 8010 bound_to 7997
  140.6771  143.2780  151.3939 H   0  0  0  0  0  0  0  0  0  0  0  0  # atno 10167 bound_to 10162
  156.0838  130.4212  150.1172 H   0  0  0  0  0  0  0  0  0  0  0  0  # atno 10718 bound_to 10713
  153.2500  135.4264  155.0787 H   0  0  0  0  0  0  0  0  0  0  0  0  # atno 10763 bound_to 10752
  154.8377  135.3423  154.6527 H   0  0  0  0  0  0  0  0  0  0  0  0  # atno 10764 bound_to 10752
  153.6948  135.7031  153.5136 H   0  0  0  0  0  0  0  0  0  0  0  0  # atno 10765 bound_to 10752
  139.8812  134.9363  156.5640 H   0  0  0  0  0  0  0  0  0  0  0  0  # atno 11005 bound_to 11000
  145.2178  140.9922  143.4063 LP  0  0  0  0  0  0  0  0  0  0  0  0  # atno 17320 bound_to 7965
  144.9636  139.3954  143.6344 LP  0  0  0  0  0  0  0  0  0  0  0  0  # atno 17321 bound_to 7965
  139.6070  144.1176  152.2259 LP  0  0  0  0  0  0  0  0  0  0  0  0  # atno 17342 bound_to 10162
  140.0578  144.5881  150.7286 LP  0  0  0  0  0  0  0  0  0  0  0  0  # atno 17343 bound_to 10162
  156.9197  130.9679  151.3550 LP  0  0  0  0  0  0  0  0  0  0  0  0  # atno 17370 bound_to 10713
  157.5965  130.8482  149.8738 LP  0  0  0  0  0  0  0  0  0  0  0  0  # atno 17371 bound_to 10713
  140.8148  133.8400  155.8842 LP  0  0  0  0  0  0  0  0  0  0  0  0  # atno 17394 bound_to 11000
  140.9473  134.1824  157.4754 LP  0  0  0  0  0  0  0  0  0  0  0  0  # atno 17395 bound_to 11000

$$$$
