AV-unprocessed.smi:1705|AV-procd|sdf|6884|dock3
  -GOLD-   22720 8 93D 1   1.00000     0.00000
 Structure written by MMmdl.
 38 39  0  0  0  0  0  0  0  0  1 V2000
  151.4761  138.4315  158.2777 C   0  0  0  0  0  0  0  0  0  0  0  0
  152.2743  139.5216  157.5489 C   0  0  2  0  0  0  0  0  0  0  0  0
  151.8988  140.8351  158.0562 N   0  0  0  0  0  0  0  0  0  0  0  0
  152.2478  141.5237  159.2182 C   0  0  0  0  0  0  0  0  0  0  0  0
  153.0998  141.0253  160.1635 C   0  0  0  0  0  0  0  0  0  0  0  0
  153.7713  139.7668  160.0749 C   0  0  0  0  0  0  0  0  0  0  0  0
  154.3028  138.7374  160.0560 N   0  0  0  0  0  0  0  0  0  0  0  0
  153.4356  141.7719  161.3759 C   0  0  0  0  0  0  0  0  0  0  0  0
  154.2202  141.3632  162.2356 O   0  0  0  0  0  0  0  0  0  0  0  0
  152.7997  143.0230  161.4995 N   0  0  0  0  0  0  0  0  0  0  0  0
  153.1055  143.8091  162.6794 C   0  0  0  0  0  0  0  0  0  0  0  0
  151.9368  143.5719  160.5315 C   0  0  0  0  0  0  0  0  0  0  0  0
  151.4296  144.6883  160.6795 O   0  0  0  0  0  0  0  0  0  0  0  0
  151.6810  142.7949  159.3751 N   0  0  0  0  0  0  0  0  0  0  0  0
  150.7893  143.4256  158.4194 C   0  0  0  0  0  0  0  0  0  0  0  0
  152.0944  139.4410  156.0179 C   0  0  1  0  0  0  0  0  0  0  0  0
  152.0525  138.0299  155.4181 C   0  0  0  0  0  0  0  0  0  0  0  0
  151.2312  138.2512  154.1684 C   0  0  0  0  0  0  0  0  0  0  0  0
  150.1999  139.2612  154.6589 C   0  0  0  0  0  0  0  0  0  0  0  0
  150.8846  140.0742  155.6064 O   0  0  0  0  0  0  0  0  0  0  0  0
  151.7553  137.4389  157.9232 H   0  0  0  0  0  0  0  0  0  0  0  0
  150.4027  138.5497  158.1266 H   0  0  0  0  0  0  0  0  0  0  0  0
  151.6644  138.4620  159.3514 H   0  0  0  0  0  0  0  0  0  0  0  0
  153.3158  139.3231  157.7854 H   0  0  0  0  0  0  0  0  0  0  0  0
  151.0872  141.2064  157.5838 H   0  0  0  0  0  0  0  0  0  0  0  0
  152.3096  144.5279  162.8767 H   0  0  0  0  0  0  0  0  0  0  0  0
  154.0545  144.3122  162.4874 H   0  0  0  0  0  0  0  0  0  0  0  0
  153.1733  143.1428  163.5409 H   0  0  0  0  0  0  0  0  0  0  0  0
  149.8026  143.4742  158.8828 H   0  0  0  0  0  0  0  0  0  0  0  0
  150.7441  142.8563  157.4941 H   0  0  0  0  0  0  0  0  0  0  0  0
  151.1821  144.4193  158.1951 H   0  0  0  0  0  0  0  0  0  0  0  0
  152.9038  139.9926  155.5371 H   0  0  0  0  0  0  0  0  0  0  0  0
  153.0442  137.6272  155.2111 H   0  0  0  0  0  0  0  0  0  0  0  0
  151.5338  137.3313  156.0753 H   0  0  0  0  0  0  0  0  0  0  0  0
  151.8488  138.6920  153.3848 H   0  0  0  0  0  0  0  0  0  0  0  0
  150.7823  137.3366  153.7804 H   0  0  0  0  0  0  0  0  0  0  0  0
  149.7777  139.8580  153.8500 H   0  0  0  0  0  0  0  0  0  0  0  0
  149.3812  138.7511  155.1681 H   0  0  0  0  0  0  0  0  0  0  0  0
  1  2  1  0  0  0  0
  1 21  1  0  0  0  0
  1 22  1  0  0  0  0
  1 23  1  0  0  0  0
  2  3  1  0  0  0  0
  2 16  1  0  0  0  0
  2 24  1  0  0  0  0
  3  4  1  0  0  0  0
  3 25  1  0  0  0  0
  4 14  1  0  0  0  0
  4  5  2  0  0  0  0
  5  6  1  0  0  0  0
  5  8  1  0  0  0  0
  6  7  3  0  0  0  0
  8  9  2  0  0  0  0
  8 10  1  0  0  0  0
 10 11  1  0  0  0  0
 10 12  1  0  0  0  0
 11 26  1  0  0  0  0
 11 27  1  0  0  0  0
 11 28  1  0  0  0  0
 12 13  2  0  0  0  0
 12 14  1  0  0  0  0
 14 15  1  0  0  0  0
 15 29  1  0  0  0  0
 15 30  1  0  0  0  0
 15 31  1  0  0  0  0
 16 20  1  0  0  0  0
 16 17  1  0  0  0  0
 16 32  1  0  0  0  0
 17 18  1  0  0  0  0
 17 33  1  0  0  0  0
 17 34  1  0  0  0  0
 18 19  1  0  0  0  0
 18 35  1  0  0  0  0
 18 36  1  0  0  0  0
 19 20  1  0  0  0  0
 19 37  1  0  0  0  0
 19 38  1  0  0  0  0
M  END
> <s_m_source_file>
AV-unprocessed.smi

> <i_m_source_file_index>
1705

> <i_lp_mmshare_version>
43012

> <i_f3d_flags>
0

> <s_epik_input>
TzFbQ0gyXVtDSDJdW0NIMl1bQ0BIXTFbQ0BIXShbQ0gzXSlbTkhdYzJjKEMjTiljKD1PKW4oW0NIM10pYyg9TyluMltDSDNd

> <s_epik_cmdline>
J2VwaWtfcHl0aG9uJywgJy1waCcsICc3LjAnLCAnLXRuJywgJzgnLCAnLW1hJywgJzIwMCcsICctbWV0YWxfYmluZGluZycsICctaW1hZScsICc8aW5maWxlLm1hZT4nLCAnLW9tYWUnLCAnPG91dGZpbGUubWFlPic=

> <r_epik_Ionization_Penalty>
0.000446268

> <r_epik_Ionization_Penalty_Charging>
9.41922e-10

> <r_epik_Ionization_Penalty_Neutral>
0.000446267

> <r_epik_State_Penalty>
0.000275531

> <r_epik_Charging_Adjusted_Penalty>
0.000275532

> <i_epik_Tot_Q>
0

> <i_epik_Tot_abs_Q>
0

> <r_epik_Metal_State_Penalty>
-0

> <b_epik_Metal_Only>
0

> <s_lp_Force_Field>
OPLS_2005

> <r_lp_Energy>
40.5078

> <b_lp_Chiralities_Consistent>
1

> <s_lp_Variant>
AV-unprocessed.smi:1705-3

> <Gold.Version>
5.8.1

> <Gold.Id.Protein>
6NUR|6NUR_protein|mol2

> <Gold.PLP.Fitness>
39.0213

> <Gold.PLP.PLP>
-40.2938

> <Gold.PLP.part.hbond>
-1.3333

> <Gold.PLP.part.metal>
0.0000

> <Gold.PLP.part.buried>
-6.7324

> <Gold.PLP.part.nonpolar>
-31.8875

> <Gold.PLP.part.repulsive>
0.2672

> <Gold.PLP.ligand.clash>
1.7701

> <Gold.PLP.ligand.torsion>
0.6449

> <Gold.PLP.Chemscore.Hbond>
0.0000

> <Gold.PLP.Chemscore.CHOScore>
0.0000

> <Gold.PLP.Chemscore.Metal>
0.0000

> <Gold.PLP.Chemscore.Internal.Correction>
1.7873

> <Gold.Rescore>
     Score         DG    S(hbond)    S(metal)    S(lipo)     H(rot)  DE(clash)    DE(int)     intcor
      8.68     -10.53       0.00        0.00      71.11       1.28       0.24       1.60       ----

> <Gold.Chemscore.Fitness>
8.6835

> <Gold.Chemscore.DG>
-10.5288

> <Gold.Chemscore.ZeroCoef>
-5.4800

> <Gold.Chemscore.Hbond>
0.0001

> <Gold.Chemscore.Metal>
0.0000

> <Gold.Chemscore.Lipo>
71.1114

> <Gold.Chemscore.Internal_Hbond>
0.0000

> <Gold.Chemscore.DEClash>
0.2446

> <Gold.Chemscore.DEInternal>
1.6006

> <Gold.Chemscore.Rot>
1.2780

> <Gold.Chemscore.Internal.Correction>
   9.000000E+99

> <Gold.Chemscore.Hbond.Weighted>
-0.0004

> <Gold.Chemscore.Metal.Weighted>
-0.0000

> <Gold.Chemscore.Lipo.Weighted>
-8.3200

> <Gold.Chemscore.Internal_Hbond.Weighted>
0.0000

> <Gold.Chemscore.DEClash.Weighted>
0.2446

> <Gold.Chemscore.DEInternal.Weighted>
1.6006

> <Gold.Chemscore.Rot.Weighted>
3.2717

> <Gold.Chemscore.Internal.Correction.Weighted>
   9.000000E+99

> <Gold.Protein.RotatedTorsions>
[ 6907 6896 6895 6894 ] final   88.26 input  -60.11 | X-H torsion
[ 7974 7965 7964 7962 ] final  165.59 input  175.53 | X-H torsion
[ 8008 7997 7996 7995 ] final  -72.91 input   59.86 | X-H torsion
[ 10167 10162 10161 10158 ] final -117.25 input  -65.29 | X-H torsion
[ 10718 10713 10712 10709 ] final  -94.69 input   66.30 | X-H torsion
[ 10763 10752 10751 10750 ] final -178.42 input  -60.55 | X-H torsion
[ 11005 11000 10999 10996 ] final  169.37 input  -57.11 | X-H torsion

> <Gold.Protein.ActiveResidues>
 VAL166  LYS551  ARG553  GLY616  TRP617  ASP618  TYR619  PRO620  LYS621  CYS622 
 ASP623  PHE694  ASN695  SER759  ASP760  ASP761  ALA762  ILE779  LEU786  VAL792 
 PHE793  MET794  SER795  GLU796  ALA797  LYS798  CYS799  TRP800  GLU811  SER814 

> <Gold.Protein.RotatedAtoms>
  152.5423  134.2149  159.8764 H   0  0  0  0  0  0  0  0  0  0  0  0  # atno 6907 bound_to 6896
  151.2129  133.4539  159.2606 H   0  0  0  0  0  0  0  0  0  0  0  0  # atno 6908 bound_to 6896
  151.0879  134.9911  159.8444 H   0  0  0  0  0  0  0  0  0  0  0  0  # atno 6909 bound_to 6896
  144.7496  139.8492  143.6370 H   0  0  0  0  0  0  0  0  0  0  0  0  # atno 7974 bound_to 7965
  154.5204  140.0788  156.8161 H   0  0  0  0  0  0  0  0  0  0  0  0  # atno 8008 bound_to 7997
  155.3589  140.3417  155.4222 H   0  0  0  0  0  0  0  0  0  0  0  0  # atno 8009 bound_to 7997
  156.1675  140.1608  156.8493 H   0  0  0  0  0  0  0  0  0  0  0  0  # atno 8010 bound_to 7997
  140.0704  143.4883  152.1983 H   0  0  0  0  0  0  0  0  0  0  0  0  # atno 10167 bound_to 10162
  156.0031  130.5078  150.5964 H   0  0  0  0  0  0  0  0  0  0  0  0  # atno 10718 bound_to 10713
  154.5479  135.2810  155.1036 H   0  0  0  0  0  0  0  0  0  0  0  0  # atno 10763 bound_to 10752
  154.2493  135.6342  153.5238 H   0  0  0  0  0  0  0  0  0  0  0  0  # atno 10764 bound_to 10752
  152.9995  135.5579  154.6036 H   0  0  0  0  0  0  0  0  0  0  0  0  # atno 10765 bound_to 10752
  140.2971  134.7626  157.3886 H   0  0  0  0  0  0  0  0  0  0  0  0  # atno 11005 bound_to 11000
  146.1428  139.4489  143.0098 LP  0  0  0  0  0  0  0  0  0  0  0  0  # atno 17320 bound_to 7965
  145.6992  141.0141  143.1513 LP  0  0  0  0  0  0  0  0  0  0  0  0  # atno 17321 bound_to 7965
  139.5839  144.7523  151.3568 LP  0  0  0  0  0  0  0  0  0  0  0  0  # atno 17342 bound_to 10162
  140.7128  143.7345  150.7599 LP  0  0  0  0  0  0  0  0  0  0  0  0  # atno 17343 bound_to 10162
  157.3820  131.0782  151.1468 LP  0  0  0  0  0  0  0  0  0  0  0  0  # atno 17370 bound_to 10713
  157.2188  130.6471  149.5803 LP  0  0  0  0  0  0  0  0  0  0  0  0  # atno 17371 bound_to 10713
  140.1143  134.5304  155.8238 LP  0  0  0  0  0  0  0  0  0  0  0  0  # atno 17394 bound_to 11000
  141.2135  133.6735  156.6747 LP  0  0  0  0  0  0  0  0  0  0  0  0  # atno 17395 bound_to 11000

$$$$
