#       Name:                AV-unprocessed.smi:1047
#       Creating user name   scv26
#       Creation time:       Fri Mar 27 03:02:00 2020


#       File generated by GOLD software.
#

@<TRIPOS>MOLECULE
AV-unprocessed.smi:1047
    62    64     1
SMALL
NO_CHARGES


@<TRIPOS>ATOM
      1 ****        -4.6202   5.9079  -0.9306 C.3            1 S1                 0.0000
      2 ****        -4.1184   4.4616  -0.8118 C.3            1 S1                 0.0000
      3 ****        -2.6688   4.3218  -0.6830 N.3            1 S1                 0.0000
      4 ****        -2.1650   4.8549   0.5805 C.3            1 S1                 0.0000
      5 ****        -0.6439   4.6694   0.7151 C.3            1 S1                 0.0000
      6 ****        -0.3125   3.2932   0.5602 O.3            1 S1                 0.0000
      7 ****        -0.7354   2.7567  -0.6908 C.3            1 S1                 0.0000
      8 ****        -0.3115   1.2832  -0.7499 C.3            1 S1                 0.0000
      9 ****         1.1584   1.1561  -0.8032 N.4            1 S1                 1.0000
     10 ****         1.6382  -0.2385  -0.8700 C.3            1 S1                 0.0000
     11 ****         3.1783  -0.3109  -0.8968 C.3            1 S1                 0.0000
     12 ****         3.6489   0.2538  -2.1044 O.3            1 S1                 0.0000
     13 ****         3.7292  -1.7488  -0.8190 C.3            1 S1                 0.0000
     14 ****         3.3538  -2.4285   0.4076 N.pl3          1 S1                 0.0000
     15 ****         3.9639  -2.3319   1.6043 C.2            1 S1                 0.0000
     16 ****         3.4518  -3.0391   2.6072 N.2            1 S1                 0.0000
     17 ****         2.3895  -3.6744   1.9878 C.ar           1 S1                 0.0000
     18 ****         1.4319  -4.5746   2.5040 C.ar           1 S1                 0.0000
     19 ****         0.4143  -5.1027   1.6779 C.ar           1 S1                 0.0000
     20 ****        -0.5964  -6.0658   2.2757 C.3            1 S1                 0.0000
     21 ****         0.3445  -4.7318   0.3109 C.ar           1 S1                 0.0000
     22 ****        -0.7407  -5.2863  -0.5949 C.3            1 S1                 0.0000
     23 ****         1.2946  -3.8356  -0.2216 C.ar           1 S1                 0.0000
     24 ****         2.3018  -3.3158   0.6109 C.ar           1 S1                 0.0000
     25 ****        -2.2636   2.9257  -0.8037 C.3            1 S1                 0.0000
     26 ****        -5.6918   5.9255  -1.1298 H              1 S1                 0.0000
     27 ****        -4.1235   6.4302  -1.7489 H              1 S1                 0.0000
     28 ****        -4.4529   6.4751  -0.0153 H              1 S1                 0.0000
     29 ****        -4.6158   3.9715   0.0265 H              1 S1                 0.0000
     30 ****        -4.4449   3.9296  -1.7063 H              1 S1                 0.0000
     31 ****        -2.3944   5.9171   0.6615 H              1 S1                 0.0000
     32 ****        -2.6643   4.3621   1.4161 H              1 S1                 0.0000
     33 ****        -0.1149   5.2635  -0.0318 H              1 S1                 0.0000
     34 ****        -0.3055   5.0100   1.6937 H              1 S1                 0.0000
     35 ****        -0.2514   3.3038  -1.5023 H              1 S1                 0.0000
     36 ****        -0.6989   0.7427   0.1149 H              1 S1                 0.0000
     37 ****        -0.7331   0.8134  -1.6394 H              1 S1                 0.0000
     38 ****         1.4941   1.6504  -1.6174 H              1 S1                 0.0000
     39 ****         1.2514  -0.7593   0.0059 H              1 S1                 0.0000
     40 ****         1.2181  -0.7343  -1.7465 H              1 S1                 0.0000
     41 ****         3.5878   0.2691  -0.0684 H              1 S1                 0.0000
     42 ****         3.4804   1.1833  -2.0959 H              1 S1                 0.0000
     43 ****         3.3787  -2.3400  -1.6661 H              1 S1                 0.0000
     44 ****         4.8186  -1.7382  -0.8793 H              1 S1                 0.0000
     45 ****         4.8305  -1.7030   1.7484 H              1 S1                 0.0000
     46 ****         1.4847  -4.8566   3.5454 H              1 S1                 0.0000
     47 ****        -0.5855  -7.0148   1.7391 H              1 S1                 0.0000
     48 ****        -1.6014  -5.6468   2.2201 H              1 S1                 0.0000
     49 ****        -0.3777  -6.2730   3.3238 H              1 S1                 0.0000
     50 ****        -0.6703  -4.8714  -1.6008 H              1 S1                 0.0000
     51 ****        -1.7286  -5.0447  -0.2022 H              1 S1                 0.0000
     52 ****        -0.6546  -6.3703  -0.6733 H              1 S1                 0.0000
     53 ****         1.2521  -3.5453  -1.2608 H              1 S1                 0.0000
     54 ****        -2.7541   2.3310  -0.0314 H              1 S1                 0.0000
     55 ****        -2.5996   2.5283  -1.7624 H              1 S1                 0.0000
     56 ****         1.5453   1.5912   0.0224 H              1 S1                 0.0000
     57 ****        -2.2720   4.8559  -1.4295 LP             1 S1                 0.0000
     58 ****        -0.7516   2.7750   1.2941 LP             1 S1                 0.0000
     59 ****         0.6801   3.1945   0.6302 LP             1 S1                 0.0000
     60 ****         3.1741  -0.1658  -2.8781 LP             1 S1                 0.0000
     61 ****         4.6321   0.0922  -2.1893 LP             1 S1                 0.0000
     62 ****         3.7545  -3.0968   3.5585 LP             1 S1                 0.0000
@<TRIPOS>BOND
    1    1    2 1     
    2    1   26 1     
    3    1   27 1     
    4    1   28 1     
    5    2    3 1     
    6    2   29 1     
    7    2   30 1     
    8    3   25 1     
    9    3    4 1     
   10    4    5 1     
   11    4   31 1     
   12    4   32 1     
   13    5    6 1     
   14    5   33 1     
   15    5   34 1     
   16    6    7 1     
   17    7    8 1     
   18    7   25 1     
   19    7   35 1     
   20    8    9 1     
   21    8   36 1     
   22    8   37 1     
   23    9   10 1     
   24    9   38 1     
   25    9   56 1     
   26   10   11 1     
   27   10   39 1     
   28   10   40 1     
   29   11   12 1     
   30   11   13 1     
   31   11   41 1     
   32   12   42 1     
   33   13   14 1     
   34   13   43 1     
   35   13   44 1     
   36   14   24 1     
   37   14   15 1     
   38   15   16 2     
   39   15   45 1     
   40   16   17 1     
   41   17   24 ar    
   42   17   18 ar    
   43   18   19 ar    
   44   18   46 1     
   45   19   20 1     
   46   19   21 ar    
   47   20   47 1     
   48   20   48 1     
   49   20   49 1     
   50   21   22 1     
   51   21   23 ar    
   52   22   50 1     
   53   22   51 1     
   54   22   52 1     
   55   23   24 ar    
   56   23   53 1     
   57   25   54 1     
   58   25   55 1     
   59    3   57 1     
   60    6   58 1     
   61    6   59 1     
   62   12   60 1     
   63   12   61 1     
   64   16   62 1     
@<TRIPOS>SUBSTRUCTURE
      1 S1             1
@<TRIPOS>SET
LONE_PAIRS      STATIC     ATOMS    <user>   **** ""
6 57 58 59 60 61 62
DONOR_HYDROGENS      STATIC     ATOMS    <user>   **** ""
3 38 56 42
ATOM$BLUE        STATIC     ATOMS    COLORGROUP SYSTEM
6 57 58 59 60 61 62
ATOM$RED        STATIC     ATOMS    COLORGROUP SYSTEM
3 38 56 42
