AV-unprocessed.smi:1484|AV-procd|sdf|5997|dock7
  -GOLD-   22720 6 93D 1   1.00000     0.00000
 Structure written by MMmdl.
 38 39  0  0  0  0  0  0  0  0  1 V2000
  151.2093  145.2988  160.1631 C   0  0  0  0  0  0  0  0  0  0  0  0
  151.7819  143.8970  160.4154 C   0  0  2  0  0  0  0  0  0  0  0  0
  152.3419  143.7662  161.8446 C   0  0  0  0  0  0  0  0  0  0  0  0
  152.9194  142.3650  162.0996 C   0  0  0  0  0  0  0  0  0  0  0  0
  153.9938  142.0032  161.0593 C   0  0  0  0  0  0  0  0  0  0  0  0
  153.4728  142.1367  159.6155 C   0  0  1  0  0  0  0  0  0  0  0  0
  152.5077  141.0770  159.3269 N   0  0  0  0  0  0  0  0  0  0  0  0
  152.7838  139.9142  158.7177 C   0  0  0  0  0  0  0  0  0  0  0  0
  153.9099  139.6107  158.3212 O   0  0  0  0  0  0  0  0  0  0  0  0
  151.5917  138.9681  158.5124 C   0  0  0  0  0  0  0  0  0  0  0  0
  151.4837  138.4491  157.1415 N   0  0  0  0  0  0  0  0  0  0  0  0
  151.2042  139.4181  156.1898 N   0  0  0  0  0  0  0  0  0  0  0  0
  151.0993  139.0896  154.9466 C   0  0  0  0  0  0  0  0  0  0  0  0
  150.8249  140.0810  154.0368 O   0  0  0  0  0  0  0  0  0  0  0  0
  151.2640  137.7177  154.5185 C   0  0  0  0  0  0  0  0  0  0  0  0
  151.5314  136.7802  155.4537 C   0  0  0  0  0  0  0  0  0  0  0  0
  151.6583  137.1187  156.8724 C   0  0  0  0  0  0  0  0  0  0  0  0
  151.9014  136.2855  157.7449 O   0  0  0  0  0  0  0  0  0  0  0  0
  152.8648  143.5365  159.3770 C   0  0  0  0  0  0  0  0  0  0  0  0
  150.1730  139.7177  153.4575 H   0  0  0  0  0  0  0  0  0  0  0  0
  151.9795  146.0650  160.2576 H   0  0  0  0  0  0  0  0  0  0  0  0
  150.4167  145.5332  160.8744 H   0  0  0  0  0  0  0  0  0  0  0  0
  150.7852  145.3745  159.1615 H   0  0  0  0  0  0  0  0  0  0  0  0
  150.9596  143.1880  160.3092 H   0  0  0  0  0  0  0  0  0  0  0  0
  153.1202  144.5135  162.0059 H   0  0  0  0  0  0  0  0  0  0  0  0
  151.5582  143.9754  162.5735 H   0  0  0  0  0  0  0  0  0  0  0  0
  153.3453  142.3178  163.1022 H   0  0  0  0  0  0  0  0  0  0  0  0
  152.1156  141.6283  162.0734 H   0  0  0  0  0  0  0  0  0  0  0  0
  154.8511  142.6646  161.1912 H   0  0  0  0  0  0  0  0  0  0  0  0
  154.3622  140.9920  161.2365 H   0  0  0  0  0  0  0  0  0  0  0  0
  154.3231  142.0086  158.9431 H   0  0  0  0  0  0  0  0  0  0  0  0
  151.5539  141.2443  159.6131 H   0  0  0  0  0  0  0  0  0  0  0  0
  151.6600  138.1397  159.2201 H   0  0  0  0  0  0  0  0  0  0  0  0
  150.6823  139.5080  158.7826 H   0  0  0  0  0  0  0  0  0  0  0  0
  151.1733  137.4578  153.4742 H   0  0  0  0  0  0  0  0  0  0  0  0
  151.6569  135.7520  155.1486 H   0  0  0  0  0  0  0  0  0  0  0  0
  152.4541  143.6018  158.3686 H   0  0  0  0  0  0  0  0  0  0  0  0
  153.6636  144.2784  159.4216 H   0  0  0  0  0  0  0  0  0  0  0  0
  1  2  1  0  0  0  0
  1 21  1  0  0  0  0
  1 22  1  0  0  0  0
  1 23  1  0  0  0  0
  2 19  1  0  0  0  0
  2  3  1  0  0  0  0
  2 24  1  0  0  0  0
  3  4  1  0  0  0  0
  3 25  1  0  0  0  0
  3 26  1  0  0  0  0
  4  5  1  0  0  0  0
  4 27  1  0  0  0  0
  4 28  1  0  0  0  0
  5  6  1  0  0  0  0
  5 29  1  0  0  0  0
  5 30  1  0  0  0  0
  6  7  1  0  0  0  0
  6 19  1  0  0  0  0
  6 31  1  0  0  0  0
  7  8  1  0  0  0  0
  7 32  1  0  0  0  0
  8  9  2  0  0  0  0
  8 10  1  0  0  0  0
 10 33  1  0  0  0  0
 10 34  1  0  0  0  0
 10 11  1  0  0  0  0
 11 12  1  0  0  0  0
 11 17  1  0  0  0  0
 12 13  2  0  0  0  0
 13 14  1  0  0  0  0
 13 15  1  0  0  0  0
 14 20  1  0  0  0  0
 15 35  1  0  0  0  0
 15 16  2  0  0  0  0
 16 36  1  0  0  0  0
 16 17  1  0  0  0  0
 17 18  2  0  0  0  0
 19 37  1  0  0  0  0
 19 38  1  0  0  0  0
M  END
> <s_m_source_file>
AV-unprocessed.smi

> <i_m_source_file_index>
1484

> <i_lp_mmshare_version>
43012

> <i_f3d_flags>
0

> <s_epik_input>
W0NIM11bQ0BASF0xW0NIMl1bQ0gyXVtDSDJdW0NASF0oW0NIMl0xKVtOSF1DKD1PKVtDSDJdbjJbbkhdYyg9TylbY0hdW2NIXWMyPU8=

> <s_epik_cmdline>
J2VwaWtfcHl0aG9uJywgJy1waCcsICc3LjAnLCAnLXRuJywgJzgnLCAnLW1hJywgJzIwMCcsICctbWV0YWxfYmluZGluZycsICctaW1hZScsICc8aW5maWxlLm1hZT4nLCAnLW9tYWUnLCAnPG91dGZpbGUubWFlPic=

> <r_lp_tautomer_probability>
0.9996

> <r_epik_Ionization_Penalty>
2.10343

> <r_epik_Ionization_Penalty_Charging>
3.97871e-08

> <r_epik_Ionization_Penalty_Neutral>
2.10343

> <r_epik_State_Penalty>
1.67966

> <r_epik_Charging_Adjusted_Penalty>
1.67966

> <i_epik_Tot_Q>
0

> <i_epik_Tot_abs_Q>
0

> <r_epik_Metal_State_Penalty>
1.67966

> <b_epik_Metal_Only>
0

> <s_lp_Force_Field>
OPLS_2005

> <r_lp_Energy>
17.3635

> <b_lp_Chiralities_Consistent>
1

> <s_lp_Variant>
AV-unprocessed.smi:1484-5

> <Gold.Version>
5.8.1

> <Gold.Id.Protein>
6NUR|6NUR_protein|mol2

> <Gold.PLP.Fitness>
48.9316

> <Gold.PLP.PLP>
-42.4421

> <Gold.PLP.part.hbond>
-4.0000

> <Gold.PLP.part.metal>
0.0000

> <Gold.PLP.part.buried>
-6.1786

> <Gold.PLP.part.nonpolar>
-33.0070

> <Gold.PLP.part.repulsive>
0.1357

> <Gold.PLP.ligand.clash>
0.0000

> <Gold.PLP.ligand.torsion>
0.4657

> <Gold.PLP.Chemscore.Hbond>
2.4711

> <Gold.PLP.Chemscore.CHOScore>
0.0000

> <Gold.PLP.Chemscore.Metal>
0.0000

> <Gold.Chemscore.Hbonds>
donor molecule, donor type, donor heavy atom, donor atom, acceptor molecule, acceptor atom, score
      L1  H    14    20       P1  7957  0.09
      P1  H  7989  7998       L1    14  0.29
      P1  H  7997  8009       L1     9  0.89

> <Gold.PLP.Chemscore.Internal.Correction>
0.0075

> <Gold.Rescore>
     Score         DG    S(hbond)    S(metal)    S(lipo)     H(rot)  DE(clash)    DE(int)     intcor
     19.71     -20.15       2.78        0.00      95.03       2.24       0.03       0.41       ----

> <Gold.Chemscore.Fitness>
19.7111

> <Gold.Chemscore.DG>
-20.1459

> <Gold.Chemscore.ZeroCoef>
-5.4800

> <Gold.Chemscore.Hbond>
2.7804

> <Gold.Chemscore.Metal>
0.0000

> <Gold.Chemscore.Lipo>
95.0342

> <Gold.Chemscore.Internal_Hbond>
0.0000

> <Gold.Chemscore.DEClash>
0.0274

> <Gold.Chemscore.DEInternal>
0.4074

> <Gold.Chemscore.Rot>
2.2421

> <Gold.Chemscore.Internal.Correction>
   9.000000E+99

> <Gold.Chemscore.Hbonds>
donor molecule, donor type, donor heavy atom, donor atom, acceptor molecule, acceptor atom, score
      L1  H    14    20       P1  7957  0.10
      P1  H  7989  7998       L1    14  0.25
      P1  H  7997  8009       L1     9  0.86

> <Gold.Chemscore.Hbond.Weighted>
-9.2867

> <Gold.Chemscore.Metal.Weighted>
-0.0000

> <Gold.Chemscore.Lipo.Weighted>
-11.1190

> <Gold.Chemscore.Internal_Hbond.Weighted>
0.0000

> <Gold.Chemscore.DEClash.Weighted>
0.0274

> <Gold.Chemscore.DEInternal.Weighted>
0.4074

> <Gold.Chemscore.Rot.Weighted>
5.7398

> <Gold.Chemscore.Internal.Correction.Weighted>
   9.000000E+99

> <Gold.Protein.RotatedTorsions>
[ 6907 6896 6895 6894 ] final -163.30 input  -60.11 | X-H torsion
[ 7974 7965 7964 7962 ] final -141.08 input  175.53 | X-H torsion
[ 8008 7997 7996 7995 ] final  137.21 input   59.86 | X-H torsion
[ 10167 10162 10161 10158 ] final  -82.50 input  -65.29 | X-H torsion
[ 10718 10713 10712 10709 ] final -178.23 input   66.30 | X-H torsion
[ 10763 10752 10751 10750 ] final -116.12 input  -60.55 | X-H torsion
[ 11005 11000 10999 10996 ] final -137.65 input  -57.11 | X-H torsion

> <Gold.Protein.ActiveResidues>
 VAL166  LYS551  ARG553  GLY616  TRP617  ASP618  TYR619  PRO620  LYS621  CYS622 
 ASP623  PHE694  ASN695  SER759  ASP760  ASP761  ALA762  ILE779  LEU786  VAL792 
 PHE793  MET794  SER795  GLU796  ALA797  LYS798  CYS799  TRP800  GLU811  SER814 

> <Gold.Protein.RotatedAtoms>
  151.3938  133.3780  159.2723 H   0  0  0  0  0  0  0  0  0  0  0  0  # atno 6907 bound_to 6896
  150.9485  134.8888  159.7667 H   0  0  0  0  0  0  0  0  0  0  0  0  # atno 6908 bound_to 6896
  152.5102  134.3892  159.9430 H   0  0  0  0  0  0  0  0  0  0  0  0  # atno 6909 bound_to 6896
  144.8547  140.6122  143.5367 H   0  0  0  0  0  0  0  0  0  0  0  0  # atno 7974 bound_to 7965
  156.3002  140.2425  156.3873 H   0  0  0  0  0  0  0  0  0  0  0  0  # atno 8008 bound_to 7997
  154.8646  140.0418  157.1706 H   0  0  0  0  0  0  0  0  0  0  0  0  # atno 8009 bound_to 7997
  154.8860  140.2956  155.5402 H   0  0  0  0  0  0  0  0  0  0  0  0  # atno 8010 bound_to 7997
  140.4313  143.2547  151.8755 H   0  0  0  0  0  0  0  0  0  0  0  0  # atno 10167 bound_to 10162
  156.8413  130.9687  151.3100 H   0  0  0  0  0  0  0  0  0  0  0  0  # atno 10718 bound_to 10713
  154.8507  135.4357  154.1771 H   0  0  0  0  0  0  0  0  0  0  0  0  # atno 10763 bound_to 10752
  153.2871  135.6958  153.7335 H   0  0  0  0  0  0  0  0  0  0  0  0  # atno 10764 bound_to 10752
  153.6517  135.3450  155.3076 H   0  0  0  0  0  0  0  0  0  0  0  0  # atno 10765 bound_to 10752
  140.8691  134.2074  157.4662 H   0  0  0  0  0  0  0  0  0  0  0  0  # atno 11005 bound_to 11000
  145.4430  139.1533  143.3960 LP  0  0  0  0  0  0  0  0  0  0  0  0  # atno 17320 bound_to 7965
  146.2813  140.4553  142.8775 LP  0  0  0  0  0  0  0  0  0  0  0  0  # atno 17321 bound_to 7965
  139.4785  144.5331  151.8638 LP  0  0  0  0  0  0  0  0  0  0  0  0  # atno 17342 bound_to 10162
  140.4423  144.1969  150.5892 LP  0  0  0  0  0  0  0  0  0  0  0  0  # atno 17343 bound_to 10162
  157.6354  130.8762  149.9350 LP  0  0  0  0  0  0  0  0  0  0  0  0  # atno 17370 bound_to 10713
  156.0879  130.3666  150.0451 LP  0  0  0  0  0  0  0  0  0  0  0  0  # atno 17371 bound_to 10713
  139.8711  134.9765  156.4925 LP  0  0  0  0  0  0  0  0  0  0  0  0  # atno 17394 bound_to 11000
  140.8595  133.8071  155.9250 LP  0  0  0  0  0  0  0  0  0  0  0  0  # atno 17395 bound_to 11000

$$$$
