AV-unprocessed.smi:1152|AV-procd|sdf|4898|dock4
  -GOLD-   22720 3473D 1   1.00000     0.00000
 Structure written by MMmdl.
 31 32  0  0  0  0  0  0  0  0  2 V2000
  147.0611  139.0714  152.5694 C   0  0  0  0  0  0  0  0  0  0  0  0
  148.3086  138.7772  153.2595 N   0  0  0  0  0  0  0  0  0  0  0  0
  148.8906  139.5695  154.1698 C   0  0  0  0  0  0  0  0  0  0  0  0
  148.3547  140.6384  154.4695 O   0  0  0  0  0  0  0  0  0  0  0  0
  150.0490  139.0581  154.6602 N   0  5  0  0  0  0  0  0  0  0  0  0
  150.8171  139.6284  155.6159 C   0  0  0  0  0  0  0  0  0  0  0  0
  151.9535  139.1251  156.1322 N   0  0  0  0  0  0  0  0  0  0  0  0
  152.5290  139.9318  157.1008 N   0  0  0  0  0  0  0  0  0  0  0  0
  151.8233  141.0448  157.3129 C   0  0  0  0  0  0  0  0  0  0  0  0
  152.2215  142.0906  158.3070 C   0  0  0  0  0  0  0  0  0  0  0  0
  152.3583  141.5274  159.7350 C   0  0  0  0  0  0  0  0  0  0  0  0
  152.8090  142.6138  160.7253 C   0  0  0  0  0  0  0  0  0  0  0  0
  151.8722  143.8321  160.6838 C   0  0  0  0  0  0  0  0  0  0  0  0
  151.7652  144.4035  159.2607 C   0  0  0  0  0  0  0  0  0  0  0  0
  151.3069  143.3301  158.2597 C   0  0  0  0  0  0  0  0  0  0  0  0
  150.3802  141.1831  156.3240 S   0  0  0  0  0  0  0  0  0  0  0  0
  146.8163  138.2606  151.8836 H   0  0  0  0  0  0  0  0  0  0  0  0
  147.1451  139.9932  151.9925 H   0  0  0  0  0  0  0  0  0  0  0  0
  146.2406  139.1773  153.2801 H   0  0  0  0  0  0  0  0  0  0  0  0
  148.7684  137.9078  153.0322 H   0  0  0  0  0  0  0  0  0  0  0  0
  153.2158  142.4266  158.0089 H   0  0  0  0  0  0  0  0  0  0  0  0
  151.4033  141.1140  160.0621 H   0  0  0  0  0  0  0  0  0  0  0  0
  153.0723  140.7031  159.7450 H   0  0  0  0  0  0  0  0  0  0  0  0
  152.8423  142.2042  161.7351 H   0  0  0  0  0  0  0  0  0  0  0  0
  153.8259  142.9275  160.4857 H   0  0  0  0  0  0  0  0  0  0  0  0
  150.8815  143.5438  161.0375 H   0  0  0  0  0  0  0  0  0  0  0  0
  152.2331  144.6015  161.3668 H   0  0  0  0  0  0  0  0  0  0  0  0
  151.0699  145.2432  159.2480 H   0  0  0  0  0  0  0  0  0  0  0  0
  152.7338  144.8000  158.9531 H   0  0  0  0  0  0  0  0  0  0  0  0
  151.2961  143.7486  157.2526 H   0  0  0  0  0  0  0  0  0  0  0  0
  150.2798  143.0402  158.4857 H   0  0  0  0  0  0  0  0  0  0  0  0
  1  2  1  0  0  0  0
  1 17  1  0  0  0  0
  1 18  1  0  0  0  0
  1 19  1  0  0  0  0
  2  3  1  0  0  0  0
  2 20  1  0  0  0  0
  3  4  2  0  0  0  0
  3  5  1  0  0  0  0
  5  6  1  0  0  0  0
  6 16  1  0  0  0  0
  6  7  2  0  0  0  0
  7  8  1  0  0  0  0
  8  9  2  0  0  0  0
  9 10  1  0  0  0  0
  9 16  1  0  0  0  0
 10 15  1  0  0  0  0
 10 11  1  0  0  0  0
 10 21  1  0  0  0  0
 11 12  1  0  0  0  0
 11 22  1  0  0  0  0
 11 23  1  0  0  0  0
 12 13  1  0  0  0  0
 12 24  1  0  0  0  0
 12 25  1  0  0  0  0
 13 14  1  0  0  0  0
 13 26  1  0  0  0  0
 13 27  1  0  0  0  0
 14 15  1  0  0  0  0
 14 28  1  0  0  0  0
 14 29  1  0  0  0  0
 15 30  1  0  0  0  0
 15 31  1  0  0  0  0
M  CHG  1   5  -1
M  END
> <s_m_source_file>
AV-unprocessed.smi

> <i_m_source_file_index>
1152

> <i_lp_mmshare_version>
43012

> <i_f3d_flags>
0

> <s_epik_input>
W0NIM11bTkhdQyg9TylbTkhdYzFubmMoczEpW0NIXTJbQ0gyXVtDSDJdW0NIMl1bQ0gyXVtDSDJdMg==

> <s_epik_cmdline>
J2VwaWtfcHl0aG9uJywgJy1waCcsICc3LjAnLCAnLXRuJywgJzgnLCAnLW1hJywgJzIwMCcsICctbWV0YWxfYmluZGluZycsICctaW1hZScsICc8aW5maWxlLm1hZT4nLCAnLW9tYWUnLCAnPG91dGZpbGUubWFlPic=

> <r_lp_tautomer_probability>
1

> <r_epik_Ionization_Penalty>
4.62071

> <r_epik_Ionization_Penalty_Charging>
4.36597

> <r_epik_Ionization_Penalty_Neutral>
0.254736

> <r_epik_State_Penalty>
4.3656

> <r_epik_Charging_Adjusted_Penalty>
8.73157

> <i_epik_Tot_Q>
-1

> <i_epik_Tot_abs_Q>
1

> <r_epik_Metal_State_Penalty>
0.756176

> <b_epik_Metal_Only>
1

> <s_lp_Force_Field>
OPLS_2005

> <r_lp_Energy>
5.71757

> <b_lp_Chiralities_Consistent>
1

> <s_lp_Variant>
AV-unprocessed.smi:1152-2

> <Gold.Version>
5.8.1

> <Gold.Id.Protein>
6NUR|6NUR_protein|mol2

> <Gold.PLP.Fitness>
38.5372

> <Gold.PLP.PLP>
-32.5481

> <Gold.PLP.part.hbond>
-3.0000

> <Gold.PLP.part.metal>
0.0000

> <Gold.PLP.part.buried>
-3.5111

> <Gold.PLP.part.nonpolar>
-26.0695

> <Gold.PLP.part.repulsive>
0.3030

> <Gold.PLP.ligand.clash>
0.0000

> <Gold.PLP.ligand.torsion>
0.0363

> <Gold.PLP.Chemscore.Hbond>
2.0000

> <Gold.PLP.Chemscore.CHOScore>
0.0000

> <Gold.PLP.Chemscore.Metal>
0.0000

> <Gold.Chemscore.Hbonds>
donor molecule, donor type, donor heavy atom, donor atom, acceptor molecule, acceptor atom, score
      L1  H     2    20       P1  7948  1.00
      P1  H  7997  8010       L1     8  1.00

> <Gold.PLP.Chemscore.Internal.Correction>
0.0617

> <Gold.Rescore>
     Score         DG    S(hbond)    S(metal)    S(lipo)     H(rot)  DE(clash)    DE(int)     intcor
     17.33     -18.81       1.75        0.00      85.72       1.00       0.06       1.42       ----

> <Gold.Chemscore.Fitness>
17.3343

> <Gold.Chemscore.DG>
-18.8104

> <Gold.Chemscore.ZeroCoef>
-5.4800

> <Gold.Chemscore.Hbond>
1.7550

> <Gold.Chemscore.Metal>
0.0000

> <Gold.Chemscore.Lipo>
85.7157

> <Gold.Chemscore.Internal_Hbond>
0.0000

> <Gold.Chemscore.DEClash>
0.0557

> <Gold.Chemscore.DEInternal>
1.4204

> <Gold.Chemscore.Rot>
1.0000

> <Gold.Chemscore.Internal.Correction>
   9.000000E+99

> <Gold.Chemscore.Hbonds>
donor molecule, donor type, donor heavy atom, donor atom, acceptor molecule, acceptor atom, score
      L1  H     2    20       P1  7948  0.89
      P1  H  7997  8010       L1     8  0.53

> <Gold.Chemscore.Hbond.Weighted>
-5.8617

> <Gold.Chemscore.Metal.Weighted>
-0.0000

> <Gold.Chemscore.Lipo.Weighted>
-10.0287

> <Gold.Chemscore.Internal_Hbond.Weighted>
0.0000

> <Gold.Chemscore.DEClash.Weighted>
0.0557

> <Gold.Chemscore.DEInternal.Weighted>
1.4204

> <Gold.Chemscore.Rot.Weighted>
2.5600

> <Gold.Chemscore.Internal.Correction.Weighted>
   9.000000E+99

> <Gold.Protein.RotatedTorsions>
[ 6907 6896 6895 6894 ] final   26.28 input  -60.11 | X-H torsion
[ 7974 7965 7964 7962 ] final -153.36 input  175.53 | X-H torsion
[ 8008 7997 7996 7995 ] final   61.07 input   59.86 | X-H torsion
[ 10167 10162 10161 10158 ] final -176.01 input  -65.29 | X-H torsion
[ 10718 10713 10712 10709 ] final   32.27 input   66.30 | X-H torsion
[ 10763 10752 10751 10750 ] final   68.08 input  -60.55 | X-H torsion
[ 11005 11000 10999 10996 ] final  -94.13 input  -57.11 | X-H torsion

> <Gold.Protein.ActiveResidues>
 VAL166  LYS551  ARG553  GLY616  TRP617  ASP618  TYR619  PRO620  LYS621  CYS622 
 ASP623  PHE694  ASN695  SER759  ASP760  ASP761  ALA762  ILE779  LEU786  VAL792 
 PHE793  MET794  SER795  GLU796  ALA797  LYS798  CYS799  TRP800  GLU811  SER814 

> <Gold.Protein.RotatedAtoms>
  151.9851  135.0008  160.0558 H   0  0  0  0  0  0  0  0  0  0  0  0  # atno 6907 bound_to 6896
  152.1660  133.4608  159.4893 H   0  0  0  0  0  0  0  0  0  0  0  0  # atno 6908 bound_to 6896
  150.6894  134.1930  159.4335 H   0  0  0  0  0  0  0  0  0  0  0  0  # atno 6909 bound_to 6896
  144.7745  140.4536  143.5883 H   0  0  0  0  0  0  0  0  0  0  0  0  # atno 7974 bound_to 7965
  155.5925  140.3493  155.4570 H   0  0  0  0  0  0  0  0  0  0  0  0  # atno 8008 bound_to 7997
  156.0290  140.1270  157.0302 H   0  0  0  0  0  0  0  0  0  0  0  0  # atno 8009 bound_to 7997
  154.4345  140.1047  156.6058 H   0  0  0  0  0  0  0  0  0  0  0  0  # atno 8010 bound_to 7997
  139.5551  144.2009  152.1145 H   0  0  0  0  0  0  0  0  0  0  0  0  # atno 10167 bound_to 10162
  157.2831  130.7265  149.6568 H   0  0  0  0  0  0  0  0  0  0  0  0  # atno 10718 bound_to 10713
  153.0217  135.5260  154.7079 H   0  0  0  0  0  0  0  0  0  0  0  0  # atno 10763 bound_to 10752
  154.6170  135.2884  155.0371 H   0  0  0  0  0  0  0  0  0  0  0  0  # atno 10764 bound_to 10752
  154.1372  135.6584  153.4987 H   0  0  0  0  0  0  0  0  0  0  0  0  # atno 10765 bound_to 10752
  141.1479  133.7935  157.0255 H   0  0  0  0  0  0  0  0  0  0  0  0  # atno 11005 bound_to 11000
  145.6227  139.1526  143.3013 LP  0  0  0  0  0  0  0  0  0  0  0  0  # atno 17320 bound_to 7965
  146.1915  140.6336  142.9143 LP  0  0  0  0  0  0  0  0  0  0  0  0  # atno 17321 bound_to 7965
  140.1512  144.5113  150.6686 LP  0  0  0  0  0  0  0  0  0  0  0  0  # atno 17342 bound_to 10162
  140.6822  143.2332  151.5354 LP  0  0  0  0  0  0  0  0  0  0  0  0  # atno 17343 bound_to 10162
  155.9665  130.4332  150.4995 LP  0  0  0  0  0  0  0  0  0  0  0  0  # atno 17370 bound_to 10713
  157.2943  131.0632  151.2112 LP  0  0  0  0  0  0  0  0  0  0  0  0  # atno 17371 bound_to 10713
  140.0788  134.9660  157.1589 LP  0  0  0  0  0  0  0  0  0  0  0  0  # atno 17394 bound_to 11000
  140.3606  134.2498  155.7187 LP  0  0  0  0  0  0  0  0  0  0  0  0  # atno 17395 bound_to 11000

$$$$
