AV-unprocessed.smi:2022|AV-procd|sdf|8188|dock4
  -GOLD-   2272010443D 1   1.00000     0.00000
 Structure written by MMmdl.
 34 35  0  0  0  0  0  0  0  0  1 V2000
  150.8829  131.1944  156.2013 C   0  0  0  0  0  0  0  0  0  0  0  0
  150.4915  132.6269  156.0768 C   0  0  0  0  0  0  0  0  0  0  0  0
  150.1429  133.4064  155.0100 C   0  0  0  0  0  0  0  0  0  0  0  0
  149.8874  134.6697  155.6067 C   0  0  0  0  0  0  0  0  0  0  0  0
  149.4860  135.7784  154.8190 N   0  0  0  0  0  0  0  0  0  0  0  0
  149.0011  136.9556  155.2493 C   0  0  0  0  0  0  0  0  0  0  0  0
  148.8280  137.2636  156.4290 O   0  0  0  0  0  0  0  0  0  0  0  0
  148.7220  137.7711  154.2219 N   0  0  0  0  0  0  0  0  0  0  0  0
  148.1461  139.1129  154.3276 C   0  0  1  0  0  0  0  0  0  0  0  0
  149.2303  140.1818  154.0624 C   0  0  0  0  0  0  0  0  0  0  0  0
  148.9079  141.5612  154.6600 C   0  0  0  0  0  0  0  0  0  0  0  0
  147.6495  142.2354  154.0929 C   0  0  0  0  0  0  0  0  0  0  0  0
  146.3468  141.4831  154.4143 C   0  0  0  0  0  0  0  0  0  0  0  0
  146.1318  140.3386  153.5376 N   0  0  0  0  0  0  0  0  0  0  0  0
  146.8988  139.2428  153.4332 C   0  0  0  0  0  0  0  0  0  0  0  0
  146.6148  138.3566  152.6276 O   0  0  0  0  0  0  0  0  0  0  0  0
  150.0674  134.6629  156.9189 N   0  0  0  0  0  0  0  0  0  0  0  0
  150.4547  133.3533  157.2268 O   0  0  0  0  0  0  0  0  0  0  0  0
  151.0178  130.7407  155.2192 H   0  0  0  0  0  0  0  0  0  0  0  0
  150.1155  130.6303  156.7315 H   0  0  0  0  0  0  0  0  0  0  0  0
  151.8190  131.0947  156.7510 H   0  0  0  0  0  0  0  0  0  0  0  0
  150.0794  133.1162  153.9718 H   0  0  0  0  0  0  0  0  0  0  0  0
  149.5720  135.6604  153.8205 H   0  0  0  0  0  0  0  0  0  0  0  0
  148.8915  137.4315  153.2863 H   0  0  0  0  0  0  0  0  0  0  0  0
  147.7958  139.2248  155.3555 H   0  0  0  0  0  0  0  0  0  0  0  0
  150.1767  139.8568  154.4963 H   0  0  0  0  0  0  0  0  0  0  0  0
  149.4145  140.2710  152.9908 H   0  0  0  0  0  0  0  0  0  0  0  0
  148.8169  141.4746  155.7434 H   0  0  0  0  0  0  0  0  0  0  0  0
  149.7600  142.2189  154.4865 H   0  0  0  0  0  0  0  0  0  0  0  0
  147.5818  143.2350  154.5237 H   0  0  0  0  0  0  0  0  0  0  0  0
  147.7481  142.3815  153.0164 H   0  0  0  0  0  0  0  0  0  0  0  0
  146.3162  141.1742  155.4602 H   0  0  0  0  0  0  0  0  0  0  0  0
  145.5016  142.1565  154.2701 H   0  0  0  0  0  0  0  0  0  0  0  0
  145.3229  140.3878  152.9352 H   0  0  0  0  0  0  0  0  0  0  0  0
  1  2  1  0  0  0  0
  1 19  1  0  0  0  0
  1 20  1  0  0  0  0
  1 21  1  0  0  0  0
  2 18  1  0  0  0  0
  2  3  2  0  0  0  0
  3  4  1  0  0  0  0
  3 22  1  0  0  0  0
  4  5  1  0  0  0  0
  4 17  2  0  0  0  0
  5  6  1  0  0  0  0
  5 23  1  0  0  0  0
  6  7  2  0  0  0  0
  6  8  1  0  0  0  0
  8  9  1  0  0  0  0
  8 24  1  0  0  0  0
  9 15  1  0  0  0  0
  9 10  1  0  0  0  0
  9 25  1  0  0  0  0
 10 11  1  0  0  0  0
 10 26  1  0  0  0  0
 10 27  1  0  0  0  0
 11 12  1  0  0  0  0
 11 28  1  0  0  0  0
 11 29  1  0  0  0  0
 12 13  1  0  0  0  0
 12 30  1  0  0  0  0
 12 31  1  0  0  0  0
 13 14  1  0  0  0  0
 13 32  1  0  0  0  0
 13 33  1  0  0  0  0
 14 15  1  0  0  0  0
 14 34  1  0  0  0  0
 15 16  2  0  0  0  0
 17 18  1  0  0  0  0
M  END
> <s_m_source_file>
AV-unprocessed.smi

> <i_m_source_file_index>
2022

> <i_lp_mmshare_version>
43012

> <i_f3d_flags>
0

> <s_epik_input>
W0NIM11jMVtjSF1jKG5vMSlbTkhdQyg9TylbTkhdW0NAQEhdMltDSDJdW0NIMl1bQ0gyXVtDSDJdW05IXUMyPU8=

> <s_epik_cmdline>
J2VwaWtfcHl0aG9uJywgJy1waCcsICc3LjAnLCAnLXRuJywgJzgnLCAnLW1hJywgJzIwMCcsICctbWV0YWxfYmluZGluZycsICctaW1hZScsICc8aW5maWxlLm1hZT4nLCAnLW9tYWUnLCAnPG91dGZpbGUubWFlPic=

> <r_lp_tautomer_probability>
1

> <r_epik_Ionization_Penalty>
2.27343e-05

> <r_epik_Ionization_Penalty_Charging>
0

> <r_epik_Ionization_Penalty_Neutral>
2.27343e-05

> <r_epik_State_Penalty>
-0

> <r_epik_Charging_Adjusted_Penalty>
0

> <i_epik_Tot_Q>
0

> <i_epik_Tot_abs_Q>
0

> <r_epik_Metal_State_Penalty>
-0

> <b_epik_Metal_Only>
0

> <s_lp_Force_Field>
OPLS_2005

> <r_lp_Energy>
7.86792

> <b_lp_Chiralities_Consistent>
1

> <s_lp_Variant>
AV-unprocessed.smi:2022-2

> <Gold.Version>
5.8.1

> <Gold.Id.Protein>
6NUR|6NUR_protein|mol2

> <Gold.PLP.Fitness>
35.4664

> <Gold.PLP.PLP>
-24.4783

> <Gold.PLP.part.hbond>
-4.0000

> <Gold.PLP.part.metal>
0.0000

> <Gold.PLP.part.buried>
-1.6285

> <Gold.PLP.part.nonpolar>
-19.7256

> <Gold.PLP.part.repulsive>
0.3345

> <Gold.PLP.ligand.clash>
0.0000

> <Gold.PLP.ligand.torsion>
0.1448

> <Gold.PLP.Chemscore.Hbond>
3.7501

> <Gold.PLP.Chemscore.CHOScore>
0.0000

> <Gold.PLP.Chemscore.Metal>
0.0000

> <Gold.Chemscore.Hbonds>
donor molecule, donor type, donor heavy atom, donor atom, acceptor molecule, acceptor atom, score
      L1  H     5    23       P1  7948  0.84
      L1  H     8    24       P1  7948  1.00
      L1  H    14    34       P1 10175  1.00
      P1  H  6896  6908       L1    18  0.87

> <Gold.PLP.Chemscore.Internal.Correction>
0.0275

> <Gold.Rescore>
     Score         DG    S(hbond)    S(metal)    S(lipo)     H(rot)  DE(clash)    DE(int)     intcor
     15.87     -18.38       2.96        0.00      47.77       1.00       1.18       1.34       ----

> <Gold.Chemscore.Fitness>
15.8662

> <Gold.Chemscore.DG>
-18.3795

> <Gold.Chemscore.ZeroCoef>
-5.4800

> <Gold.Chemscore.Hbond>
2.9553

> <Gold.Chemscore.Metal>
0.0000

> <Gold.Chemscore.Lipo>
47.7679

> <Gold.Chemscore.Internal_Hbond>
0.0000

> <Gold.Chemscore.DEClash>
1.1774

> <Gold.Chemscore.DEInternal>
1.3359

> <Gold.Chemscore.Rot>
1.0000

> <Gold.Chemscore.Internal.Correction>
   9.000000E+99

> <Gold.Chemscore.Hbonds>
donor molecule, donor type, donor heavy atom, donor atom, acceptor molecule, acceptor atom, score
      L1  H     5    23       P1  7948  0.23
      L1  H     8    24       P1  7948  1.00
      L1  H    14    34       P1 10175  0.92
      P1  H  6896  6908       L1    18  0.24

> <Gold.Chemscore.Hbond.Weighted>
-9.8707

> <Gold.Chemscore.Metal.Weighted>
-0.0000

> <Gold.Chemscore.Lipo.Weighted>
-5.5888

> <Gold.Chemscore.Internal_Hbond.Weighted>
0.0000

> <Gold.Chemscore.DEClash.Weighted>
1.1774

> <Gold.Chemscore.DEInternal.Weighted>
1.3359

> <Gold.Chemscore.Rot.Weighted>
2.5600

> <Gold.Chemscore.Internal.Correction.Weighted>
   9.000000E+99

> <Gold.Protein.RotatedTorsions>
[ 6907 6896 6895 6894 ] final   99.68 input  -60.11 | X-H torsion
[ 7974 7965 7964 7962 ] final  -76.29 input  175.53 | X-H torsion
[ 8008 7997 7996 7995 ] final   11.86 input   59.86 | X-H torsion
[ 10167 10162 10161 10158 ] final   38.70 input  -65.29 | X-H torsion
[ 10718 10713 10712 10709 ] final  -43.61 input   66.30 | X-H torsion
[ 10763 10752 10751 10750 ] final   77.08 input  -60.55 | X-H torsion
[ 11005 11000 10999 10996 ] final  102.33 input  -57.11 | X-H torsion

> <Gold.Protein.ActiveResidues>
 VAL166  LYS551  ARG553  GLY616  TRP617  ASP618  TYR619  PRO620  LYS621  CYS622 
 ASP623  PHE694  ASN695  SER759  ASP760  ASP761  ALA762  ILE779  LEU786  VAL792 
 PHE793  MET794  SER795  GLU796  ALA797  LYS798  CYS799  TRP800  GLU811  SER814 

> <Gold.Protein.RotatedAtoms>
  152.5387  134.0392  159.8059 H   0  0  0  0  0  0  0  0  0  0  0  0  # atno 6907 bound_to 6896
  151.0551  133.5584  159.2646 H   0  0  0  0  0  0  0  0  0  0  0  0  # atno 6908 bound_to 6896
  151.2504  135.0628  159.9113 H   0  0  0  0  0  0  0  0  0  0  0  0  # atno 6909 bound_to 6896
  145.6148  140.9378  143.1170 H   0  0  0  0  0  0  0  0  0  0  0  0  # atno 7974 bound_to 7965
  154.8127  140.2871  155.5842 H   0  0  0  0  0  0  0  0  0  0  0  0  # atno 8008 bound_to 7997
  156.2990  140.2565  156.2948 H   0  0  0  0  0  0  0  0  0  0  0  0  # atno 8009 bound_to 7997
  154.9429  140.0381  157.2095 H   0  0  0  0  0  0  0  0  0  0  0  0  # atno 8010 bound_to 7997
  140.3911  144.1851  150.6131 H   0  0  0  0  0  0  0  0  0  0  0  0  # atno 10167 bound_to 10162
  156.2472  130.4185  149.8692 H   0  0  0  0  0  0  0  0  0  0  0  0  # atno 10718 bound_to 10713
  153.0772  135.4927  154.8429 H   0  0  0  0  0  0  0  0  0  0  0  0  # atno 10763 bound_to 10752
  154.7103  135.3018  154.9209 H   0  0  0  0  0  0  0  0  0  0  0  0  # atno 10764 bound_to 10752
  153.9905  135.6778  153.4807 H   0  0  0  0  0  0  0  0  0  0  0  0  # atno 10765 bound_to 10752
  139.8777  134.9220  156.5042 H   0  0  0  0  0  0  0  0  0  0  0  0  # atno 11005 bound_to 11000
  144.7255  139.7890  143.7366 LP  0  0  0  0  0  0  0  0  0  0  0  0  # atno 17320 bound_to 7965
  146.1476  139.4550  143.0069 LP  0  0  0  0  0  0  0  0  0  0  0  0  # atno 17321 bound_to 7965
  140.4838  143.2370  151.8916 LP  0  0  0  0  0  0  0  0  0  0  0  0  # atno 17342 bound_to 10162
  139.4789  144.5240  151.8761 LP  0  0  0  0  0  0  0  0  0  0  0  0  # atno 17343 bound_to 10162
  156.6253  130.8643  151.3484 LP  0  0  0  0  0  0  0  0  0  0  0  0  # atno 17370 bound_to 10713
  157.7199  130.9545  150.1400 LP  0  0  0  0  0  0  0  0  0  0  0  0  # atno 17371 bound_to 10713
  140.8567  133.8091  155.9223 LP  0  0  0  0  0  0  0  0  0  0  0  0  # atno 17394 bound_to 11000
  140.9090  134.2284  157.4997 LP  0  0  0  0  0  0  0  0  0  0  0  0  # atno 17395 bound_to 11000

$$$$
