#       Name:                AV-unprocessed.smi:2881
#       Creating user name   scv26
#       Creation time:       Fri Mar 27 15:52:47 2020


#       File generated by GOLD software.
#

@<TRIPOS>MOLECULE
AV-unprocessed.smi:2881
    45    47     1
SMALL
NO_CHARGES


@<TRIPOS>ATOM
      1 ****        -3.1552   4.2131  -2.4712 C.3            1 S1                 0.0000
      2 ****        -2.9796   2.8277  -1.9493 C.2            1 S1                 0.0000
      3 ****        -2.4937   1.6950  -2.5383 C.2            1 S1                 0.0000
      4 ****        -2.5801   0.7011  -1.5189 C.2            1 S1                 0.0000
      5 ****        -2.1752  -0.7465  -1.6007 C.3            1 S1                 0.0000
      6 ****        -0.6584  -0.8781  -1.4583 C.2            1 S1                 0.0000
      7 ****         0.0342  -1.1379  -2.4422 O.2            1 S1                 0.0000
      8 ****        -0.1567  -0.6978  -0.2273 N.am           1 S1                 0.0000
      9 ****         1.2622  -0.7424   0.1152 C.3            1 S1                 0.0000
     10 ****         1.8554  -2.1742   0.1356 C.3            1 S1                 0.0000
     11 ****         1.0057  -3.1267   1.0040 C.3            1 S1                 0.0000
     12 ****         1.2736  -2.6106   2.4299 C.3            1 S1                 0.0000
     13 ****         2.2597  -1.4498   2.1933 C.3            1 S1                 0.0000
     14 ****         3.0787  -1.9828   1.0230 C.3            1 S1                 0.0000
     15 ****         1.5055  -0.2533   1.5675 C.3            1 S1                 0.0000
     16 ****         2.3007   1.0642   1.6444 C.3            1 S1                 0.0000
     17 ****         1.5169   2.1341   1.1591 O.3            1 S1                 0.0000
     18 ****        -3.0874   1.1790  -0.3905 N.2            1 S1                 0.0000
     19 ****        -3.3249   2.4751  -0.6651 N.pl3          1 S1                 0.0000
     20 ****        -3.7178   3.0996   0.0248 H              1 S1                 0.0000
     21 ****        -2.6452   4.3368  -3.4268 H              1 S1                 0.0000
     22 ****        -2.7466   4.9456  -1.7749 H              1 S1                 0.0000
     23 ****        -4.2111   4.4387  -2.6211 H              1 S1                 0.0000
     24 ****        -2.1246   1.5897  -3.5479 H              1 S1                 0.0000
     25 ****        -2.6637  -1.3370  -0.8240 H              1 S1                 0.0000
     26 ****        -2.4875  -1.1718  -2.5553 H              1 S1                 0.0000
     27 ****        -0.8005  -0.4824   0.5204 H              1 S1                 0.0000
     28 ****         1.8229  -0.1263  -0.5907 H              1 S1                 0.0000
     29 ****         2.0720  -2.5695  -0.8574 H              1 S1                 0.0000
     30 ****        -0.0535  -3.1227   0.7469 H              1 S1                 0.0000
     31 ****         1.3599  -4.1531   0.9009 H              1 S1                 0.0000
     32 ****         0.3624  -2.2875   2.9344 H              1 S1                 0.0000
     33 ****         1.7313  -3.3917   3.0384 H              1 S1                 0.0000
     34 ****         2.8388  -1.1918   3.0806 H              1 S1                 0.0000
     35 ****         3.6012  -2.9142   1.2485 H              1 S1                 0.0000
     36 ****         3.7948  -1.2631   0.6240 H              1 S1                 0.0000
     37 ****         0.5642  -0.1094   2.1018 H              1 S1                 0.0000
     38 ****         2.5738   1.2817   2.6774 H              1 S1                 0.0000
     39 ****         3.2264   1.0076   1.0716 H              1 S1                 0.0000
     40 ****         2.0231   2.9299   1.2193 H              1 S1                 0.0000
     41 ****        -0.3950  -1.2633  -3.3367 LP             1 S1                 0.0000
     42 ****         1.0259  -1.2235  -2.3470 LP             1 S1                 0.0000
     43 ****         0.6866   2.2204   1.7097 LP             1 S1                 0.0000
     44 ****         1.2682   1.9643   0.2055 LP             1 S1                 0.0000
     45 ****        -3.2547   0.6900   0.4655 LP             1 S1                 0.0000
@<TRIPOS>BOND
    1    1    2 1     
    2    1   21 1     
    3    1   22 1     
    4    1   23 1     
    5    2   19 1     
    6    2    3 2     
    7    3    4 1     
    8    3   24 1     
    9    4    5 1     
   10    4   18 2     
   11    5    6 1     
   12    5   25 1     
   13    5   26 1     
   14    6    7 2     
   15    6    8 am    
   16    8    9 1     
   17    8   27 1     
   18    9   15 1     
   19    9   10 1     
   20    9   28 1     
   21   10   14 1     
   22   10   11 1     
   23   10   29 1     
   24   11   12 1     
   25   11   30 1     
   26   11   31 1     
   27   12   13 1     
   28   12   32 1     
   29   12   33 1     
   30   13   14 1     
   31   13   15 1     
   32   13   34 1     
   33   14   35 1     
   34   14   36 1     
   35   15   16 1     
   36   15   37 1     
   37   16   17 1     
   38   16   38 1     
   39   16   39 1     
   40   17   40 1     
   41   18   19 1     
   42   19   20 1     
   43    7   41 1     
   44    7   42 1     
   45   17   43 1     
   46   17   44 1     
   47   18   45 1     
@<TRIPOS>SUBSTRUCTURE
      1 S1             1
@<TRIPOS>SET
LONE_PAIRS      STATIC     ATOMS    <user>   **** ""
5 41 42 43 44 45
DONOR_HYDROGENS      STATIC     ATOMS    <user>   **** ""
3 27 40 20
ATOM$BLUE        STATIC     ATOMS    COLORGROUP SYSTEM
5 41 42 43 44 45
ATOM$RED        STATIC     ATOMS    COLORGROUP SYSTEM
3 27 40 20
