AV-unprocessed.smi:1166|AV-procd|sdf|4937|dock6
  -GOLD-   22720 3523D 1   1.00000     0.00000
 Structure written by MMmdl.
 46 47  0  0  0  0  0  0  0  0  1 V2000
  151.8382  145.8174  160.2600 C   0  0  0  0  0  0  0  0  0  0  0  0
  151.9608  144.6508  159.3917 N   0  0  0  0  0  0  0  0  0  0  0  0
  151.4358  144.6987  158.0327 C   0  0  0  0  0  0  0  0  0  0  0  0
  152.5354  143.4593  159.8909 C   0  0  0  0  0  0  0  0  0  0  0  0
  152.7517  143.2666  161.2781 C   0  0  0  0  0  0  0  0  0  0  0  0
  153.3283  142.0631  161.7276 C   0  0  0  0  0  0  0  0  0  0  0  0
  153.6717  141.0707  160.7811 C   0  0  0  0  0  0  0  0  0  0  0  0
  154.2770  139.8253  161.1016 N   0  0  0  0  0  0  0  0  0  0  0  0
  154.8397  138.9256  160.2766 C   0  0  0  0  0  0  0  0  0  0  0  0
  154.9628  139.0521  159.0585 O   0  0  0  0  0  0  0  0  0  0  0  0
  155.2788  137.8568  160.9564 N   0  0  0  0  0  0  0  0  0  0  0  0
  155.9400  136.6963  160.3678 C   0  0  1  0  0  0  0  0  0  0  0  0
  157.3419  136.5030  160.9694 C   0  0  0  0  0  0  0  0  0  0  0  0
  157.9911  135.2477  160.3764 C   0  0  0  0  0  0  0  0  0  0  0  0
  157.1060  134.0069  160.5875 C   0  0  0  0  0  0  0  0  0  0  0  0
  155.7341  134.2228  160.0843 N   0  0  0  0  0  0  0  0  0  0  0  0
  155.2530  133.5492  158.5536 S   0  0  0  0  0  0  0  0  0  0  0  0
  156.5584  132.3092  158.1759 C   0  0  0  0  0  0  0  0  0  0  0  0
  153.9850  132.8320  158.7578 O   0  0  0  0  0  0  0  0  0  0  0  0
  155.3311  134.6187  157.5467 O   0  0  0  0  0  0  0  0  0  0  0  0
  155.0743  135.4414  160.5944 C   0  0  0  0  0  0  0  0  0  0  0  0
  153.4294  141.3561  159.4233 C   0  0  0  0  0  0  0  0  0  0  0  0
  152.8764  142.5071  158.9885 N   0  0  0  0  0  0  0  0  0  0  0  0
  152.8191  146.1372  160.6129 H   0  0  0  0  0  0  0  0  0  0  0  0
  151.2161  145.5865  161.1253 H   0  0  0  0  0  0  0  0  0  0  0  0
  151.3833  146.6582  159.7363 H   0  0  0  0  0  0  0  0  0  0  0  0
  150.6505  143.9543  157.8985 H   0  0  0  0  0  0  0  0  0  0  0  0
  152.2282  144.5066  157.3089 H   0  0  0  0  0  0  0  0  0  0  0  0
  151.0087  145.6758  157.8057 H   0  0  0  0  0  0  0  0  0  0  0  0
  152.4913  144.0185  162.0072 H   0  0  0  0  0  0  0  0  0  0  0  0
  153.5057  141.9370  162.7838 H   0  0  0  0  0  0  0  0  0  0  0  0
  154.3229  139.6112  162.0871 H   0  0  0  0  0  0  0  0  0  0  0  0
  155.1407  137.8412  161.9563 H   0  0  0  0  0  0  0  0  0  0  0  0
  156.0384  136.8606  159.2946 H   0  0  0  0  0  0  0  0  0  0  0  0
  157.9687  137.3726  160.7681 H   0  0  0  0  0  0  0  0  0  0  0  0
  157.2761  136.4072  162.0542 H   0  0  0  0  0  0  0  0  0  0  0  0
  158.1770  135.4001  159.3141 H   0  0  0  0  0  0  0  0  0  0  0  0
  158.9669  135.0851  160.8347 H   0  0  0  0  0  0  0  0  0  0  0  0
  157.5539  133.1359  160.1098 H   0  0  0  0  0  0  0  0  0  0  0  0
  157.0490  133.7771  161.6521 H   0  0  0  0  0  0  0  0  0  0  0  0
  156.3223  131.8220  157.2302 H   0  0  0  0  0  0  0  0  0  0  0  0
  156.5943  131.5563  158.9612 H   0  0  0  0  0  0  0  0  0  0  0  0
  157.5249  132.8017  158.0855 H   0  0  0  0  0  0  0  0  0  0  0  0
  154.8894  135.3068  161.6608 H   0  0  0  0  0  0  0  0  0  0  0  0
  154.0969  135.5630  160.1275 H   0  0  0  0  0  0  0  0  0  0  0  0
  153.6840  140.6373  158.6581 H   0  0  0  0  0  0  0  0  0  0  0  0
  1  2  1  0  0  0  0
  1 24  1  0  0  0  0
  1 25  1  0  0  0  0
  1 26  1  0  0  0  0
  2  3  1  0  0  0  0
  2  4  1  0  0  0  0
  3 27  1  0  0  0  0
  3 28  1  0  0  0  0
  3 29  1  0  0  0  0
  4 23  1  0  0  0  0
  4  5  2  0  0  0  0
  5  6  1  0  0  0  0
  5 30  1  0  0  0  0
  6  7  2  0  0  0  0
  6 31  1  0  0  0  0
  7  8  1  0  0  0  0
  7 22  1  0  0  0  0
  8  9  1  0  0  0  0
  8 32  1  0  0  0  0
  9 10  2  0  0  0  0
  9 11  1  0  0  0  0
 11 12  1  0  0  0  0
 11 33  1  0  0  0  0
 12 21  1  0  0  0  0
 12 13  1  0  0  0  0
 12 34  1  0  0  0  0
 13 14  1  0  0  0  0
 13 35  1  0  0  0  0
 13 36  1  0  0  0  0
 14 15  1  0  0  0  0
 14 37  1  0  0  0  0
 14 38  1  0  0  0  0
 15 16  1  0  0  0  0
 15 39  1  0  0  0  0
 15 40  1  0  0  0  0
 16 17  1  0  0  0  0
 16 21  1  0  0  0  0
 17 18  1  0  0  0  0
 17 19  2  0  0  0  0
 17 20  2  0  0  0  0
 18 41  1  0  0  0  0
 18 42  1  0  0  0  0
 18 43  1  0  0  0  0
 21 44  1  0  0  0  0
 21 45  1  0  0  0  0
 22 23  2  0  0  0  0
 22 46  1  0  0  0  0
M  END
> <s_m_source_file>
AV-unprocessed.smi

> <i_m_source_file_index>
1166

> <i_lp_mmshare_version>
43012

> <i_f3d_flags>
0

> <s_epik_input>
W0NIM11OKFtDSDNdKWMxW2NIXVtjSF1jKFtjSF1uMSlbTkhdQyg9TylbTkhdW0NAQEhdMltDSDJdW0NIMl1bQ0gyXU4oW0NIMl0yKVMoPU8pKD1PKVtDSDNd

> <s_epik_cmdline>
J2VwaWtfcHl0aG9uJywgJy1waCcsICc3LjAnLCAnLXRuJywgJzgnLCAnLW1hJywgJzIwMCcsICctbWV0YWxfYmluZGluZycsICctaW1hZScsICc8aW5maWxlLm1hZT4nLCAnLW9tYWUnLCAnPG91dGZpbGUubWFlPic=

> <r_lp_tautomer_probability>
1

> <r_epik_Ionization_Penalty>
0.585334

> <r_epik_Ionization_Penalty_Charging>
0

> <r_epik_Ionization_Penalty_Neutral>
0.585334

> <r_epik_State_Penalty>
0.597345

> <r_epik_Charging_Adjusted_Penalty>
0.597345

> <i_epik_Tot_Q>
0

> <i_epik_Tot_abs_Q>
0

> <r_epik_Metal_State_Penalty>
0.29678

> <b_epik_Metal_Only>
0

> <s_lp_Force_Field>
OPLS_2005

> <r_lp_Energy>
2.0747

> <b_lp_Chiralities_Consistent>
1

> <s_lp_Variant>
AV-unprocessed.smi:1166-4

> <Gold.Version>
5.8.1

> <Gold.Id.Protein>
6NUR|6NUR_protein|mol2

> <Gold.PLP.Fitness>
45.9427

> <Gold.PLP.PLP>
-37.5896

> <Gold.PLP.part.hbond>
-3.0000

> <Gold.PLP.part.metal>
0.0000

> <Gold.PLP.part.buried>
-5.3621

> <Gold.PLP.part.nonpolar>
-28.9285

> <Gold.PLP.part.repulsive>
0.0227

> <Gold.PLP.ligand.clash>
0.0000

> <Gold.PLP.ligand.torsion>
1.3545

> <Gold.PLP.Chemscore.Hbond>
3.0000

> <Gold.PLP.Chemscore.CHOScore>
0.0000

> <Gold.PLP.Chemscore.Metal>
0.0000

> <Gold.Chemscore.Hbonds>
donor molecule, donor type, donor heavy atom, donor atom, acceptor molecule, acceptor atom, score
      P1  H  6896  6908       L1    19  1.00
      P1  H  7997  8008       L1    10  1.00

> <Gold.PLP.Chemscore.Internal.Correction>
2.0621

> <Gold.Rescore>
     Score         DG    S(hbond)    S(metal)    S(lipo)     H(rot)  DE(clash)    DE(int)     intcor
     19.00     -21.74       2.97        0.00      75.98       1.00       0.05       2.70       ----

> <Gold.Chemscore.Fitness>
19.0006

> <Gold.Chemscore.DG>
-21.7445

> <Gold.Chemscore.ZeroCoef>
-5.4800

> <Gold.Chemscore.Hbond>
2.9744

> <Gold.Chemscore.Metal>
0.0000

> <Gold.Chemscore.Lipo>
75.9829

> <Gold.Chemscore.Internal_Hbond>
0.0000

> <Gold.Chemscore.DEClash>
0.0482

> <Gold.Chemscore.DEInternal>
2.6958

> <Gold.Chemscore.Rot>
1.0000

> <Gold.Chemscore.Internal.Correction>
   9.000000E+99

> <Gold.Chemscore.Hbonds>
donor molecule, donor type, donor heavy atom, donor atom, acceptor molecule, acceptor atom, score
      P1  H  6896  6908       L1    19  0.98
      P1  H  7997  8008       L1    10  0.97

> <Gold.Chemscore.Hbond.Weighted>
-9.9345

> <Gold.Chemscore.Metal.Weighted>
-0.0000

> <Gold.Chemscore.Lipo.Weighted>
-8.8900

> <Gold.Chemscore.Internal_Hbond.Weighted>
0.0000

> <Gold.Chemscore.DEClash.Weighted>
0.0482

> <Gold.Chemscore.DEInternal.Weighted>
2.6958

> <Gold.Chemscore.Rot.Weighted>
2.5600

> <Gold.Chemscore.Internal.Correction.Weighted>
   9.000000E+99

> <Gold.Protein.RotatedTorsions>
[ 6907 6896 6895 6894 ] final    2.05 input  -60.11 | X-H torsion
[ 7974 7965 7964 7962 ] final  -35.54 input  175.53 | X-H torsion
[ 8008 7997 7996 7995 ] final -114.35 input   59.86 | X-H torsion
[ 10167 10162 10161 10158 ] final   94.69 input  -65.29 | X-H torsion
[ 10718 10713 10712 10709 ] final -112.93 input   66.30 | X-H torsion
[ 10763 10752 10751 10750 ] final  -86.29 input  -60.55 | X-H torsion
[ 11005 11000 10999 10996 ] final  126.10 input  -57.11 | X-H torsion

> <Gold.Protein.ActiveResidues>
 VAL166  LYS551  ARG553  GLY616  TRP617  ASP618  TYR619  PRO620  LYS621  CYS622 
 ASP623  PHE694  ASN695  SER759  ASP760  ASP761  ALA762  ILE779  LEU786  VAL792 
 PHE793  MET794  SER795  GLU796  ALA797  LYS798  CYS799  TRP800  GLU811  SER814 

> <Gold.Protein.RotatedAtoms>
  151.6026  135.1046  160.0063 H   0  0  0  0  0  0  0  0  0  0  0  0  # atno 6907 bound_to 6896
  152.4250  133.7175  159.6525 H   0  0  0  0  0  0  0  0  0  0  0  0  # atno 6908 bound_to 6896
  150.8139  133.8301  159.3192 H   0  0  0  0  0  0  0  0  0  0  0  0  # atno 6909 bound_to 6896
  146.0738  140.6171  142.8940 H   0  0  0  0  0  0  0  0  0  0  0  0  # atno 7974 bound_to 7965
  155.0350  140.0392  157.2488 H   0  0  0  0  0  0  0  0  0  0  0  0  # atno 8008 bound_to 7997
  154.7264  140.2722  155.6471 H   0  0  0  0  0  0  0  0  0  0  0  0  # atno 8009 bound_to 7997
  156.2830  140.2692  156.1951 H   0  0  0  0  0  0  0  0  0  0  0  0  # atno 8010 bound_to 7997
  139.8059  144.6794  150.9703 H   0  0  0  0  0  0  0  0  0  0  0  0  # atno 10167 bound_to 10162
  156.0735  130.5946  150.8574 H   0  0  0  0  0  0  0  0  0  0  0  0  # atno 10718 bound_to 10713
  154.6207  135.5454  153.7573 H   0  0  0  0  0  0  0  0  0  0  0  0  # atno 10763 bound_to 10752
  153.0237  135.6412  154.1444 H   0  0  0  0  0  0  0  0  0  0  0  0  # atno 10764 bound_to 10752
  154.1378  135.2910  155.3148 H   0  0  0  0  0  0  0  0  0  0  0  0  # atno 10765 bound_to 10752
  139.9439  134.9632  156.8657 H   0  0  0  0  0  0  0  0  0  0  0  0  # atno 11005 bound_to 11000
  144.7248  140.4490  143.6981 LP  0  0  0  0  0  0  0  0  0  0  0  0  # atno 17320 bound_to 7965
  145.6344  139.1541  143.2951 LP  0  0  0  0  0  0  0  0  0  0  0  0  # atno 17321 bound_to 7965
  140.7819  143.4234  151.0806 LP  0  0  0  0  0  0  0  0  0  0  0  0  # atno 17342 bound_to 10162
  139.7903  143.8228  152.3151 LP  0  0  0  0  0  0  0  0  0  0  0  0  # atno 17343 bound_to 10162
  157.5819  131.0946  150.9257 LP  0  0  0  0  0  0  0  0  0  0  0  0  # atno 17370 bound_to 10713
  156.9451  130.5399  149.5281 LP  0  0  0  0  0  0  0  0  0  0  0  0  # atno 17371 bound_to 10713
  140.5882  134.0287  155.7489 LP  0  0  0  0  0  0  0  0  0  0  0  0  # atno 17394 bound_to 11000
  141.1083  133.9657  157.2956 LP  0  0  0  0  0  0  0  0  0  0  0  0  # atno 17395 bound_to 11000

$$$$
