AV-unprocessed.smi:2164|AV-procd|sdf|8808|dock4
  -GOLD-   2272011593D 1   1.00000     0.00000
 Structure written by MMmdl.
 39 41  0  0  0  0  0  0  0  0  1 V2000
  156.0439  139.0331  160.8100 O   0  0  0  0  0  0  0  0  0  0  0  0
  155.6028  139.5676  161.8288 C   0  0  0  0  0  0  0  0  0  0  0  0
  154.8389  140.6737  161.7776 N   0  0  0  0  0  0  0  0  0  0  0  0
  154.3983  141.3543  160.5616 C   0  0  0  0  0  0  0  0  0  0  0  0
  152.8634  141.4652  160.4785 C   0  0  0  0  0  0  0  0  0  0  0  0
  152.3806  142.7635  159.8555 C   0  0  0  0  0  0  0  0  0  0  0  0
  152.8083  144.0090  160.3598 C   0  0  0  0  0  0  0  0  0  0  0  0
  152.3609  145.1856  159.7288 C   0  0  0  0  0  0  0  0  0  0  0  0
  151.5025  145.0658  158.6176 C   0  0  0  0  0  0  0  0  0  0  0  0
  151.0835  143.8791  158.1281 N   0  0  0  0  0  0  0  0  0  0  0  0
  151.5151  142.7560  158.7405 C   0  0  0  0  0  0  0  0  0  0  0  0
  155.8299  139.0707  163.1874 C   0  0  0  0  0  0  0  0  0  0  0  0
  155.8096  139.9302  164.2239 C   0  0  0  0  0  0  0  0  0  0  0  0
  156.0169  139.5458  165.5501 N   0  0  0  0  0  0  0  0  0  0  0  0
  156.0753  140.5900  166.5659 C   0  0  0  0  0  0  0  0  0  0  0  0
  155.3287  140.1508  167.8150 C   0  0  0  0  0  0  0  0  0  0  0  0
  156.2191  138.6829  168.4586 S   0  0  0  0  0  0  0  0  0  0  0  0
  157.5948  139.0914  168.7828 O   0  0  0  0  0  0  0  0  0  0  0  0
  155.3860  138.0648  169.5011 O   0  0  0  0  0  0  0  0  0  0  0  0
  156.2423  137.7073  167.0951 N   0  0  0  0  0  0  0  0  0  0  0  0
  156.1814  138.1781  165.8865 C   0  0  0  0  0  0  0  0  0  0  0  0
  156.2511  137.2537  164.7660 C   0  0  0  0  0  0  0  0  0  0  0  0
  156.0848  137.6693  163.4934 C   0  0  0  0  0  0  0  0  0  0  0  0
  154.5134  141.0583  162.6523 H   0  0  0  0  0  0  0  0  0  0  0  0
  154.8356  142.3529  160.5551 H   0  0  0  0  0  0  0  0  0  0  0  0
  154.7863  140.8504  159.6748 H   0  0  0  0  0  0  0  0  0  0  0  0
  152.4663  140.6267  159.9050 H   0  0  0  0  0  0  0  0  0  0  0  0
  152.4353  141.3771  161.4776 H   0  0  0  0  0  0  0  0  0  0  0  0
  153.4754  144.0625  161.2078 H   0  0  0  0  0  0  0  0  0  0  0  0
  152.6716  146.1567  160.0847 H   0  0  0  0  0  0  0  0  0  0  0  0
  151.1432  145.9475  158.1075 H   0  0  0  0  0  0  0  0  0  0  0  0
  151.1713  141.8234  158.3175 H   0  0  0  0  0  0  0  0  0  0  0  0
  155.6310  140.9883  164.0920 H   0  0  0  0  0  0  0  0  0  0  0  0
  157.1180  140.8124  166.7948 H   0  0  0  0  0  0  0  0  0  0  0  0
  155.6325  141.5144  166.1933 H   0  0  0  0  0  0  0  0  0  0  0  0
  155.3324  140.9260  168.5809 H   0  0  0  0  0  0  0  0  0  0  0  0
  154.2940  139.8820  167.5994 H   0  0  0  0  0  0  0  0  0  0  0  0
  156.4286  136.1998  164.9244 H   0  0  0  0  0  0  0  0  0  0  0  0
  156.1455  136.9285  162.7099 H   0  0  0  0  0  0  0  0  0  0  0  0
  1  2  2  0  0  0  0
  2  3  1  0  0  0  0
  2 12  1  0  0  0  0
  3  4  1  0  0  0  0
  3 24  1  0  0  0  0
  4  5  1  0  0  0  0
  4 25  1  0  0  0  0
  4 26  1  0  0  0  0
  5  6  1  0  0  0  0
  5 27  1  0  0  0  0
  5 28  1  0  0  0  0
  6 11  1  0  0  0  0
  6  7  2  0  0  0  0
  7  8  1  0  0  0  0
  7 29  1  0  0  0  0
  8  9  2  0  0  0  0
  8 30  1  0  0  0  0
  9 10  1  0  0  0  0
  9 31  1  0  0  0  0
 10 11  2  0  0  0  0
 11 32  1  0  0  0  0
 12 23  1  0  0  0  0
 12 13  2  0  0  0  0
 13 14  1  0  0  0  0
 13 33  1  0  0  0  0
 14 21  1  0  0  0  0
 14 15  1  0  0  0  0
 15 16  1  0  0  0  0
 15 34  1  0  0  0  0
 15 35  1  0  0  0  0
 16 17  1  0  0  0  0
 16 36  1  0  0  0  0
 16 37  1  0  0  0  0
 17 18  2  0  0  0  0
 17 19  2  0  0  0  0
 17 20  1  0  0  0  0
 20 21  2  0  0  0  0
 21 22  1  0  0  0  0
 22 23  2  0  0  0  0
 22 38  1  0  0  0  0
 23 39  1  0  0  0  0
M  END
> <s_m_source_file>
AV-unprocessed.smi

> <i_m_source_file_index>
2164

> <i_lp_mmshare_version>
43012

> <i_f3d_flags>
0

> <s_epik_input>
W0NIMl0xW0NIMl1TKD1PKSg9TylOPUMoTjEyKVtDSF09W0NIXUMoPVtDSF0yKUMoPU8pW05IXVtDSDJdW0NIMl1jM1tjSF1bY0hdW2NIXW5bY0hdMw==

> <s_epik_cmdline>
J2VwaWtfcHl0aG9uJywgJy1waCcsICc3LjAnLCAnLXRuJywgJzgnLCAnLW1hJywgJzIwMCcsICctbWV0YWxfYmluZGluZycsICctaW1hZScsICc8aW5maWxlLm1hZT4nLCAnLW9tYWUnLCAnPG91dGZpbGUubWFlPic=

> <r_epik_Ionization_Penalty>
0.0095026

> <r_epik_Ionization_Penalty_Charging>
4.80604e-09

> <r_epik_Ionization_Penalty_Neutral>
0.00950259

> <r_epik_State_Penalty>
0.0071398

> <r_epik_Charging_Adjusted_Penalty>
0.0071398

> <i_epik_Tot_Q>
0

> <i_epik_Tot_abs_Q>
0

> <r_epik_Metal_State_Penalty>
0.0838865

> <b_epik_Metal_Only>
0

> <s_lp_Force_Field>
OPLS_2005

> <r_lp_Energy>
19.9083

> <b_lp_Chiralities_Consistent>
1

> <s_lp_Variant>
AV-unprocessed.smi:2164-1

> <Gold.Version>
5.8.1

> <Gold.Id.Protein>
6NUR|6NUR_protein|mol2

> <Gold.PLP.Fitness>
49.6593

> <Gold.PLP.PLP>
-48.9597

> <Gold.PLP.part.hbond>
-1.7777

> <Gold.PLP.part.metal>
0.0000

> <Gold.PLP.part.buried>
-5.9173

> <Gold.PLP.part.nonpolar>
-41.3797

> <Gold.PLP.part.repulsive>
0.4545

> <Gold.PLP.ligand.clash>
0.5490

> <Gold.PLP.ligand.torsion>
0.5978

> <Gold.PLP.Chemscore.Hbond>
0.0000

> <Gold.PLP.Chemscore.CHOScore>
0.8110

> <Gold.PLP.Chemscore.Metal>
0.0000

> <Gold.PLP.Chemscore.Internal.Correction>
0.0113

> <Gold.Rescore>
     Score         DG    S(hbond)    S(metal)    S(lipo)     H(rot)  DE(clash)    DE(int)     intcor
     14.42     -15.04       0.00        0.00     113.83       1.47       0.00       0.62       ----

> <Gold.Chemscore.Fitness>
14.4227

> <Gold.Chemscore.DG>
-15.0402

> <Gold.Chemscore.ZeroCoef>
-5.4800

> <Gold.Chemscore.Hbond>
0.0000

> <Gold.Chemscore.Metal>
0.0000

> <Gold.Chemscore.Lipo>
113.8291

> <Gold.Chemscore.Internal_Hbond>
0.0000

> <Gold.Chemscore.DEClash>
0.0017

> <Gold.Chemscore.DEInternal>
0.6158

> <Gold.Chemscore.Rot>
1.4679

> <Gold.Chemscore.Internal.Correction>
   9.000000E+99

> <Gold.Chemscore.Hbond.Weighted>
-0.0000

> <Gold.Chemscore.Metal.Weighted>
-0.0000

> <Gold.Chemscore.Lipo.Weighted>
-13.3180

> <Gold.Chemscore.Internal_Hbond.Weighted>
0.0000

> <Gold.Chemscore.DEClash.Weighted>
0.0017

> <Gold.Chemscore.DEInternal.Weighted>
0.6158

> <Gold.Chemscore.Rot.Weighted>
3.7578

> <Gold.Chemscore.Internal.Correction.Weighted>
   9.000000E+99

> <Gold.Protein.RotatedTorsions>
[ 6907 6896 6895 6894 ] final    4.29 input  -60.11 | X-H torsion
[ 7974 7965 7964 7962 ] final  139.94 input  175.53 | X-H torsion
[ 8008 7997 7996 7995 ] final   53.41 input   59.86 | X-H torsion
[ 10167 10162 10161 10158 ] final   -7.30 input  -65.29 | X-H torsion
[ 10718 10713 10712 10709 ] final  106.30 input   66.30 | X-H torsion
[ 10763 10752 10751 10750 ] final -111.41 input  -60.55 | X-H torsion
[ 11005 11000 10999 10996 ] final  -40.28 input  -57.11 | X-H torsion

> <Gold.Protein.ActiveResidues>
 VAL166  LYS551  ARG553  GLY616  TRP617  ASP618  TYR619  PRO620  LYS621  CYS622 
 ASP623  PHE694  ASN695  SER759  ASP760  ASP761  ALA762  ILE779  LEU786  VAL792 
 PHE793  MET794  SER795  GLU796  ALA797  LYS798  CYS799  TRP800  GLU811  SER814 

> <Gold.Protein.RotatedAtoms>
  151.6390  135.1015  160.0137 H   0  0  0  0  0  0  0  0  0  0  0  0  # atno 6907 bound_to 6896
  152.4065  133.6892  159.6369 H   0  0  0  0  0  0  0  0  0  0  0  0  # atno 6908 bound_to 6896
  150.7959  133.8617  159.3275 H   0  0  0  0  0  0  0  0  0  0  0  0  # atno 6909 bound_to 6896
  144.9232  139.5141  143.5653 H   0  0  0  0  0  0  0  0  0  0  0  0  # atno 7974 bound_to 7965
  155.4678  140.3464  155.4321 H   0  0  0  0  0  0  0  0  0  0  0  0  # atno 8008 bound_to 7997
  156.1120  140.1463  156.9354 H   0  0  0  0  0  0  0  0  0  0  0  0  # atno 8009 bound_to 7997
  154.4763  140.0884  156.7248 H   0  0  0  0  0  0  0  0  0  0  0  0  # atno 8010 bound_to 7997
  140.7024  143.6097  150.8716 H   0  0  0  0  0  0  0  0  0  0  0  0  # atno 10167 bound_to 10162
  157.6673  131.0847  150.5986 H   0  0  0  0  0  0  0  0  0  0  0  0  # atno 10718 bound_to 10713
  154.8299  135.4528  154.1035 H   0  0  0  0  0  0  0  0  0  0  0  0  # atno 10763 bound_to 10752
  153.2317  135.6906  153.7888 H   0  0  0  0  0  0  0  0  0  0  0  0  # atno 10764 bound_to 10752
  153.7268  135.3333  155.3254 H   0  0  0  0  0  0  0  0  0  0  0  0  # atno 10765 bound_to 10752
  141.0163  133.6884  156.2300 H   0  0  0  0  0  0  0  0  0  0  0  0  # atno 11005 bound_to 11000
  146.3214  139.8127  142.8942 LP  0  0  0  0  0  0  0  0  0  0  0  0  # atno 17320 bound_to 7965
  145.3262  141.0256  143.3472 LP  0  0  0  0  0  0  0  0  0  0  0  0  # atno 17321 bound_to 7965
  139.9820  143.5941  152.2940 LP  0  0  0  0  0  0  0  0  0  0  0  0  # atno 17342 bound_to 10162
  139.6565  144.7662  151.2045 LP  0  0  0  0  0  0  0  0  0  0  0  0  # atno 17343 bound_to 10162
  156.6287  130.4426  149.5795 LP  0  0  0  0  0  0  0  0  0  0  0  0  # atno 17370 bound_to 10713
  156.2299  130.6788  151.1453 LP  0  0  0  0  0  0  0  0  0  0  0  0  # atno 17371 bound_to 10713
  140.6649  134.4929  157.5585 LP  0  0  0  0  0  0  0  0  0  0  0  0  # atno 17394 bound_to 11000
  139.9119  134.8327  156.1499 LP  0  0  0  0  0  0  0  0  0  0  0  0  # atno 17395 bound_to 11000

$$$$
