AV-unprocessed.smi:2442|AV-procd|sdf|9625|dock6
  -GOLD-   2272013253D 1   1.00000     0.00000
 Structure written by MMmdl.
 46 47  0  0  0  0  0  0  0  0  1 V2000
  148.4371  138.4896  157.4223 C   0  0  0  0  0  0  0  0  0  0  0  0
  149.1401  138.0467  156.2723 O   0  0  0  0  0  0  0  0  0  0  0  0
  150.3398  137.3319  156.5557 C   0  0  2  0  0  0  0  0  0  0  0  0
  151.3200  138.2104  157.3620 C   0  0  0  0  0  0  0  0  0  0  0  0
  151.8035  139.4211  156.5467 C   0  0  0  0  0  0  0  0  0  0  0  0
  152.4354  138.9798  155.2178 C   0  0  0  0  0  0  0  0  0  0  0  0
  151.4680  138.1077  154.4020 C   0  0  0  0  0  0  0  0  0  0  0  0
  150.9784  136.8936  155.2160 C   0  0  2  0  0  0  0  0  0  0  0  0
  150.0420  136.1051  154.4187 N   0  0  0  0  0  0  0  0  0  0  0  0
  149.4555  134.9671  154.8146 C   0  0  0  0  0  0  0  0  0  0  0  0
  149.6585  134.4258  155.9016 O   0  0  0  0  0  0  0  0  0  0  0  0
  148.6105  134.4958  153.8891 N   0  0  0  0  0  0  0  0  0  0  0  0
  147.7965  133.2999  154.0546 C   0  0  0  0  0  0  0  0  0  0  0  0
  146.3185  133.6121  153.7825 C   0  0  0  0  0  0  0  0  0  0  0  0
  145.8385  133.0213  152.4660 C   0  0  0  0  0  0  0  0  0  0  0  0
  145.7308  131.6210  152.3336 C   0  0  0  0  0  0  0  0  0  0  0  0
  145.2810  131.0877  151.1102 C   0  0  0  0  0  0  0  0  0  0  0  0
  144.9450  131.8500  150.0491 N   0  0  0  0  0  0  0  0  0  0  0  0
  145.0470  133.1896  150.1784 C   0  0  0  0  0  0  0  0  0  0  0  0
  145.4847  133.8307  151.3578 C   0  0  0  0  0  0  0  0  0  0  0  0
  145.5629  135.3462  151.4065 C   0  0  0  0  0  0  0  0  0  0  0  0
  147.5308  139.0104  157.1139 H   0  0  0  0  0  0  0  0  0  0  0  0
  149.0292  139.1810  158.0210 H   0  0  0  0  0  0  0  0  0  0  0  0
  148.1402  137.6481  158.0495 H   0  0  0  0  0  0  0  0  0  0  0  0
  150.1030  136.4382  157.1362 H   0  0  0  0  0  0  0  0  0  0  0  0
  150.8671  138.5459  158.2942 H   0  0  0  0  0  0  0  0  0  0  0  0
  152.1825  137.6083  157.6503 H   0  0  0  0  0  0  0  0  0  0  0  0
  150.9641  140.0892  156.3498 H   0  0  0  0  0  0  0  0  0  0  0  0
  152.5246  139.9963  157.1278 H   0  0  0  0  0  0  0  0  0  0  0  0
  152.7270  139.8550  154.6366 H   0  0  0  0  0  0  0  0  0  0  0  0
  153.3514  138.4217  155.4162 H   0  0  0  0  0  0  0  0  0  0  0  0
  150.6164  138.7120  154.0855 H   0  0  0  0  0  0  0  0  0  0  0  0
  151.9619  137.7709  153.4896 H   0  0  0  0  0  0  0  0  0  0  0  0
  151.8478  136.2705  155.4357 H   0  0  0  0  0  0  0  0  0  0  0  0
  149.8043  136.4710  153.5086 H   0  0  0  0  0  0  0  0  0  0  0  0
  148.5095  135.0071  153.0246 H   0  0  0  0  0  0  0  0  0  0  0  0
  148.1496  132.5246  153.3728 H   0  0  0  0  0  0  0  0  0  0  0  0
  147.9191  132.9167  155.0687 H   0  0  0  0  0  0  0  0  0  0  0  0
  145.6970  133.2510  154.6022 H   0  0  0  0  0  0  0  0  0  0  0  0
  146.1712  134.6928  153.7549 H   0  0  0  0  0  0  0  0  0  0  0  0
  145.9854  130.9649  153.1529 H   0  0  0  0  0  0  0  0  0  0  0  0
  145.1883  130.0195  150.9805 H   0  0  0  0  0  0  0  0  0  0  0  0
  144.7685  133.7675  149.3093 H   0  0  0  0  0  0  0  0  0  0  0  0
  145.1447  135.7922  150.5038 H   0  0  0  0  0  0  0  0  0  0  0  0
  146.5998  135.6717  151.4919 H   0  0  0  0  0  0  0  0  0  0  0  0
  145.0056  135.7350  152.2584 H   0  0  0  0  0  0  0  0  0  0  0  0
  1  2  1  0  0  0  0
  1 22  1  0  0  0  0
  1 23  1  0  0  0  0
  1 24  1  0  0  0  0
  2  3  1  0  0  0  0
  3  8  1  0  0  0  0
  3  4  1  0  0  0  0
  3 25  1  0  0  0  0
  4  5  1  0  0  0  0
  4 26  1  0  0  0  0
  4 27  1  0  0  0  0
  5  6  1  0  0  0  0
  5 28  1  0  0  0  0
  5 29  1  0  0  0  0
  6  7  1  0  0  0  0
  6 30  1  0  0  0  0
  6 31  1  0  0  0  0
  7  8  1  0  0  0  0
  7 32  1  0  0  0  0
  7 33  1  0  0  0  0
  8  9  1  0  0  0  0
  8 34  1  0  0  0  0
  9 10  1  0  0  0  0
  9 35  1  0  0  0  0
 10 11  2  0  0  0  0
 10 12  1  0  0  0  0
 12 13  1  0  0  0  0
 12 36  1  0  0  0  0
 13 14  1  0  0  0  0
 13 37  1  0  0  0  0
 13 38  1  0  0  0  0
 14 15  1  0  0  0  0
 14 39  1  0  0  0  0
 14 40  1  0  0  0  0
 15 20  1  0  0  0  0
 15 16  2  0  0  0  0
 16 17  1  0  0  0  0
 16 41  1  0  0  0  0
 17 18  2  0  0  0  0
 17 42  1  0  0  0  0
 18 19  1  0  0  0  0
 19 20  2  0  0  0  0
 19 43  1  0  0  0  0
 20 21  1  0  0  0  0
 21 44  1  0  0  0  0
 21 45  1  0  0  0  0
 21 46  1  0  0  0  0
M  END
> <s_m_source_file>
AV-unprocessed.smi

> <i_m_source_file_index>
2442

> <i_lp_mmshare_version>
43012

> <i_f3d_flags>
0

> <s_epik_input>
W0NIM11PW0NAQEhdMVtDSDJdW0NIMl1bQ0gyXVtDSDJdW0NASF0xW05IXUMoPU8pW05IXVtDSDJdW0NIMl1jMltjSF1bY0hdbltjSF1jMltDSDNd

> <s_epik_cmdline>
J2VwaWtfcHl0aG9uJywgJy1waCcsICc3LjAnLCAnLXRuJywgJzgnLCAnLW1hJywgJzIwMCcsICctbWV0YWxfYmluZGluZycsICctaW1hZScsICc8aW5maWxlLm1hZT4nLCAnLW9tYWUnLCAnPG91dGZpbGUubWFlPic=

> <r_epik_Ionization_Penalty>
0.106136

> <r_epik_Ionization_Penalty_Charging>
0

> <r_epik_Ionization_Penalty_Neutral>
0.106136

> <r_epik_State_Penalty>
0.0959393

> <r_epik_Charging_Adjusted_Penalty>
0.0959393

> <i_epik_Tot_Q>
0

> <i_epik_Tot_abs_Q>
0

> <r_epik_Metal_State_Penalty>
0.0812517

> <b_epik_Metal_Only>
0

> <s_lp_Force_Field>
OPLS_2005

> <r_lp_Energy>
9.91993

> <b_lp_Chiralities_Consistent>
1

> <s_lp_Variant>
AV-unprocessed.smi:2442-3

> <Gold.Version>
5.8.1

> <Gold.Id.Protein>
6NUR|6NUR_protein|mol2

> <Gold.PLP.Fitness>
39.4408

> <Gold.PLP.PLP>
-31.2770

> <Gold.PLP.part.hbond>
-2.8004

> <Gold.PLP.part.metal>
0.0000

> <Gold.PLP.part.buried>
-4.3190

> <Gold.PLP.part.nonpolar>
-23.9352

> <Gold.PLP.part.repulsive>
0.2348

> <Gold.PLP.ligand.clash>
0.0000

> <Gold.PLP.ligand.torsion>
0.4262

> <Gold.PLP.Chemscore.Hbond>
1.9920

> <Gold.PLP.Chemscore.CHOScore>
1.0000

> <Gold.PLP.Chemscore.Metal>
0.0000

> <Gold.Chemscore.Hbonds>
donor molecule, donor type, donor heavy atom, donor atom, acceptor molecule, acceptor atom, score
      L1  H     9    35       P1  7948  0.98
      L1  H    12    36       P1  7948  1.00
      L1  C    19    43       P1  7921  1.00

> <Gold.PLP.Chemscore.Internal.Correction>
0.0401

> <Gold.Rescore>
     Score         DG    S(hbond)    S(metal)    S(lipo)     H(rot)  DE(clash)    DE(int)     intcor
     15.79     -16.27       1.64        0.00      81.20       1.64       0.06       0.42       ----

> <Gold.Chemscore.Fitness>
15.7897

> <Gold.Chemscore.DG>
-16.2743

> <Gold.Chemscore.ZeroCoef>
-5.4800

> <Gold.Chemscore.Hbond>
1.6430

> <Gold.Chemscore.Metal>
0.0000

> <Gold.Chemscore.Lipo>
81.1967

> <Gold.Chemscore.Internal_Hbond>
0.0000

> <Gold.Chemscore.DEClash>
0.0600

> <Gold.Chemscore.DEInternal>
0.4245

> <Gold.Chemscore.Rot>
1.6380

> <Gold.Chemscore.Internal.Correction>
   9.000000E+99

> <Gold.Chemscore.Hbonds>
donor molecule, donor type, donor heavy atom, donor atom, acceptor molecule, acceptor atom, score
      L1  H     9    35       P1  7948  0.28
      L1  H    12    36       P1  7948  0.68

> <Gold.Chemscore.Hbond.Weighted>
-5.4877

> <Gold.Chemscore.Metal.Weighted>
-0.0000

> <Gold.Chemscore.Lipo.Weighted>
-9.5000

> <Gold.Chemscore.Internal_Hbond.Weighted>
0.0000

> <Gold.Chemscore.DEClash.Weighted>
0.0600

> <Gold.Chemscore.DEInternal.Weighted>
0.4245

> <Gold.Chemscore.Rot.Weighted>
4.1934

> <Gold.Chemscore.Internal.Correction.Weighted>
   9.000000E+99

> <Gold.Protein.RotatedTorsions>
[ 6907 6896 6895 6894 ] final   63.06 input  -60.11 | X-H torsion
[ 7974 7965 7964 7962 ] final  114.08 input  175.53 | X-H torsion
[ 8008 7997 7996 7995 ] final   78.25 input   59.86 | X-H torsion
[ 10167 10162 10161 10158 ] final  143.81 input  -65.29 | X-H torsion
[ 10718 10713 10712 10709 ] final  151.53 input   66.30 | X-H torsion
[ 10763 10752 10751 10750 ] final   -7.25 input  -60.55 | X-H torsion
[ 11005 11000 10999 10996 ] final -171.77 input  -57.11 | X-H torsion

> <Gold.Protein.ActiveResidues>
 VAL166  LYS551  ARG553  GLY616  TRP617  ASP618  TYR619  PRO620  LYS621  CYS622 
 ASP623  PHE694  ASN695  SER759  ASP760  ASP761  ALA762  ILE779  LEU786  VAL792 
 PHE793  MET794  SER795  GLU796  ALA797  LYS798  CYS799  TRP800  GLU811  SER814 

> <Gold.Protein.RotatedAtoms>
  152.4223  134.5933  159.9979 H   0  0  0  0  0  0  0  0  0  0  0  0  # atno 6907 bound_to 6896
  151.6080  133.3344  159.3069 H   0  0  0  0  0  0  0  0  0  0  0  0  # atno 6908 bound_to 6896
  150.8111  134.7304  159.6754 H   0  0  0  0  0  0  0  0  0  0  0  0  # atno 6909 bound_to 6896
  145.2089  139.2916  143.4279 H   0  0  0  0  0  0  0  0  0  0  0  0  # atno 7974 bound_to 7965
  155.8530  140.3457  155.5706 H   0  0  0  0  0  0  0  0  0  0  0  0  # atno 8008 bound_to 7997
  155.8017  140.0886  157.1973 H   0  0  0  0  0  0  0  0  0  0  0  0  # atno 8009 bound_to 7997
  154.4008  140.1464  156.3269 H   0  0  0  0  0  0  0  0  0  0  0  0  # atno 8010 bound_to 7997
  139.4961  144.6015  151.6471 H   0  0  0  0  0  0  0  0  0  0  0  0  # atno 10167 bound_to 10162
  157.2695  131.0814  151.1609 H   0  0  0  0  0  0  0  0  0  0  0  0  # atno 10718 bound_to 10713
  153.4237  135.7010  153.6277 H   0  0  0  0  0  0  0  0  0  0  0  0  # atno 10763 bound_to 10752
  153.4720  135.3712  155.2396 H   0  0  0  0  0  0  0  0  0  0  0  0  # atno 10764 bound_to 10752
  154.8723  135.4045  154.3610 H   0  0  0  0  0  0  0  0  0  0  0  0  # atno 10765 bound_to 10752
  140.5045  134.5861  157.4999 H   0  0  0  0  0  0  0  0  0  0  0  0  # atno 11005 bound_to 11000
  146.3402  140.2358  142.8594 LP  0  0  0  0  0  0  0  0  0  0  0  0  # atno 17320 bound_to 7965
  144.9875  140.8516  143.5359 LP  0  0  0  0  0  0  0  0  0  0  0  0  # atno 17321 bound_to 7965
  140.5666  144.0180  150.6195 LP  0  0  0  0  0  0  0  0  0  0  0  0  # atno 17342 bound_to 10162
  140.3283  143.3093  152.0713 LP  0  0  0  0  0  0  0  0  0  0  0  0  # atno 17343 bound_to 10162
  157.3087  130.6879  149.6203 LP  0  0  0  0  0  0  0  0  0  0  0  0  # atno 17370 bound_to 10713
  155.9663  130.4370  150.5158 LP  0  0  0  0  0  0  0  0  0  0  0  0  # atno 17371 bound_to 10713
  139.9694  134.7318  156.0072 LP  0  0  0  0  0  0  0  0  0  0  0  0  # atno 17394 bound_to 11000
  141.1418  133.6563  156.3752 LP  0  0  0  0  0  0  0  0  0  0  0  0  # atno 17395 bound_to 11000

$$$$
