AV-unprocessed.smi:2926|AV-procd|sdf|11229|dock8
  -GOLD-   2272016123D 1   1.00000     0.00000
 Structure written by MMmdl.
 31 31  0  0  0  0  0  0  0  0  2 V2000
  149.9466  141.0259  155.1269 C   0  0  0  0  0  0  0  0  0  0  0  0
  150.1777  139.6240  154.5191 C   0  0  0  0  0  0  0  0  0  0  0  0
  148.8361  139.0060  154.0601 C   0  0  0  0  0  0  0  0  0  0  0  0
  151.0502  138.6961  155.4195 C   0  0  2  0  0  0  0  0  0  0  0  0
  151.0740  137.2332  154.9284 C   0  0  0  0  0  0  0  0  0  0  0  0
  152.0589  137.0407  153.9328 O   0  0  0  0  0  0  0  0  0  0  0  0
  150.5820  138.7482  156.8015 N   0  5  0  0  0  0  0  0  0  0  0  0
  151.5643  139.3077  157.9640 S   0  0  0  0  0  0  0  0  0  0  0  0
  151.4054  138.5893  159.2387 O   0  0  0  0  0  0  0  0  0  0  0  0
  152.9410  139.5216  157.4875 O   0  0  0  0  0  0  0  0  0  0  0  0
  150.8492  140.9866  158.2289 C   0  0  0  0  0  0  0  0  0  0  0  0
  151.6090  141.7131  159.3040 C   0  0  0  0  0  0  0  0  0  0  0  0
  152.8177  141.3301  159.9493 C   0  0  0  0  0  0  0  0  0  0  0  0
  153.0519  142.3522  160.8229 C   0  0  0  0  0  0  0  0  0  0  0  0
  152.0817  143.2954  160.7220 O   0  0  0  0  0  0  0  0  0  0  0  0
  151.1668  142.8804  159.7477 N   0  0  0  0  0  0  0  0  0  0  0  0
  152.0726  139.0686  155.3360 H   0  0  0  0  0  0  0  0  0  0  0  0
  149.3310  140.9877  156.0276 H   0  0  0  0  0  0  0  0  0  0  0  0
  149.4287  141.6704  154.4161 H   0  0  0  0  0  0  0  0  0  0  0  0
  150.8815  141.5284  155.3825 H   0  0  0  0  0  0  0  0  0  0  0  0
  150.7576  139.7933  153.6108 H   0  0  0  0  0  0  0  0  0  0  0  0
  148.1617  138.8144  154.8965 H   0  0  0  0  0  0  0  0  0  0  0  0
  148.9699  138.0701  153.5158 H   0  0  0  0  0  0  0  0  0  0  0  0
  148.3162  139.6852  153.3841 H   0  0  0  0  0  0  0  0  0  0  0  0
  151.2636  136.5421  155.7503 H   0  0  0  0  0  0  0  0  0  0  0  0
  150.1086  136.9630  154.4997 H   0  0  0  0  0  0  0  0  0  0  0  0
  151.6270  136.8472  153.1155 H   0  0  0  0  0  0  0  0  0  0  0  0
  150.8934  141.5289  157.2849 H   0  0  0  0  0  0  0  0  0  0  0  0
  149.7984  140.8682  158.4946 H   0  0  0  0  0  0  0  0  0  0  0  0
  153.4122  140.4410  159.7991 H   0  0  0  0  0  0  0  0  0  0  0  0
  153.8301  142.5467  161.5459 H   0  0  0  0  0  0  0  0  0  0  0  0
  1  2  1  0  0  0  0
  1 18  1  0  0  0  0
  1 19  1  0  0  0  0
  1 20  1  0  0  0  0
  2  3  1  0  0  0  0
  2  4  1  0  0  0  0
  2 21  1  0  0  0  0
  3 22  1  0  0  0  0
  3 23  1  0  0  0  0
  3 24  1  0  0  0  0
  4 17  1  0  0  0  0
  4  5  1  0  0  0  0
  4  7  1  0  0  0  0
  5  6  1  0  0  0  0
  5 25  1  0  0  0  0
  5 26  1  0  0  0  0
  6 27  1  0  0  0  0
  7  8  1  0  0  0  0
  8  9  2  0  0  0  0
  8 10  2  0  0  0  0
  8 11  1  0  0  0  0
 11 12  1  0  0  0  0
 11 28  1  0  0  0  0
 11 29  1  0  0  0  0
 12 16  2  0  0  0  0
 12 13  1  0  0  0  0
 13 14  2  0  0  0  0
 13 30  1  0  0  0  0
 14 15  1  0  0  0  0
 14 31  1  0  0  0  0
 15 16  1  0  0  0  0
M  CHG  1   7  -1
M  END
> <s_m_source_file>
AV-unprocessed.smi

> <i_m_source_file_index>
2926

> <i_lp_mmshare_version>
43012

> <i_f3d_flags>
0

> <s_epik_input>
W0NIM11bQ0hdKFtDSDNdKVtDQEBIXShbQ0gyXVtPSF0pW05IXVMoPU8pKD1PKVtDSDJdYzFbY0hdW2NIXW9uMQ==

> <s_epik_cmdline>
J2VwaWtfcHl0aG9uJywgJy1waCcsICc3LjAnLCAnLXRuJywgJzgnLCAnLW1hJywgJzIwMCcsICctbWV0YWxfYmluZGluZycsICctaW1hZScsICc8aW5maWxlLm1hZT4nLCAnLW9tYWUnLCAnPG91dGZpbGUubWFlPic=

> <r_lp_tautomer_probability>
1

> <r_epik_Ionization_Penalty>
4.75719

> <r_epik_Ionization_Penalty_Charging>
4.75718

> <r_epik_Ionization_Penalty_Neutral>
1.48962e-06

> <r_epik_State_Penalty>
4.75699

> <r_epik_Charging_Adjusted_Penalty>
9.51417

> <i_epik_Tot_Q>
-1

> <i_epik_Tot_abs_Q>
1

> <r_epik_Metal_State_Penalty>
0.961449

> <b_epik_Metal_Only>
1

> <s_lp_Force_Field>
OPLS_2005

> <r_lp_Energy>
3.36492

> <b_lp_Chiralities_Consistent>
1

> <s_lp_Variant>
AV-unprocessed.smi:2926-4

> <Gold.Version>
5.8.1

> <Gold.Id.Protein>
6NUR|6NUR_protein|mol2

> <Gold.PLP.Fitness>
37.9563

> <Gold.PLP.PLP>
-30.0840

> <Gold.PLP.part.hbond>
-3.5436

> <Gold.PLP.part.metal>
0.0000

> <Gold.PLP.part.buried>
-2.1451

> <Gold.PLP.part.nonpolar>
-23.1197

> <Gold.PLP.part.repulsive>
0.0725

> <Gold.PLP.ligand.clash>
0.0000

> <Gold.PLP.ligand.torsion>
1.1245

> <Gold.PLP.Chemscore.Hbond>
3.0000

> <Gold.PLP.Chemscore.CHOScore>
0.0000

> <Gold.PLP.Chemscore.Metal>
0.0000

> <Gold.Chemscore.Hbonds>
donor molecule, donor type, donor heavy atom, donor atom, acceptor molecule, acceptor atom, score
      L1  H     6    27       P1  7949  1.00
      P1  H  7997  8008       L1    10  1.00
      P1  H 10752 10764       L1     6  1.00

> <Gold.PLP.Chemscore.Internal.Correction>
1.1214

> <Gold.Rescore>
     Score         DG    S(hbond)    S(metal)    S(lipo)     H(rot)  DE(clash)    DE(int)     intcor
     14.53     -15.72       2.66        0.00      68.10       2.58       0.06       1.13       ----

> <Gold.Chemscore.Fitness>
14.5286

> <Gold.Chemscore.DG>
-15.7162

> <Gold.Chemscore.ZeroCoef>
-5.4800

> <Gold.Chemscore.Hbond>
2.6550

> <Gold.Chemscore.Metal>
0.0000

> <Gold.Chemscore.Lipo>
68.0953

> <Gold.Chemscore.Internal_Hbond>
0.0000

> <Gold.Chemscore.DEClash>
0.0584

> <Gold.Chemscore.DEInternal>
1.1293

> <Gold.Chemscore.Rot>
2.5776

> <Gold.Chemscore.Internal.Correction>
   9.000000E+99

> <Gold.Chemscore.Hbonds>
donor molecule, donor type, donor heavy atom, donor atom, acceptor molecule, acceptor atom, score
      L1  H     6    27       P1  7949  0.96
      P1  H  7997  8008       L1    10  0.94
      P1  H 10752 10764       L1     6  0.24

> <Gold.Chemscore.Hbond.Weighted>
-8.8677

> <Gold.Chemscore.Metal.Weighted>
-0.0000

> <Gold.Chemscore.Lipo.Weighted>
-7.9672

> <Gold.Chemscore.Internal_Hbond.Weighted>
0.0000

> <Gold.Chemscore.DEClash.Weighted>
0.0584

> <Gold.Chemscore.DEInternal.Weighted>
1.1293

> <Gold.Chemscore.Rot.Weighted>
6.5987

> <Gold.Chemscore.Internal.Correction.Weighted>
   9.000000E+99

> <Gold.Protein.RotatedTorsions>
[ 6907 6896 6895 6894 ] final   23.93 input  -60.11 | X-H torsion
[ 7974 7965 7964 7962 ] final -103.44 input  175.53 | X-H torsion
[ 8008 7997 7996 7995 ] final  -50.66 input   59.86 | X-H torsion
[ 10167 10162 10161 10158 ] final -166.31 input  -65.29 | X-H torsion
[ 10718 10713 10712 10709 ] final -124.33 input   66.30 | X-H torsion
[ 10763 10752 10751 10750 ] final  -91.60 input  -60.55 | X-H torsion
[ 11005 11000 10999 10996 ] final   13.87 input  -57.11 | X-H torsion

> <Gold.Protein.ActiveResidues>
 VAL166  LYS551  ARG553  GLY616  TRP617  ASP618  TYR619  PRO620  LYS621  CYS622 
 ASP623  PHE694  ASN695  SER759  ASP760  ASP761  ALA762  ILE779  LEU786  VAL792 
 PHE793  MET794  SER795  GLU796  ALA797  LYS798  CYS799  TRP800  GLU811  SER814 

> <Gold.Protein.RotatedAtoms>
  151.9498  135.0174  160.0540 H   0  0  0  0  0  0  0  0  0  0  0  0  # atno 6907 bound_to 6896
  152.1963  133.4804  159.5043 H   0  0  0  0  0  0  0  0  0  0  0  0  # atno 6908 bound_to 6896
  150.6945  134.1565  159.4203 H   0  0  0  0  0  0  0  0  0  0  0  0  # atno 6909 bound_to 6896
  145.2559  140.9253  143.3069 H   0  0  0  0  0  0  0  0  0  0  0  0  # atno 7974 bound_to 7965
  154.4066  140.1267  156.4702 H   0  0  0  0  0  0  0  0  0  0  0  0  # atno 8008 bound_to 7997
  155.7187  140.3493  155.4986 H   0  0  0  0  0  0  0  0  0  0  0  0  # atno 8009 bound_to 7997
  155.9234  140.1057  157.1179 H   0  0  0  0  0  0  0  0  0  0  0  0  # atno 8010 bound_to 7997
  139.6123  144.0789  152.1854 H   0  0  0  0  0  0  0  0  0  0  0  0  # atno 10167 bound_to 10162
  156.1578  130.6580  151.0007 H   0  0  0  0  0  0  0  0  0  0  0  0  # atno 10718 bound_to 10713
  154.6777  135.5262  153.8222 H   0  0  0  0  0  0  0  0  0  0  0  0  # atno 10763 bound_to 10752
  153.0543  135.6545  154.0624 H   0  0  0  0  0  0  0  0  0  0  0  0  # atno 10764 bound_to 10752
  154.0516  135.2969  155.3319 H   0  0  0  0  0  0  0  0  0  0  0  0  # atno 10765 bound_to 10752
  140.4759  134.0984  155.7741 H   0  0  0  0  0  0  0  0  0  0  0  0  # atno 11005 bound_to 11000
  144.9462  139.4134  143.6425 LP  0  0  0  0  0  0  0  0  0  0  0  0  # atno 17320 bound_to 7965
  146.3289  139.8446  142.8884 LP  0  0  0  0  0  0  0  0  0  0  0  0  # atno 17321 bound_to 7965
  140.0411  144.6007  150.7410 LP  0  0  0  0  0  0  0  0  0  0  0  0  # atno 17342 bound_to 10162
  140.7328  143.2709  151.3891 LP  0  0  0  0  0  0  0  0  0  0  0  0  # atno 17343 bound_to 10162
  157.6709  131.0861  150.7614 LP  0  0  0  0  0  0  0  0  0  0  0  0  # atno 17370 bound_to 10713
  156.7679  130.4819  149.5424 LP  0  0  0  0  0  0  0  0  0  0  0  0  # atno 17371 bound_to 10713
  141.1554  133.8891  157.1989 LP  0  0  0  0  0  0  0  0  0  0  0  0  # atno 17394 bound_to 11000
  139.9856  135.0083  156.9854 LP  0  0  0  0  0  0  0  0  0  0  0  0  # atno 17395 bound_to 11000

$$$$
