AV-unprocessed.smi:1893|AV-procd|sdf|7671|dock9
  -GOLD-   22720 9413D 1   1.00000     0.00000
 Structure written by MMmdl.
 43 44  0  0  0  0  0  0  0  0  2 V2000
  148.3515  129.2065  152.9748 C   0  0  0  0  0  0  0  0  0  0  0  0
  147.3744  130.3922  152.8226 C   0  0  2  0  0  0  0  0  0  0  0  0
  146.4649  130.1172  151.6037 C   0  0  0  0  0  0  0  0  0  0  0  0
  145.4585  131.2449  151.3665 C   0  0  0  0  0  0  0  0  0  0  0  0
  146.2105  132.5665  151.2177 C   0  0  0  0  0  0  0  0  0  0  0  0
  147.0908  132.8237  152.4482 C   0  0  0  0  0  0  0  0  0  0  0  0
  148.0647  131.7184  152.6858 N   0  3  1  0  0  0  0  0  0  0  0  0
  148.9936  132.0421  153.8070 C   0  0  0  0  0  0  0  0  0  0  0  0
  149.8627  133.2877  153.5328 C   0  0  0  0  0  0  0  0  0  0  0  0
  149.4396  134.4167  154.3528 N   0  0  0  0  0  0  0  0  0  0  0  0
  150.2622  135.1866  155.0832 C   0  0  0  0  0  0  0  0  0  0  0  0
  151.4835  135.0279  155.1033 O   0  0  0  0  0  0  0  0  0  0  0  0
  149.5967  136.2890  155.9230 C   0  0  2  0  0  0  0  0  0  0  0  0
  148.0901  136.4406  155.6299 C   0  0  0  0  0  0  0  0  0  0  0  0
  150.3132  137.5480  155.7584 N   0  0  0  0  0  0  0  0  0  0  0  0
  150.3260  138.4009  154.7317 C   0  0  0  0  0  0  0  0  0  0  0  0
  151.0603  139.4845  154.9405 N   0  0  0  0  0  0  0  0  0  0  0  0
  151.5017  139.2208  156.2061 C   0  0  0  0  0  0  0  0  0  0  0  0
  151.0746  138.0800  156.7474 N   0  0  0  0  0  0  0  0  0  0  0  0
  147.8261  128.2555  152.8817 H   0  0  0  0  0  0  0  0  0  0  0  0
  148.8343  129.1832  153.9509 H   0  0  0  0  0  0  0  0  0  0  0  0
  149.1268  129.2269  152.2081 H   0  0  0  0  0  0  0  0  0  0  0  0
  146.7466  130.4309  153.7144 H   0  0  0  0  0  0  0  0  0  0  0  0
  147.0769  129.9862  150.7099 H   0  0  0  0  0  0  0  0  0  0  0  0
  145.9243  129.1801  151.7436 H   0  0  0  0  0  0  0  0  0  0  0  0
  144.8667  131.0429  150.4731 H   0  0  0  0  0  0  0  0  0  0  0  0
  144.7590  131.3036  152.2015 H   0  0  0  0  0  0  0  0  0  0  0  0
  146.8281  132.5448  150.3187 H   0  0  0  0  0  0  0  0  0  0  0  0
  145.5015  133.3849  151.0885 H   0  0  0  0  0  0  0  0  0  0  0  0
  147.6078  133.7687  152.2934 H   0  0  0  0  0  0  0  0  0  0  0  0
  146.4642  132.9515  153.3324 H   0  0  0  0  0  0  0  0  0  0  0  0
  148.4265  132.1640  154.7310 H   0  0  0  0  0  0  0  0  0  0  0  0
  149.6813  131.2195  153.9824 H   0  0  0  0  0  0  0  0  0  0  0  0
  150.9166  133.0681  153.7129 H   0  0  0  0  0  0  0  0  0  0  0  0
  149.7832  133.6083  152.4953 H   0  0  0  0  0  0  0  0  0  0  0  0
  148.4496  134.6142  154.3855 H   0  0  0  0  0  0  0  0  0  0  0  0
  149.6937  135.9983  156.9705 H   0  0  0  0  0  0  0  0  0  0  0  0
  147.5587  135.5045  155.8053 H   0  0  0  0  0  0  0  0  0  0  0  0
  147.9008  136.7398  154.5982 H   0  0  0  0  0  0  0  0  0  0  0  0
  147.6428  137.1948  156.2781 H   0  0  0  0  0  0  0  0  0  0  0  0
  149.7821  138.2288  153.8144 H   0  0  0  0  0  0  0  0  0  0  0  0
  152.1507  139.8934  156.7474 H   0  0  0  0  0  0  0  0  0  0  0  0
  148.6358  131.6482  151.8557 H   0  0  0  0  0  0  0  0  0  0  0  0
  1  2  1  0  0  0  0
  1 20  1  0  0  0  0
  1 21  1  0  0  0  0
  1 22  1  0  0  0  0
  2  7  1  0  0  0  0
  2  3  1  0  0  0  0
  2 23  1  0  0  0  0
  3  4  1  0  0  0  0
  3 24  1  0  0  0  0
  3 25  1  0  0  0  0
  4  5  1  0  0  0  0
  4 26  1  0  0  0  0
  4 27  1  0  0  0  0
  5  6  1  0  0  0  0
  5 28  1  0  0  0  0
  5 29  1  0  0  0  0
  6  7  1  0  0  0  0
  6 30  1  0  0  0  0
  6 31  1  0  0  0  0
  7  8  1  0  0  0  0
  7 43  1  0  0  0  0
  8  9  1  0  0  0  0
  8 32  1  0  0  0  0
  8 33  1  0  0  0  0
  9 10  1  0  0  0  0
  9 34  1  0  0  0  0
  9 35  1  0  0  0  0
 10 11  1  0  0  0  0
 10 36  1  0  0  0  0
 11 12  2  0  0  0  0
 11 13  1  0  0  0  0
 13 14  1  0  0  0  0
 13 15  1  0  0  0  0
 13 37  1  0  0  0  0
 14 38  1  0  0  0  0
 14 39  1  0  0  0  0
 14 40  1  0  0  0  0
 15 19  1  0  0  0  0
 15 16  1  0  0  0  0
 16 17  2  0  0  0  0
 16 41  1  0  0  0  0
 17 18  1  0  0  0  0
 18 19  2  0  0  0  0
 18 42  1  0  0  0  0
M  CHG  1   7   1
M  END
> <s_m_source_file>
AV-unprocessed.smi

> <i_m_source_file_index>
1893

> <i_lp_mmshare_version>
43012

> <i_f3d_flags>
0

> <s_epik_input>
W0NIM11bQ0BASF0xW0NIMl1bQ0gyXVtDSDJdW0NIMl1OMVtDSDJdW0NIMl1bTkhdQyg9TylbQ0BIXShbQ0gzXSluMltjSF1uW2NIXW4y

> <s_epik_cmdline>
J2VwaWtfcHl0aG9uJywgJy1waCcsICc3LjAnLCAnLXRuJywgJzgnLCAnLW1hJywgJzIwMCcsICctbWV0YWxfYmluZGluZycsICctaW1hZScsICc8aW5maWxlLm1hZT4nLCAnLW9tYWUnLCAnPG91dGZpbGUubWFlPic=

> <r_lp_tautomer_probability>
1

> <r_epik_Ionization_Penalty>
0.00266409

> <r_epik_Ionization_Penalty_Charging>
0.00265606

> <r_epik_Ionization_Penalty_Neutral>
8.02794e-06

> <r_epik_State_Penalty>
0.00184955

> <r_epik_Charging_Adjusted_Penalty>
0.00450561

> <i_epik_Tot_Q>
1

> <i_epik_Tot_abs_Q>
1

> <r_epik_Metal_State_Penalty>
-0

> <b_epik_Metal_Only>
0

> <s_lp_Force_Field>
OPLS_2005

> <r_lp_Energy>
24.7489

> <b_lp_Chiralities_Consistent>
1

> <s_lp_Variant>
AV-unprocessed.smi:1893-1

> <Gold.Version>
5.8.1

> <Gold.Id.Protein>
6NUR|6NUR_protein|mol2

> <Gold.PLP.Fitness>
43.8202

> <Gold.PLP.PLP>
-31.1132

> <Gold.PLP.part.hbond>
-4.0000

> <Gold.PLP.part.metal>
0.0000

> <Gold.PLP.part.buried>
-0.7165

> <Gold.PLP.part.nonpolar>
-24.3111

> <Gold.PLP.part.repulsive>
0.2964

> <Gold.PLP.ligand.clash>
0.0916

> <Gold.PLP.ligand.torsion>
0.8299

> <Gold.PLP.Chemscore.Hbond>
3.0000

> <Gold.PLP.Chemscore.CHOScore>
1.7763

> <Gold.PLP.Chemscore.Metal>
0.0000

> <Gold.Chemscore.Hbonds>
donor molecule, donor type, donor heavy atom, donor atom, acceptor molecule, acceptor atom, score
      L1  H     7    43       P1 10747  1.00
      P1  H  7989  7998       L1    17  0.88
      P1  H 10752 10763       L1    12  0.82
      L1  C    16    41       P1  7948  0.13

> <Gold.PLP.Chemscore.Internal.Correction>
0.1297

> <Gold.Rescore>
     Score         DG    S(hbond)    S(metal)    S(lipo)     H(rot)  DE(clash)    DE(int)     intcor
     14.48     -15.64       2.82        0.00      61.73       2.54       0.15       1.01       ----

> <Gold.Chemscore.Fitness>
14.4845

> <Gold.Chemscore.DG>
-15.6408

> <Gold.Chemscore.ZeroCoef>
-5.4800

> <Gold.Chemscore.Hbond>
2.8249

> <Gold.Chemscore.Metal>
0.0000

> <Gold.Chemscore.Lipo>
61.7285

> <Gold.Chemscore.Internal_Hbond>
0.0000

> <Gold.Chemscore.DEClash>
0.1454

> <Gold.Chemscore.DEInternal>
1.0109

> <Gold.Chemscore.Rot>
2.5377

> <Gold.Chemscore.Internal.Correction>
   9.000000E+99

> <Gold.Chemscore.Hbonds>
donor molecule, donor type, donor heavy atom, donor atom, acceptor molecule, acceptor atom, score
      L1  H     7    43       P1 10747  0.93
      P1  H  7989  7998       L1    17  0.85
      P1  H 10752 10763       L1    12  0.80

> <Gold.Chemscore.Hbond.Weighted>
-9.4351

> <Gold.Chemscore.Metal.Weighted>
-0.0000

> <Gold.Chemscore.Lipo.Weighted>
-7.2222

> <Gold.Chemscore.Internal_Hbond.Weighted>
0.0000

> <Gold.Chemscore.DEClash.Weighted>
0.1454

> <Gold.Chemscore.DEInternal.Weighted>
1.0109

> <Gold.Chemscore.Rot.Weighted>
6.4966

> <Gold.Chemscore.Internal.Correction.Weighted>
   9.000000E+99

> <Gold.Protein.RotatedTorsions>
[ 6907 6896 6895 6894 ] final  -99.71 input  -60.11 | X-H torsion
[ 7974 7965 7964 7962 ] final   72.34 input  175.53 | X-H torsion
[ 8008 7997 7996 7995 ] final  105.65 input   59.86 | X-H torsion
[ 10167 10162 10161 10158 ] final   83.28 input  -65.29 | X-H torsion
[ 10718 10713 10712 10709 ] final -114.18 input   66.30 | X-H torsion
[ 10763 10752 10751 10750 ] final   70.04 input  -60.55 | X-H torsion
[ 11005 11000 10999 10996 ] final -124.77 input  -57.11 | X-H torsion

> <Gold.Protein.ActiveResidues>
 VAL166  LYS551  ARG553  GLY616  TRP617  ASP618  TYR619  PRO620  LYS621  CYS622 
 ASP623  PHE694  ASN695  SER759  ASP760  ASP761  ALA762  ILE779  LEU786  VAL792 
 PHE793  MET794  SER795  GLU796  ALA797  LYS798  CYS799  TRP800  GLU811  SER814 

> <Gold.Protein.RotatedAtoms>
  150.7089  134.0999  159.3961 H   0  0  0  0  0  0  0  0  0  0  0  0  # atno 6907 bound_to 6896
  151.8985  135.0386  160.0513 H   0  0  0  0  0  0  0  0  0  0  0  0  # atno 6908 bound_to 6896
  152.2434  133.5118  159.5320 H   0  0  0  0  0  0  0  0  0  0  0  0  # atno 6909 bound_to 6896
  145.7546  139.2774  143.1411 H   0  0  0  0  0  0  0  0  0  0  0  0  # atno 7974 bound_to 7965
  156.1677  140.3126  155.8918 H   0  0  0  0  0  0  0  0  0  0  0  0  # atno 8008 bound_to 7997
  155.3651  140.0478  157.3063 H   0  0  0  0  0  0  0  0  0  0  0  0  # atno 8009 bound_to 7997
  154.5209  140.2198  155.8988 H   0  0  0  0  0  0  0  0  0  0  0  0  # atno 8010 bound_to 7997
  139.9200  144.6218  150.8449 H   0  0  0  0  0  0  0  0  0  0  0  0  # atno 10167 bound_to 10162
  156.0814  130.6013  150.8741 H   0  0  0  0  0  0  0  0  0  0  0  0  # atno 10718 bound_to 10713
  153.0320  135.5188  154.7381 H   0  0  0  0  0  0  0  0  0  0  0  0  # atno 10763 bound_to 10752
  154.6388  135.2909  155.0130 H   0  0  0  0  0  0  0  0  0  0  0  0  # atno 10764 bound_to 10752
  154.1055  135.6630  153.4928 H   0  0  0  0  0  0  0  0  0  0  0  0  # atno 10765 bound_to 10752
  140.9815  134.0667  157.3759 H   0  0  0  0  0  0  0  0  0  0  0  0  # atno 11005 bound_to 11000
  146.0323  140.8246  142.9870 LP  0  0  0  0  0  0  0  0  0  0  0  0  # atno 17320 bound_to 7965
  144.6842  140.2787  143.7295 LP  0  0  0  0  0  0  0  0  0  0  0  0  # atno 17321 bound_to 7965
  140.7664  143.3303  151.2424 LP  0  0  0  0  0  0  0  0  0  0  0  0  # atno 17342 bound_to 10162
  139.6869  143.9758  152.2839 LP  0  0  0  0  0  0  0  0  0  0  0  0  # atno 17343 bound_to 10162
  157.5931  131.0944  150.9085 LP  0  0  0  0  0  0  0  0  0  0  0  0  # atno 17370 bound_to 10713
  156.9257  130.5331  149.5279 LP  0  0  0  0  0  0  0  0  0  0  0  0  # atno 17371 bound_to 10713
  139.8952  135.0140  156.6990 LP  0  0  0  0  0  0  0  0  0  0  0  0  # atno 17394 bound_to 11000
  140.7179  133.9166  155.8127 LP  0  0  0  0  0  0  0  0  0  0  0  0  # atno 17395 bound_to 11000

$$$$
