AV-unprocessed.smi:123|AV-procd|sdf|1145|dock8
  -GOLD-   2262018273D 1   1.00000     0.00000
 Structure written by MMmdl.
 43 45  0  0  0  0  0  0  0  0  1 V2000
  150.4913  142.0570  157.7824 C   0  0  0  0  0  0  0  0  0  0  0  0
  151.8273  141.5736  158.3764 C   0  0  2  0  0  0  0  0  0  0  0  0
  151.8735  140.1131  158.4630 N   0  0  0  0  0  0  0  0  0  0  0  0
  152.4482  139.2735  157.5852 C   0  0  0  0  0  0  0  0  0  0  0  0
  153.0388  139.6518  156.5720 O   0  0  0  0  0  0  0  0  0  0  0  0
  152.3262  137.7784  157.9177 C   0  0  0  0  0  0  0  0  0  0  0  0
  153.2791  137.3270  158.9551 N   0  0  0  0  0  0  0  0  0  0  0  0
  154.2142  136.3141  158.6265 C   0  0  0  0  0  0  0  0  0  0  0  0
  154.2556  135.8248  157.4966 O   0  0  0  0  0  0  0  0  0  0  0  0
  155.0970  135.8966  159.7098 C   0  0  0  0  0  0  0  0  0  0  0  0
  156.0125  134.9377  159.4902 F   0  0  0  0  0  0  0  0  0  0  0  0
  155.0065  136.4551  160.9343 C   0  0  0  0  0  0  0  0  0  0  0  0
  154.0895  137.4441  161.2405 N   0  0  0  0  0  0  0  0  0  0  0  0
  153.9999  138.0367  162.6299 C   0  0  1  0  0  0  0  0  0  0  0  0
  153.6402  136.9483  163.6471 C   0  0  0  0  0  0  0  0  0  0  0  0
  155.0071  136.4979  164.1139 C   0  0  0  0  0  0  0  0  0  0  0  0
  155.7884  137.8068  164.0838 C   0  0  0  0  0  0  0  0  0  0  0  0
  155.2498  138.5503  162.9923 O   0  0  0  0  0  0  0  0  0  0  0  0
  153.1915  137.8947  160.2487 C   0  0  0  0  0  0  0  0  0  0  0  0
  152.3452  138.7529  160.5092 O   0  0  0  0  0  0  0  0  0  0  0  0
  152.1881  142.2350  159.6748 C   0  0  0  0  0  0  0  0  0  0  0  0
  153.1934  142.0560  160.5866 C   0  0  0  0  0  0  0  0  0  0  0  0
  152.9778  143.0107  161.6186 C   0  0  0  0  0  0  0  0  0  0  0  0
  151.8527  143.6989  161.2651 C   0  0  0  0  0  0  0  0  0  0  0  0
  151.3573  143.2366  160.0854 O   0  0  0  0  0  0  0  0  0  0  0  0
  150.5161  143.1303  157.5924 H   0  0  0  0  0  0  0  0  0  0  0  0
  149.6541  141.8618  158.4534 H   0  0  0  0  0  0  0  0  0  0  0  0
  150.2804  141.5617  156.8341 H   0  0  0  0  0  0  0  0  0  0  0  0
  152.6025  141.8391  157.6569 H   0  0  0  0  0  0  0  0  0  0  0  0
  151.4124  139.7016  159.2615 H   0  0  0  0  0  0  0  0  0  0  0  0
  151.2958  137.5738  158.2123 H   0  0  0  0  0  0  0  0  0  0  0  0
  152.4565  137.2058  156.9977 H   0  0  0  0  0  0  0  0  0  0  0  0
  155.6811  136.0994  161.6984 H   0  0  0  0  0  0  0  0  0  0  0  0
  153.2718  138.8468  162.5672 H   0  0  0  0  0  0  0  0  0  0  0  0
  153.0879  137.4076  164.4679 H   0  0  0  0  0  0  0  0  0  0  0  0
  153.0326  136.1536  163.2127 H   0  0  0  0  0  0  0  0  0  0  0  0
  154.9914  136.0325  165.0996 H   0  0  0  0  0  0  0  0  0  0  0  0
  155.4320  135.7852  163.4060 H   0  0  0  0  0  0  0  0  0  0  0  0
  155.6206  138.3684  165.0036 H   0  0  0  0  0  0  0  0  0  0  0  0
  156.8620  137.6530  163.9714 H   0  0  0  0  0  0  0  0  0  0  0  0
  153.9906  141.3307  160.5171 H   0  0  0  0  0  0  0  0  0  0  0  0
  153.5701  143.1726  162.5071 H   0  0  0  0  0  0  0  0  0  0  0  0
  151.2945  144.5067  161.7151 H   0  0  0  0  0  0  0  0  0  0  0  0
  1  2  1  0  0  0  0
  1 26  1  0  0  0  0
  1 27  1  0  0  0  0
  1 28  1  0  0  0  0
  2  3  1  0  0  0  0
  2 21  1  0  0  0  0
  2 29  1  0  0  0  0
  3  4  1  0  0  0  0
  3 30  1  0  0  0  0
  4  5  2  0  0  0  0
  4  6  1  0  0  0  0
  6  7  1  0  0  0  0
  6 31  1  0  0  0  0
  6 32  1  0  0  0  0
  7 19  1  0  0  0  0
  7  8  1  0  0  0  0
  8  9  2  0  0  0  0
  8 10  1  0  0  0  0
 10 11  1  0  0  0  0
 10 12  2  0  0  0  0
 12 13  1  0  0  0  0
 12 33  1  0  0  0  0
 13 14  1  0  0  0  0
 13 19  1  0  0  0  0
 14 18  1  0  0  0  0
 14 15  1  0  0  0  0
 14 34  1  0  0  0  0
 15 16  1  0  0  0  0
 15 35  1  0  0  0  0
 15 36  1  0  0  0  0
 16 17  1  0  0  0  0
 16 37  1  0  0  0  0
 16 38  1  0  0  0  0
 17 18  1  0  0  0  0
 17 39  1  0  0  0  0
 17 40  1  0  0  0  0
 19 20  2  0  0  0  0
 21 25  1  0  0  0  0
 21 22  2  0  0  0  0
 22 23  1  0  0  0  0
 22 41  1  0  0  0  0
 23 24  2  0  0  0  0
 23 42  1  0  0  0  0
 24 25  1  0  0  0  0
 24 43  1  0  0  0  0
M  END
> <s_m_source_file>
AV-unprocessed.smi

> <i_m_source_file_index>
123

> <i_lp_mmshare_version>
43012

> <i_f3d_flags>
0

> <s_epik_input>
bzFbY0hdW2NIXVtjSF1jMVtDQEhdKFtDSDNdKVtOSF1DKD1PKVtDSDJdbjJjKD1PKWMoRilbY0hdbihjMj1PKVtDQEBIXTNbQ0gyXVtDSDJdW0NIMl1PMw==

> <s_epik_cmdline>
J2VwaWtfcHl0aG9uJywgJy1waCcsICc3LjAnLCAnLXRuJywgJzgnLCAnLW1hJywgJzIwMCcsICctbWV0YWxfYmluZGluZycsICctaW1hZScsICc8aW5maWxlLm1hZT4nLCAnLW9tYWUnLCAnPG91dGZpbGUubWFlPic=

> <r_lp_tautomer_probability>
1

> <r_epik_Ionization_Penalty>
2.31906e-08

> <r_epik_Ionization_Penalty_Charging>
3.85846e-09

> <r_epik_Ionization_Penalty_Neutral>
1.93321e-08

> <r_epik_State_Penalty>
-0

> <r_epik_Charging_Adjusted_Penalty>
3.85846e-09

> <i_epik_Tot_Q>
0

> <i_epik_Tot_abs_Q>
0

> <r_epik_Metal_State_Penalty>
-0

> <b_epik_Metal_Only>
0

> <s_epik_Chemistry_Notes>
This compound contains an acetal/aminal-like group ( X-CH(R)-Y where X, Y are N, S, or O) that may be acid/base labile, releasing an aldehyde.

> <s_lp_Force_Field>
OPLS_2005

> <r_lp_Energy>
21.1126

> <b_lp_Chiralities_Consistent>
1

> <s_lp_Variant>
AV-unprocessed.smi:123-3

> <Gold.Version>
5.8.1

> <Gold.Id.Protein>
6NUR|6NUR_protein|mol2

> <Gold.PLP.Fitness>
42.3977

> <Gold.PLP.PLP>
-37.6885

> <Gold.PLP.part.hbond>
-2.6763

> <Gold.PLP.part.metal>
0.0000

> <Gold.PLP.part.buried>
-1.7769

> <Gold.PLP.part.nonpolar>
-32.0152

> <Gold.PLP.part.repulsive>
0.1801

> <Gold.PLP.ligand.clash>
0.0000

> <Gold.PLP.ligand.torsion>
0.7060

> <Gold.PLP.Chemscore.Hbond>
2.0000

> <Gold.PLP.Chemscore.CHOScore>
0.0000

> <Gold.PLP.Chemscore.Metal>
0.0000

> <Gold.Chemscore.Hbonds>
donor molecule, donor type, donor heavy atom, donor atom, acceptor molecule, acceptor atom, score
      P1  H  7997  8010       L1     5  0.68
      P1  H 10752 10764       L1     9  0.63

> <Gold.PLP.Chemscore.Internal.Correction>
0.1211

> <Gold.Rescore>
     Score         DG    S(hbond)    S(metal)    S(lipo)     H(rot)  DE(clash)    DE(int)     intcor
     13.26     -16.46       1.98        0.00      86.19       2.23       1.31       1.90       ----

> <Gold.Chemscore.Fitness>
13.2587

> <Gold.Chemscore.DG>
-16.4608

> <Gold.Chemscore.ZeroCoef>
-5.4800

> <Gold.Chemscore.Hbond>
1.9813

> <Gold.Chemscore.Metal>
0.0000

> <Gold.Chemscore.Lipo>
86.1888

> <Gold.Chemscore.Internal_Hbond>
0.0000

> <Gold.Chemscore.DEClash>
1.3063

> <Gold.Chemscore.DEInternal>
1.8958

> <Gold.Chemscore.Rot>
2.2347

> <Gold.Chemscore.Internal.Correction>
   9.000000E+99

> <Gold.Chemscore.Hbonds>
donor molecule, donor type, donor heavy atom, donor atom, acceptor molecule, acceptor atom, score
      P1  H  7997  8010       L1     5  0.67
      P1  H 10752 10764       L1     9  0.63

> <Gold.Chemscore.Hbond.Weighted>
-6.6175

> <Gold.Chemscore.Metal.Weighted>
-0.0000

> <Gold.Chemscore.Lipo.Weighted>
-10.0841

> <Gold.Chemscore.Internal_Hbond.Weighted>
0.0000

> <Gold.Chemscore.DEClash.Weighted>
1.3063

> <Gold.Chemscore.DEInternal.Weighted>
1.8958

> <Gold.Chemscore.Rot.Weighted>
5.7208

> <Gold.Chemscore.Internal.Correction.Weighted>
   9.000000E+99

> <Gold.Protein.RotatedTorsions>
[ 6907 6896 6895 6894 ] final  104.89 input  -60.11 | X-H torsion
[ 7974 7965 7964 7962 ] final   42.94 input  175.53 | X-H torsion
[ 8008 7997 7996 7995 ] final   78.55 input   59.86 | X-H torsion
[ 10167 10162 10161 10158 ] final  -14.78 input  -65.29 | X-H torsion
[ 10718 10713 10712 10709 ] final -129.14 input   66.30 | X-H torsion
[ 10763 10752 10751 10750 ] final   34.26 input  -60.55 | X-H torsion
[ 11005 11000 10999 10996 ] final  -26.86 input  -57.11 | X-H torsion

> <Gold.Protein.ActiveResidues>
 VAL166  LYS551  ARG553  GLY616  TRP617  ASP618  TYR619  PRO620  LYS621  CYS622 
 ASP623  PHE694  ASN695  SER759  ASP760  ASP761  ALA762  ILE779  LEU786  VAL792 
 PHE793  MET794  SER795  GLU796  ALA797  LYS798  CYS799  TRP800  GLU811  SER814 

> <Gold.Protein.RotatedAtoms>
  152.5249  133.9609  159.7716 H   0  0  0  0  0  0  0  0  0  0  0  0  # atno 6907 bound_to 6896
  150.9900  133.6151  159.2717 H   0  0  0  0  0  0  0  0  0  0  0  0  # atno 6908 bound_to 6896
  151.3297  135.0845  159.9387 H   0  0  0  0  0  0  0  0  0  0  0  0  # atno 6909 bound_to 6896
  146.0698  139.5243  142.9605 H   0  0  0  0  0  0  0  0  0  0  0  0  # atno 7974 bound_to 7965
  155.8573  140.3455  155.5733 H   0  0  0  0  0  0  0  0  0  0  0  0  # atno 8008 bound_to 7997
  155.7972  140.0880  157.1996 H   0  0  0  0  0  0  0  0  0  0  0  0  # atno 8009 bound_to 7997
  154.4010  140.1472  156.3219 H   0  0  0  0  0  0  0  0  0  0  0  0  # atno 8010 bound_to 7997
  140.7207  143.5286  150.9547 H   0  0  0  0  0  0  0  0  0  0  0  0  # atno 10167 bound_to 10162
  156.2018  130.6862  151.0547 H   0  0  0  0  0  0  0  0  0  0  0  0  # atno 10718 bound_to 10713
  153.0173  135.6365  154.1640 H   0  0  0  0  0  0  0  0  0  0  0  0  # atno 10763 bound_to 10752
  154.1378  135.2836  155.3170 H   0  0  0  0  0  0  0  0  0  0  0  0  # atno 10764 bound_to 10752
  154.6147  135.5545  153.7572 H   0  0  0  0  0  0  0  0  0  0  0  0  # atno 10765 bound_to 10752
  140.9067  133.7488  156.0615 H   0  0  0  0  0  0  0  0  0  0  0  0  # atno 11005 bound_to 11000
  145.6412  141.0284  143.1811 LP  0  0  0  0  0  0  0  0  0  0  0  0  # atno 17320 bound_to 7965
  144.7225  139.7984  143.7377 LP  0  0  0  0  0  0  0  0  0  0  0  0  # atno 17321 bound_to 7965
  139.9006  143.6841  152.3132 LP  0  0  0  0  0  0  0  0  0  0  0  0  # atno 17342 bound_to 10162
  139.7189  144.7606  151.0988 LP  0  0  0  0  0  0  0  0  0  0  0  0  # atno 17343 bound_to 10162
  157.6990  131.0783  150.6881 LP  0  0  0  0  0  0  0  0  0  0  0  0  # atno 17370 bound_to 10713
  156.6938  130.4603  149.5592 LP  0  0  0  0  0  0  0  0  0  0  0  0  # atno 17371 bound_to 10713
  140.8162  134.3342  157.5396 LP  0  0  0  0  0  0  0  0  0  0  0  0  # atno 17394 bound_to 11000
  139.8750  134.9283  156.3447 LP  0  0  0  0  0  0  0  0  0  0  0  0  # atno 17395 bound_to 11000

$$$$
