AV-unprocessed.smi:701|AV-procd|sdf|3412|dock9
  -GOLD-   22720 0393D 1   1.00000     0.00000
 Structure written by MMmdl.
 48 50  0  0  0  0  0  0  0  0  2 V2000
  140.8426  136.6845  153.3320 C   0  0  0  0  0  0  0  0  0  0  0  0
  141.7013  135.4282  153.4914 C   0  0  0  0  0  0  0  0  0  0  0  0
  143.0106  135.7098  153.0270 O   0  0  0  0  0  0  0  0  0  0  0  0
  143.9420  134.6749  153.3175 C   0  0  2  0  0  0  0  0  0  0  0  0
  144.8058  135.0039  154.5419 C   0  0  0  0  0  0  0  0  0  0  0  0
  145.7724  135.6773  153.5669 C   0  0  1  0  0  0  0  0  0  0  0  0
  147.1672  135.4381  153.9114 N   0  0  0  0  0  0  0  0  0  0  0  0
  147.7057  135.6298  155.1260 C   0  0  0  0  0  0  0  0  0  0  0  0
  147.0420  135.9789  156.1015 O   0  0  0  0  0  0  0  0  0  0  0  0
  149.2210  135.4145  155.2847 C   0  0  0  0  0  0  0  0  0  0  0  0
  150.0176  136.6553  155.3109 N   0  0  0  0  0  0  0  0  0  0  0  0
  149.5220  137.7633  154.6013 C   0  0  0  0  0  0  0  0  0  0  0  0
  150.1674  138.9450  154.5877 C   0  0  0  0  0  0  0  0  0  0  0  0
  151.4131  139.0597  155.3359 C   0  0  0  0  0  0  0  0  0  0  0  0
  152.0136  140.1322  155.3384 O   0  0  0  0  0  0  0  0  0  0  0  0
  151.8543  137.9557  156.0067 N   0  5  0  0  0  0  0  0  0  0  0  0
  151.1872  136.7604  156.0123 C   0  0  0  0  0  0  0  0  0  0  0  0
  151.5976  135.7801  156.6337 O   0  0  0  0  0  0  0  0  0  0  0  0
  145.2225  134.7597  152.4434 C   0  0  0  0  0  0  0  0  0  0  0  0
  145.0785  135.4178  151.0597 C   0  0  0  0  0  0  0  0  0  0  0  0
  144.2985  134.5427  150.0648 C   0  0  0  0  0  0  0  0  0  0  0  0
  144.9731  133.1765  149.8852 C   0  0  0  0  0  0  0  0  0  0  0  0
  145.2041  132.4874  151.2363 C   0  0  0  0  0  0  0  0  0  0  0  0
  145.9489  133.4122  152.2149 C   0  0  0  0  0  0  0  0  0  0  0  0
  139.8243  136.5075  153.6787 H   0  0  0  0  0  0  0  0  0  0  0  0
  140.7922  136.9936  152.2877 H   0  0  0  0  0  0  0  0  0  0  0  0
  141.2534  137.5138  153.9084 H   0  0  0  0  0  0  0  0  0  0  0  0
  141.7225  135.1231  154.5383 H   0  0  0  0  0  0  0  0  0  0  0  0
  141.2695  134.6073  152.9172 H   0  0  0  0  0  0  0  0  0  0  0  0
  143.4895  133.6824  153.3411 H   0  0  0  0  0  0  0  0  0  0  0  0
  144.3533  135.6799  155.2675 H   0  0  0  0  0  0  0  0  0  0  0  0
  145.2139  134.1136  155.0239 H   0  0  0  0  0  0  0  0  0  0  0  0
  145.5221  136.7301  153.4163 H   0  0  0  0  0  0  0  0  0  0  0  0
  147.7832  135.1555  153.1623 H   0  0  0  0  0  0  0  0  0  0  0  0
  149.3965  134.8373  156.1941 H   0  0  0  0  0  0  0  0  0  0  0  0
  149.5565  134.7694  154.4718 H   0  0  0  0  0  0  0  0  0  0  0  0
  148.5906  137.5965  154.0801 H   0  0  0  0  0  0  0  0  0  0  0  0
  149.7711  139.7875  154.0404 H   0  0  0  0  0  0  0  0  0  0  0  0
  144.5873  136.3876  151.1425 H   0  0  0  0  0  0  0  0  0  0  0  0
  146.0658  135.6323  150.6483 H   0  0  0  0  0  0  0  0  0  0  0  0
  143.2771  134.4048  150.4215 H   0  0  0  0  0  0  0  0  0  0  0  0
  144.2244  135.0490  149.1022 H   0  0  0  0  0  0  0  0  0  0  0  0
  144.3687  132.5406  149.2377 H   0  0  0  0  0  0  0  0  0  0  0  0
  145.9308  133.3108  149.3808 H   0  0  0  0  0  0  0  0  0  0  0  0
  144.2461  132.1904  151.6634 H   0  0  0  0  0  0  0  0  0  0  0  0
  145.7723  131.5683  151.0900 H   0  0  0  0  0  0  0  0  0  0  0  0
  146.9526  133.5900  151.8266 H   0  0  0  0  0  0  0  0  0  0  0  0
  146.0922  132.8820  153.1570 H   0  0  0  0  0  0  0  0  0  0  0  0
  1  2  1  0  0  0  0
  1 25  1  0  0  0  0
  1 26  1  0  0  0  0
  1 27  1  0  0  0  0
  2  3  1  0  0  0  0
  2 28  1  0  0  0  0
  2 29  1  0  0  0  0
  3  4  1  0  0  0  0
  4 19  1  0  0  0  0
  4  5  1  0  0  0  0
  4 30  1  0  0  0  0
  5  6  1  0  0  0  0
  5 31  1  0  0  0  0
  5 32  1  0  0  0  0
  6  7  1  0  0  0  0
  6 19  1  0  0  0  0
  6 33  1  0  0  0  0
  7  8  1  0  0  0  0
  7 34  1  0  0  0  0
  8  9  2  0  0  0  0
  8 10  1  0  0  0  0
 10 11  1  0  0  0  0
 10 35  1  0  0  0  0
 10 36  1  0  0  0  0
 11 17  1  0  0  0  0
 11 12  1  0  0  0  0
 12 13  2  0  0  0  0
 12 37  1  0  0  0  0
 13 14  1  0  0  0  0
 13 38  1  0  0  0  0
 14 15  2  0  0  0  0
 14 16  1  0  0  0  0
 16 17  1  0  0  0  0
 17 18  2  0  0  0  0
 19 24  1  0  0  0  0
 19 20  1  0  0  0  0
 20 21  1  0  0  0  0
 20 39  1  0  0  0  0
 20 40  1  0  0  0  0
 21 22  1  0  0  0  0
 21 41  1  0  0  0  0
 21 42  1  0  0  0  0
 22 23  1  0  0  0  0
 22 43  1  0  0  0  0
 22 44  1  0  0  0  0
 23 24  1  0  0  0  0
 23 45  1  0  0  0  0
 23 46  1  0  0  0  0
 24 47  1  0  0  0  0
 24 48  1  0  0  0  0
M  CHG  1  16  -1
M  END
> <s_m_source_file>
AV-unprocessed.smi

> <i_m_source_file_index>
701

> <i_lp_mmshare_version>
43012

> <i_f3d_flags>
0

> <s_epik_input>
W0NIMl0xW0NIMl1bQ0gyXVtDSDJdW0NIMl1DMTJbQ0BIXShPW0NIMl1bQ0gzXSlbQ0gyXVtDQEhdMltOSF1DKD1PKVtDSDJdbjNbY0hdW2NIXWMoPU8pW25IXWMzPU8=

> <s_epik_cmdline>
J2VwaWtfcHl0aG9uJywgJy1waCcsICc3LjAnLCAnLXRuJywgJzgnLCAnLW1hJywgJzIwMCcsICctbWV0YWxfYmluZGluZycsICctaW1hZScsICc8aW5maWxlLm1hZT4nLCAnLW9tYWUnLCAnPG91dGZpbGUubWFlPic=

> <r_lp_tautomer_probability>
0.999537

> <r_epik_Ionization_Penalty>
3.12423

> <r_epik_Ionization_Penalty_Charging>
2.92877e-08

> <r_epik_Ionization_Penalty_Neutral>
3.12423

> <r_epik_State_Penalty>
3.12332

> <r_epik_Charging_Adjusted_Penalty>
3.12332

> <i_epik_Tot_Q>
-1

> <i_epik_Tot_abs_Q>
1

> <r_epik_Metal_State_Penalty>
0.463873

> <b_epik_Metal_Only>
1

> <s_lp_Force_Field>
OPLS_2005

> <r_lp_Energy>
34.5124

> <b_lp_Chiralities_Consistent>
1

> <s_lp_Variant>
AV-unprocessed.smi:701-5

> <Gold.Version>
5.8.1

> <Gold.Id.Protein>
6NUR|6NUR_protein|mol2

> <Gold.PLP.Fitness>
39.5418

> <Gold.PLP.PLP>
-32.9514

> <Gold.PLP.part.hbond>
-2.9543

> <Gold.PLP.part.metal>
0.0000

> <Gold.PLP.part.buried>
-0.3621

> <Gold.PLP.part.nonpolar>
-28.9172

> <Gold.PLP.part.repulsive>
0.2122

> <Gold.PLP.ligand.clash>
0.0000

> <Gold.PLP.ligand.torsion>
1.2400

> <Gold.PLP.Chemscore.Hbond>
2.3100

> <Gold.PLP.Chemscore.CHOScore>
0.6000

> <Gold.PLP.Chemscore.Metal>
0.0000

> <Gold.Chemscore.Hbonds>
donor molecule, donor type, donor heavy atom, donor atom, acceptor molecule, acceptor atom, score
      L1  H     7    34       P1  7948  0.67
      P1  H  7989  7998       L1    15  0.78
      P1  H 10752 10764       L1    18  0.30
      L1  C    12    37       P1  7948  0.48

> <Gold.PLP.Chemscore.Internal.Correction>
0.3404

> <Gold.Rescore>
     Score         DG    S(hbond)    S(metal)    S(lipo)     H(rot)  DE(clash)    DE(int)     intcor
     11.99     -14.88       1.93        0.00      69.89       2.04       0.49       2.39       ----

> <Gold.Chemscore.Fitness>
11.9936

> <Gold.Chemscore.DG>
-14.8761

> <Gold.Chemscore.ZeroCoef>
-5.4800

> <Gold.Chemscore.Hbond>
1.9285

> <Gold.Chemscore.Metal>
0.0000

> <Gold.Chemscore.Lipo>
69.8884

> <Gold.Chemscore.Internal_Hbond>
0.0000

> <Gold.Chemscore.DEClash>
0.4917

> <Gold.Chemscore.DEInternal>
2.3908

> <Gold.Chemscore.Rot>
2.0399

> <Gold.Chemscore.Internal.Correction>
   9.000000E+99

> <Gold.Chemscore.Hbonds>
donor molecule, donor type, donor heavy atom, donor atom, acceptor molecule, acceptor atom, score
      L1  H     7    34       P1  7948  0.61
      P1  H  7989  7998       L1    15  0.33
      P1  H 10752 10764       L1    18  0.02

> <Gold.Chemscore.Hbond.Weighted>
-6.4413

> <Gold.Chemscore.Metal.Weighted>
-0.0000

> <Gold.Chemscore.Lipo.Weighted>
-8.1769

> <Gold.Chemscore.Internal_Hbond.Weighted>
0.0000

> <Gold.Chemscore.DEClash.Weighted>
0.4917

> <Gold.Chemscore.DEInternal.Weighted>
2.3908

> <Gold.Chemscore.Rot.Weighted>
5.2222

> <Gold.Chemscore.Internal.Correction.Weighted>
   9.000000E+99

> <Gold.Protein.RotatedTorsions>
[ 6907 6896 6895 6894 ] final  171.42 input  -60.11 | X-H torsion
[ 7974 7965 7964 7962 ] final  -57.51 input  175.53 | X-H torsion
[ 8008 7997 7996 7995 ] final  156.09 input   59.86 | X-H torsion
[ 10167 10162 10161 10158 ] final   25.58 input  -65.29 | X-H torsion
[ 10718 10713 10712 10709 ] final  -93.79 input   66.30 | X-H torsion
[ 10763 10752 10751 10750 ] final  -22.34 input  -60.55 | X-H torsion
[ 11005 11000 10999 10996 ] final  -41.90 input  -57.11 | X-H torsion

> <Gold.Protein.ActiveResidues>
 VAL166  LYS551  ARG553  GLY616  TRP617  ASP618  TYR619  PRO620  LYS621  CYS622 
 ASP623  PHE694  ASN695  SER759  ASP760  ASP761  ALA762  ILE779  LEU786  VAL792 
 PHE793  MET794  SER795  GLU796  ALA797  LYS798  CYS799  TRP800  GLU811  SER814 

> <Gold.Protein.RotatedAtoms>
  151.8004  133.3369  159.3525 H   0  0  0  0  0  0  0  0  0  0  0  0  # atno 6907 bound_to 6896
  150.7360  134.5758  159.5923 H   0  0  0  0  0  0  0  0  0  0  0  0  # atno 6908 bound_to 6896
  152.3147  134.7456  160.0379 H   0  0  0  0  0  0  0  0  0  0  0  0  # atno 6909 bound_to 6896
  145.8502  140.8357  142.9989 H   0  0  0  0  0  0  0  0  0  0  0  0  # atno 7974 bound_to 7965
  156.2442  140.1922  156.6902 H   0  0  0  0  0  0  0  0  0  0  0  0  # atno 8008 bound_to 7997
  154.6257  140.0602  156.9696 H   0  0  0  0  0  0  0  0  0  0  0  0  # atno 8009 bound_to 7997
  155.1790  140.3275  155.4381 H   0  0  0  0  0  0  0  0  0  0  0  0  # atno 8010 bound_to 7997
  140.5094  144.0185  150.6366 H   0  0  0  0  0  0  0  0  0  0  0  0  # atno 10167 bound_to 10162
  156.0018  130.5041  150.5829 H   0  0  0  0  0  0  0  0  0  0  0  0  # atno 10718 bound_to 10713
  153.6504  135.6981  153.5211 H   0  0  0  0  0  0  0  0  0  0  0  0  # atno 10763 bound_to 10752
  153.2711  135.4215  155.0987 H   0  0  0  0  0  0  0  0  0  0  0  0  # atno 10764 bound_to 10752
  154.8477  135.3578  154.6049 H   0  0  0  0  0  0  0  0  0  0  0  0  # atno 10765 bound_to 10752
  141.0278  133.6833  156.2521 H   0  0  0  0  0  0  0  0  0  0  0  0  # atno 11005 bound_to 11000
  144.6729  140.0942  143.7463 LP  0  0  0  0  0  0  0  0  0  0  0  0  # atno 17320 bound_to 7965
  145.9366  139.2641  143.1293 LP  0  0  0  0  0  0  0  0  0  0  0  0  # atno 17321 bound_to 7965
  140.3504  143.2967  152.0493 LP  0  0  0  0  0  0  0  0  0  0  0  0  # atno 17342 bound_to 10162
  139.4892  144.6378  151.6939 LP  0  0  0  0  0  0  0  0  0  0  0  0  # atno 17343 bound_to 10162
  157.3707  131.0765  151.1560 LP  0  0  0  0  0  0  0  0  0  0  0  0  # atno 17370 bound_to 10713
  157.2315  130.6527  149.5851 LP  0  0  0  0  0  0  0  0  0  0  0  0  # atno 17371 bound_to 10713
  140.6460  134.5116  157.5573 LP  0  0  0  0  0  0  0  0  0  0  0  0  # atno 17394 bound_to 11000
  139.9187  134.8192  156.1280 LP  0  0  0  0  0  0  0  0  0  0  0  0  # atno 17395 bound_to 11000

$$$$
