AV-unprocessed.smi:2305|AV-procd|sdf|9247|dock2
  -GOLD-   2272012463D 1   1.00000     0.00000
 Structure written by MMmdl.
 40 41  0  0  0  0  0  0  0  0  1 V2000
  153.1228  142.5901  161.8572 C   0  0  0  0  0  0  0  0  0  0  0  0
  152.6574  142.0047  160.5358 C   0  0  0  0  0  0  0  0  0  0  0  0
  151.4888  142.5602  160.0074 N   0  0  0  0  0  0  0  0  0  0  0  0
  151.0228  142.1312  158.8805 C   0  0  0  0  0  0  0  0  0  0  0  0
  151.6618  141.1091  158.1575 N   0  0  0  0  0  0  0  0  0  0  0  0
  151.0354  140.7097  156.8836 C   0  0  0  0  0  0  0  0  0  0  0  0
  149.9049  141.6644  156.4340 C   0  0  1  0  0  0  0  0  0  0  0  0
  150.5029  142.7378  155.7366 O   0  0  0  0  0  0  0  0  0  0  0  0
  148.8527  141.0012  155.5217 C   0  0  0  0  0  0  0  0  0  0  0  0
  147.5999  141.8440  155.3639 C   0  0  0  0  0  0  0  0  0  0  0  0
  147.2174  142.3093  154.0891 C   0  0  0  0  0  0  0  0  0  0  0  0
  146.0549  143.0897  153.9381 C   0  0  0  0  0  0  0  0  0  0  0  0
  145.2644  143.4162  155.0622 C   0  0  0  0  0  0  0  0  0  0  0  0
  144.0030  144.2550  154.9193 C   0  0  0  0  0  0  0  0  0  0  0  0
  142.9395  143.5003  155.1935 F   0  0  0  0  0  0  0  0  0  0  0  0
  144.0370  145.2766  155.7752 F   0  0  0  0  0  0  0  0  0  0  0  0
  143.8712  144.7458  153.6863 F   0  0  0  0  0  0  0  0  0  0  0  0
  145.6489  142.9456  156.3359 C   0  0  0  0  0  0  0  0  0  0  0  0
  146.8110  142.1646  156.4876 C   0  0  0  0  0  0  0  0  0  0  0  0
  152.7943  140.4986  158.6128 C   0  0  0  0  0  0  0  0  0  0  0  0
  153.3342  139.5856  157.9852 O   0  0  0  0  0  0  0  0  0  0  0  0
  153.3195  141.0060  159.8906 C   0  0  0  0  0  0  0  0  0  0  0  0
  154.5995  140.3669  160.4144 C   0  0  0  0  0  0  0  0  0  0  0  0
  153.1777  141.8145  162.6214 H   0  0  0  0  0  0  0  0  0  0  0  0
  152.4382  143.3605  162.2135 H   0  0  0  0  0  0  0  0  0  0  0  0
  154.1083  143.0433  161.7477 H   0  0  0  0  0  0  0  0  0  0  0  0
  150.1179  142.5373  158.4255 H   0  0  0  0  0  0  0  0  0  0  0  0
  151.8091  140.6758  156.1136 H   0  0  0  0  0  0  0  0  0  0  0  0
  150.6495  139.6891  156.9280 H   0  0  0  0  0  0  0  0  0  0  0  0
  149.4137  142.0759  157.3161 H   0  0  0  0  0  0  0  0  0  0  0  0
  149.8312  143.3692  155.5270 H   0  0  0  0  0  0  0  0  0  0  0  0
  149.2805  140.7697  154.5451 H   0  0  0  0  0  0  0  0  0  0  0  0
  148.5355  140.0479  155.9434 H   0  0  0  0  0  0  0  0  0  0  0  0
  147.8145  142.0659  153.2220 H   0  0  0  0  0  0  0  0  0  0  0  0
  145.7768  143.4330  152.9528 H   0  0  0  0  0  0  0  0  0  0  0  0
  145.0495  143.1835  157.2023 H   0  0  0  0  0  0  0  0  0  0  0  0
  147.0926  141.8108  157.4687 H   0  0  0  0  0  0  0  0  0  0  0  0
  155.4055  140.4922  159.6907 H   0  0  0  0  0  0  0  0  0  0  0  0
  154.4497  139.2984  160.5720 H   0  0  0  0  0  0  0  0  0  0  0  0
  154.9374  140.7933  161.3573 H   0  0  0  0  0  0  0  0  0  0  0  0
  1  2  1  0  0  0  0
  1 24  1  0  0  0  0
  1 25  1  0  0  0  0
  1 26  1  0  0  0  0
  2 22  2  0  0  0  0
  2  3  1  0  0  0  0
  3  4  2  0  0  0  0
  4  5  1  0  0  0  0
  4 27  1  0  0  0  0
  5  6  1  0  0  0  0
  5 20  1  0  0  0  0
  6  7  1  0  0  0  0
  6 28  1  0  0  0  0
  6 29  1  0  0  0  0
  7  8  1  0  0  0  0
  7  9  1  0  0  0  0
  7 30  1  0  0  0  0
  8 31  1  0  0  0  0
  9 10  1  0  0  0  0
  9 32  1  0  0  0  0
  9 33  1  0  0  0  0
 10 19  1  0  0  0  0
 10 11  2  0  0  0  0
 11 12  1  0  0  0  0
 11 34  1  0  0  0  0
 12 13  2  0  0  0  0
 12 35  1  0  0  0  0
 13 14  1  0  0  0  0
 13 18  1  0  0  0  0
 14 15  1  0  0  0  0
 14 16  1  0  0  0  0
 14 17  1  0  0  0  0
 18 19  2  0  0  0  0
 18 36  1  0  0  0  0
 19 37  1  0  0  0  0
 20 21  2  0  0  0  0
 20 22  1  0  0  0  0
 22 23  1  0  0  0  0
 23 38  1  0  0  0  0
 23 39  1  0  0  0  0
 23 40  1  0  0  0  0
M  END
> <s_m_source_file>
AV-unprocessed.smi

> <i_m_source_file_index>
2305

> <i_lp_mmshare_version>
43012

> <i_f3d_flags>
0

> <s_epik_input>
W0NIM11jMW5bY0hdbihjKD1PKWMxW0NIM10pW0NIMl1bQ0BIXShbT0hdKVtDSDJdYzJbY0hdW2NIXWMoQyhGKShGKUYpW2NIXVtjSF0y

> <s_epik_cmdline>
J2VwaWtfcHl0aG9uJywgJy1waCcsICc3LjAnLCAnLXRuJywgJzgnLCAnLW1hJywgJzIwMCcsICctbWV0YWxfYmluZGluZycsICctaW1hZScsICc8aW5maWxlLm1hZT4nLCAnLW9tYWUnLCAnPG91dGZpbGUubWFlPic=

> <r_lp_tautomer_probability>
1

> <r_epik_Ionization_Penalty>
8.92636e-05

> <r_epik_Ionization_Penalty_Charging>
8.63033e-08

> <r_epik_Ionization_Penalty_Neutral>
8.91773e-05

> <r_epik_State_Penalty>
-0

> <r_epik_Charging_Adjusted_Penalty>
8.63033e-08

> <i_epik_Tot_Q>
0

> <i_epik_Tot_abs_Q>
0

> <r_epik_Metal_State_Penalty>
-0

> <b_epik_Metal_Only>
0

> <s_lp_Force_Field>
OPLS_2005

> <r_lp_Energy>
18.7292

> <b_lp_Chiralities_Consistent>
1

> <s_lp_Variant>
AV-unprocessed.smi:2305-2

> <Gold.Version>
5.8.1

> <Gold.Id.Protein>
6NUR|6NUR_protein|mol2

> <Gold.PLP.Fitness>
48.3437

> <Gold.PLP.PLP>
-44.1610

> <Gold.PLP.part.hbond>
-2.7325

> <Gold.PLP.part.metal>
0.0000

> <Gold.PLP.part.buried>
-2.0622

> <Gold.PLP.part.nonpolar>
-38.3340

> <Gold.PLP.part.repulsive>
0.0158

> <Gold.PLP.ligand.clash>
0.7218

> <Gold.PLP.ligand.torsion>
0.6385

> <Gold.PLP.Chemscore.Hbond>
2.0000

> <Gold.PLP.Chemscore.CHOScore>
0.0000

> <Gold.PLP.Chemscore.Metal>
0.0000

> <Gold.Chemscore.Hbonds>
donor molecule, donor type, donor heavy atom, donor atom, acceptor molecule, acceptor atom, score
      L1  H     8    31       P1  8028  1.00
      P1  H  7997  8010       L1    21  1.00

> <Gold.PLP.Chemscore.Internal.Correction>
0.1816

> <Gold.Rescore>
     Score         DG    S(hbond)    S(metal)    S(lipo)     H(rot)  DE(clash)    DE(int)     intcor
     15.27     -16.38       1.99        0.00      88.21       2.37       0.53       0.58       ----

> <Gold.Chemscore.Fitness>
15.2651

> <Gold.Chemscore.DG>
-16.3774

> <Gold.Chemscore.ZeroCoef>
-5.4800

> <Gold.Chemscore.Hbond>
1.9878

> <Gold.Chemscore.Metal>
0.0000

> <Gold.Chemscore.Lipo>
88.2107

> <Gold.Chemscore.Internal_Hbond>
0.0000

> <Gold.Chemscore.DEClash>
0.5298

> <Gold.Chemscore.DEInternal>
0.5825

> <Gold.Chemscore.Rot>
2.3681

> <Gold.Chemscore.Internal.Correction>
   9.000000E+99

> <Gold.Chemscore.Hbonds>
donor molecule, donor type, donor heavy atom, donor atom, acceptor molecule, acceptor atom, score
      L1  H     8    31       P1  8028  0.99
      P1  H  7997  8010       L1    21  0.89

> <Gold.Chemscore.Hbond.Weighted>
-6.6392

> <Gold.Chemscore.Metal.Weighted>
-0.0000

> <Gold.Chemscore.Lipo.Weighted>
-10.3206

> <Gold.Chemscore.Internal_Hbond.Weighted>
0.0000

> <Gold.Chemscore.DEClash.Weighted>
0.5298

> <Gold.Chemscore.DEInternal.Weighted>
0.5825

> <Gold.Chemscore.Rot.Weighted>
6.0624

> <Gold.Chemscore.Internal.Correction.Weighted>
   9.000000E+99

> <Gold.Protein.RotatedTorsions>
[ 6907 6896 6895 6894 ] final   15.97 input  -60.11 | X-H torsion
[ 7974 7965 7964 7962 ] final   30.45 input  175.53 | X-H torsion
[ 8008 7997 7996 7995 ] final   22.60 input   59.86 | X-H torsion
[ 10167 10162 10161 10158 ] final  -96.04 input  -65.29 | X-H torsion
[ 10718 10713 10712 10709 ] final -131.21 input   66.30 | X-H torsion
[ 10763 10752 10751 10750 ] final -146.86 input  -60.55 | X-H torsion
[ 11005 11000 10999 10996 ] final   92.90 input  -57.11 | X-H torsion

> <Gold.Protein.ActiveResidues>
 VAL166  LYS551  ARG553  GLY616  TRP617  ASP618  TYR619  PRO620  LYS621  CYS622 
 ASP623  PHE694  ASN695  SER759  ASP760  ASP761  ALA762  ILE779  LEU786  VAL792 
 PHE793  MET794  SER795  GLU796  ALA797  LYS798  CYS799  TRP800  GLU811  SER814 

> <Gold.Protein.RotatedAtoms>
  151.8265  135.0635  160.0431 H   0  0  0  0  0  0  0  0  0  0  0  0  # atno 6907 bound_to 6896
  152.2912  133.5559  159.5567 H   0  0  0  0  0  0  0  0  0  0  0  0  # atno 6908 bound_to 6896
  150.7231  134.0342  159.3786 H   0  0  0  0  0  0  0  0  0  0  0  0  # atno 6909 bound_to 6896
  146.1611  139.6786  142.9033 H   0  0  0  0  0  0  0  0  0  0  0  0  # atno 7974 bound_to 7965
  154.9682  140.3086  155.5000 H   0  0  0  0  0  0  0  0  0  0  0  0  # atno 8008 bound_to 7997
  156.2969  140.2289  156.4711 H   0  0  0  0  0  0  0  0  0  0  0  0  # atno 8009 bound_to 7997
  154.7901  140.0440  157.1183 H   0  0  0  0  0  0  0  0  0  0  0  0  # atno 8010 bound_to 7997
  140.2980  143.3180  152.0278 H   0  0  0  0  0  0  0  0  0  0  0  0  # atno 10167 bound_to 10162
  156.2221  130.6985  151.0767 H   0  0  0  0  0  0  0  0  0  0  0  0  # atno 10718 bound_to 10713
  154.8315  135.3375  154.6727 H   0  0  0  0  0  0  0  0  0  0  0  0  # atno 10763 bound_to 10752
  153.7346  135.6950  153.4985 H   0  0  0  0  0  0  0  0  0  0  0  0  # atno 10764 bound_to 10752
  153.2287  135.4424  155.0523 H   0  0  0  0  0  0  0  0  0  0  0  0  # atno 10765 bound_to 10752
  139.8817  134.8759  156.3640 H   0  0  0  0  0  0  0  0  0  0  0  0  # atno 11005 bound_to 11000
  145.4587  141.0432  143.2764 LP  0  0  0  0  0  0  0  0  0  0  0  0  # atno 17320 bound_to 7965
  144.8028  139.6109  143.7064 LP  0  0  0  0  0  0  0  0  0  0  0  0  # atno 17321 bound_to 7965
  139.4922  144.6477  151.6743 LP  0  0  0  0  0  0  0  0  0  0  0  0  # atno 17342 bound_to 10162
  140.5676  144.0164  150.6200 LP  0  0  0  0  0  0  0  0  0  0  0  0  # atno 17343 bound_to 10162
  157.7093  131.0742  150.6559 LP  0  0  0  0  0  0  0  0  0  0  0  0  # atno 17370 bound_to 10713
  156.6622  130.4515  149.5684 LP  0  0  0  0  0  0  0  0  0  0  0  0  # atno 17371 bound_to 10713
  140.9510  133.7451  156.0272 LP  0  0  0  0  0  0  0  0  0  0  0  0  # atno 17394 bound_to 11000
  140.8106  134.3404  157.5413 LP  0  0  0  0  0  0  0  0  0  0  0  0  # atno 17395 bound_to 11000

$$$$
