#       Name:                AV-unprocessed.smi:16
#       Creating user name   scv26
#       Creation time:       Thu Mar 26 15:22:43 2020


#       File generated by GOLD software.
#

@<TRIPOS>MOLECULE
AV-unprocessed.smi:16
    70    74     1
SMALL
NO_CHARGES


@<TRIPOS>ATOM
      1 ****        -0.5724   0.0127  -2.5906 C.3            1 S1                 0.0000
      2 ****        -2.0930  -0.0107  -2.8059 C.3            1 S1                 0.0000
      3 ****        -2.8437  -0.0791  -1.5270 N.4            1 S1                 1.0000
      4 ****        -4.1943  -0.6758  -1.6919 C.3            1 S1                 0.0000
      5 ****        -4.8753  -0.8818  -0.3296 C.3            1 S1                 0.0000
      6 ****        -4.9423   0.4400   0.4652 C.3            1 S1                 0.0000
      7 ****        -5.5357   0.2827   1.7559 O.3            1 S1                 0.0000
      8 ****        -4.7453  -0.4460   2.6936 C.3            1 S1                 0.0000
      9 ****        -3.3605   0.2026   2.8378 C.3            1 S1                 0.0000
     10 ****        -2.7272   0.3358   1.5317 N.3            1 S1                 0.0000
     11 ****        -1.4337   0.7133   1.6200 C.ar           1 S1                 0.0000
     12 ****        -1.1109   1.9576   2.0591 N.ar           1 S1                 0.0000
     13 ****         0.1719   2.3314   2.1075 C.ar           1 S1                 0.0000
     14 ****         1.2580   1.6366   1.7585 N.ar           1 S1                 0.0000
     15 ****         0.9298   0.3890   1.3144 C.ar           1 S1                 0.0000
     16 ****        -0.3821  -0.1508   1.2241 C.ar           1 S1                 0.0000
     17 ****        -0.3366  -1.4510   0.7400 N.2            1 S1                 0.0000
     18 ****         0.9378  -1.6729   0.5620 C.2            1 S1                 0.0000
     19 ****         1.7656  -0.6090   0.8455 N.pl3          1 S1                 0.0000
     20 ****         3.1959  -0.5891   0.7590 C.3            1 S1                 0.0000
     21 ****         3.9352   0.6169   0.1750 C.3            1 S1                 0.0000
     22 ****         5.0261  -0.3286  -0.3776 C.3            1 S1                 0.0000
     23 ****         5.5231  -0.0122  -1.7975 C.3            1 S1                 0.0000
     24 ****         6.1448  -1.1389  -2.3810 O.3            1 S1                 0.0000
     25 ****         6.2409  -0.5452   0.5474 C.3            1 S1                 0.0000
     26 ****         6.9816   0.6465   0.7161 O.3            1 S1                 0.0000
     27 ****         3.9346  -1.4181  -0.2939 C.3            1 S1                 0.0000
     28 ****        -3.5476   1.0947   0.5827 C.3            1 S1                 0.0000
     29 ****        -2.9190   1.2309  -0.8274 C.3            1 S1                 0.0000
     30 ****        -5.5910   1.1218  -0.0860 H              1 S1                 0.0000
     31 ****        -3.6766   2.0970   0.9943 H              1 S1                 0.0000
     32 ****        -0.0509   0.0403  -3.5474 H              1 S1                 0.0000
     33 ****        -0.2380  -0.8806  -2.0637 H              1 S1                 0.0000
     34 ****        -0.2472   0.8812  -2.0184 H              1 S1                 0.0000
     35 ****        -2.4151   0.8574  -3.3829 H              1 S1                 0.0000
     36 ****        -2.3265  -0.8861  -3.4134 H              1 S1                 0.0000
     37 ****        -4.8049  -0.0331  -2.3282 H              1 S1                 0.0000
     38 ****        -4.1137  -1.6391  -2.1969 H              1 S1                 0.0000
     39 ****        -5.8796  -1.2815  -0.4714 H              1 S1                 0.0000
     40 ****        -4.3169  -1.6406   0.2178 H              1 S1                 0.0000
     41 ****        -5.2574  -0.4451   3.6558 H              1 S1                 0.0000
     42 ****        -4.6567  -1.4905   2.3961 H              1 S1                 0.0000
     43 ****        -3.4601   1.1864   3.2992 H              1 S1                 0.0000
     44 ****        -2.7357  -0.4006   3.4982 H              1 S1                 0.0000
     45 ****         0.3546   3.3318   2.4717 H              1 S1                 0.0000
     46 ****         1.3095  -2.6217   0.2028 H              1 S1                 0.0000
     47 ****         3.5627  -0.8189   1.7608 H              1 S1                 0.0000
     48 ****         3.3624   1.1146  -0.6098 H              1 S1                 0.0000
     49 ****         4.2769   1.3360   0.9201 H              1 S1                 0.0000
     50 ****         4.6936   0.2803  -2.4420 H              1 S1                 0.0000
     51 ****         6.2232   0.8235  -1.8039 H              1 S1                 0.0000
     52 ****         6.4477  -0.9016  -3.2441 H              1 S1                 0.0000
     53 ****         5.9291  -0.8836   1.5355 H              1 S1                 0.0000
     54 ****         6.9047  -1.3183   0.1598 H              1 S1                 0.0000
     55 ****         6.4181   1.2976   1.1054 H              1 S1                 0.0000
     56 ****         4.2827  -2.3899   0.0576 H              1 S1                 0.0000
     57 ****         3.3665  -1.5189  -1.2209 H              1 S1                 0.0000
     58 ****        -1.9353   1.6942  -0.7652 H              1 S1                 0.0000
     59 ****        -3.5244   1.9129  -1.4268 H              1 S1                 0.0000
     60 ****        -2.3282  -0.7080  -0.9272 H              1 S1                 0.0000
     61 ****        -6.4051  -0.1981   1.6420 LP             1 S1                 0.0000
     62 ****        -5.7053   1.1931   2.1332 LP             1 S1                 0.0000
     63 ****        -2.6805  -0.5768   1.1255 LP             1 S1                 0.0000
     64 ****        -1.8297   2.5914   2.3449 LP             1 S1                 0.0000
     65 ****         2.1931   1.9865   1.8155 LP             1 S1                 0.0000
     66 ****        -1.1010  -2.0723   0.5679 LP             1 S1                 0.0000
     67 ****         5.4874  -1.8893  -2.4489 LP             1 S1                 0.0000
     68 ****         6.9204  -1.4251  -1.8184 LP             1 S1                 0.0000
     69 ****         7.3070   0.9700  -0.1724 LP             1 S1                 0.0000
     70 ****         7.7637   0.4755   1.3154 LP             1 S1                 0.0000
@<TRIPOS>BOND
    1    1    2 1     
    2    1   32 1     
    3    1   33 1     
    4    1   34 1     
    5    2    3 1     
    6    2   35 1     
    7    2   36 1     
    8    3   29 1     
    9    3    4 1     
   10    3   60 1     
   11    4    5 1     
   12    4   37 1     
   13    4   38 1     
   14    5    6 1     
   15    5   39 1     
   16    5   40 1     
   17    6   30 1     
   18    6   28 1     
   19    6    7 1     
   20    7    8 1     
   21    8    9 1     
   22    8   41 1     
   23    8   42 1     
   24    9   10 1     
   25    9   43 1     
   26    9   44 1     
   27   10   11 1     
   28   10   28 1     
   29   11   16 ar    
   30   11   12 ar    
   31   12   13 ar    
   32   13   14 ar    
   33   13   45 1     
   34   14   15 ar    
   35   15   19 1     
   36   15   16 ar    
   37   16   17 1     
   38   17   18 2     
   39   18   19 1     
   40   18   46 1     
   41   19   20 1     
   42   20   27 1     
   43   20   21 1     
   44   20   47 1     
   45   21   22 1     
   46   21   48 1     
   47   21   49 1     
   48   22   23 1     
   49   22   25 1     
   50   22   27 1     
   51   23   24 1     
   52   23   50 1     
   53   23   51 1     
   54   24   52 1     
   55   25   26 1     
   56   25   53 1     
   57   25   54 1     
   58   26   55 1     
   59   27   56 1     
   60   27   57 1     
   61   28   31 1     
   62   28   29 1     
   63   29   58 1     
   64   29   59 1     
   65    7   61 1     
   66    7   62 1     
   67   10   63 1     
   68   12   64 1     
   69   14   65 1     
   70   17   66 1     
   71   24   67 1     
   72   24   68 1     
   73   26   69 1     
   74   26   70 1     
@<TRIPOS>SUBSTRUCTURE
      1 S1             1
@<TRIPOS>SET
LONE_PAIRS      STATIC     ATOMS    <user>   **** ""
10 61 62 63 64 65 66 67 68 69 70
DONOR_HYDROGENS      STATIC     ATOMS    <user>   **** ""
3 60 52 55
ATOM$BLUE        STATIC     ATOMS    COLORGROUP SYSTEM
10 61 62 63 64 65 66 67 68 69 70
ATOM$RED        STATIC     ATOMS    COLORGROUP SYSTEM
3 60 52 55
