AV-unprocessed.smi:1662|AV-procd|sdf|6661|dock6
  -GOLD-   22720 7373D 1   1.00000     0.00000
 Structure written by MMmdl.
 47 48  0  0  0  0  0  0  0  0  1 V2000
  147.9527  141.6141  157.8530 C   0  0  0  0  0  0  0  0  0  0  0  0
  148.7551  140.3690  157.5847 C   0  0  0  0  0  0  0  0  0  0  0  0
  148.2558  139.2545  158.0079 N   0  0  0  0  0  0  0  0  0  0  0  0
  148.9111  138.0534  157.8165 N   0  0  0  0  0  0  0  0  0  0  0  0
  148.2111  136.8916  158.3842 C   0  0  0  0  0  0  0  0  0  0  0  0
  148.2845  136.8205  159.9168 C   0  0  0  0  0  0  0  0  0  0  0  0
  149.3572  136.9615  160.5058 O   0  0  0  0  0  0  0  0  0  0  0  0
  147.1158  136.6228  160.5464 N   0  0  0  0  0  0  0  0  0  0  0  0
  146.9163  136.5233  161.9944 C   0  0  2  0  0  0  0  0  0  0  0  0
  147.8052  135.4034  162.5657 C   0  0  0  0  0  0  0  0  0  0  0  0
  147.3208  134.0113  162.1349 C   0  0  0  0  0  0  0  0  0  0  0  0
  145.8503  133.7982  162.5177 C   0  0  0  0  0  0  0  0  0  0  0  0
  144.9315  134.8920  161.9347 C   0  0  1  0  0  0  0  0  0  0  0  0
  143.4734  134.6159  162.3440 C   0  0  0  0  0  0  0  0  0  0  0  0
  145.4231  136.3046  162.3589 C   0  0  2  0  0  0  0  0  0  0  0  0
  144.5354  137.4435  161.8174 C   0  0  0  0  0  0  0  0  0  0  0  0
  150.1057  137.9149  157.1722 C   0  0  0  0  0  0  0  0  0  0  0  0
  150.6513  136.8211  157.0166 O   0  0  0  0  0  0  0  0  0  0  0  0
  150.6653  139.1812  156.6947 C   0  0  0  0  0  0  0  0  0  0  0  0
  151.9171  139.0816  156.0160 C   0  0  0  0  0  0  0  0  0  0  0  0
  152.9280  139.0187  155.4553 N   0  0  0  0  0  0  0  0  0  0  0  0
  150.0364  140.3681  156.8859 C   0  0  0  0  0  0  0  0  0  0  0  0
  150.5770  141.7102  156.4118 C   0  0  0  0  0  0  0  0  0  0  0  0
  147.7293  142.1393  156.9243 H   0  0  0  0  0  0  0  0  0  0  0  0
  148.5017  142.2946  158.5039 H   0  0  0  0  0  0  0  0  0  0  0  0
  147.0022  141.3886  158.3392 H   0  0  0  0  0  0  0  0  0  0  0  0
  147.1581  136.9105  158.0978 H   0  0  0  0  0  0  0  0  0  0  0  0
  148.6116  135.9690  157.9592 H   0  0  0  0  0  0  0  0  0  0  0  0
  146.2891  136.5277  159.9749 H   0  0  0  0  0  0  0  0  0  0  0  0
  147.2421  137.4530  162.4641 H   0  0  0  0  0  0  0  0  0  0  0  0
  148.8423  135.5503  162.2607 H   0  0  0  0  0  0  0  0  0  0  0  0
  147.7993  135.4615  163.6551 H   0  0  0  0  0  0  0  0  0  0  0  0
  147.4420  133.8898  161.0579 H   0  0  0  0  0  0  0  0  0  0  0  0
  147.9393  133.2441  162.6015 H   0  0  0  0  0  0  0  0  0  0  0  0
  145.5277  132.8160  162.1709 H   0  0  0  0  0  0  0  0  0  0  0  0
  145.7597  133.7838  163.6050 H   0  0  0  0  0  0  0  0  0  0  0  0
  144.9811  134.8234  160.8470 H   0  0  0  0  0  0  0  0  0  0  0  0
  143.3316  134.7433  163.4176 H   0  0  0  0  0  0  0  0  0  0  0  0
  143.1830  133.5960  162.0907 H   0  0  0  0  0  0  0  0  0  0  0  0
  142.7765  135.2786  161.8316 H   0  0  0  0  0  0  0  0  0  0  0  0
  145.3582  136.3543  163.4471 H   0  0  0  0  0  0  0  0  0  0  0  0
  144.4344  137.3954  160.7329 H   0  0  0  0  0  0  0  0  0  0  0  0
  144.9556  138.4179  162.0690 H   0  0  0  0  0  0  0  0  0  0  0  0
  143.5342  137.4121  162.2458 H   0  0  0  0  0  0  0  0  0  0  0  0
  151.5724  141.6239  155.9770 H   0  0  0  0  0  0  0  0  0  0  0  0
  150.6470  142.4130  157.2428 H   0  0  0  0  0  0  0  0  0  0  0  0
  149.9210  142.1379  155.6529 H   0  0  0  0  0  0  0  0  0  0  0  0
  1  2  1  0  0  0  0
  1 24  1  0  0  0  0
  1 25  1  0  0  0  0
  1 26  1  0  0  0  0
  2 22  1  0  0  0  0
  2  3  2  0  0  0  0
  3  4  1  0  0  0  0
  4  5  1  0  0  0  0
  4 17  1  0  0  0  0
  5  6  1  0  0  0  0
  5 27  1  0  0  0  0
  5 28  1  0  0  0  0
  6  7  2  0  0  0  0
  6  8  1  0  0  0  0
  8  9  1  0  0  0  0
  8 29  1  0  0  0  0
  9 15  1  0  0  0  0
  9 10  1  0  0  0  0
  9 30  1  0  0  0  0
 10 11  1  0  0  0  0
 10 31  1  0  0  0  0
 10 32  1  0  0  0  0
 11 12  1  0  0  0  0
 11 33  1  0  0  0  0
 11 34  1  0  0  0  0
 12 13  1  0  0  0  0
 12 35  1  0  0  0  0
 12 36  1  0  0  0  0
 13 14  1  0  0  0  0
 13 15  1  0  0  0  0
 13 37  1  0  0  0  0
 14 38  1  0  0  0  0
 14 39  1  0  0  0  0
 14 40  1  0  0  0  0
 15 16  1  0  0  0  0
 15 41  1  0  0  0  0
 16 42  1  0  0  0  0
 16 43  1  0  0  0  0
 16 44  1  0  0  0  0
 17 18  2  0  0  0  0
 17 19  1  0  0  0  0
 19 20  1  0  0  0  0
 19 22  2  0  0  0  0
 20 21  3  0  0  0  0
 22 23  1  0  0  0  0
 23 45  1  0  0  0  0
 23 46  1  0  0  0  0
 23 47  1  0  0  0  0
M  END
> <s_m_source_file>
AV-unprocessed.smi

> <i_m_source_file_index>
1662

> <i_lp_mmshare_version>
43012

> <i_f3d_flags>
0

> <s_epik_input>
TiNDYyhjMVtDSDNdKWMoPU8pbihuYzFbQ0gzXSlbQ0gyXUMoPU8pW05IXVtDQEBIXTJbQ0gyXVtDSDJdW0NIMl1bQ0BASF0oW0NIM10pW0NASF0yW0NIM10=

> <s_epik_cmdline>
J2VwaWtfcHl0aG9uJywgJy1waCcsICc3LjAnLCAnLXRuJywgJzgnLCAnLW1hJywgJzIwMCcsICctbWV0YWxfYmluZGluZycsICctaW1hZScsICc8aW5maWxlLm1hZT4nLCAnLW9tYWUnLCAnPG91dGZpbGUubWFlPic=

> <r_lp_tautomer_probability>
1

> <r_epik_Ionization_Penalty>
1.90709e-08

> <r_epik_Ionization_Penalty_Charging>
2.37982e-11

> <r_epik_Ionization_Penalty_Neutral>
1.90471e-08

> <r_epik_State_Penalty>
-0

> <r_epik_Charging_Adjusted_Penalty>
2.37982e-11

> <i_epik_Tot_Q>
0

> <i_epik_Tot_abs_Q>
0

> <r_epik_Metal_State_Penalty>
-0

> <b_epik_Metal_Only>
0

> <s_lp_Force_Field>
OPLS_2005

> <r_lp_Energy>
26.4332

> <b_lp_Chiralities_Consistent>
1

> <s_lp_Variant>
AV-unprocessed.smi:1662-5

> <Gold.Version>
5.8.1

> <Gold.Id.Protein>
6NUR|6NUR_protein|mol2

> <Gold.PLP.Fitness>
39.9985

> <Gold.PLP.PLP>
-35.7322

> <Gold.PLP.part.hbond>
-2.5529

> <Gold.PLP.part.metal>
0.0000

> <Gold.PLP.part.buried>
-6.8283

> <Gold.PLP.part.nonpolar>
-27.6584

> <Gold.PLP.part.repulsive>
0.1537

> <Gold.PLP.ligand.clash>
0.0000

> <Gold.PLP.ligand.torsion>
0.2846

> <Gold.PLP.Chemscore.Hbond>
1.6080

> <Gold.PLP.Chemscore.CHOScore>
0.0000

> <Gold.PLP.Chemscore.Metal>
0.0000

> <Gold.Chemscore.Hbonds>
donor molecule, donor type, donor heavy atom, donor atom, acceptor molecule, acceptor atom, score
      P1  H  6931  6943       L1     7  0.59
      P1  H  7997  8008       L1    21  0.98

> <Gold.PLP.Chemscore.Internal.Correction>
0.0116

> <Gold.Rescore>
     Score         DG    S(hbond)    S(metal)    S(lipo)     H(rot)  DE(clash)    DE(int)     intcor
     14.94     -16.49       1.89        0.00      71.86       1.45       0.00       1.54       ----

> <Gold.Chemscore.Fitness>
14.9440

> <Gold.Chemscore.DG>
-16.4851

> <Gold.Chemscore.ZeroCoef>
-5.4800

> <Gold.Chemscore.Hbond>
1.8894

> <Gold.Chemscore.Metal>
0.0000

> <Gold.Chemscore.Lipo>
71.8584

> <Gold.Chemscore.Internal_Hbond>
0.0000

> <Gold.Chemscore.DEClash>
0.0000

> <Gold.Chemscore.DEInternal>
1.5411

> <Gold.Chemscore.Rot>
1.4504

> <Gold.Chemscore.Internal.Correction>
   9.000000E+99

> <Gold.Chemscore.Hbonds>
donor molecule, donor type, donor heavy atom, donor atom, acceptor molecule, acceptor atom, score
      P1  H  6931  6943       L1     7  0.36
      P1  H  7997  8008       L1    21  0.69

> <Gold.Chemscore.Hbond.Weighted>
-6.3106

> <Gold.Chemscore.Metal.Weighted>
-0.0000

> <Gold.Chemscore.Lipo.Weighted>
-8.4074

> <Gold.Chemscore.Internal_Hbond.Weighted>
0.0000

> <Gold.Chemscore.DEClash.Weighted>
0.0000

> <Gold.Chemscore.DEInternal.Weighted>
1.5411

> <Gold.Chemscore.Rot.Weighted>
3.7129

> <Gold.Chemscore.Internal.Correction.Weighted>
   9.000000E+99

> <Gold.Protein.RotatedTorsions>
[ 6907 6896 6895 6894 ] final  117.80 input  -60.11 | X-H torsion
[ 7974 7965 7964 7962 ] final  -56.80 input  175.53 | X-H torsion
[ 8008 7997 7996 7995 ] final  -48.05 input   59.86 | X-H torsion
[ 10167 10162 10161 10158 ] final -121.11 input  -65.29 | X-H torsion
[ 10718 10713 10712 10709 ] final  -64.91 input   66.30 | X-H torsion
[ 10763 10752 10751 10750 ] final -147.47 input  -60.55 | X-H torsion
[ 11005 11000 10999 10996 ] final -155.15 input  -57.11 | X-H torsion

> <Gold.Protein.ActiveResidues>
 VAL166  LYS551  ARG553  GLY616  TRP617  ASP618  TYR619  PRO620  LYS621  CYS622 
 ASP623  PHE694  ASN695  SER759  ASP760  ASP761  ALA762  ILE779  LEU786  VAL792 
 PHE793  MET794  SER795  GLU796  ALA797  LYS798  CYS799  TRP800  GLU811  SER814 

> <Gold.Protein.RotatedAtoms>
  152.4587  133.7776  159.6832 H   0  0  0  0  0  0  0  0  0  0  0  0  # atno 6907 bound_to 6896
  150.8522  133.7759  159.3027 H   0  0  0  0  0  0  0  0  0  0  0  0  # atno 6908 bound_to 6896
  151.5351  135.1071  159.9964 H   0  0  0  0  0  0  0  0  0  0  0  0  # atno 6909 bound_to 6896
  145.8585  140.8302  142.9949 H   0  0  0  0  0  0  0  0  0  0  0  0  # atno 7974 bound_to 7965
  154.4024  140.1331  156.4276 H   0  0  0  0  0  0  0  0  0  0  0  0  # atno 8008 bound_to 7997
  155.7582  140.3486  155.5164 H   0  0  0  0  0  0  0  0  0  0  0  0  # atno 8009 bound_to 7997
  155.8884  140.0999  157.1426 H   0  0  0  0  0  0  0  0  0  0  0  0  # atno 8010 bound_to 7997
  140.0285  143.5272  152.2187 H   0  0  0  0  0  0  0  0  0  0  0  0  # atno 10167 bound_to 10162
  156.0700  130.4240  150.1488 H   0  0  0  0  0  0  0  0  0  0  0  0  # atno 10718 bound_to 10713
  154.8284  135.3359  154.6823 H   0  0  0  0  0  0  0  0  0  0  0  0  # atno 10763 bound_to 10752
  153.7446  135.6943  153.4964 H   0  0  0  0  0  0  0  0  0  0  0  0  # atno 10764 bound_to 10752
  153.2220  135.4446  155.0450 H   0  0  0  0  0  0  0  0  0  0  0  0  # atno 10765 bound_to 10752
  140.6896  134.4056  157.5220 H   0  0  0  0  0  0  0  0  0  0  0  0  # atno 11005 bound_to 11000
  144.6727  140.1060  143.7458 LP  0  0  0  0  0  0  0  0  0  0  0  0  # atno 17320 bound_to 7965
  145.9276  139.2585  143.1344 LP  0  0  0  0  0  0  0  0  0  0  0  0  # atno 17321 bound_to 7965
  139.6092  144.7604  151.2992 LP  0  0  0  0  0  0  0  0  0  0  0  0  # atno 17342 bound_to 10162
  140.7312  143.6858  150.7963 LP  0  0  0  0  0  0  0  0  0  0  0  0  # atno 17343 bound_to 10162
  156.9541  130.9784  151.3492 LP  0  0  0  0  0  0  0  0  0  0  0  0  # atno 17370 bound_to 10713
  157.5766  130.8347  149.8464 LP  0  0  0  0  0  0  0  0  0  0  0  0  # atno 17371 bound_to 10713
  139.8927  134.8748  156.2257 LP  0  0  0  0  0  0  0  0  0  0  0  0  # atno 17394 bound_to 11000
  141.0252  133.7019  156.1335 LP  0  0  0  0  0  0  0  0  0  0  0  0  # atno 17395 bound_to 11000

$$$$
