AV-unprocessed.smi:1987|AV-procd|sdf|8054|dock10
  -GOLD-   2272010263D 1   1.00000     0.00000
 Structure written by MMmdl.
 37 39  0  0  0  0  0  0  0  0  2 V2000
  147.8846  133.1811  155.1330 O   0  0  0  0  0  0  0  0  0  0  0  0
  148.5230  133.9999  154.4728 C   0  0  0  0  0  0  0  0  0  0  0  0
  150.0480  134.0320  154.5545 C   0  0  0  0  0  0  0  0  0  0  0  0
  150.5039  133.1460  155.6098 N   0  0  0  0  0  0  0  0  0  0  0  0
  150.3892  131.8243  155.7546 C   0  0  0  0  0  0  0  0  0  0  0  0
  150.8981  131.4134  156.9062 N   0  0  0  0  0  0  0  0  0  0  0  0
  151.3560  132.5852  157.4852 N   0  0  0  0  0  0  0  0  0  0  0  0
  151.1250  133.6166  156.7208 N   0  0  0  0  0  0  0  0  0  0  0  0
  147.9527  134.9369  153.7003 N   0  0  0  0  0  0  0  0  0  0  0  0
  146.5274  135.2391  153.6596 C   0  0  0  0  0  0  0  0  0  0  0  0
  145.9832  135.1890  152.2173 C   0  0  2  0  0  0  0  0  0  0  0  0
  144.4605  135.1314  152.1180 C   0  0  0  0  0  0  0  0  0  0  0  0
  144.1939  134.5327  150.7299 C   0  0  0  0  0  0  0  0  0  0  0  0
  145.4522  133.8837  150.2921 N   0  3  2  0  0  0  0  0  0  0  0  0
  145.2796  132.5230  149.7415 C   0  0  0  0  0  0  0  0  0  0  0  0
  143.9393  132.3080  149.0795 C   0  0  0  0  0  0  0  0  0  0  0  0
  144.2153  131.7161  150.4452 C   0  0  0  0  0  0  0  0  0  0  0  0
  146.4058  133.9564  151.4157 C   0  0  0  0  0  0  0  0  0  0  0  0
  150.4844  133.7099  153.6081 H   0  0  0  0  0  0  0  0  0  0  0  0
  150.3997  135.0462  154.7501 H   0  0  0  0  0  0  0  0  0  0  0  0
  149.9209  131.1723  155.0320 H   0  0  0  0  0  0  0  0  0  0  0  0
  148.5620  135.5512  153.1788 H   0  0  0  0  0  0  0  0  0  0  0  0
  146.0140  134.5051  154.2813 H   0  0  0  0  0  0  0  0  0  0  0  0
  146.3366  136.2156  154.1082 H   0  0  0  0  0  0  0  0  0  0  0  0
  146.3209  136.0752  151.6772 H   0  0  0  0  0  0  0  0  0  0  0  0
  144.0606  134.4643  152.8832 H   0  0  0  0  0  0  0  0  0  0  0  0
  143.9930  136.1076  152.2515 H   0  0  0  0  0  0  0  0  0  0  0  0
  143.3581  133.8320  150.7630 H   0  0  0  0  0  0  0  0  0  0  0  0
  143.9414  135.3131  150.0114 H   0  0  0  0  0  0  0  0  0  0  0  0
  146.1731  132.0402  149.3489 H   0  0  0  0  0  0  0  0  0  0  0  0
  143.2505  133.1496  149.0247 H   0  0  0  0  0  0  0  0  0  0  0  0
  143.9000  131.6204  148.2369 H   0  0  0  0  0  0  0  0  0  0  0  0
  144.3580  130.6386  150.5015 H   0  0  0  0  0  0  0  0  0  0  0  0
  143.7102  132.1634  151.2994 H   0  0  0  0  0  0  0  0  0  0  0  0
  147.4336  134.0192  151.0562 H   0  0  0  0  0  0  0  0  0  0  0  0
  146.3181  133.0611  152.0341 H   0  0  0  0  0  0  0  0  0  0  0  0
  145.8298  134.4642  149.5568 H   0  0  0  0  0  0  0  0  0  0  0  0
  1  2  2  0  0  0  0
  2  3  1  0  0  0  0
  2  9  1  0  0  0  0
  3  4  1  0  0  0  0
  3 19  1  0  0  0  0
  3 20  1  0  0  0  0
  4  8  1  0  0  0  0
  4  5  1  0  0  0  0
  5  6  2  0  0  0  0
  5 21  1  0  0  0  0
  6  7  1  0  0  0  0
  7  8  2  0  0  0  0
  9 10  1  0  0  0  0
  9 22  1  0  0  0  0
 10 11  1  0  0  0  0
 10 23  1  0  0  0  0
 10 24  1  0  0  0  0
 11 18  1  0  0  0  0
 11 12  1  0  0  0  0
 11 25  1  0  0  0  0
 12 13  1  0  0  0  0
 12 26  1  0  0  0  0
 12 27  1  0  0  0  0
 13 14  1  0  0  0  0
 13 28  1  0  0  0  0
 13 29  1  0  0  0  0
 14 15  1  0  0  0  0
 14 18  1  0  0  0  0
 14 37  1  0  0  0  0
 15 17  1  0  0  0  0
 15 16  1  0  0  0  0
 15 30  1  0  0  0  0
 16 17  1  0  0  0  0
 16 31  1  0  0  0  0
 16 32  1  0  0  0  0
 17 33  1  0  0  0  0
 17 34  1  0  0  0  0
 18 35  1  0  0  0  0
 18 36  1  0  0  0  0
M  CHG  1  14   1
M  END
> <s_m_source_file>
AV-unprocessed.smi

> <i_m_source_file_index>
1987

> <i_lp_mmshare_version>
43012

> <i_f3d_flags>
0

> <s_epik_input>
bjFubltjSF1uMVtDSDJdQyg9TylbTkhdW0NIMl1bQ0BASF0yW0NIMl1bQ0gyXU4oW0NIMl0yKVtDSF0zW0NIMl1bQ0gyXTM=

> <s_epik_cmdline>
J2VwaWtfcHl0aG9uJywgJy1waCcsICc3LjAnLCAnLXRuJywgJzgnLCAnLW1hJywgJzIwMCcsICctbWV0YWxfYmluZGluZycsICctaW1hZScsICc8aW5maWxlLm1hZT4nLCAnLW9tYWUnLCAnPG91dGZpbGUubWFlPic=

> <r_lp_tautomer_probability>
1

> <r_epik_Ionization_Penalty>
0.000242849

> <r_epik_Ionization_Penalty_Charging>
0.000241326

> <r_epik_Ionization_Penalty_Neutral>
1.52322e-06

> <r_epik_State_Penalty>
-0

> <r_epik_Charging_Adjusted_Penalty>
0.000241326

> <i_epik_Tot_Q>
1

> <i_epik_Tot_abs_Q>
1

> <r_epik_Metal_State_Penalty>
-0

> <b_epik_Metal_Only>
0

> <s_lp_Force_Field>
OPLS_2005

> <r_lp_Energy>
37.5939

> <b_lp_Chiralities_Consistent>
1

> <s_lp_Variant>
AV-unprocessed.smi:1987-1

> <Gold.Version>
5.8.1

> <Gold.Id.Protein>
6NUR|6NUR_protein|mol2

> <Gold.PLP.Fitness>
38.1728

> <Gold.PLP.PLP>
-29.6051

> <Gold.PLP.part.hbond>
-3.4186

> <Gold.PLP.part.metal>
0.0000

> <Gold.PLP.part.buried>
-3.2594

> <Gold.PLP.part.nonpolar>
-23.3694

> <Gold.PLP.part.repulsive>
0.0876

> <Gold.PLP.ligand.clash>
0.0000

> <Gold.PLP.ligand.torsion>
0.8581

> <Gold.PLP.Chemscore.Hbond>
3.0000

> <Gold.PLP.Chemscore.CHOScore>
0.0000

> <Gold.PLP.Chemscore.Metal>
0.0000

> <Gold.Chemscore.Hbonds>
donor molecule, donor type, donor heavy atom, donor atom, acceptor molecule, acceptor atom, score
      L1  H     9    22       P1  7948  0.96
      L1  H    14    37       P1  7921  1.00
      P1  H  6896  6907       L1     7  1.00

> <Gold.PLP.Chemscore.Internal.Correction>
1.2839

> <Gold.Rescore>
     Score         DG    S(hbond)    S(metal)    S(lipo)     H(rot)  DE(clash)    DE(int)     intcor
     12.92     -14.69       2.66        0.00      60.13       2.62       0.00       1.77       ----

> <Gold.Chemscore.Fitness>
12.9227

> <Gold.Chemscore.DG>
-14.6917

> <Gold.Chemscore.ZeroCoef>
-5.4800

> <Gold.Chemscore.Hbond>
2.6633

> <Gold.Chemscore.Metal>
0.0000

> <Gold.Chemscore.Lipo>
60.1270

> <Gold.Chemscore.Internal_Hbond>
0.0000

> <Gold.Chemscore.DEClash>
0.0009

> <Gold.Chemscore.DEInternal>
1.7681

> <Gold.Chemscore.Rot>
2.6244

> <Gold.Chemscore.Internal.Correction>
   9.000000E+99

> <Gold.Chemscore.Hbonds>
donor molecule, donor type, donor heavy atom, donor atom, acceptor molecule, acceptor atom, score
      L1  H     9    22       P1  7948  0.85
      L1  H    14    37       P1  7921  0.65
      P1  H  6896  6907       L1     7  0.39

> <Gold.Chemscore.Hbond.Weighted>
-8.8954

> <Gold.Chemscore.Metal.Weighted>
-0.0000

> <Gold.Chemscore.Lipo.Weighted>
-7.0349

> <Gold.Chemscore.Internal_Hbond.Weighted>
0.0000

> <Gold.Chemscore.DEClash.Weighted>
0.0009

> <Gold.Chemscore.DEInternal.Weighted>
1.7681

> <Gold.Chemscore.Rot.Weighted>
6.7186

> <Gold.Chemscore.Internal.Correction.Weighted>
   9.000000E+99

> <Gold.Protein.RotatedTorsions>
[ 6907 6896 6895 6894 ] final -166.04 input  -60.11 | X-H torsion
[ 7974 7965 7964 7962 ] final  103.36 input  175.53 | X-H torsion
[ 8008 7997 7996 7995 ] final   78.84 input   59.86 | X-H torsion
[ 10167 10162 10161 10158 ] final  179.14 input  -65.29 | X-H torsion
[ 10718 10713 10712 10709 ] final  154.78 input   66.30 | X-H torsion
[ 10763 10752 10751 10750 ] final  101.34 input  -60.55 | X-H torsion
[ 11005 11000 10999 10996 ] final -125.89 input  -57.11 | X-H torsion

> <Gold.Protein.ActiveResidues>
 VAL166  LYS551  ARG553  GLY616  TRP617  ASP618  TYR619  PRO620  LYS621  CYS622 
 ASP623  PHE694  ASN695  SER759  ASP760  ASP761  ALA762  ILE779  LEU786  VAL792 
 PHE793  MET794  SER795  GLU796  ALA797  LYS798  CYS799  TRP800  GLU811  SER814 

> <Gold.Protein.RotatedAtoms>
  151.4373  133.3653  159.2776 H   0  0  0  0  0  0  0  0  0  0  0  0  # atno 6907 bound_to 6896
  150.9183  134.8602  159.7482 H   0  0  0  0  0  0  0  0  0  0  0  0  # atno 6908 bound_to 6896
  152.4968  134.4308  159.9563 H   0  0  0  0  0  0  0  0  0  0  0  0  # atno 6909 bound_to 6896
  145.3469  139.2448  143.3579 H   0  0  0  0  0  0  0  0  0  0  0  0  # atno 7974 bound_to 7965
  155.8614  140.3453  155.5759 H   0  0  0  0  0  0  0  0  0  0  0  0  # atno 8008 bound_to 7997
  155.7929  140.0874  157.2018 H   0  0  0  0  0  0  0  0  0  0  0  0  # atno 8009 bound_to 7997
  154.4012  140.1480  156.3171 H   0  0  0  0  0  0  0  0  0  0  0  0  # atno 8010 bound_to 7997
  139.5323  144.2597  152.0717 H   0  0  0  0  0  0  0  0  0  0  0  0  # atno 10167 bound_to 10162
  157.2271  131.0731  151.1876 H   0  0  0  0  0  0  0  0  0  0  0  0  # atno 10718 bound_to 10713
  153.3254  135.4048  155.1451 H   0  0  0  0  0  0  0  0  0  0  0  0  # atno 10763 bound_to 10752
  154.8610  135.3597  154.5541 H   0  0  0  0  0  0  0  0  0  0  0  0  # atno 10764 bound_to 10752
  153.5977  135.7072  153.5456 H   0  0  0  0  0  0  0  0  0  0  0  0  # atno 10765 bound_to 10752
  140.9725  134.0786  157.3854 H   0  0  0  0  0  0  0  0  0  0  0  0  # atno 11005 bound_to 11000
  146.2984  140.4078  142.8713 LP  0  0  0  0  0  0  0  0  0  0  0  0  # atno 17320 bound_to 7965
  144.8747  140.7320  143.6024 LP  0  0  0  0  0  0  0  0  0  0  0  0  # atno 17321 bound_to 7965
  140.2062  144.4609  150.6407 LP  0  0  0  0  0  0  0  0  0  0  0  0  # atno 17342 bound_to 10162
  140.6510  143.2225  151.6078 LP  0  0  0  0  0  0  0  0  0  0  0  0  # atno 17343 bound_to 10162
  157.3517  130.7085  149.6444 LP  0  0  0  0  0  0  0  0  0  0  0  0  # atno 17370 bound_to 10713
  155.9678  130.4251  150.4637 LP  0  0  0  0  0  0  0  0  0  0  0  0  # atno 17371 bound_to 10713
  139.8918  135.0120  156.6809 LP  0  0  0  0  0  0  0  0  0  0  0  0  # atno 17394 bound_to 11000
  140.7307  133.9061  155.8209 LP  0  0  0  0  0  0  0  0  0  0  0  0  # atno 17395 bound_to 11000

$$$$
