AV-unprocessed.smi:1427|AV-procd|sdf|5810|dock2
  -GOLD-   22720 5463D 1   1.00000     0.00000
 Structure written by MMmdl.
 33 34  0  0  0  0  0  0  0  0  1 V2000
  145.5651  137.0243  152.6221 C   0  0  0  0  0  0  0  0  0  0  0  0
  145.5248  135.5397  152.2354 C   0  0  1  0  0  0  0  0  0  0  0  0
  145.1512  135.3540  150.7495 C   0  0  0  0  0  0  0  0  0  0  0  0
  145.0475  133.9554  150.3699 N   0  0  0  0  0  0  0  0  0  0  0  0
  143.9126  133.1805  150.2577 C   0  0  0  0  0  0  0  0  0  0  0  0
  144.3116  131.9263  149.8937 C   0  0  0  0  0  0  0  0  0  0  0  0
  145.7275  132.0347  149.8039 C   0  0  0  0  0  0  0  0  0  0  0  0
  146.1650  133.2513  150.0854 N   0  0  0  0  0  0  0  0  0  0  0  0
  146.8255  134.9355  152.5219 N   0  0  0  0  0  0  0  0  0  0  0  0
  147.0562  133.9617  153.4169 C   0  0  0  0  0  0  0  0  0  0  0  0
  146.1778  133.4762  154.1315 O   0  0  0  0  0  0  0  0  0  0  0  0
  148.4978  133.4389  153.4811 C   0  0  2  0  0  0  0  0  0  0  0  0
  148.6727  132.4252  154.6337 C   0  0  0  0  0  0  0  0  0  0  0  0
  150.0028  132.7823  155.3093 C   0  0  0  0  0  0  0  0  0  0  0  0
  150.2837  134.1807  154.7897 C   0  0  0  0  0  0  0  0  0  0  0  0
  151.1746  134.9025  155.2313 O   0  0  0  0  0  0  0  0  0  0  0  0
  149.4372  134.4985  153.8116 N   0  0  0  0  0  0  0  0  0  0  0  0
  144.5974  137.4985  152.4559 H   0  0  0  0  0  0  0  0  0  0  0  0
  146.3071  137.5687  152.0365 H   0  0  0  0  0  0  0  0  0  0  0  0
  145.8144  137.1492  153.6763 H   0  0  0  0  0  0  0  0  0  0  0  0
  144.7525  135.0703  152.8476 H   0  0  0  0  0  0  0  0  0  0  0  0
  144.1891  135.8254  150.5454 H   0  0  0  0  0  0  0  0  0  0  0  0
  145.8809  135.8480  150.1054 H   0  0  0  0  0  0  0  0  0  0  0  0
  142.9279  133.5798  150.4512 H   0  0  0  0  0  0  0  0  0  0  0  0
  143.6876  131.0624  149.7206 H   0  0  0  0  0  0  0  0  0  0  0  0
  146.4457  131.2710  149.5443 H   0  0  0  0  0  0  0  0  0  0  0  0
  147.6068  135.2627  151.9722 H   0  0  0  0  0  0  0  0  0  0  0  0
  148.7932  132.9999  152.5264 H   0  0  0  0  0  0  0  0  0  0  0  0
  147.8679  132.5007  155.3679 H   0  0  0  0  0  0  0  0  0  0  0  0
  148.6726  131.3991  154.2643 H   0  0  0  0  0  0  0  0  0  0  0  0
  149.9323  132.7642  156.3974 H   0  0  0  0  0  0  0  0  0  0  0  0
  150.8035  132.1118  154.9961 H   0  0  0  0  0  0  0  0  0  0  0  0
  149.4359  135.3883  153.3343 H   0  0  0  0  0  0  0  0  0  0  0  0
  1  2  1  0  0  0  0
  1 18  1  0  0  0  0
  1 19  1  0  0  0  0
  1 20  1  0  0  0  0
  2  3  1  0  0  0  0
  2  9  1  0  0  0  0
  2 21  1  0  0  0  0
  3  4  1  0  0  0  0
  3 22  1  0  0  0  0
  3 23  1  0  0  0  0
  4  8  1  0  0  0  0
  4  5  1  0  0  0  0
  5  6  2  0  0  0  0
  5 24  1  0  0  0  0
  6  7  1  0  0  0  0
  6 25  1  0  0  0  0
  7  8  2  0  0  0  0
  7 26  1  0  0  0  0
  9 10  1  0  0  0  0
  9 27  1  0  0  0  0
 10 11  2  0  0  0  0
 10 12  1  0  0  0  0
 12 17  1  0  0  0  0
 12 13  1  0  0  0  0
 12 28  1  0  0  0  0
 13 14  1  0  0  0  0
 13 29  1  0  0  0  0
 13 30  1  0  0  0  0
 14 15  1  0  0  0  0
 14 31  1  0  0  0  0
 14 32  1  0  0  0  0
 15 16  2  0  0  0  0
 15 17  1  0  0  0  0
 17 33  1  0  0  0  0
M  END
> <s_m_source_file>
AV-unprocessed.smi

> <i_m_source_file_index>
1427

> <i_lp_mmshare_version>
43012

> <i_f3d_flags>
0

> <s_epik_input>
bjFbY0hdW2NIXVtjSF1uMVtDSDJdW0NAQEhdKFtDSDNdKVtOSF1DKD1PKVtDQEBIXTJbQ0gyXVtDSDJdQyg9TylbTkhdMg==

> <s_epik_cmdline>
J2VwaWtfcHl0aG9uJywgJy1waCcsICc3LjAnLCAnLXRuJywgJzgnLCAnLW1hJywgJzIwMCcsICctbWV0YWxfYmluZGluZycsICctaW1hZScsICc8aW5maWxlLm1hZT4nLCAnLW9tYWUnLCAnPG91dGZpbGUubWFlPic=

> <r_lp_tautomer_probability>
1

> <r_epik_Ionization_Penalty>
0.000310707

> <r_epik_Ionization_Penalty_Charging>
0

> <r_epik_Ionization_Penalty_Neutral>
0.000310707

> <r_epik_State_Penalty>
-0

> <r_epik_Charging_Adjusted_Penalty>
0

> <i_epik_Tot_Q>
0

> <i_epik_Tot_abs_Q>
0

> <r_epik_Metal_State_Penalty>
-0

> <b_epik_Metal_Only>
0

> <s_lp_Force_Field>
OPLS_2005

> <r_lp_Energy>
14.2046

> <b_lp_Chiralities_Consistent>
1

> <s_lp_Variant>
AV-unprocessed.smi:1427-2

> <Gold.Version>
5.8.1

> <Gold.Id.Protein>
6NUR|6NUR_protein|mol2

> <Gold.PLP.Fitness>
42.4486

> <Gold.PLP.PLP>
-28.5052

> <Gold.PLP.part.hbond>
-3.0000

> <Gold.PLP.part.metal>
0.0000

> <Gold.PLP.part.buried>
-2.9980

> <Gold.PLP.part.nonpolar>
-23.5188

> <Gold.PLP.part.repulsive>
0.3891

> <Gold.PLP.ligand.clash>
0.0000

> <Gold.PLP.ligand.torsion>
0.3576

> <Gold.PLP.Chemscore.Hbond>
2.8640

> <Gold.PLP.Chemscore.CHOScore>
2.0000

> <Gold.PLP.Chemscore.Metal>
0.0000

> <Gold.Chemscore.Hbonds>
donor molecule, donor type, donor heavy atom, donor atom, acceptor molecule, acceptor atom, score
      L1  H     9    27       P1  7948  1.00
      L1  H    17    33       P1  7948  0.66
      P1  H 10752 10763       L1    16  0.82
      L1  C     5    24       P1 10186  1.00
      L1  C     7    26       P1 10747  0.71

> <Gold.PLP.Chemscore.Internal.Correction>
0.0666

> <Gold.Rescore>
     Score         DG    S(hbond)    S(metal)    S(lipo)     H(rot)  DE(clash)    DE(int)     intcor
     14.66     -15.01       2.20        0.00      59.70       1.88       0.11       0.24       ----

> <Gold.Chemscore.Fitness>
14.6577

> <Gold.Chemscore.DG>
-15.0061

> <Gold.Chemscore.ZeroCoef>
-5.4800

> <Gold.Chemscore.Hbond>
2.2033

> <Gold.Chemscore.Metal>
0.0000

> <Gold.Chemscore.Lipo>
59.7010

> <Gold.Chemscore.Internal_Hbond>
0.0000

> <Gold.Chemscore.DEClash>
0.1103

> <Gold.Chemscore.DEInternal>
0.2382

> <Gold.Chemscore.Rot>
1.8821

> <Gold.Chemscore.Internal.Correction>
   9.000000E+99

> <Gold.Chemscore.Hbonds>
donor molecule, donor type, donor heavy atom, donor atom, acceptor molecule, acceptor atom, score
      L1  H     9    27       P1  7948  0.91
      L1  H    17    33       P1  7948  0.08
      P1  H 10752 10763       L1    16  0.79

> <Gold.Chemscore.Hbond.Weighted>
-7.3592

> <Gold.Chemscore.Metal.Weighted>
-0.0000

> <Gold.Chemscore.Lipo.Weighted>
-6.9850

> <Gold.Chemscore.Internal_Hbond.Weighted>
0.0000

> <Gold.Chemscore.DEClash.Weighted>
0.1103

> <Gold.Chemscore.DEInternal.Weighted>
0.2382

> <Gold.Chemscore.Rot.Weighted>
4.8181

> <Gold.Chemscore.Internal.Correction.Weighted>
   9.000000E+99

> <Gold.Protein.RotatedTorsions>
[ 6907 6896 6895 6894 ] final  151.89 input  -60.11 | X-H torsion
[ 7974 7965 7964 7962 ] final -177.63 input  175.53 | X-H torsion
[ 8008 7997 7996 7995 ] final -138.41 input   59.86 | X-H torsion
[ 10167 10162 10161 10158 ] final -140.86 input  -65.29 | X-H torsion
[ 10718 10713 10712 10709 ] final -128.45 input   66.30 | X-H torsion
[ 10763 10752 10751 10750 ] final   70.38 input  -60.55 | X-H torsion
[ 11005 11000 10999 10996 ] final -126.48 input  -57.11 | X-H torsion

> <Gold.Protein.ActiveResidues>
 VAL166  LYS551  ARG553  GLY616  TRP617  ASP618  TYR619  PRO620  LYS621  CYS622 
 ASP623  PHE694  ASN695  SER759  ASP760  ASP761  ALA762  ILE779  LEU786  VAL792 
 PHE793  MET794  SER795  GLU796  ALA797  LYS798  CYS799  TRP800  GLU811  SER814 

> <Gold.Protein.RotatedAtoms>
  152.0943  133.4217  159.4557 H   0  0  0  0  0  0  0  0  0  0  0  0  # atno 6907 bound_to 6896
  150.6863  134.2835  159.4646 H   0  0  0  0  0  0  0  0  0  0  0  0  # atno 6908 bound_to 6896
  152.0689  134.9546  160.0625 H   0  0  0  0  0  0  0  0  0  0  0  0  # atno 6909 bound_to 6896
  144.7128  140.0990  143.6417 H   0  0  0  0  0  0  0  0  0  0  0  0  # atno 7974 bound_to 7965
  155.4279  140.0523  157.3021 H   0  0  0  0  0  0  0  0  0  0  0  0  # atno 8008 bound_to 7997
  154.4873  140.2106  155.9585 H   0  0  0  0  0  0  0  0  0  0  0  0  # atno 8009 bound_to 7997
  156.1293  140.3174  155.8329 H   0  0  0  0  0  0  0  0  0  0  0  0  # atno 8010 bound_to 7997
  139.8241  143.7535  152.2666 H   0  0  0  0  0  0  0  0  0  0  0  0  # atno 10167 bound_to 10162
  156.1952  130.6821  151.0473 H   0  0  0  0  0  0  0  0  0  0  0  0  # atno 10718 bound_to 10713
  153.0338  135.5176  154.7432 H   0  0  0  0  0  0  0  0  0  0  0  0  # atno 10763 bound_to 10752
  154.6425  135.2914  155.0088 H   0  0  0  0  0  0  0  0  0  0  0  0  # atno 10764 bound_to 10752
  154.1001  135.6637  153.4919 H   0  0  0  0  0  0  0  0  0  0  0  0  # atno 10765 bound_to 10752
  140.9678  134.0847  157.3901 H   0  0  0  0  0  0  0  0  0  0  0  0  # atno 11005 bound_to 11000
  145.9554  139.2763  143.1187 LP  0  0  0  0  0  0  0  0  0  0  0  0  # atno 17320 bound_to 7965
  145.9278  140.9070  143.0372 LP  0  0  0  0  0  0  0  0  0  0  0  0  # atno 17321 bound_to 7965
  139.7722  144.7473  151.0208 LP  0  0  0  0  0  0  0  0  0  0  0  0  # atno 17342 bound_to 10162
  140.7811  143.4633  151.0248 LP  0  0  0  0  0  0  0  0  0  0  0  0  # atno 17343 bound_to 10162
  157.6953  131.0796  150.6987 LP  0  0  0  0  0  0  0  0  0  0  0  0  # atno 17370 bound_to 10713
  156.7044  130.4633  149.5564 LP  0  0  0  0  0  0  0  0  0  0  0  0  # atno 17371 bound_to 10713
  139.8901  135.0109  156.6716 LP  0  0  0  0  0  0  0  0  0  0  0  0  # atno 17394 bound_to 11000
  140.7373  133.9007  155.8253 LP  0  0  0  0  0  0  0  0  0  0  0  0  # atno 17395 bound_to 11000

$$$$
