#       Name:                AV-unprocessed.smi:1726
#       Creating user name   scv26
#       Creation time:       Fri Mar 27 08:17:29 2020


#       File generated by GOLD software.
#

@<TRIPOS>MOLECULE
AV-unprocessed.smi:1726
    47    48     1
SMALL
NO_CHARGES


@<TRIPOS>ATOM
      1 ****        -3.2173  -0.9270  -3.1053 C.3            1 S1                 0.0000
      2 ****        -3.3624  -2.0249  -2.0414 C.3            1 S1                 0.0000
      3 ****        -3.0232  -1.5474  -0.6768 N.4            1 S1                 1.0000
      4 ****        -3.6125  -2.4108   0.3797 C.3            1 S1                 0.0000
      5 ****        -3.3656  -1.8264   1.7803 C.3            1 S1                 0.0000
      6 ****        -1.8682  -1.6058   2.0299 C.3            1 S1                 0.0000
      7 ****        -1.2746  -0.7318   0.9147 C.3            1 S1                 0.0000
      8 ****         0.1613  -0.5699   1.1204 N.am           1 S1                 0.0000
      9 ****         0.9038   0.4279   0.6195 C.2            1 S1                 0.0000
     10 ****         0.4371   1.3250  -0.0828 O.2            1 S1                 0.0000
     11 ****         2.1949   0.2874   0.9684 N.am           1 S1                 0.0000
     12 ****         3.2895   1.1166   0.6713 C.2            1 S1                 0.0000
     13 ****         3.1926   2.4179   0.2818 C.2            1 S1                 0.0000
     14 ****         4.3649   3.2376   0.0028 C.2            1 S1                 0.0000
     15 ****         4.2923   4.6586  -0.5271 C.3            1 S1                 0.0000
     16 ****         4.3710   5.5240   0.4828 F              1 S1                 0.0000
     17 ****         5.2959   4.9094  -1.3685 F              1 S1                 0.0000
     18 ****         3.1428   4.8708  -1.1681 F              1 S1                 0.0000
     19 ****         5.5450   2.5395   0.1716 C.2            1 S1                 0.0000
     20 ****         5.7282   1.2646   0.5800 N.pl3          1 S1                -1.0000
     21 ****         4.6250   0.5078   0.8403 C.2            1 S1                 0.0000
     22 ****         4.7187  -0.6631   1.2104 O.2            1 S1                 0.0000
     23 ****        -1.5635  -1.3519  -0.4689 C.3            1 S1                 0.0000
     24 ****        -3.5698  -1.2846  -4.0730 H              1 S1                 0.0000
     25 ****        -2.1817  -0.6150  -3.2367 H              1 S1                 0.0000
     26 ****        -3.8052  -0.0461  -2.8459 H              1 S1                 0.0000
     27 ****        -4.3998  -2.3619  -2.0548 H              1 S1                 0.0000
     28 ****        -2.7532  -2.8929  -2.2974 H              1 S1                 0.0000
     29 ****        -4.6869  -2.5091   0.2199 H              1 S1                 0.0000
     30 ****        -3.1881  -3.4138   0.3100 H              1 S1                 0.0000
     31 ****        -3.8976  -0.8794   1.8809 H              1 S1                 0.0000
     32 ****        -3.7751  -2.4929   2.5399 H              1 S1                 0.0000
     33 ****        -1.7176  -1.1356   3.0024 H              1 S1                 0.0000
     34 ****        -1.3566  -2.5690   2.0647 H              1 S1                 0.0000
     35 ****        -1.7476   0.2513   0.9664 H              1 S1                 0.0000
     36 ****         0.6252  -1.2678   1.6838 H              1 S1                 0.0000
     37 ****         2.4362  -0.5468   1.4834 H              1 S1                 0.0000
     38 ****         2.2315   2.8963   0.1884 H              1 S1                 0.0000
     39 ****         6.4836   3.0869  -0.0596 H              1 S1                 0.0000
     40 ****        -1.0503  -2.3098  -0.5700 H              1 S1                 0.0000
     41 ****        -1.1640  -0.6986  -1.2437 H              1 S1                 0.0000
     42 ****        -3.4574  -0.6410  -0.5751 H              1 S1                 0.0000
     43 ****        -0.5383   1.3311  -0.3034 LP             1 S1                 0.0000
     44 ****         1.0333   2.0476  -0.4325 LP             1 S1                 0.0000
     45 ****         6.6477   0.8869   0.6883 LP             1 S1                 0.0000
     46 ****         3.8933  -1.1967   1.3949 LP             1 S1                 0.0000
     47 ****         5.6201  -1.0802   1.3265 LP             1 S1                 0.0000
@<TRIPOS>BOND
    1    1    2 1     
    2    1   24 1     
    3    1   25 1     
    4    1   26 1     
    5    2    3 1     
    6    2   27 1     
    7    2   28 1     
    8    3   23 1     
    9    3    4 1     
   10    3   42 1     
   11    4    5 1     
   12    4   29 1     
   13    4   30 1     
   14    5    6 1     
   15    5   31 1     
   16    5   32 1     
   17    6    7 1     
   18    6   33 1     
   19    6   34 1     
   20    7    8 1     
   21    7   23 1     
   22    7   35 1     
   23    8    9 am    
   24    8   36 1     
   25    9   10 2     
   26    9   11 am    
   27   11   12 1     
   28   11   37 1     
   29   12   21 1     
   30   12   13 2     
   31   13   14 1     
   32   13   38 1     
   33   14   15 1     
   34   14   19 2     
   35   15   16 1     
   36   15   17 1     
   37   15   18 1     
   38   19   20 1     
   39   19   39 1     
   40   20   21 1     
   41   21   22 2     
   42   23   40 1     
   43   23   41 1     
   44   10   43 1     
   45   10   44 1     
   46   20   45 1     
   47   22   46 1     
   48   22   47 1     
@<TRIPOS>SUBSTRUCTURE
      1 S1             1
@<TRIPOS>SET
LONE_PAIRS      STATIC     ATOMS    <user>   **** ""
5 43 44 45 46 47
DONOR_HYDROGENS      STATIC     ATOMS    <user>   **** ""
3 42 36 37
ATOM$BLUE        STATIC     ATOMS    COLORGROUP SYSTEM
5 43 44 45 46 47
ATOM$RED        STATIC     ATOMS    COLORGROUP SYSTEM
3 42 36 37
