#       Name:                AV-unprocessed.smi:1840
#       Creating user name   scv26
#       Creation time:       Fri Mar 27 09:19:26 2020


#       File generated by GOLD software.
#

@<TRIPOS>MOLECULE
AV-unprocessed.smi:1840
    46    47     1
SMALL
NO_CHARGES


@<TRIPOS>ATOM
      1 ****        -3.5950  -1.3745  -2.0522 C.3            1 S1                 0.0000
      2 ****        -2.9805  -0.6146  -0.8688 C.3            1 S1                 0.0000
      3 ****        -3.3668  -1.2607   0.4782 C.3            1 S1                 0.0000
      4 ****        -2.9001  -0.4945   1.6213 N.pl3          1 S1                 0.0000
      5 ****        -3.3692   0.7141   2.0916 C.2            1 S1                 0.0000
      6 ****        -2.6128   1.0488   3.1779 C.2            1 S1                 0.0000
      7 ****        -1.6991  -0.0348   3.2999 C.2            1 S1                 0.0000
      8 ****        -1.8749  -0.9582   2.3686 N.2            1 S1                 0.0000
      9 ****        -1.5271  -0.5781  -1.0285 N.am           1 S1                 0.0000
     10 ****        -0.7481   0.4961  -0.8346 C.2            1 S1                 0.0000
     11 ****        -1.1712   1.6092  -0.5218 O.2            1 S1                 0.0000
     12 ****         0.5491   0.2027  -1.0039 N.am           1 S1                 0.0000
     13 ****         1.6683   1.1344  -0.8477 C.3            1 S1                 0.0000
     14 ****         2.6215   1.0156  -2.0546 C.3            1 S1                 0.0000
     15 ****         3.4062  -0.3078  -2.0517 C.3            1 S1                 0.0000
     16 ****         4.1601  -0.5043  -0.7282 C.3            1 S1                 0.0000
     17 ****         3.2077  -0.4185   0.4748 C.3            1 S1                 0.0000
     18 ****         2.4272   0.9121   0.4868 C.3            1 S1                 0.0000
     19 ****         1.5224   1.0205   1.7260 C.3            1 S1                 0.0000
     20 ****        -4.6825  -1.4021  -1.9785 H              1 S1                 0.0000
     21 ****        -3.2381  -2.4042  -2.0919 H              1 S1                 0.0000
     22 ****        -3.3425  -0.8969  -2.9997 H              1 S1                 0.0000
     23 ****        -3.3841   0.3993  -0.8950 H              1 S1                 0.0000
     24 ****        -4.4518  -1.3420   0.5550 H              1 S1                 0.0000
     25 ****        -2.9747  -2.2774   0.5417 H              1 S1                 0.0000
     26 ****        -4.1877   1.2322   1.6143 H              1 S1                 0.0000
     27 ****        -2.6979   1.9339   3.7904 H              1 S1                 0.0000
     28 ****        -0.9164  -0.1755   4.0305 H              1 S1                 0.0000
     29 ****        -1.0784  -1.4475  -1.2774 H              1 S1                 0.0000
     30 ****         0.7878  -0.7467  -1.2496 H              1 S1                 0.0000
     31 ****         1.2818   2.1551  -0.8483 H              1 S1                 0.0000
     32 ****         2.0658   1.1182  -2.9874 H              1 S1                 0.0000
     33 ****         3.3287   1.8459  -2.0331 H              1 S1                 0.0000
     34 ****         2.7236  -1.1431  -2.2116 H              1 S1                 0.0000
     35 ****         4.1098  -0.3225  -2.8844 H              1 S1                 0.0000
     36 ****         4.6696  -1.4683  -0.7304 H              1 S1                 0.0000
     37 ****         4.9370   0.2555  -0.6336 H              1 S1                 0.0000
     38 ****         2.5124  -1.2586   0.4507 H              1 S1                 0.0000
     39 ****         3.7794  -0.5218   1.3976 H              1 S1                 0.0000
     40 ****         3.1624   1.7142   0.5694 H              1 S1                 0.0000
     41 ****         0.8045   0.2017   1.7696 H              1 S1                 0.0000
     42 ****         0.9630   1.9563   1.7246 H              1 S1                 0.0000
     43 ****         2.1103   0.9885   2.6434 H              1 S1                 0.0000
     44 ****        -1.3634  -1.8087   2.2456 LP             1 S1                 0.0000
     45 ****        -2.1527   1.7540  -0.3968 LP             1 S1                 0.0000
     46 ****        -0.5333   2.3684  -0.3927 LP             1 S1                 0.0000
@<TRIPOS>BOND
    1    1    2 1     
    2    1   20 1     
    3    1   21 1     
    4    1   22 1     
    5    2    3 1     
    6    2    9 1     
    7    2   23 1     
    8    3    4 1     
    9    3   24 1     
   10    3   25 1     
   11    4    8 1     
   12    4    5 1     
   13    5    6 2     
   14    5   26 1     
   15    6    7 1     
   16    6   27 1     
   17    7    8 2     
   18    7   28 1     
   19    9   10 am    
   20    9   29 1     
   21   10   11 2     
   22   10   12 am    
   23   12   13 1     
   24   12   30 1     
   25   13   18 1     
   26   13   14 1     
   27   13   31 1     
   28   14   15 1     
   29   14   32 1     
   30   14   33 1     
   31   15   16 1     
   32   15   34 1     
   33   15   35 1     
   34   16   17 1     
   35   16   36 1     
   36   16   37 1     
   37   17   18 1     
   38   17   38 1     
   39   17   39 1     
   40   18   19 1     
   41   18   40 1     
   42   19   41 1     
   43   19   42 1     
   44   19   43 1     
   45    8   44 1     
   46   11   45 1     
   47   11   46 1     
@<TRIPOS>SUBSTRUCTURE
      1 S1             1
@<TRIPOS>SET
LONE_PAIRS      STATIC     ATOMS    <user>   **** ""
3 44 45 46
DONOR_HYDROGENS      STATIC     ATOMS    <user>   **** ""
2 29 30
ATOM$BLUE        STATIC     ATOMS    COLORGROUP SYSTEM
3 44 45 46
ATOM$RED        STATIC     ATOMS    COLORGROUP SYSTEM
2 29 30
