AV-unprocessed.smi:1362|AV-procd|sdf|5559|dock2
  -GOLD-   22720 5153D 1   1.00000     0.00000
 Structure written by MMmdl.
 39 39  0  0  0  0  0  0  0  0  1 V2000
  150.5134  134.9615  154.2957 C   0  0  0  0  0  0  0  0  0  0  0  0
  150.9956  136.2907  154.8374 C   0  0  0  0  0  0  0  0  0  0  0  0
  151.8212  136.4098  155.8246 N   0  0  0  0  0  0  0  0  0  0  0  0
  152.1930  137.6958  156.2405 C   0  0  0  0  0  0  0  0  0  0  0  0
  153.1602  137.7523  157.4107 C   0  0  0  0  0  0  0  0  0  0  0  0
  151.7075  138.8150  155.6273 C   0  0  0  0  0  0  0  0  0  0  0  0
  152.0911  140.2285  156.0619 C   0  0  0  0  0  0  0  0  0  0  0  0
  151.7142  140.6006  157.4976 C   0  0  0  0  0  0  0  0  0  0  0  0
  150.9134  139.9083  158.1262 O   0  0  0  0  0  0  0  0  0  0  0  0
  152.3103  141.6897  158.0072 N   0  0  0  0  0  0  0  0  0  0  0  0
  152.1245  142.2074  159.3620 C   0  0  1  0  0  0  0  0  0  0  0  0
  153.4241  141.9826  160.1585 C   0  0  0  0  0  0  0  0  0  0  0  0
  151.6849  143.6949  159.3113 C   0  0  0  0  0  0  0  0  0  0  0  0
  152.5382  144.5268  158.3364 C   0  0  0  0  0  0  0  0  0  0  0  0
  151.7044  144.3567  160.7033 C   0  0  0  0  0  0  0  0  0  0  0  0
  150.7664  138.6670  154.4999 C   0  0  0  0  0  0  0  0  0  0  0  0
  150.2664  139.6044  153.8799 O   0  0  0  0  0  0  0  0  0  0  0  0
  150.4630  137.3919  154.1692 N   0  0  0  0  0  0  0  0  0  0  0  0
  149.8214  137.2384  153.4051 H   0  0  0  0  0  0  0  0  0  0  0  0
  150.0064  134.3986  155.0799 H   0  0  0  0  0  0  0  0  0  0  0  0
  151.3593  134.3712  153.9426 H   0  0  0  0  0  0  0  0  0  0  0  0
  149.8176  135.0928  153.4656 H   0  0  0  0  0  0  0  0  0  0  0  0
  154.0920  138.2353  157.1162 H   0  0  0  0  0  0  0  0  0  0  0  0
  153.4029  136.7523  157.7723 H   0  0  0  0  0  0  0  0  0  0  0  0
  152.7269  138.3090  158.2416 H   0  0  0  0  0  0  0  0  0  0  0  0
  153.1678  140.3461  155.9332 H   0  0  0  0  0  0  0  0  0  0  0  0
  151.6514  140.9701  155.3944 H   0  0  0  0  0  0  0  0  0  0  0  0
  152.9531  142.1950  157.4145 H   0  0  0  0  0  0  0  0  0  0  0  0
  151.3270  141.6417  159.8475 H   0  0  0  0  0  0  0  0  0  0  0  0
  153.3012  142.2316  161.2120 H   0  0  0  0  0  0  0  0  0  0  0  0
  154.2415  142.5863  159.7627 H   0  0  0  0  0  0  0  0  0  0  0  0
  153.7357  140.9382  160.1181 H   0  0  0  0  0  0  0  0  0  0  0  0
  150.6552  143.7309  158.9526 H   0  0  0  0  0  0  0  0  0  0  0  0
  153.5965  144.4786  158.5952 H   0  0  0  0  0  0  0  0  0  0  0  0
  152.2415  145.5759  158.3524 H   0  0  0  0  0  0  0  0  0  0  0  0
  152.4278  144.1859  157.3074 H   0  0  0  0  0  0  0  0  0  0  0  0
  152.7013  144.3200  161.1439 H   0  0  0  0  0  0  0  0  0  0  0  0
  151.0165  143.8719  161.3961 H   0  0  0  0  0  0  0  0  0  0  0  0
  151.4074  145.4042  160.6443 H   0  0  0  0  0  0  0  0  0  0  0  0
  1  2  1  0  0  0  0
  1 20  1  0  0  0  0
  1 21  1  0  0  0  0
  1 22  1  0  0  0  0
  2 18  1  0  0  0  0
  2  3  2  0  0  0  0
  3  4  1  0  0  0  0
  4  5  1  0  0  0  0
  4  6  2  0  0  0  0
  5 23  1  0  0  0  0
  5 24  1  0  0  0  0
  5 25  1  0  0  0  0
  6  7  1  0  0  0  0
  6 16  1  0  0  0  0
  7  8  1  0  0  0  0
  7 26  1  0  0  0  0
  7 27  1  0  0  0  0
  8  9  2  0  0  0  0
  8 10  1  0  0  0  0
 10 11  1  0  0  0  0
 10 28  1  0  0  0  0
 11 12  1  0  0  0  0
 11 13  1  0  0  0  0
 11 29  1  0  0  0  0
 12 30  1  0  0  0  0
 12 31  1  0  0  0  0
 12 32  1  0  0  0  0
 13 14  1  0  0  0  0
 13 15  1  0  0  0  0
 13 33  1  0  0  0  0
 14 34  1  0  0  0  0
 14 35  1  0  0  0  0
 14 36  1  0  0  0  0
 15 37  1  0  0  0  0
 15 38  1  0  0  0  0
 15 39  1  0  0  0  0
 16 17  2  0  0  0  0
 16 18  1  0  0  0  0
 18 19  1  0  0  0  0
M  END
> <s_m_source_file>
AV-unprocessed.smi

> <i_m_source_file_index>
1362

> <i_lp_mmshare_version>
43012

> <i_f3d_flags>
0

> <s_epik_input>
W0NIM11jMW5jKFtDSDNdKWMoYyg9TylbbkhdMSlbQ0gyXUMoPU8pW05IXVtDQEhdKFtDSDNdKVtDSF0oW0NIM10pW0NIM10=

> <s_epik_cmdline>
J2VwaWtfcHl0aG9uJywgJy1waCcsICc3LjAnLCAnLXRuJywgJzgnLCAnLW1hJywgJzIwMCcsICctbWV0YWxfYmluZGluZycsICctaW1hZScsICc8aW5maWxlLm1hZT4nLCAnLW9tYWUnLCAnPG91dGZpbGUubWFlPic=

> <r_lp_tautomer_probability>
0.839158

> <r_epik_Ionization_Penalty>
0.000388977

> <r_epik_Ionization_Penalty_Charging>
0.000356458

> <r_epik_Ionization_Penalty_Neutral>
3.25191e-05

> <r_epik_State_Penalty>
0.0469868

> <r_epik_Charging_Adjusted_Penalty>
0.0473433

> <i_epik_Tot_Q>
0

> <i_epik_Tot_abs_Q>
0

> <r_epik_Metal_State_Penalty>
0.223288

> <b_epik_Metal_Only>
0

> <s_lp_Force_Field>
OPLS_2005

> <r_lp_Energy>
7.84192

> <b_lp_Chiralities_Consistent>
1

> <s_lp_Variant>
AV-unprocessed.smi:1362-2

> <Gold.Version>
5.8.1

> <Gold.Id.Protein>
6NUR|6NUR_protein|mol2

> <Gold.PLP.Fitness>
41.6390

> <Gold.PLP.PLP>
-33.5332

> <Gold.PLP.part.hbond>
-3.1916

> <Gold.PLP.part.metal>
0.0000

> <Gold.PLP.part.buried>
-1.8750

> <Gold.PLP.part.nonpolar>
-29.7842

> <Gold.PLP.part.repulsive>
2.0066

> <Gold.PLP.ligand.clash>
0.0000

> <Gold.PLP.ligand.torsion>
0.4137

> <Gold.PLP.Chemscore.Hbond>
2.9666

> <Gold.PLP.Chemscore.CHOScore>
0.0000

> <Gold.PLP.Chemscore.Metal>
0.0000

> <Gold.Chemscore.Hbonds>
donor molecule, donor type, donor heavy atom, donor atom, acceptor molecule, acceptor atom, score
      L1  H    18    19       P1  7948  1.00
      P1  H  7989  7998       L1    17  1.00
      P1  H 10752 10765       L1     3  0.85

> <Gold.PLP.Chemscore.Internal.Correction>
0.0335

> <Gold.Rescore>
     Score         DG    S(hbond)    S(metal)    S(lipo)     H(rot)  DE(clash)    DE(int)     intcor
     15.71     -16.49       1.68        0.00      83.01       1.69       0.38       0.39       ----

> <Gold.Chemscore.Fitness>
15.7137

> <Gold.Chemscore.DG>
-16.4865

> <Gold.Chemscore.ZeroCoef>
-5.4800

> <Gold.Chemscore.Hbond>
1.6840

> <Gold.Chemscore.Metal>
0.0000

> <Gold.Chemscore.Lipo>
83.0113

> <Gold.Chemscore.Internal_Hbond>
0.0000

> <Gold.Chemscore.DEClash>
0.3793

> <Gold.Chemscore.DEInternal>
0.3935

> <Gold.Chemscore.Rot>
1.6916

> <Gold.Chemscore.Internal.Correction>
   9.000000E+99

> <Gold.Chemscore.Hbonds>
donor molecule, donor type, donor heavy atom, donor atom, acceptor molecule, acceptor atom, score
      L1  H    18    19       P1  7948  0.52
      P1  H  7989  7998       L1    17  0.66
      P1  H 10752 10765       L1     3  0.12

> <Gold.Chemscore.Hbond.Weighted>
-5.6247

> <Gold.Chemscore.Metal.Weighted>
-0.0000

> <Gold.Chemscore.Lipo.Weighted>
-9.7123

> <Gold.Chemscore.Internal_Hbond.Weighted>
0.0000

> <Gold.Chemscore.DEClash.Weighted>
0.3793

> <Gold.Chemscore.DEInternal.Weighted>
0.3935

> <Gold.Chemscore.Rot.Weighted>
4.3305

> <Gold.Chemscore.Internal.Correction.Weighted>
   9.000000E+99

> <Gold.Protein.RotatedTorsions>
[ 6907 6896 6895 6894 ] final  120.18 input  -60.11 | X-H torsion
[ 7974 7965 7964 7962 ] final  171.69 input  175.53 | X-H torsion
[ 8008 7997 7996 7995 ] final   46.26 input   59.86 | X-H torsion
[ 10167 10162 10161 10158 ] final   93.31 input  -65.29 | X-H torsion
[ 10718 10713 10712 10709 ] final -112.08 input   66.30 | X-H torsion
[ 10763 10752 10751 10750 ] final -145.96 input  -60.55 | X-H torsion
[ 11005 11000 10999 10996 ] final  -85.76 input  -57.11 | X-H torsion

> <Gold.Protein.ActiveResidues>
 VAL166  LYS551  ARG553  GLY616  TRP617  ASP618  TYR619  PRO620  LYS621  CYS622 
 ASP623  PHE694  ASN695  SER759  ASP760  ASP761  ALA762  ILE779  LEU786  VAL792 
 PHE793  MET794  SER795  GLU796  ALA797  LYS798  CYS799  TRP800  GLU811  SER814 

> <Gold.Protein.RotatedAtoms>
  152.4417  133.7460  159.6667 H   0  0  0  0  0  0  0  0  0  0  0  0  # atno 6907 bound_to 6896
  150.8309  133.8083  159.3105 H   0  0  0  0  0  0  0  0  0  0  0  0  # atno 6908 bound_to 6896
  151.5737  135.1064  160.0053 H   0  0  0  0  0  0  0  0  0  0  0  0  # atno 6909 bound_to 6896
  144.7288  139.9387  143.6427 H   0  0  0  0  0  0  0  0  0  0  0  0  # atno 7974 bound_to 7965
  155.3494  140.3412  155.4239 H   0  0  0  0  0  0  0  0  0  0  0  0  # atno 8008 bound_to 7997
  156.1771  140.1651  156.8377 H   0  0  0  0  0  0  0  0  0  0  0  0  # atno 8009 bound_to 7997
  154.5294  140.0748  156.8300 H   0  0  0  0  0  0  0  0  0  0  0  0  # atno 8010 bound_to 7997
  139.8192  144.6739  150.9540 H   0  0  0  0  0  0  0  0  0  0  0  0  # atno 10167 bound_to 10162
  156.0684  130.5901  150.8460 H   0  0  0  0  0  0  0  0  0  0  0  0  # atno 10718 bound_to 10713
  154.8359  135.3399  154.6586 H   0  0  0  0  0  0  0  0  0  0  0  0  # atno 10763 bound_to 10752
  153.7201  135.6958  153.5019 H   0  0  0  0  0  0  0  0  0  0  0  0  # atno 10764 bound_to 10752
  153.2388  135.4391  155.0628 H   0  0  0  0  0  0  0  0  0  0  0  0  # atno 10765 bound_to 10752
  141.1638  133.7417  156.9062 H   0  0  0  0  0  0  0  0  0  0  0  0  # atno 11005 bound_to 11000
  146.0801  139.3789  143.0469 LP  0  0  0  0  0  0  0  0  0  0  0  0  # atno 17320 bound_to 7965
  145.7852  140.9839  143.1078 LP  0  0  0  0  0  0  0  0  0  0  0  0  # atno 17321 bound_to 7965
  140.7814  143.4108  151.0996 LP  0  0  0  0  0  0  0  0  0  0  0  0  # atno 17342 bound_to 10162
  139.7770  143.8411  152.3131 LP  0  0  0  0  0  0  0  0  0  0  0  0  # atno 17343 bound_to 10162
  157.5740  131.0946  150.9373 LP  0  0  0  0  0  0  0  0  0  0  0  0  # atno 17370 bound_to 10713
  156.9583  130.5446  149.5285 LP  0  0  0  0  0  0  0  0  0  0  0  0  # atno 17371 bound_to 10713
  140.1549  134.9205  157.2640 LP  0  0  0  0  0  0  0  0  0  0  0  0  # atno 17394 bound_to 11000
  140.2679  134.3494  155.7383 LP  0  0  0  0  0  0  0  0  0  0  0  0  # atno 17395 bound_to 11000

$$$$
