AV-unprocessed.smi:1196|AV-procd|sdf|4998|dock4
  -GOLD-   22720 4 03D 1   1.00000     0.00000
 Structure written by MMmdl.
 37 38  0  0  0  0  0  0  0  0  1 V2000
  152.9186  138.8547  158.3260 C   0  0  0  0  0  0  0  0  0  0  0  0
  152.2009  140.1834  158.0425 C   0  0  2  0  0  0  0  0  0  0  0  0
  152.2388  141.1183  159.2674 C   0  0  0  0  0  0  0  0  0  0  0  0
  152.1581  142.5209  158.8991 N   0  0  0  0  0  0  0  0  0  0  0  0
  152.6691  143.6137  159.5678 C   0  0  0  0  0  0  0  0  0  0  0  0
  152.3403  144.7233  158.8434 C   0  0  0  0  0  0  0  0  0  0  0  0
  151.6211  144.2007  157.7324 C   0  0  0  0  0  0  0  0  0  0  0  0
  151.5154  142.8822  157.7676 N   0  0  0  0  0  0  0  0  0  0  0  0
  150.8157  139.9302  157.6498 N   0  0  0  0  0  0  0  0  0  0  0  0
  150.2877  140.1934  156.4451 C   0  0  0  0  0  0  0  0  0  0  0  0
  150.9406  140.6549  155.5083 O   0  0  0  0  0  0  0  0  0  0  0  0
  148.7939  139.8896  156.2941 C   0  0  0  0  0  0  0  0  0  0  0  0
  148.4760  138.8879  155.1663 C   0  0  0  0  0  0  0  0  0  0  0  0
  148.4253  139.5428  153.7725 C   0  0  1  0  0  0  0  0  0  0  0  0
  148.1745  138.5838  152.7099 N   0  0  0  0  0  0  0  0  0  0  0  0
  147.0516  138.8534  152.0302 C   0  0  0  0  0  0  0  0  0  0  0  0
  146.6072  138.2065  151.0849 O   0  0  0  0  0  0  0  0  0  0  0  0
  146.5005  139.9496  152.5622 N   0  0  0  0  0  0  0  0  0  0  0  0
  147.2067  140.4291  153.5845 C   0  0  0  0  0  0  0  0  0  0  0  0
  146.9397  141.4131  154.2716 O   0  0  0  0  0  0  0  0  0  0  0  0
  153.9580  139.0242  158.6083 H   0  0  0  0  0  0  0  0  0  0  0  0
  152.9202  138.2102  157.4463 H   0  0  0  0  0  0  0  0  0  0  0  0
  152.4379  138.3088  159.1383 H   0  0  0  0  0  0  0  0  0  0  0  0
  152.7224  140.6802  157.2221 H   0  0  0  0  0  0  0  0  0  0  0  0
  151.4206  140.8886  159.9515 H   0  0  0  0  0  0  0  0  0  0  0  0
  153.1631  140.9678  159.8270 H   0  0  0  0  0  0  0  0  0  0  0  0
  153.2149  143.5119  160.4941 H   0  0  0  0  0  0  0  0  0  0  0  0
  152.5770  145.7518  159.0719 H   0  0  0  0  0  0  0  0  0  0  0  0
  151.1758  144.7365  156.9072 H   0  0  0  0  0  0  0  0  0  0  0  0
  150.2057  139.5496  158.3585 H   0  0  0  0  0  0  0  0  0  0  0  0
  148.4211  139.5023  157.2433 H   0  0  0  0  0  0  0  0  0  0  0  0
  148.2755  140.8320  156.1137 H   0  0  0  0  0  0  0  0  0  0  0  0
  149.2161  138.0853  155.1679 H   0  0  0  0  0  0  0  0  0  0  0  0
  147.5135  138.4152  155.3690 H   0  0  0  0  0  0  0  0  0  0  0  0
  149.3345  140.1078  153.5626 H   0  0  0  0  0  0  0  0  0  0  0  0
  148.7867  137.8047  152.5160 H   0  0  0  0  0  0  0  0  0  0  0  0
  145.6398  140.3615  152.2322 H   0  0  0  0  0  0  0  0  0  0  0  0
  1  2  1  0  0  0  0
  1 21  1  0  0  0  0
  1 22  1  0  0  0  0
  1 23  1  0  0  0  0
  2  3  1  0  0  0  0
  2  9  1  0  0  0  0
  2 24  1  0  0  0  0
  3  4  1  0  0  0  0
  3 25  1  0  0  0  0
  3 26  1  0  0  0  0
  4  8  1  0  0  0  0
  4  5  1  0  0  0  0
  5  6  2  0  0  0  0
  5 27  1  0  0  0  0
  6  7  1  0  0  0  0
  6 28  1  0  0  0  0
  7  8  2  0  0  0  0
  7 29  1  0  0  0  0
  9 10  1  0  0  0  0
  9 30  1  0  0  0  0
 10 11  2  0  0  0  0
 10 12  1  0  0  0  0
 12 13  1  0  0  0  0
 12 31  1  0  0  0  0
 12 32  1  0  0  0  0
 13 14  1  0  0  0  0
 13 33  1  0  0  0  0
 13 34  1  0  0  0  0
 14 19  1  0  0  0  0
 14 15  1  0  0  0  0
 14 35  1  0  0  0  0
 15 16  1  0  0  0  0
 15 36  1  0  0  0  0
 16 17  2  0  0  0  0
 16 18  1  0  0  0  0
 18 19  1  0  0  0  0
 18 37  1  0  0  0  0
 19 20  2  0  0  0  0
M  END
> <s_m_source_file>
AV-unprocessed.smi

> <i_m_source_file_index>
1196

> <i_lp_mmshare_version>
43012

> <i_f3d_flags>
0

> <s_epik_input>
bjFbY0hdW2NIXVtjSF1uMVtDSDJdW0NAQEhdKFtDSDNdKVtOSF1DKD1PKVtDSDJdW0NIMl1bQ0BASF0yW05IXUMoPU8pW05IXUMyPU8=

> <s_epik_cmdline>
J2VwaWtfcHl0aG9uJywgJy1waCcsICc3LjAnLCAnLXRuJywgJzgnLCAnLW1hJywgJzIwMCcsICctbWV0YWxfYmluZGluZycsICctaW1hZScsICc8aW5maWxlLm1hZT4nLCAnLW9tYWUnLCAnPG91dGZpbGUubWFlPic=

> <r_lp_tautomer_probability>
1

> <r_epik_Ionization_Penalty>
0.00815973

> <r_epik_Ionization_Penalty_Charging>
0

> <r_epik_Ionization_Penalty_Neutral>
0.00815973

> <r_epik_State_Penalty>
0.00583796

> <r_epik_Charging_Adjusted_Penalty>
0.00583796

> <i_epik_Tot_Q>
0

> <i_epik_Tot_abs_Q>
0

> <r_epik_Metal_State_Penalty>
0.409204

> <b_epik_Metal_Only>
0

> <s_lp_Force_Field>
OPLS_2005

> <r_lp_Energy>
16.3903

> <b_lp_Chiralities_Consistent>
1

> <s_lp_Variant>
AV-unprocessed.smi:1196-3

> <Gold.Version>
5.8.1

> <Gold.Id.Protein>
6NUR|6NUR_protein|mol2

> <Gold.PLP.Fitness>
47.0251

> <Gold.PLP.PLP>
-34.2148

> <Gold.PLP.part.hbond>
-4.9253

> <Gold.PLP.part.metal>
0.0000

> <Gold.PLP.part.buried>
-1.9038

> <Gold.PLP.part.nonpolar>
-30.1874

> <Gold.PLP.part.repulsive>
1.8066

> <Gold.PLP.ligand.clash>
0.0000

> <Gold.PLP.ligand.torsion>
0.8230

> <Gold.PLP.Chemscore.Hbond>
3.7948

> <Gold.PLP.Chemscore.CHOScore>
1.0000

> <Gold.PLP.Chemscore.Metal>
0.0000

> <Gold.Chemscore.Hbonds>
donor molecule, donor type, donor heavy atom, donor atom, acceptor molecule, acceptor atom, score
      L1  H    15    36       P1  7948  0.96
      L1  H    18    37       P1 10175  0.94
      P1  H  7954  7966       L1    17  1.00
      P1  H  7989  7998       L1    11  0.65
      L1  C     7    29       P1  8028  0.91

> <Gold.PLP.Chemscore.Internal.Correction>
0.0719

> <Gold.Rescore>
     Score         DG    S(hbond)    S(metal)    S(lipo)     H(rot)  DE(clash)    DE(int)     intcor
     14.00     -15.35       2.76        0.00      70.16       2.96       0.58       0.77       ----

> <Gold.Chemscore.Fitness>
14.0013

> <Gold.Chemscore.DG>
-15.3528

> <Gold.Chemscore.ZeroCoef>
-5.4800

> <Gold.Chemscore.Hbond>
2.7649

> <Gold.Chemscore.Metal>
0.0000

> <Gold.Chemscore.Lipo>
70.1644

> <Gold.Chemscore.Internal_Hbond>
0.0000

> <Gold.Chemscore.DEClash>
0.5802

> <Gold.Chemscore.DEInternal>
0.7713

> <Gold.Chemscore.Rot>
2.9575

> <Gold.Chemscore.Internal.Correction>
   9.000000E+99

> <Gold.Chemscore.Hbonds>
donor molecule, donor type, donor heavy atom, donor atom, acceptor molecule, acceptor atom, score
      L1  H    15    36       P1  7948  0.92
      L1  H    18    37       P1 10175  0.36
      P1  H  7954  7966       L1    17  0.53
      P1  H  7989  7998       L1    11  0.63

> <Gold.Chemscore.Hbond.Weighted>
-9.2349

> <Gold.Chemscore.Metal.Weighted>
-0.0000

> <Gold.Chemscore.Lipo.Weighted>
-8.2092

> <Gold.Chemscore.Internal_Hbond.Weighted>
0.0000

> <Gold.Chemscore.DEClash.Weighted>
0.5802

> <Gold.Chemscore.DEInternal.Weighted>
0.7713

> <Gold.Chemscore.Rot.Weighted>
7.5713

> <Gold.Chemscore.Internal.Correction.Weighted>
   9.000000E+99

> <Gold.Protein.RotatedTorsions>
[ 6907 6896 6895 6894 ] final   69.39 input  -60.11 | X-H torsion
[ 7974 7965 7964 7962 ] final  -79.69 input  175.53 | X-H torsion
[ 8008 7997 7996 7995 ] final   83.64 input   59.86 | X-H torsion
[ 10167 10162 10161 10158 ] final  -99.43 input  -65.29 | X-H torsion
[ 10718 10713 10712 10709 ] final -158.59 input   66.30 | X-H torsion
[ 10763 10752 10751 10750 ] final  -31.95 input  -60.55 | X-H torsion
[ 11005 11000 10999 10996 ] final -119.86 input  -57.11 | X-H torsion

> <Gold.Protein.ActiveResidues>
 VAL166  LYS551  ARG553  GLY616  TRP617  ASP618  TYR619  PRO620  LYS621  CYS622 
 ASP623  PHE694  ASN695  SER759  ASP760  ASP761  ALA762  ILE779  LEU786  VAL792 
 PHE793  MET794  SER795  GLU796  ALA797  LYS798  CYS799  TRP800  GLU811  SER814 

> <Gold.Protein.RotatedAtoms>
  152.4683  134.5022  159.9728 H   0  0  0  0  0  0  0  0  0  0  0  0  # atno 6907 bound_to 6896
  151.5055  133.3489  159.2884 H   0  0  0  0  0  0  0  0  0  0  0  0  # atno 6908 bound_to 6896
  150.8679  134.8074  159.7194 H   0  0  0  0  0  0  0  0  0  0  0  0  # atno 6909 bound_to 6896
  145.5698  140.9468  143.1401 H   0  0  0  0  0  0  0  0  0  0  0  0  # atno 7974 bound_to 7965
  155.9266  140.3417  155.6215 H   0  0  0  0  0  0  0  0  0  0  0  0  # atno 8008 bound_to 7997
  155.7208  140.0783  157.2350 H   0  0  0  0  0  0  0  0  0  0  0  0  # atno 8009 bound_to 7997
  154.4078  140.1606  156.2387 H   0  0  0  0  0  0  0  0  0  0  0  0  # atno 8010 bound_to 7997
  140.2625  143.3398  152.0612 H   0  0  0  0  0  0  0  0  0  0  0  0  # atno 10167 bound_to 10162
  156.5562  130.8627  151.2795 H   0  0  0  0  0  0  0  0  0  0  0  0  # atno 10718 bound_to 10713
  153.8058  135.6886  153.4848 H   0  0  0  0  0  0  0  0  0  0  0  0  # atno 10763 bound_to 10752
  153.1660  135.4561  154.9835 H   0  0  0  0  0  0  0  0  0  0  0  0  # atno 10764 bound_to 10752
  154.7988  135.3329  154.7543 H   0  0  0  0  0  0  0  0  0  0  0  0  # atno 10765 bound_to 10752
  141.0185  134.0159  157.3316 H   0  0  0  0  0  0  0  0  0  0  0  0  # atno 11005 bound_to 11000
  144.7443  139.7363  143.7298 LP  0  0  0  0  0  0  0  0  0  0  0  0  # atno 17320 bound_to 7965
  146.1792  139.4976  142.9877 LP  0  0  0  0  0  0  0  0  0  0  0  0  # atno 17321 bound_to 7965
  139.5012  144.6709  151.6244 LP  0  0  0  0  0  0  0  0  0  0  0  0  # atno 17342 bound_to 10162
  140.5954  143.9705  150.6351 LP  0  0  0  0  0  0  0  0  0  0  0  0  # atno 17343 bound_to 10162
  157.7377  130.9801  150.2212 LP  0  0  0  0  0  0  0  0  0  0  0  0  # atno 17370 bound_to 10713
  156.2839  130.3737  149.7907 LP  0  0  0  0  0  0  0  0  0  0  0  0  # atno 17371 bound_to 10713
  139.9131  135.0193  156.7774 LP  0  0  0  0  0  0  0  0  0  0  0  0  # atno 17394 bound_to 11000
  140.6613  133.9642  155.7806 LP  0  0  0  0  0  0  0  0  0  0  0  0  # atno 17395 bound_to 11000

$$$$
