AV-unprocessed.smi:3096|AV-procd|sdf|11796|dock5
  -GOLD-   2272017173D 1   1.00000     0.00000
 Structure written by MMmdl.
 33 33  0  0  0  0  0  0  0  0  2 V2000
  152.7038  138.6784  154.6109 C   0  0  0  0  0  0  0  0  0  0  0  0
  151.5891  137.9328  154.6026 C   0  0  0  0  0  0  0  0  0  0  0  0
  150.2404  138.4093  155.0945 C   0  0  0  0  0  0  0  0  0  0  0  0
  150.4029  139.7201  155.7344 N   0  0  0  0  0  0  0  0  0  0  0  0
  149.7042  140.8334  155.4377 C   0  0  0  0  0  0  0  0  0  0  0  0
  148.7647  140.8038  154.4722 N   0  3  0  0  0  0  0  0  0  0  0  0
  147.9365  141.9401  154.0509 C   0  0  0  0  0  0  0  0  0  0  0  0
  149.9458  141.9772  156.1080 N   0  0  0  0  0  0  0  0  0  0  0  0
  150.9283  142.1425  157.1873 C   0  0  0  0  0  0  0  0  0  0  0  0
  151.6057  143.5175  157.1185 C   0  0  0  0  0  0  0  0  0  0  0  0
  151.6385  144.1602  158.4177 N   0  0  0  0  0  0  0  0  0  0  0  0
  150.9520  145.2791  158.8408 C   0  0  0  0  0  0  0  0  0  0  0  0
  151.3049  145.5039  160.1406 C   0  0  0  0  0  0  0  0  0  0  0  0
  152.2222  144.4548  160.4287 C   0  0  0  0  0  0  0  0  0  0  0  0
  152.4195  143.6520  159.3952 N   0  0  0  0  0  0  0  0  0  0  0  0
  152.6978  139.6944  154.9772 H   0  0  0  0  0  0  0  0  0  0  0  0
  153.6403  138.2792  154.2494 H   0  0  0  0  0  0  0  0  0  0  0  0
  151.6358  136.9190  154.2312 H   0  0  0  0  0  0  0  0  0  0  0  0
  149.5563  138.4938  154.2499 H   0  0  0  0  0  0  0  0  0  0  0  0
  149.8169  137.6979  155.8045 H   0  0  0  0  0  0  0  0  0  0  0  0
  151.0981  139.7769  156.4650 H   0  0  0  0  0  0  0  0  0  0  0  0
  147.2642  141.6379  153.2477 H   0  0  0  0  0  0  0  0  0  0  0  0
  148.5636  142.7545  153.6881 H   0  0  0  0  0  0  0  0  0  0  0  0
  147.3366  142.3051  154.8846 H   0  0  0  0  0  0  0  0  0  0  0  0
  149.4017  142.7936  155.8675 H   0  0  0  0  0  0  0  0  0  0  0  0
  150.4183  142.0201  158.1434 H   0  0  0  0  0  0  0  0  0  0  0  0
  151.6752  141.3515  157.1147 H   0  0  0  0  0  0  0  0  0  0  0  0
  152.6289  143.4192  156.7532 H   0  0  0  0  0  0  0  0  0  0  0  0
  151.0805  144.1712  156.4204 H   0  0  0  0  0  0  0  0  0  0  0  0
  150.2782  145.8168  158.1897 H   0  0  0  0  0  0  0  0  0  0  0  0
  150.9601  146.2966  160.7880 H   0  0  0  0  0  0  0  0  0  0  0  0
  152.7473  144.2544  161.3512 H   0  0  0  0  0  0  0  0  0  0  0  0
  148.6048  139.9305  153.9904 H   0  0  0  0  0  0  0  0  0  0  0  0
  1  2  2  0  0  0  0
  1 16  1  0  0  0  0
  1 17  1  0  0  0  0
  2  3  1  0  0  0  0
  2 18  1  0  0  0  0
  3  4  1  0  0  0  0
  3 19  1  0  0  0  0
  3 20  1  0  0  0  0
  4  5  1  0  0  0  0
  4 21  1  0  0  0  0
  5  6  2  0  0  0  0
  5  8  1  0  0  0  0
  6  7  1  0  0  0  0
  6 33  1  0  0  0  0
  7 22  1  0  0  0  0
  7 23  1  0  0  0  0
  7 24  1  0  0  0  0
  8  9  1  0  0  0  0
  8 25  1  0  0  0  0
  9 10  1  0  0  0  0
  9 26  1  0  0  0  0
  9 27  1  0  0  0  0
 10 11  1  0  0  0  0
 10 28  1  0  0  0  0
 10 29  1  0  0  0  0
 11 15  1  0  0  0  0
 11 12  1  0  0  0  0
 12 13  2  0  0  0  0
 12 30  1  0  0  0  0
 13 14  1  0  0  0  0
 13 31  1  0  0  0  0
 14 15  2  0  0  0  0
 14 32  1  0  0  0  0
M  CHG  1   6   1
M  END
> <s_m_source_file>
AV-unprocessed.smi

> <i_m_source_file_index>
3096

> <i_lp_mmshare_version>
43012

> <i_f3d_flags>
0

> <s_epik_input>
W0NIMl09W0NIXVtDSDJdW05IXS9DKD1OL1tDSDNdKVtOSF1bQ0gyXVtDSDJdbjFbY0hdW2NIXVtjSF1uMQ==

> <s_epik_cmdline>
J2VwaWtfcHl0aG9uJywgJy1waCcsICc3LjAnLCAnLXRuJywgJzgnLCAnLW1hJywgJzIwMCcsICctbWV0YWxfYmluZGluZycsICctaW1hZScsICc8aW5maWxlLm1hZT4nLCAnLW9tYWUnLCAnPG91dGZpbGUubWFlPic=

> <r_lp_tautomer_probability>
1

> <r_epik_Ionization_Penalty>
5.14269e-05

> <r_epik_Ionization_Penalty_Charging>
1.55211e-07

> <r_epik_Ionization_Penalty_Neutral>
5.12717e-05

> <r_epik_State_Penalty>
-0

> <r_epik_Charging_Adjusted_Penalty>
1.55211e-07

> <i_epik_Tot_Q>
1

> <i_epik_Tot_abs_Q>
1

> <r_epik_Metal_State_Penalty>
-0

> <b_epik_Metal_Only>
0

> <s_epik_Chemistry_Notes>
This compound has an imine and may undergo hydrolysis.

> <s_lp_Force_Field>
OPLS_2005

> <r_lp_Energy>
4.847

> <b_lp_Chiralities_Consistent>
1

> <s_lp_Variant>
AV-unprocessed.smi:3096-1

> <Gold.Version>
5.8.1

> <Gold.Id.Protein>
6NUR|6NUR_protein|mol2

> <Gold.PLP.Fitness>
43.7765

> <Gold.PLP.PLP>
-36.0223

> <Gold.PLP.part.hbond>
-1.0000

> <Gold.PLP.part.metal>
0.0000

> <Gold.PLP.part.buried>
-6.0377

> <Gold.PLP.part.nonpolar>
-29.1203

> <Gold.PLP.part.repulsive>
0.3002

> <Gold.PLP.ligand.clash>
0.0000

> <Gold.PLP.ligand.torsion>
0.6207

> <Gold.PLP.Chemscore.Hbond>
2.0000

> <Gold.PLP.Chemscore.CHOScore>
0.9915

> <Gold.PLP.Chemscore.Metal>
0.0000

> <Gold.Chemscore.Hbonds>
donor molecule, donor type, donor heavy atom, donor atom, acceptor molecule, acceptor atom, score
      L1  H     8    25       P1  8028  2.00
      L1  C    12    30       P1  8029  1.00

> <Gold.PLP.Chemscore.Internal.Correction>
0.0211

> <Gold.Rescore>
     Score         DG    S(hbond)    S(metal)    S(lipo)     H(rot)  DE(clash)    DE(int)     intcor
     13.30     -13.78       0.98        0.00      84.21       1.89       0.03       0.45       ----

> <Gold.Chemscore.Fitness>
13.2988

> <Gold.Chemscore.DG>
-13.7766

> <Gold.Chemscore.ZeroCoef>
-5.4800

> <Gold.Chemscore.Hbond>
0.9819

> <Gold.Chemscore.Metal>
0.0000

> <Gold.Chemscore.Lipo>
84.2149

> <Gold.Chemscore.Internal_Hbond>
0.0000

> <Gold.Chemscore.DEClash>
0.0275

> <Gold.Chemscore.DEInternal>
0.4503

> <Gold.Chemscore.Rot>
1.8891

> <Gold.Chemscore.Internal.Correction>
   9.000000E+99

> <Gold.Chemscore.Hbonds>
donor molecule, donor type, donor heavy atom, donor atom, acceptor molecule, acceptor atom, score
      L1  H     8    25       P1  8028  0.96

> <Gold.Chemscore.Hbond.Weighted>
-3.2795

> <Gold.Chemscore.Metal.Weighted>
-0.0000

> <Gold.Chemscore.Lipo.Weighted>
-9.8531

> <Gold.Chemscore.Internal_Hbond.Weighted>
0.0000

> <Gold.Chemscore.DEClash.Weighted>
0.0275

> <Gold.Chemscore.DEInternal.Weighted>
0.4503

> <Gold.Chemscore.Rot.Weighted>
4.8361

> <Gold.Chemscore.Internal.Correction.Weighted>
   9.000000E+99

> <Gold.Protein.RotatedTorsions>
[ 6907 6896 6895 6894 ] final    8.50 input  -60.11 | X-H torsion
[ 7974 7965 7964 7962 ] final   82.35 input  175.53 | X-H torsion
[ 8008 7997 7996 7995 ] final  -32.69 input   59.86 | X-H torsion
[ 10167 10162 10161 10158 ] final   68.00 input  -65.29 | X-H torsion
[ 10718 10713 10712 10709 ] final  -45.30 input   66.30 | X-H torsion
[ 10763 10752 10751 10750 ] final -179.16 input  -60.55 | X-H torsion
[ 11005 11000 10999 10996 ] final   55.68 input  -57.11 | X-H torsion

> <Gold.Protein.ActiveResidues>
 VAL166  LYS551  ARG553  GLY616  TRP617  ASP618  TYR619  PRO620  LYS621  CYS622 
 ASP623  PHE694  ASN695  SER759  ASP760  ASP761  ALA762  ILE779  LEU786  VAL792 
 PHE793  MET794  SER795  GLU796  ALA797  LYS798  CYS799  TRP800  GLU811  SER814 

> <Gold.Protein.RotatedAtoms>
  151.7070  135.0920  160.0260 H   0  0  0  0  0  0  0  0  0  0  0  0  # atno 6907 bound_to 6896
  152.3685  133.6384  159.6077 H   0  0  0  0  0  0  0  0  0  0  0  0  # atno 6908 bound_to 6896
  150.7656  133.9225  159.3444 H   0  0  0  0  0  0  0  0  0  0  0  0  # atno 6909 bound_to 6896
  145.6262  139.2395  143.2110 H   0  0  0  0  0  0  0  0  0  0  0  0  # atno 7974 bound_to 7965
  154.4172  140.1730  156.1768 H   0  0  0  0  0  0  0  0  0  0  0  0  # atno 8008 bound_to 7997
  155.9715  140.3385  155.6556 H   0  0  0  0  0  0  0  0  0  0  0  0  # atno 8009 bound_to 7997
  155.6619  140.0702  157.2541 H   0  0  0  0  0  0  0  0  0  0  0  0  # atno 8010 bound_to 7997
  140.0835  144.5050  150.7146 H   0  0  0  0  0  0  0  0  0  0  0  0  # atno 10167 bound_to 10162
  156.2298  130.4172  149.8889 H   0  0  0  0  0  0  0  0  0  0  0  0  # atno 10718 bound_to 10713
  154.5386  135.2804  155.1116 H   0  0  0  0  0  0  0  0  0  0  0  0  # atno 10763 bound_to 10752
  154.2608  135.6322  153.5277 H   0  0  0  0  0  0  0  0  0  0  0  0  # atno 10764 bound_to 10752
  152.9973  135.5605  154.5919 H   0  0  0  0  0  0  0  0  0  0  0  0  # atno 10765 bound_to 10752
  140.0588  134.5632  155.9176 H   0  0  0  0  0  0  0  0  0  0  0  0  # atno 11005 bound_to 11000
  146.1392  140.7081  142.9375 LP  0  0  0  0  0  0  0  0  0  0  0  0  # atno 17320 bound_to 7965
  144.7211  140.4377  143.7007 LP  0  0  0  0  0  0  0  0  0  0  0  0  # atno 17321 bound_to 7965
  140.7066  143.2472  151.4709 LP  0  0  0  0  0  0  0  0  0  0  0  0  # atno 17342 bound_to 10162
  139.5766  144.1805  152.1911 LP  0  0  0  0  0  0  0  0  0  0  0  0  # atno 17343 bound_to 10162
  156.6507  130.8742  151.3531 LP  0  0  0  0  0  0  0  0  0  0  0  0  # atno 17370 bound_to 10713
  157.7127  130.9460  150.1147 LP  0  0  0  0  0  0  0  0  0  0  0  0  # atno 17371 bound_to 10713
  141.1964  133.6591  156.5689 LP  0  0  0  0  0  0  0  0  0  0  0  0  # atno 17394 bound_to 11000
  140.3803  134.7529  157.4656 LP  0  0  0  0  0  0  0  0  0  0  0  0  # atno 17395 bound_to 11000

$$$$
