AV-unprocessed.smi:2321|AV-procd|sdf|9282|dock9
  -GOLD-   2272012503D 1   1.00000     0.00000
 Structure written by MMmdl.
 36 37  0  0  0  0  0  0  0  0  1 V2000
  150.7165  140.9307  157.1735 O   0  0  0  0  0  0  0  0  0  0  0  0
  150.3699  141.9925  156.6610 C   0  0  0  0  0  0  0  0  0  0  0  0
  149.5727  142.1013  155.5803 N   0  0  0  0  0  0  0  0  0  0  0  0
  148.9666  141.0752  154.8063 C   0  0  0  0  0  0  0  0  0  0  0  0
  149.5012  139.7731  154.6512 C   0  0  0  0  0  0  0  0  0  0  0  0
  148.7901  138.8414  153.8684 C   0  0  0  0  0  0  0  0  0  0  0  0
  147.6167  139.1204  153.2618 N   0  0  0  0  0  0  0  0  0  0  0  0
  147.1031  140.3582  153.4240 C   0  0  0  0  0  0  0  0  0  0  0  0
  147.7329  141.3635  154.1850 C   0  0  0  0  0  0  0  0  0  0  0  0
  147.1612  142.5857  154.3112 F   0  0  0  0  0  0  0  0  0  0  0  0
  150.8009  143.1709  157.1484 N   0  0  0  0  0  0  0  0  0  0  0  0
  151.6718  143.4174  158.3003 C   0  0  1  0  0  0  0  0  0  0  0  0
  150.8526  144.0671  159.4297 C   0  0  0  0  0  0  0  0  0  0  0  0
  151.7130  144.2978  160.6808 C   0  0  0  0  0  0  0  0  0  0  0  0
  152.3625  142.9899  161.1590 C   0  0  0  0  0  0  0  0  0  0  0  0
  153.1961  142.3272  160.0421 C   0  0  1  0  0  0  0  0  0  0  0  0
  153.8673  141.0222  160.5181 C   0  0  0  0  0  0  0  0  0  0  0  0
  154.8699  140.6811  159.7080 F   0  0  0  0  0  0  0  0  0  0  0  0
  154.3445  141.1784  161.7530 F   0  0  0  0  0  0  0  0  0  0  0  0
  152.9752  140.0318  160.5400 F   0  0  0  0  0  0  0  0  0  0  0  0
  152.3225  142.1052  158.7886 C   0  0  0  0  0  0  0  0  0  0  0  0
  149.4385  143.0378  155.2278 H   0  0  0  0  0  0  0  0  0  0  0  0
  150.4235  139.4681  155.1204 H   0  0  0  0  0  0  0  0  0  0  0  0
  149.1725  137.8409  153.7313 H   0  0  0  0  0  0  0  0  0  0  0  0
  146.1606  140.5532  152.9341 H   0  0  0  0  0  0  0  0  0  0  0  0
  150.5010  143.9949  156.6475 H   0  0  0  0  0  0  0  0  0  0  0  0
  152.4564  144.1215  158.0170 H   0  0  0  0  0  0  0  0  0  0  0  0
  150.4360  145.0169  159.0920 H   0  0  0  0  0  0  0  0  0  0  0  0
  150.0041  143.4312  159.6868 H   0  0  0  0  0  0  0  0  0  0  0  0
  152.4880  145.0333  160.4622 H   0  0  0  0  0  0  0  0  0  0  0  0
  151.1015  144.7216  161.4779 H   0  0  0  0  0  0  0  0  0  0  0  0
  152.9916  143.1954  162.0256 H   0  0  0  0  0  0  0  0  0  0  0  0
  151.5860  142.3031  161.4980 H   0  0  0  0  0  0  0  0  0  0  0  0
  153.9935  143.0205  159.7697 H   0  0  0  0  0  0  0  0  0  0  0  0
  151.5454  141.3722  159.0096 H   0  0  0  0  0  0  0  0  0  0  0  0
  152.9303  141.6740  157.9927 H   0  0  0  0  0  0  0  0  0  0  0  0
  1  2  2  0  0  0  0
  2  3  1  0  0  0  0
  2 11  1  0  0  0  0
  3  4  1  0  0  0  0
  3 22  1  0  0  0  0
  4  9  1  0  0  0  0
  4  5  2  0  0  0  0
  5  6  1  0  0  0  0
  5 23  1  0  0  0  0
  6  7  2  0  0  0  0
  6 24  1  0  0  0  0
  7  8  1  0  0  0  0
  8  9  2  0  0  0  0
  8 25  1  0  0  0  0
  9 10  1  0  0  0  0
 11 12  1  0  0  0  0
 11 26  1  0  0  0  0
 12 21  1  0  0  0  0
 12 13  1  0  0  0  0
 12 27  1  0  0  0  0
 13 14  1  0  0  0  0
 13 28  1  0  0  0  0
 13 29  1  0  0  0  0
 14 15  1  0  0  0  0
 14 30  1  0  0  0  0
 14 31  1  0  0  0  0
 15 16  1  0  0  0  0
 15 32  1  0  0  0  0
 15 33  1  0  0  0  0
 16 17  1  0  0  0  0
 16 21  1  0  0  0  0
 16 34  1  0  0  0  0
 17 18  1  0  0  0  0
 17 19  1  0  0  0  0
 17 20  1  0  0  0  0
 21 35  1  0  0  0  0
 21 36  1  0  0  0  0
M  END
> <s_m_source_file>
AV-unprocessed.smi

> <i_m_source_file_index>
2321

> <i_lp_mmshare_version>
43012

> <i_f3d_flags>
0

> <s_epik_input>
RkMoRikoRilbQ0BASF0oW0NIMl0xKVtDSDJdW0NIMl1bQ0gyXVtDQEhdMVtOSF1DKD1PKVtOSF1jMltjSF1bY0hdbltjSF1jMkY=

> <s_epik_cmdline>
J2VwaWtfcHl0aG9uJywgJy1waCcsICc3LjAnLCAnLXRuJywgJzgnLCAnLW1hJywgJzIwMCcsICctbWV0YWxfYmluZGluZycsICctaW1hZScsICc8aW5maWxlLm1hZT4nLCAnLW9tYWUnLCAnPG91dGZpbGUubWFlPic=

> <r_epik_Ionization_Penalty>
0.00319438

> <r_epik_Ionization_Penalty_Charging>
0

> <r_epik_Ionization_Penalty_Neutral>
0.00319438

> <r_epik_State_Penalty>
0.00222511

> <r_epik_Charging_Adjusted_Penalty>
0.00222511

> <i_epik_Tot_Q>
0

> <i_epik_Tot_abs_Q>
0

> <r_epik_Metal_State_Penalty>
-0

> <b_epik_Metal_Only>
0

> <s_lp_Force_Field>
OPLS_2005

> <r_lp_Energy>
26.7556

> <b_lp_Chiralities_Consistent>
1

> <s_lp_Variant>
AV-unprocessed.smi:2321-2

> <Gold.Version>
5.8.1

> <Gold.Id.Protein>
6NUR|6NUR_protein|mol2

> <Gold.PLP.Fitness>
47.3448

> <Gold.PLP.PLP>
-44.0069

> <Gold.PLP.part.hbond>
-2.0000

> <Gold.PLP.part.metal>
0.0000

> <Gold.PLP.part.buried>
-2.5294

> <Gold.PLP.part.nonpolar>
-41.7156

> <Gold.PLP.part.repulsive>
1.3094

> <Gold.PLP.ligand.clash>
6.5792

> <Gold.PLP.ligand.torsion>
0.6671

> <Gold.PLP.Chemscore.Hbond>
1.7440

> <Gold.PLP.Chemscore.CHOScore>
2.0000

> <Gold.PLP.Chemscore.Metal>
0.0000

> <Gold.Chemscore.Hbonds>
donor molecule, donor type, donor heavy atom, donor atom, acceptor molecule, acceptor atom, score
      L1  H     3    22       P1  8028  0.91
      L1  H    11    26       P1  8028  0.83
      L1  C     6    24       P1  7948  1.00
      L1  C     8    25       P1 10175  1.00

> <Gold.PLP.Chemscore.Internal.Correction>
0.0194

> <Gold.Rescore>
     Score         DG    S(hbond)    S(metal)    S(lipo)     H(rot)  DE(clash)    DE(int)     intcor
     18.05     -21.47       1.92        0.00     103.86       1.00       0.22       3.21       ----

> <Gold.Chemscore.Fitness>
18.0494

> <Gold.Chemscore.DG>
-21.4724

> <Gold.Chemscore.ZeroCoef>
-5.4800

> <Gold.Chemscore.Hbond>
1.9166

> <Gold.Chemscore.Metal>
0.0000

> <Gold.Chemscore.Lipo>
103.8557

> <Gold.Chemscore.Internal_Hbond>
0.0000

> <Gold.Chemscore.DEClash>
0.2165

> <Gold.Chemscore.DEInternal>
3.2065

> <Gold.Chemscore.Rot>
1.0000

> <Gold.Chemscore.Internal.Correction>
   9.000000E+99

> <Gold.Chemscore.Hbonds>
donor molecule, donor type, donor heavy atom, donor atom, acceptor molecule, acceptor atom, score
      L1  H     3    22       P1  8028  0.88
      L1  H    11    26       P1  8028  0.79

> <Gold.Chemscore.Hbond.Weighted>
-6.4013

> <Gold.Chemscore.Metal.Weighted>
-0.0000

> <Gold.Chemscore.Lipo.Weighted>
-12.1511

> <Gold.Chemscore.Internal_Hbond.Weighted>
0.0000

> <Gold.Chemscore.DEClash.Weighted>
0.2165

> <Gold.Chemscore.DEInternal.Weighted>
3.2065

> <Gold.Chemscore.Rot.Weighted>
2.5600

> <Gold.Chemscore.Internal.Correction.Weighted>
   9.000000E+99

> <Gold.Protein.RotatedTorsions>
[ 6907 6896 6895 6894 ] final  -77.73 input  -60.11 | X-H torsion
[ 7974 7965 7964 7962 ] final  157.10 input  175.53 | X-H torsion
[ 8008 7997 7996 7995 ] final   58.92 input   59.86 | X-H torsion
[ 10167 10162 10161 10158 ] final  161.38 input  -65.29 | X-H torsion
[ 10718 10713 10712 10709 ] final  -19.10 input   66.30 | X-H torsion
[ 10763 10752 10751 10750 ] final   63.16 input  -60.55 | X-H torsion
[ 11005 11000 10999 10996 ] final -132.68 input  -57.11 | X-H torsion

> <Gold.Protein.ActiveResidues>
 VAL166  LYS551  ARG553  GLY616  TRP617  ASP618  TYR619  PRO620  LYS621  CYS622 
 ASP623  PHE694  ASN695  SER759  ASP760  ASP761  ALA762  ILE779  LEU786  VAL792 
 PHE793  MET794  SER795  GLU796  ALA797  LYS798  CYS799  TRP800  GLU811  SER814 

> <Gold.Protein.RotatedAtoms>
  150.6991  134.4378  159.5277 H   0  0  0  0  0  0  0  0  0  0  0  0  # atno 6907 bound_to 6896
  152.2093  134.8513  160.0508 H   0  0  0  0  0  0  0  0  0  0  0  0  # atno 6908 bound_to 6896
  151.9404  133.3601  159.4000 H   0  0  0  0  0  0  0  0  0  0  0  0  # atno 6909 bound_to 6896
  144.7923  139.7294  143.6216 H   0  0  0  0  0  0  0  0  0  0  0  0  # atno 7974 bound_to 7965
  155.5579  140.3487  155.4484 H   0  0  0  0  0  0  0  0  0  0  0  0  # atno 8008 bound_to 7997
  156.0536  140.1323  157.0048 H   0  0  0  0  0  0  0  0  0  0  0  0  # atno 8009 bound_to 7997
  154.4446  140.1000  156.6397 H   0  0  0  0  0  0  0  0  0  0  0  0  # atno 8010 bound_to 7997
  139.4849  144.4542  151.8790 H   0  0  0  0  0  0  0  0  0  0  0  0  # atno 10167 bound_to 10162
  156.5504  130.4700  149.6455 H   0  0  0  0  0  0  0  0  0  0  0  0  # atno 10718 bound_to 10713
  153.0008  135.5439  154.6308 H   0  0  0  0  0  0  0  0  0  0  0  0  # atno 10763 bound_to 10752
  154.5586  135.2832  155.0943 H   0  0  0  0  0  0  0  0  0  0  0  0  # atno 10764 bound_to 10752
  154.2154  135.6460  153.5181 H   0  0  0  0  0  0  0  0  0  0  0  0  # atno 10765 bound_to 10752
  140.9148  134.1521  157.4361 H   0  0  0  0  0  0  0  0  0  0  0  0  # atno 11005 bound_to 11000
  146.2180  139.5584  142.9637 LP  0  0  0  0  0  0  0  0  0  0  0  0  # atno 17320 bound_to 7965
  145.5762  141.0388  143.2147 LP  0  0  0  0  0  0  0  0  0  0  0  0  # atno 17321 bound_to 7965
  140.4000  144.2505  150.5893 LP  0  0  0  0  0  0  0  0  0  0  0  0  # atno 17342 bound_to 10162
  140.5066  143.2302  151.8599 LP  0  0  0  0  0  0  0  0  0  0  0  0  # atno 17343 bound_to 10162
  156.2890  130.7113  151.1957 LP  0  0  0  0  0  0  0  0  0  0  0  0  # atno 17370 bound_to 10713
  157.7388  131.0536  150.5268 LP  0  0  0  0  0  0  0  0  0  0  0  0  # atno 17371 bound_to 10713
  139.8764  134.9949  156.5719 LP  0  0  0  0  0  0  0  0  0  0  0  0  # atno 17394 bound_to 11000
  140.8063  133.8464  155.8771 LP  0  0  0  0  0  0  0  0  0  0  0  0  # atno 17395 bound_to 11000

$$$$
