AV-unprocessed.smi:2151|AV-procd|sdf|8759|dock2
  -GOLD-   2272011533D 1   1.00000     0.00000
 Structure written by MMmdl.
 39 40  0  0  0  0  0  0  0  0  1 V2000
  147.9486  141.7763  155.6187 C   0  0  0  0  0  0  0  0  0  0  0  0
  149.0116  140.8249  155.0508 C   0  0  1  0  0  0  0  0  0  0  0  0
  149.7520  140.2258  156.1600 N   0  0  0  0  0  0  0  0  0  0  0  0
  151.0631  139.9388  156.1714 C   0  0  0  0  0  0  0  0  0  0  0  0
  151.8106  140.1387  155.2132 O   0  0  0  0  0  0  0  0  0  0  0  0
  151.5966  139.3056  157.4642 C   0  0  0  0  0  0  0  0  0  0  0  0
  152.1284  140.2915  158.4201 N   0  0  0  0  0  0  0  0  0  0  0  0
  151.7663  141.6383  158.2210 C   0  0  0  0  0  0  0  0  0  0  0  0
  152.1936  142.6377  159.0164 C   0  0  0  0  0  0  0  0  0  0  0  0
  151.7355  144.0731  158.8093 C   0  0  0  0  0  0  0  0  0  0  0  0
  152.1254  144.5374  157.6216 F   0  0  0  0  0  0  0  0  0  0  0  0
  150.4058  144.1364  158.8641 F   0  0  0  0  0  0  0  0  0  0  0  0
  152.2278  144.8746  159.7547 F   0  0  0  0  0  0  0  0  0  0  0  0
  153.0365  142.2577  160.1331 C   0  0  0  0  0  0  0  0  0  0  0  0
  153.3802  140.9723  160.3461 C   0  0  0  0  0  0  0  0  0  0  0  0
  152.9224  139.8990  159.4609 C   0  0  0  0  0  0  0  0  0  0  0  0
  153.2332  138.7216  159.6430 O   0  0  0  0  0  0  0  0  0  0  0  0
  148.3893  139.7236  154.1694 C   0  0  2  0  0  0  0  0  0  0  0  0
  147.4871  140.2349  153.0438 C   0  0  0  0  0  0  0  0  0  0  0  0
  146.6092  139.0324  152.7866 C   0  0  0  0  0  0  0  0  0  0  0  0
  146.3900  138.5009  154.1994 C   0  0  0  0  0  0  0  0  0  0  0  0
  147.5457  138.8753  154.9458 O   0  0  0  0  0  0  0  0  0  0  0  0
  147.3901  142.2658  154.8204 H   0  0  0  0  0  0  0  0  0  0  0  0
  148.4067  142.5589  156.2245 H   0  0  0  0  0  0  0  0  0  0  0  0
  147.2333  141.2441  156.2469 H   0  0  0  0  0  0  0  0  0  0  0  0
  149.6834  141.4165  154.4265 H   0  0  0  0  0  0  0  0  0  0  0  0
  149.2206  140.0158  156.9925 H   0  0  0  0  0  0  0  0  0  0  0  0
  150.8059  138.7171  157.9337 H   0  0  0  0  0  0  0  0  0  0  0  0
  152.3667  138.5820  157.1935 H   0  0  0  0  0  0  0  0  0  0  0  0
  151.1071  141.8073  157.3817 H   0  0  0  0  0  0  0  0  0  0  0  0
  153.4011  143.0159  160.8104 H   0  0  0  0  0  0  0  0  0  0  0  0
  154.0100  140.7256  161.1883 H   0  0  0  0  0  0  0  0  0  0  0  0
  149.1742  139.1012  153.7359 H   0  0  0  0  0  0  0  0  0  0  0  0
  146.8798  141.0740  153.3869 H   0  0  0  0  0  0  0  0  0  0  0  0
  148.0439  140.5529  152.1617 H   0  0  0  0  0  0  0  0  0  0  0  0
  145.6793  139.2792  152.2738 H   0  0  0  0  0  0  0  0  0  0  0  0
  147.1481  138.2979  152.1865 H   0  0  0  0  0  0  0  0  0  0  0  0
  145.5181  138.9733  154.6532 H   0  0  0  0  0  0  0  0  0  0  0  0
  146.2373  137.4216  154.2168 H   0  0  0  0  0  0  0  0  0  0  0  0
  1  2  1  0  0  0  0
  1 23  1  0  0  0  0
  1 24  1  0  0  0  0
  1 25  1  0  0  0  0
  2  3  1  0  0  0  0
  2 18  1  0  0  0  0
  2 26  1  0  0  0  0
  3  4  1  0  0  0  0
  3 27  1  0  0  0  0
  4  5  2  0  0  0  0
  4  6  1  0  0  0  0
  6  7  1  0  0  0  0
  6 28  1  0  0  0  0
  6 29  1  0  0  0  0
  7 16  1  0  0  0  0
  7  8  1  0  0  0  0
  8  9  2  0  0  0  0
  8 30  1  0  0  0  0
  9 10  1  0  0  0  0
  9 14  1  0  0  0  0
 10 11  1  0  0  0  0
 10 12  1  0  0  0  0
 10 13  1  0  0  0  0
 14 15  2  0  0  0  0
 14 31  1  0  0  0  0
 15 16  1  0  0  0  0
 15 32  1  0  0  0  0
 16 17  2  0  0  0  0
 18 22  1  0  0  0  0
 18 19  1  0  0  0  0
 18 33  1  0  0  0  0
 19 20  1  0  0  0  0
 19 34  1  0  0  0  0
 19 35  1  0  0  0  0
 20 21  1  0  0  0  0
 20 36  1  0  0  0  0
 20 37  1  0  0  0  0
 21 22  1  0  0  0  0
 21 38  1  0  0  0  0
 21 39  1  0  0  0  0
M  END
> <s_m_source_file>
AV-unprocessed.smi

> <i_m_source_file_index>
2151

> <i_lp_mmshare_version>
43012

> <i_f3d_flags>
0

> <s_epik_input>
TzFbQ0gyXVtDSDJdW0NIMl1bQ0BIXTFbQ0BIXShbQ0gzXSlbTkhdQyg9TylbQ0gyXW4yW2NIXWMoQyhGKShGKUYpW2NIXVtjSF1jMj1P

> <s_epik_cmdline>
J2VwaWtfcHl0aG9uJywgJy1waCcsICc3LjAnLCAnLXRuJywgJzgnLCAnLW1hJywgJzIwMCcsICctbWV0YWxfYmluZGluZycsICctaW1hZScsICc8aW5maWxlLm1hZT4nLCAnLW9tYWUnLCAnPG91dGZpbGUubWFlPic=

> <r_lp_tautomer_probability>
1

> <r_epik_Ionization_Penalty>
4.20109e-08

> <r_epik_Ionization_Penalty_Charging>
1.89977e-08

> <r_epik_Ionization_Penalty_Neutral>
2.30132e-08

> <r_epik_State_Penalty>
-0

> <r_epik_Charging_Adjusted_Penalty>
1.89977e-08

> <i_epik_Tot_Q>
0

> <i_epik_Tot_abs_Q>
0

> <r_epik_Metal_State_Penalty>
-0

> <b_epik_Metal_Only>
0

> <s_lp_Force_Field>
OPLS_2005

> <r_lp_Energy>
30.2794

> <b_lp_Chiralities_Consistent>
1

> <s_lp_Variant>
AV-unprocessed.smi:2151-2

> <Gold.Version>
5.8.1

> <Gold.Id.Protein>
6NUR|6NUR_protein|mol2

> <Gold.PLP.Fitness>
44.8469

> <Gold.PLP.PLP>
-44.1400

> <Gold.PLP.part.hbond>
-1.0000

> <Gold.PLP.part.metal>
0.0000

> <Gold.PLP.part.buried>
-1.7227

> <Gold.PLP.part.nonpolar>
-41.8772

> <Gold.PLP.part.repulsive>
0.1439

> <Gold.PLP.ligand.clash>
0.0000

> <Gold.PLP.ligand.torsion>
0.9701

> <Gold.PLP.Chemscore.Hbond>
0.8480

> <Gold.PLP.Chemscore.CHOScore>
0.0000

> <Gold.PLP.Chemscore.Metal>
0.0000

> <Gold.Chemscore.Hbonds>
donor molecule, donor type, donor heavy atom, donor atom, acceptor molecule, acceptor atom, score
      P1  H  7989  7998       L1     5  0.88

> <Gold.PLP.Chemscore.Internal.Correction>
0.1032

> <Gold.Rescore>
     Score         DG    S(hbond)    S(metal)    S(lipo)     H(rot)  DE(clash)    DE(int)     intcor
     12.98     -14.14       0.92        0.00      87.56       1.82       0.07       1.09       ----

> <Gold.Chemscore.Fitness>
12.9765

> <Gold.Chemscore.DG>
-14.1379

> <Gold.Chemscore.ZeroCoef>
-5.4800

> <Gold.Chemscore.Hbond>
0.9221

> <Gold.Chemscore.Metal>
0.0000

> <Gold.Chemscore.Lipo>
87.5617

> <Gold.Chemscore.Internal_Hbond>
0.0000

> <Gold.Chemscore.DEClash>
0.0667

> <Gold.Chemscore.DEInternal>
1.0947

> <Gold.Chemscore.Rot>
1.8228

> <Gold.Chemscore.Internal.Correction>
   9.000000E+99

> <Gold.Chemscore.Hbonds>
donor molecule, donor type, donor heavy atom, donor atom, acceptor molecule, acceptor atom, score
      P1  H  7989  7998       L1     5  0.86

> <Gold.Chemscore.Hbond.Weighted>
-3.0797

> <Gold.Chemscore.Metal.Weighted>
-0.0000

> <Gold.Chemscore.Lipo.Weighted>
-10.2447

> <Gold.Chemscore.Internal_Hbond.Weighted>
0.0000

> <Gold.Chemscore.DEClash.Weighted>
0.0667

> <Gold.Chemscore.DEInternal.Weighted>
1.0947

> <Gold.Chemscore.Rot.Weighted>
4.6665

> <Gold.Chemscore.Internal.Correction.Weighted>
   9.000000E+99

> <Gold.Protein.RotatedTorsions>
[ 6907 6896 6895 6894 ] final  -76.07 input  -60.11 | X-H torsion
[ 7974 7965 7964 7962 ] final -130.94 input  175.53 | X-H torsion
[ 8008 7997 7996 7995 ] final  160.50 input   59.86 | X-H torsion
[ 10167 10162 10161 10158 ] final   95.32 input  -65.29 | X-H torsion
[ 10718 10713 10712 10709 ] final  -35.36 input   66.30 | X-H torsion
[ 10763 10752 10751 10750 ] final   53.52 input  -60.55 | X-H torsion
[ 11005 11000 10999 10996 ] final   40.85 input  -57.11 | X-H torsion

> <Gold.Protein.ActiveResidues>
 VAL166  LYS551  ARG553  GLY616  TRP617  ASP618  TYR619  PRO620  LYS621  CYS622 
 ASP623  PHE694  ASN695  SER759  ASP760  ASP761  ALA762  ILE779  LEU786  VAL792 
 PHE793  MET794  SER795  GLU796  ALA797  LYS798  CYS799  TRP800  GLU811  SER814 

> <Gold.Protein.RotatedAtoms>
  150.7039  134.4627  159.5388 H   0  0  0  0  0  0  0  0  0  0  0  0  # atno 6907 bound_to 6896
  152.2299  134.8329  160.0484 H   0  0  0  0  0  0  0  0  0  0  0  0  # atno 6908 bound_to 6896
  151.9149  133.3535  159.3913 H   0  0  0  0  0  0  0  0  0  0  0  0  # atno 6909 bound_to 6896
  144.9426  140.7256  143.4837 H   0  0  0  0  0  0  0  0  0  0  0  0  # atno 7974 bound_to 7965
  156.2168  140.1802  156.7571 H   0  0  0  0  0  0  0  0  0  0  0  0  # atno 8008 bound_to 7997
  154.5803  140.0667  156.9123 H   0  0  0  0  0  0  0  0  0  0  0  0  # atno 8009 bound_to 7997
  155.2514  140.3329  155.4284 H   0  0  0  0  0  0  0  0  0  0  0  0  # atno 8010 bound_to 7997
  139.8000  144.6817  150.9778 H   0  0  0  0  0  0  0  0  0  0  0  0  # atno 10167 bound_to 10162
  156.3396  130.4291  149.7799 H   0  0  0  0  0  0  0  0  0  0  0  0  # atno 10718 bound_to 10713
  152.9796  135.5776  154.4754 H   0  0  0  0  0  0  0  0  0  0  0  0  # atno 10763 bound_to 10752
  154.4311  135.2773  155.1914 H   0  0  0  0  0  0  0  0  0  0  0  0  # atno 10764 bound_to 10752
  154.3622  135.6186  153.5750 H   0  0  0  0  0  0  0  0  0  0  0  0  # atno 10765 bound_to 10752
  140.1891  134.4009  155.8156 H   0  0  0  0  0  0  0  0  0  0  0  0  # atno 11005 bound_to 11000
  145.2967  139.1864  143.4711 LP  0  0  0  0  0  0  0  0  0  0  0  0  # atno 17320 bound_to 7965
  146.3291  140.2952  142.8617 LP  0  0  0  0  0  0  0  0  0  0  0  0  # atno 17321 bound_to 7965
  140.7820  143.4291  151.0722 LP  0  0  0  0  0  0  0  0  0  0  0  0  # atno 17342 bound_to 10162
  139.7964  143.8146  152.3158 LP  0  0  0  0  0  0  0  0  0  0  0  0  # atno 17343 bound_to 10162
  156.5041  130.8142  151.3143 LP  0  0  0  0  0  0  0  0  0  0  0  0  # atno 17370 bound_to 10713
  157.7444  130.9935  150.2675 LP  0  0  0  0  0  0  0  0  0  0  0  0  # atno 17371 bound_to 10713
  141.2226  133.7037  156.8064 LP  0  0  0  0  0  0  0  0  0  0  0  0  # atno 17394 bound_to 11000
  140.2180  134.8778  157.3346 LP  0  0  0  0  0  0  0  0  0  0  0  0  # atno 17395 bound_to 11000

$$$$
