AV-unprocessed.smi:2567|AV-procd|sdf|10076|dock5
  -GOLD-   2272014103D 1   1.00000     0.00000
 Structure written by MMmdl.
 34 35  0  0  0  0  0  0  0  0  2 V2000
  152.8130  144.7735  158.0905 C   0  0  0  0  0  0  0  0  0  0  0  0
  152.0602  143.6597  158.8445 C   0  0  0  0  0  0  0  0  0  0  0  0
  153.0419  142.8865  159.7456 C   0  0  0  0  0  0  0  0  0  0  0  0
  150.9993  144.3279  159.7476 C   0  0  0  0  0  0  0  0  0  0  0  0
  151.4309  142.7112  157.8519 C   0  0  0  0  0  0  0  0  0  0  0  0
  150.4559  143.0647  157.0069 N   0  0  0  0  0  0  0  0  0  0  0  0
  150.0883  141.9998  156.2642 N   0  0  0  0  0  0  0  0  0  0  0  0
  150.9034  141.0508  156.7193 C   0  0  0  0  0  0  0  0  0  0  0  0
  150.8170  139.6502  156.1984 C   0  0  2  0  0  0  0  0  0  0  0  0
  151.9970  138.7804  156.6716 C   0  0  0  0  0  0  0  0  0  0  0  0
  151.9175  137.4450  156.0480 N   0  3  0  0  0  0  0  0  0  0  0  0
  151.8455  137.5397  154.5764 C   0  0  0  0  0  0  0  0  0  0  0  0
  150.6811  138.4560  154.1598 C   0  0  0  0  0  0  0  0  0  0  0  0
  150.8280  139.7320  154.7745 O   0  0  0  0  0  0  0  0  0  0  0  0
  151.7501  141.4247  157.7262 N   0  0  0  0  0  0  0  0  0  0  0  0
  153.2726  145.4813  158.7813 H   0  0  0  0  0  0  0  0  0  0  0  0
  152.1412  145.3367  157.4415 H   0  0  0  0  0  0  0  0  0  0  0  0
  153.6090  144.3673  157.4654 H   0  0  0  0  0  0  0  0  0  0  0  0
  153.8416  142.4262  159.1640 H   0  0  0  0  0  0  0  0  0  0  0  0
  152.5345  142.0909  160.2925 H   0  0  0  0  0  0  0  0  0  0  0  0
  153.5102  143.5431  160.4797 H   0  0  0  0  0  0  0  0  0  0  0  0
  151.4602  145.0173  160.4562 H   0  0  0  0  0  0  0  0  0  0  0  0
  150.4454  143.5907  160.3301 H   0  0  0  0  0  0  0  0  0  0  0  0
  150.2783  144.9006  159.1627 H   0  0  0  0  0  0  0  0  0  0  0  0
  149.8716  139.2124  156.5252 H   0  0  0  0  0  0  0  0  0  0  0  0
  152.9463  139.2443  156.3993 H   0  0  0  0  0  0  0  0  0  0  0  0
  151.9889  138.6744  157.7567 H   0  0  0  0  0  0  0  0  0  0  0  0
  152.7273  136.9017  156.3118 H   0  0  0  0  0  0  0  0  0  0  0  0
  152.7888  137.9333  154.1959 H   0  0  0  0  0  0  0  0  0  0  0  0
  151.7195  136.5421  154.1554 H   0  0  0  0  0  0  0  0  0  0  0  0
  150.6722  138.5843  153.0773 H   0  0  0  0  0  0  0  0  0  0  0  0
  149.7214  138.0162  154.4359 H   0  0  0  0  0  0  0  0  0  0  0  0
  151.0855  136.9809  156.3835 H   0  0  0  0  0  0  0  0  0  0  0  0
  150.0291  143.9757  156.9132 H   0  0  0  0  0  0  0  0  0  0  0  0
  1  2  1  0  0  0  0
  1 16  1  0  0  0  0
  1 17  1  0  0  0  0
  1 18  1  0  0  0  0
  2  3  1  0  0  0  0
  2  4  1  0  0  0  0
  2  5  1  0  0  0  0
  3 19  1  0  0  0  0
  3 20  1  0  0  0  0
  3 21  1  0  0  0  0
  4 22  1  0  0  0  0
  4 23  1  0  0  0  0
  4 24  1  0  0  0  0
  5 15  2  0  0  0  0
  5  6  1  0  0  0  0
  6  7  1  0  0  0  0
  6 34  1  0  0  0  0
  7  8  2  0  0  0  0
  8  9  1  0  0  0  0
  8 15  1  0  0  0  0
  9 14  1  0  0  0  0
  9 10  1  0  0  0  0
  9 25  1  0  0  0  0
 10 11  1  0  0  0  0
 10 26  1  0  0  0  0
 10 27  1  0  0  0  0
 11 12  1  0  0  0  0
 11 28  1  0  0  0  0
 11 33  1  0  0  0  0
 12 13  1  0  0  0  0
 12 29  1  0  0  0  0
 12 30  1  0  0  0  0
 13 14  1  0  0  0  0
 13 31  1  0  0  0  0
 13 32  1  0  0  0  0
M  CHG  1  11   1
M  END
> <s_m_source_file>
AV-unprocessed.smi

> <i_m_source_file_index>
2567

> <i_lp_mmshare_version>
43012

> <i_f3d_flags>
0

> <s_epik_input>
W0NIM11DKFtDSDNdKShbQ0gzXSljMW5bbkhdYyhuMSlbQ0BASF0yW0NIMl1bTkhdW0NIMl1bQ0gyXU8y

> <s_epik_cmdline>
J2VwaWtfcHl0aG9uJywgJy1waCcsICc3LjAnLCAnLXRuJywgJzgnLCAnLW1hJywgJzIwMCcsICctbWV0YWxfYmluZGluZycsICctaW1hZScsICc8aW5maWxlLm1hZT4nLCAnLW9tYWUnLCAnPG91dGZpbGUubWFlPic=

> <r_lp_tautomer_probability>
0.948284

> <r_epik_Ionization_Penalty>
0.108767

> <r_epik_Ionization_Penalty_Charging>
0.100865

> <r_epik_Ionization_Penalty_Neutral>
0.00790271

> <r_epik_State_Penalty>
0.197684

> <r_epik_Charging_Adjusted_Penalty>
0.298549

> <i_epik_Tot_Q>
1

> <i_epik_Tot_abs_Q>
1

> <r_epik_Metal_State_Penalty>
0.508163

> <b_epik_Metal_Only>
0

> <s_lp_Force_Field>
OPLS_2005

> <r_lp_Energy>
13.5153

> <b_lp_Chiralities_Consistent>
1

> <s_lp_Variant>
AV-unprocessed.smi:2567-1

> <Gold.Version>
5.8.1

> <Gold.Id.Protein>
6NUR|6NUR_protein|mol2

> <Gold.PLP.Fitness>
35.0819

> <Gold.PLP.PLP>
-30.7456

> <Gold.PLP.part.hbond>
-2.0000

> <Gold.PLP.part.metal>
0.0000

> <Gold.PLP.part.buried>
-5.3335

> <Gold.PLP.part.nonpolar>
-26.0348

> <Gold.PLP.part.repulsive>
1.3581

> <Gold.PLP.ligand.clash>
0.0000

> <Gold.PLP.ligand.torsion>
0.3252

> <Gold.PLP.Chemscore.Hbond>
1.6560

> <Gold.PLP.Chemscore.CHOScore>
0.0000

> <Gold.PLP.Chemscore.Metal>
0.0000

> <Gold.Chemscore.Hbonds>
donor molecule, donor type, donor heavy atom, donor atom, acceptor molecule, acceptor atom, score
      L1  H     6    34       P1  8028  0.69
      P1  H  7989  7998       L1    14  1.00

> <Gold.PLP.Chemscore.Internal.Correction>
0.0188

> <Gold.Rescore>
     Score         DG    S(hbond)    S(metal)    S(lipo)     H(rot)  DE(clash)    DE(int)     intcor
     15.80     -16.79       1.63        0.00      77.74       1.26       0.82       0.17       ----

> <Gold.Chemscore.Fitness>
15.8026

> <Gold.Chemscore.DG>
-16.7931

> <Gold.Chemscore.ZeroCoef>
-5.4800

> <Gold.Chemscore.Hbond>
1.6331

> <Gold.Chemscore.Metal>
0.0000

> <Gold.Chemscore.Lipo>
77.7442

> <Gold.Chemscore.Internal_Hbond>
0.0000

> <Gold.Chemscore.DEClash>
0.8233

> <Gold.Chemscore.DEInternal>
0.1671

> <Gold.Chemscore.Rot>
1.2647

> <Gold.Chemscore.Internal.Correction>
   9.000000E+99

> <Gold.Chemscore.Hbonds>
donor molecule, donor type, donor heavy atom, donor atom, acceptor molecule, acceptor atom, score
      L1  H     6    34       P1  8028  0.68
      P1  H  7989  7998       L1    14  0.60

> <Gold.Chemscore.Hbond.Weighted>
-5.4546

> <Gold.Chemscore.Metal.Weighted>
-0.0000

> <Gold.Chemscore.Lipo.Weighted>
-9.0961

> <Gold.Chemscore.Internal_Hbond.Weighted>
0.0000

> <Gold.Chemscore.DEClash.Weighted>
0.8233

> <Gold.Chemscore.DEInternal.Weighted>
0.1671

> <Gold.Chemscore.Rot.Weighted>
3.2375

> <Gold.Chemscore.Internal.Correction.Weighted>
   9.000000E+99

> <Gold.Protein.RotatedTorsions>
[ 6907 6896 6895 6894 ] final -150.64 input  -60.11 | X-H torsion
[ 7974 7965 7964 7962 ] final   -5.40 input  175.53 | X-H torsion
[ 8008 7997 7996 7995 ] final -177.63 input   59.86 | X-H torsion
[ 10167 10162 10161 10158 ] final -167.82 input  -65.29 | X-H torsion
[ 10718 10713 10712 10709 ] final  -11.56 input   66.30 | X-H torsion
[ 10763 10752 10751 10750 ] final    0.57 input  -60.55 | X-H torsion
[ 11005 11000 10999 10996 ] final   82.51 input  -57.11 | X-H torsion

> <Gold.Protein.ActiveResidues>
 VAL166  LYS551  ARG553  GLY616  TRP617  ASP618  TYR619  PRO620  LYS621  CYS622 
 ASP623  PHE694  ASN695  SER759  ASP760  ASP761  ALA762  ILE779  LEU786  VAL792 
 PHE793  MET794  SER795  GLU796  ALA797  LYS798  CYS799  TRP800  GLU811  SER814 

> <Gold.Protein.RotatedAtoms>
  151.2014  133.4608  159.2596 H   0  0  0  0  0  0  0  0  0  0  0  0  # atno 6907 bound_to 6896
  151.1065  135.0002  159.8484 H   0  0  0  0  0  0  0  0  0  0  0  0  # atno 6908 bound_to 6896
  152.5447  134.1937  159.8737 H   0  0  0  0  0  0  0  0  0  0  0  0  # atno 6909 bound_to 6896
  146.2353  140.2015  142.8334 H   0  0  0  0  0  0  0  0  0  0  0  0  # atno 7974 bound_to 7965
  156.0093  140.1237  157.0470 H   0  0  0  0  0  0  0  0  0  0  0  0  # atno 8008 bound_to 7997
  154.4270  140.1091  156.5876 H   0  0  0  0  0  0  0  0  0  0  0  0  # atno 8009 bound_to 7997
  155.6103  140.3471  155.4622 H   0  0  0  0  0  0  0  0  0  0  0  0  # atno 8010 bound_to 7997
  139.6025  144.0982  152.1757 H   0  0  0  0  0  0  0  0  0  0  0  0  # atno 10167 bound_to 10162
  156.6573  130.4972  149.6042 H   0  0  0  0  0  0  0  0  0  0  0  0  # atno 10718 bound_to 10713
  153.3189  135.6968  153.7048 H   0  0  0  0  0  0  0  0  0  0  0  0  # atno 10763 bound_to 10752
  153.5895  135.3482  155.2906 H   0  0  0  0  0  0  0  0  0  0  0  0  # atno 10764 bound_to 10752
  154.8593  135.4314  154.2348 H   0  0  0  0  0  0  0  0  0  0  0  0  # atno 10765 bound_to 10752
  139.9061  134.8076  156.2184 H   0  0  0  0  0  0  0  0  0  0  0  0  # atno 11005 bound_to 11000
  144.9778  140.8431  143.5415 LP  0  0  0  0  0  0  0  0  0  0  0  0  # atno 17320 bound_to 7965
  145.2004  139.2255  143.5196 LP  0  0  0  0  0  0  0  0  0  0  0  0  # atno 17321 bound_to 7965
  140.0581  144.5878  150.7284 LP  0  0  0  0  0  0  0  0  0  0  0  0  # atno 17342 bound_to 10162
  140.7260  143.2637  151.4118 LP  0  0  0  0  0  0  0  0  0  0  0  0  # atno 17343 bound_to 10162
  156.2038  130.6636  151.1196 LP  0  0  0  0  0  0  0  0  0  0  0  0  # atno 17370 bound_to 10713
  157.7121  131.0729  150.6462 LP  0  0  0  0  0  0  0  0  0  0  0  0  # atno 17371 bound_to 10713
  141.0421  133.6932  156.1617 LP  0  0  0  0  0  0  0  0  0  0  0  0  # atno 17394 bound_to 11000
  140.6939  134.4636  157.5588 LP  0  0  0  0  0  0  0  0  0  0  0  0  # atno 17395 bound_to 11000

$$$$
