AV-unprocessed.smi:1007|AV-procd|sdf|4407|dock2
  -GOLD-   22720 2353D 1   1.00000     0.00000
 Structure written by MMmdl.
 57 59  0  0  0  0  0  0  0  0  3 V2000
  144.3190  133.3046  151.4927 C   0  0  0  0  0  0  0  0  0  0  0  0
  143.5867  134.4765  151.1799 O   0  0  0  0  0  0  0  0  0  0  0  0
  144.1329  135.6373  151.7836 C   0  0  0  0  0  0  0  0  0  0  0  0
  145.5991  135.7775  151.3457 C   0  0  0  0  0  0  0  0  0  0  0  0
  146.2414  136.9974  151.8980 N   0  3  2  0  0  0  0  0  0  0  0  0
  145.8581  137.2484  153.3089 C   0  0  0  0  0  0  0  0  0  0  0  0
  146.6197  138.4543  153.8883 C   0  0  0  0  0  0  0  0  0  0  0  0
  146.4174  139.6693  153.0580 N   0  3  1  0  0  0  0  0  0  0  0  0
  147.0861  140.8787  153.6043 C   0  0  0  0  0  0  0  0  0  0  0  0
  148.3732  140.5593  154.3913 C   0  0  1  0  0  0  0  0  0  0  0  0
  149.4658  140.7976  153.5271 O   0  0  0  0  0  0  0  0  0  0  0  0
  148.5263  141.4188  155.6633 C   0  0  0  0  0  0  0  0  0  0  0  0
  149.4500  140.8361  156.6202 N   0  0  0  0  0  0  0  0  0  0  0  0
  149.5906  139.5309  156.9216 C   0  0  0  0  0  0  0  0  0  0  0  0
  150.5044  139.2115  157.8329 N   0  0  0  0  0  0  0  0  0  0  0  0
  151.0155  140.4547  158.1644 C   0  0  0  0  0  0  0  0  0  0  0  0
  152.0264  140.8167  159.0815 C   0  0  0  0  0  0  0  0  0  0  0  0
  152.3938  142.1697  159.2580 C   0  0  0  0  0  0  0  0  0  0  0  0
  153.4879  142.5142  160.2532 C   0  0  0  0  0  0  0  0  0  0  0  0
  151.7454  143.1857  158.5109 C   0  0  0  0  0  0  0  0  0  0  0  0
  152.1235  144.6462  158.6836 C   0  0  0  0  0  0  0  0  0  0  0  0
  150.7337  142.8416  157.5905 C   0  0  0  0  0  0  0  0  0  0  0  0
  150.3767  141.4920  157.4237 C   0  0  0  0  0  0  0  0  0  0  0  0
  146.7924  139.4155  151.6447 C   0  0  0  0  0  0  0  0  0  0  0  0
  146.0280  138.2104  151.0685 C   0  0  0  0  0  0  0  0  0  0  0  0
  143.8569  132.4441  151.0089 H   0  0  0  0  0  0  0  0  0  0  0  0
  144.3292  133.1205  152.5680 H   0  0  0  0  0  0  0  0  0  0  0  0
  145.3488  133.3765  151.1400 H   0  0  0  0  0  0  0  0  0  0  0  0
  143.5501  136.5198  151.5193 H   0  0  0  0  0  0  0  0  0  0  0  0
  144.0874  135.5396  152.8693 H   0  0  0  0  0  0  0  0  0  0  0  0
  146.1712  134.8947  151.6348 H   0  0  0  0  0  0  0  0  0  0  0  0
  145.6216  135.8135  150.2555 H   0  0  0  0  0  0  0  0  0  0  0  0
  144.7819  137.4196  153.3695 H   0  0  0  0  0  0  0  0  0  0  0  0
  146.0733  136.3652  153.9116 H   0  0  0  0  0  0  0  0  0  0  0  0
  146.2780  138.6292  154.9076 H   0  0  0  0  0  0  0  0  0  0  0  0
  147.6856  138.2270  153.9473 H   0  0  0  0  0  0  0  0  0  0  0  0
  147.2980  141.5701  152.7866 H   0  0  0  0  0  0  0  0  0  0  0  0
  146.3990  141.4013  154.2720 H   0  0  0  0  0  0  0  0  0  0  0  0
  148.4068  139.5032  154.6571 H   0  0  0  0  0  0  0  0  0  0  0  0
  149.4211  140.1872  152.8060 H   0  0  0  0  0  0  0  0  0  0  0  0
  148.8745  142.4208  155.4089 H   0  0  0  0  0  0  0  0  0  0  0  0
  147.5625  141.5425  156.1583 H   0  0  0  0  0  0  0  0  0  0  0  0
  148.9899  138.7713  156.4432 H   0  0  0  0  0  0  0  0  0  0  0  0
  152.5205  140.0427  159.6503 H   0  0  0  0  0  0  0  0  0  0  0  0
  153.1023  143.1713  161.0329 H   0  0  0  0  0  0  0  0  0  0  0  0
  154.3143  143.0185  159.7522 H   0  0  0  0  0  0  0  0  0  0  0  0
  153.8851  141.6202  160.7347 H   0  0  0  0  0  0  0  0  0  0  0  0
  151.5203  145.2917  158.0442 H   0  0  0  0  0  0  0  0  0  0  0  0
  153.1708  144.8032  158.4247 H   0  0  0  0  0  0  0  0  0  0  0  0
  151.9703  144.9612  159.7158 H   0  0  0  0  0  0  0  0  0  0  0  0
  150.2347  143.6062  157.0138 H   0  0  0  0  0  0  0  0  0  0  0  0
  146.5764  140.2987  151.0418 H   0  0  0  0  0  0  0  0  0  0  0  0
  147.8681  139.2422  151.5796 H   0  0  0  0  0  0  0  0  0  0  0  0
  146.3626  138.0371  150.0464 H   0  0  0  0  0  0  0  0  0  0  0  0
  144.9614  138.4350  151.0175 H   0  0  0  0  0  0  0  0  0  0  0  0
  145.4267  139.8678  153.0566 H   0  0  0  0  0  0  0  0  0  0  0  0
  147.2346  136.8104  151.9033 H   0  0  0  0  0  0  0  0  0  0  0  0
  1  2  1  0  0  0  0
  1 26  1  0  0  0  0
  1 27  1  0  0  0  0
  1 28  1  0  0  0  0
  2  3  1  0  0  0  0
  3  4  1  0  0  0  0
  3 29  1  0  0  0  0
  3 30  1  0  0  0  0
  4  5  1  0  0  0  0
  4 31  1  0  0  0  0
  4 32  1  0  0  0  0
  5 25  1  0  0  0  0
  5  6  1  0  0  0  0
  5 57  1  0  0  0  0
  6  7  1  0  0  0  0
  6 33  1  0  0  0  0
  6 34  1  0  0  0  0
  7  8  1  0  0  0  0
  7 35  1  0  0  0  0
  7 36  1  0  0  0  0
  8  9  1  0  0  0  0
  8 24  1  0  0  0  0
  8 56  1  0  0  0  0
  9 10  1  0  0  0  0
  9 37  1  0  0  0  0
  9 38  1  0  0  0  0
 10 11  1  0  0  0  0
 10 12  1  0  0  0  0
 10 39  1  0  0  0  0
 11 40  1  0  0  0  0
 12 13  1  0  0  0  0
 12 41  1  0  0  0  0
 12 42  1  0  0  0  0
 13 23  1  0  0  0  0
 13 14  1  0  0  0  0
 14 15  2  0  0  0  0
 14 43  1  0  0  0  0
 15 16  1  0  0  0  0
 16 23  2  0  0  0  0
 16 17  1  0  0  0  0
 17 18  2  0  0  0  0
 17 44  1  0  0  0  0
 18 19  1  0  0  0  0
 18 20  1  0  0  0  0
 19 45  1  0  0  0  0
 19 46  1  0  0  0  0
 19 47  1  0  0  0  0
 20 21  1  0  0  0  0
 20 22  2  0  0  0  0
 21 48  1  0  0  0  0
 21 49  1  0  0  0  0
 21 50  1  0  0  0  0
 22 23  1  0  0  0  0
 22 51  1  0  0  0  0
 24 25  1  0  0  0  0
 24 52  1  0  0  0  0
 24 53  1  0  0  0  0
 25 54  1  0  0  0  0
 25 55  1  0  0  0  0
M  CHG  1   5   1
M  CHG  1   8   1
M  END
> <s_m_source_file>
AV-unprocessed.smi

> <i_m_source_file_index>
1007

> <i_lp_mmshare_version>
43012

> <i_f3d_flags>
0

> <s_epik_input>
W0NIM11PW0NIMl1bQ0gyXU4xW0NIMl1bQ0gyXU4oW0NIMl1bQ0gyXTEpW0NIMl1bQ0BIXShbT0hdKVtDSDJdbihbY0hdbjIpYyhjMjMpW2NIXWMoW0NIM10pYyhbY0hdMylbQ0gzXQ==

> <s_epik_cmdline>
J2VwaWtfcHl0aG9uJywgJy1waCcsICc3LjAnLCAnLXRuJywgJzgnLCAnLW1hJywgJzIwMCcsICctbWV0YWxfYmluZGluZycsICctaW1hZScsICc8aW5maWxlLm1hZT4nLCAnLW9tYWUnLCAnPG91dGZpbGUubWFlPic=

> <r_epik_Ionization_Penalty>
3.88944

> <r_epik_Ionization_Penalty_Charging>
3.80608

> <r_epik_Ionization_Penalty_Neutral>
0.0833653

> <r_epik_State_Penalty>
2.70739

> <r_epik_Charging_Adjusted_Penalty>
6.51347

> <i_epik_Tot_Q>
2

> <i_epik_Tot_abs_Q>
2

> <r_epik_Metal_State_Penalty>
2.62239

> <b_epik_Metal_Only>
0

> <s_lp_Force_Field>
OPLS_2005

> <r_lp_Energy>
30.0741

> <b_lp_Chiralities_Consistent>
1

> <s_lp_Variant>
AV-unprocessed.smi:1007-10

> <Gold.Version>
5.8.1

> <Gold.Id.Protein>
6NUR|6NUR_protein|mol2

> <Gold.PLP.Fitness>
63.8002

> <Gold.PLP.PLP>
-48.8167

> <Gold.PLP.part.hbond>
-4.4295

> <Gold.PLP.part.metal>
0.0000

> <Gold.PLP.part.buried>
-1.7069

> <Gold.PLP.part.nonpolar>
-44.5743

> <Gold.PLP.part.repulsive>
0.3527

> <Gold.PLP.ligand.clash>
0.0000

> <Gold.PLP.ligand.torsion>
1.7169

> <Gold.PLP.Chemscore.Hbond>
6.0848

> <Gold.PLP.Chemscore.CHOScore>
0.0000

> <Gold.PLP.Chemscore.Metal>
0.0000

> <Gold.Chemscore.Hbonds>
donor molecule, donor type, donor heavy atom, donor atom, acceptor molecule, acceptor atom, score
      L1  H     5    57       P1  7948  2.00
      L1  H     8    56       P1 10175  2.00
      L1  H    11    40       P1  7957  0.86
      P1  H  7989  7998       L1    11  0.17
      P1  H  8011  8017       L1    11  0.69

> <Gold.PLP.Chemscore.Internal.Correction>
0.1630

> <Gold.Rescore>
     Score         DG    S(hbond)    S(metal)    S(lipo)     H(rot)  DE(clash)    DE(int)     intcor
     21.49     -25.40       3.11        0.00     139.16       2.63       2.10       1.80       ----

> <Gold.Chemscore.Fitness>
21.4947

> <Gold.Chemscore.DG>
-25.3960

> <Gold.Chemscore.ZeroCoef>
-5.4800

> <Gold.Chemscore.Hbond>
3.1073

> <Gold.Chemscore.Metal>
0.0000

> <Gold.Chemscore.Lipo>
139.1648

> <Gold.Chemscore.Internal_Hbond>
0.0000

> <Gold.Chemscore.DEClash>
2.0970

> <Gold.Chemscore.DEInternal>
1.8043

> <Gold.Chemscore.Rot>
2.6347

> <Gold.Chemscore.Internal.Correction>
   9.000000E+99

> <Gold.Chemscore.Hbonds>
donor molecule, donor type, donor heavy atom, donor atom, acceptor molecule, acceptor atom, score
      L1  H     5    57       P1  7948  1.00
      L1  H     8    56       P1 10175  0.99
      L1  H    11    40       P1  7957  0.85
      P1  H  7989  7998       L1    11  0.02
      P1  H  8011  8017       L1    11  0.07

> <Gold.Chemscore.Hbond.Weighted>
-10.3785

> <Gold.Chemscore.Metal.Weighted>
-0.0000

> <Gold.Chemscore.Lipo.Weighted>
-16.2823

> <Gold.Chemscore.Internal_Hbond.Weighted>
0.0000

> <Gold.Chemscore.DEClash.Weighted>
2.0970

> <Gold.Chemscore.DEInternal.Weighted>
1.8043

> <Gold.Chemscore.Rot.Weighted>
6.7448

> <Gold.Chemscore.Internal.Correction.Weighted>
   9.000000E+99

> <Gold.Protein.RotatedTorsions>
[ 6907 6896 6895 6894 ] final  167.68 input  -60.11 | X-H torsion
[ 7974 7965 7964 7962 ] final   52.33 input  175.53 | X-H torsion
[ 8008 7997 7996 7995 ] final -167.93 input   59.86 | X-H torsion
[ 10167 10162 10161 10158 ] final   39.77 input  -65.29 | X-H torsion
[ 10718 10713 10712 10709 ] final   49.89 input   66.30 | X-H torsion
[ 10763 10752 10751 10750 ] final  102.37 input  -60.55 | X-H torsion
[ 11005 11000 10999 10996 ] final  173.35 input  -57.11 | X-H torsion

> <Gold.Protein.ActiveResidues>
 VAL166  LYS551  ARG553  GLY616  TRP617  ASP618  TYR619  PRO620  LYS621  CYS622 
 ASP623  PHE694  ASN695  SER759  ASP760  ASP761  ALA762  ILE779  LEU786  VAL792 
 PHE793  MET794  SER795  GLU796  ALA797  LYS798  CYS799  TRP800  GLU811  SER814 

> <Gold.Protein.RotatedAtoms>
  151.8596  133.3454  159.3699 H   0  0  0  0  0  0  0  0  0  0  0  0  # atno 6907 bound_to 6896
  150.7183  134.5219  159.5667 H   0  0  0  0  0  0  0  0  0  0  0  0  # atno 6908 bound_to 6896
  152.2730  134.7913  160.0462 H   0  0  0  0  0  0  0  0  0  0  0  0  # atno 6909 bound_to 6896
  145.9824  139.4255  143.0124 H   0  0  0  0  0  0  0  0  0  0  0  0  # atno 7974 bound_to 7965
  155.8845  140.1014  157.1462 H   0  0  0  0  0  0  0  0  0  0  0  0  # atno 8008 bound_to 7997
  154.4008  140.1322  156.4301 H   0  0  0  0  0  0  0  0  0  0  0  0  # atno 8009 bound_to 7997
  155.7605  140.3463  155.5198 H   0  0  0  0  0  0  0  0  0  0  0  0  # atno 8010 bound_to 7997
  140.3807  144.1984  150.6131 H   0  0  0  0  0  0  0  0  0  0  0  0  # atno 10167 bound_to 10162
  157.4831  130.8328  149.8115 H   0  0  0  0  0  0  0  0  0  0  0  0  # atno 10718 bound_to 10713
  153.3387  135.4013  155.1554 H   0  0  0  0  0  0  0  0  0  0  0  0  # atno 10763 bound_to 10752
  154.8639  135.3628  154.5375 H   0  0  0  0  0  0  0  0  0  0  0  0  # atno 10764 bound_to 10752
  153.5818  135.7076  153.5519 H   0  0  0  0  0  0  0  0  0  0  0  0  # atno 10765 bound_to 10752
  140.3395  134.7288  157.4192 H   0  0  0  0  0  0  0  0  0  0  0  0  # atno 11005 bound_to 11000
  145.7750  140.9880  143.1129 LP  0  0  0  0  0  0  0  0  0  0  0  0  # atno 17320 bound_to 7965
  144.6865  139.9494  143.7477 LP  0  0  0  0  0  0  0  0  0  0  0  0  # atno 17321 bound_to 7965
  140.4941  143.2338  151.8776 LP  0  0  0  0  0  0  0  0  0  0  0  0  # atno 17342 bound_to 10162
  139.4795  144.5133  151.8902 LP  0  0  0  0  0  0  0  0  0  0  0  0  # atno 17343 bound_to 10162
  156.0132  130.3824  150.2196 LP  0  0  0  0  0  0  0  0  0  0  0  0  # atno 17370 bound_to 10713
  157.0382  131.0027  151.3291 LP  0  0  0  0  0  0  0  0  0  0  0  0  # atno 17371 bound_to 10713
  140.0793  134.5754  155.8558 LP  0  0  0  0  0  0  0  0  0  0  0  0  # atno 17394 bound_to 11000
  141.2042  133.6637  156.6108 LP  0  0  0  0  0  0  0  0  0  0  0  0  # atno 17395 bound_to 11000

$$$$
