AV-unprocessed.smi:2321|AV-procd|sdf|9282|dock8
  -GOLD-   2272012503D 1   1.00000     0.00000
 Structure written by MMmdl.
 36 37  0  0  0  0  0  0  0  0  1 V2000
  151.0526  141.2438  156.6608 O   0  0  0  0  0  0  0  0  0  0  0  0
  150.3714  142.2188  156.3517 C   0  0  0  0  0  0  0  0  0  0  0  0
  149.3820  142.2075  155.4372 N   0  0  0  0  0  0  0  0  0  0  0  0
  148.9043  141.1278  154.6463 C   0  0  0  0  0  0  0  0  0  0  0  0
  149.4619  139.8262  154.6551 C   0  0  0  0  0  0  0  0  0  0  0  0
  148.8814  138.8388  153.8337 C   0  0  0  0  0  0  0  0  0  0  0  0
  147.8121  139.0641  153.0410 N   0  0  0  0  0  0  0  0  0  0  0  0
  147.2746  140.3023  153.0464 C   0  0  0  0  0  0  0  0  0  0  0  0
  147.7776  141.3607  153.8294 C   0  0  0  0  0  0  0  0  0  0  0  0
  147.1882  142.5804  153.7914 F   0  0  0  0  0  0  0  0  0  0  0  0
  150.5917  143.4236  156.9101 N   0  0  0  0  0  0  0  0  0  0  0  0
  151.5795  143.7899  157.9279 C   0  0  1  0  0  0  0  0  0  0  0  0
  151.2060  145.1544  158.5341 C   0  0  0  0  0  0  0  0  0  0  0  0
  152.1861  145.5579  159.6454 C   0  0  0  0  0  0  0  0  0  0  0  0
  152.2665  144.4785  160.7361 C   0  0  0  0  0  0  0  0  0  0  0  0
  152.6486  143.1036  160.1487 C   0  0  1  0  0  0  0  0  0  0  0  0
  152.7495  142.0166  161.2388 C   0  0  0  0  0  0  0  0  0  0  0  0
  153.4450  140.9671  160.7999 F   0  0  0  0  0  0  0  0  0  0  0  0
  153.3507  142.5103  162.3215 F   0  0  0  0  0  0  0  0  0  0  0  0
  151.5302  141.6087  161.5908 F   0  0  0  0  0  0  0  0  0  0  0  0
  151.6600  142.7113  159.0296 C   0  0  0  0  0  0  0  0  0  0  0  0
  148.9633  143.1034  155.2342 H   0  0  0  0  0  0  0  0  0  0  0  0
  150.3040  139.5630  155.2761 H   0  0  0  0  0  0  0  0  0  0  0  0
  149.2845  137.8370  153.8186 H   0  0  0  0  0  0  0  0  0  0  0  0
  146.4162  140.4541  152.4088 H   0  0  0  0  0  0  0  0  0  0  0  0
  150.0140  144.1809  156.5743 H   0  0  0  0  0  0  0  0  0  0  0  0
  152.5598  143.8960  157.4595 H   0  0  0  0  0  0  0  0  0  0  0  0
  151.1983  145.9201  157.7573 H   0  0  0  0  0  0  0  0  0  0  0  0
  150.1942  145.1163  158.9407 H   0  0  0  0  0  0  0  0  0  0  0  0
  153.1764  145.7224  159.2190 H   0  0  0  0  0  0  0  0  0  0  0  0
  151.8779  146.5071  160.0845 H   0  0  0  0  0  0  0  0  0  0  0  0
  152.9945  144.7806  161.4896 H   0  0  0  0  0  0  0  0  0  0  0  0
  151.3054  144.4082  161.2471 H   0  0  0  0  0  0  0  0  0  0  0  0
  153.6368  143.2010  159.6963 H   0  0  0  0  0  0  0  0  0  0  0  0
  150.6691  142.5508  159.4568 H   0  0  0  0  0  0  0  0  0  0  0  0
  151.9620  141.7583  158.5943 H   0  0  0  0  0  0  0  0  0  0  0  0
  1  2  2  0  0  0  0
  2  3  1  0  0  0  0
  2 11  1  0  0  0  0
  3  4  1  0  0  0  0
  3 22  1  0  0  0  0
  4  9  1  0  0  0  0
  4  5  2  0  0  0  0
  5  6  1  0  0  0  0
  5 23  1  0  0  0  0
  6  7  2  0  0  0  0
  6 24  1  0  0  0  0
  7  8  1  0  0  0  0
  8  9  2  0  0  0  0
  8 25  1  0  0  0  0
  9 10  1  0  0  0  0
 11 12  1  0  0  0  0
 11 26  1  0  0  0  0
 12 21  1  0  0  0  0
 12 13  1  0  0  0  0
 12 27  1  0  0  0  0
 13 14  1  0  0  0  0
 13 28  1  0  0  0  0
 13 29  1  0  0  0  0
 14 15  1  0  0  0  0
 14 30  1  0  0  0  0
 14 31  1  0  0  0  0
 15 16  1  0  0  0  0
 15 32  1  0  0  0  0
 15 33  1  0  0  0  0
 16 17  1  0  0  0  0
 16 21  1  0  0  0  0
 16 34  1  0  0  0  0
 17 18  1  0  0  0  0
 17 19  1  0  0  0  0
 17 20  1  0  0  0  0
 21 35  1  0  0  0  0
 21 36  1  0  0  0  0
M  END
> <s_m_source_file>
AV-unprocessed.smi

> <i_m_source_file_index>
2321

> <i_lp_mmshare_version>
43012

> <i_f3d_flags>
0

> <s_epik_input>
RkMoRikoRilbQ0BASF0oW0NIMl0xKVtDSDJdW0NIMl1bQ0gyXVtDQEhdMVtOSF1DKD1PKVtOSF1jMltjSF1bY0hdbltjSF1jMkY=

> <s_epik_cmdline>
J2VwaWtfcHl0aG9uJywgJy1waCcsICc3LjAnLCAnLXRuJywgJzgnLCAnLW1hJywgJzIwMCcsICctbWV0YWxfYmluZGluZycsICctaW1hZScsICc8aW5maWxlLm1hZT4nLCAnLW9tYWUnLCAnPG91dGZpbGUubWFlPic=

> <r_epik_Ionization_Penalty>
0.00319438

> <r_epik_Ionization_Penalty_Charging>
0

> <r_epik_Ionization_Penalty_Neutral>
0.00319438

> <r_epik_State_Penalty>
0.00222511

> <r_epik_Charging_Adjusted_Penalty>
0.00222511

> <i_epik_Tot_Q>
0

> <i_epik_Tot_abs_Q>
0

> <r_epik_Metal_State_Penalty>
-0

> <b_epik_Metal_Only>
0

> <s_lp_Force_Field>
OPLS_2005

> <r_lp_Energy>
26.7556

> <b_lp_Chiralities_Consistent>
1

> <s_lp_Variant>
AV-unprocessed.smi:2321-2

> <Gold.Version>
5.8.1

> <Gold.Id.Protein>
6NUR|6NUR_protein|mol2

> <Gold.PLP.Fitness>
47.5816

> <Gold.PLP.PLP>
-37.4111

> <Gold.PLP.part.hbond>
-1.7650

> <Gold.PLP.part.metal>
0.0000

> <Gold.PLP.part.buried>
-0.3900

> <Gold.PLP.part.nonpolar>
-36.1343

> <Gold.PLP.part.repulsive>
1.5803

> <Gold.PLP.ligand.clash>
0.0000

> <Gold.PLP.ligand.torsion>
0.6087

> <Gold.PLP.Chemscore.Hbond>
1.8960

> <Gold.PLP.Chemscore.CHOScore>
1.8935

> <Gold.PLP.Chemscore.Metal>
0.0000

> <Gold.Chemscore.Hbonds>
donor molecule, donor type, donor heavy atom, donor atom, acceptor molecule, acceptor atom, score
      L1  H     3    22       P1  8028  0.94
      L1  H    11    26       P1  8028  0.99
      L1  C     6    24       P1  7948  0.86
      L1  C     8    25       P1 10175  0.52

> <Gold.PLP.Chemscore.Internal.Correction>
0.0194

> <Gold.Rescore>
     Score         DG    S(hbond)    S(metal)    S(lipo)     H(rot)  DE(clash)    DE(int)     intcor
     17.82     -22.38       1.88        0.00     112.60       1.00       1.55       3.01       ----

> <Gold.Chemscore.Fitness>
17.8210

> <Gold.Chemscore.DG>
-22.3767

> <Gold.Chemscore.ZeroCoef>
-5.4800

> <Gold.Chemscore.Hbond>
1.8809

> <Gold.Chemscore.Metal>
0.0000

> <Gold.Chemscore.Lipo>
112.6019

> <Gold.Chemscore.Internal_Hbond>
0.0000

> <Gold.Chemscore.DEClash>
1.5496

> <Gold.Chemscore.DEInternal>
3.0062

> <Gold.Chemscore.Rot>
1.0000

> <Gold.Chemscore.Internal.Correction>
   9.000000E+99

> <Gold.Chemscore.Hbonds>
donor molecule, donor type, donor heavy atom, donor atom, acceptor molecule, acceptor atom, score
      L1  H     3    22       P1  8028  0.91
      L1  H    11    26       P1  8028  0.89

> <Gold.Chemscore.Hbond.Weighted>
-6.2823

> <Gold.Chemscore.Metal.Weighted>
-0.0000

> <Gold.Chemscore.Lipo.Weighted>
-13.1744

> <Gold.Chemscore.Internal_Hbond.Weighted>
0.0000

> <Gold.Chemscore.DEClash.Weighted>
1.5496

> <Gold.Chemscore.DEInternal.Weighted>
3.0062

> <Gold.Chemscore.Rot.Weighted>
2.5600

> <Gold.Chemscore.Internal.Correction.Weighted>
   9.000000E+99

> <Gold.Protein.RotatedTorsions>
[ 6907 6896 6895 6894 ] final  178.73 input  -60.11 | X-H torsion
[ 7974 7965 7964 7962 ] final  -51.20 input  175.53 | X-H torsion
[ 8008 7997 7996 7995 ] final  152.91 input   59.86 | X-H torsion
[ 10167 10162 10161 10158 ] final  168.28 input  -65.29 | X-H torsion
[ 10718 10713 10712 10709 ] final   -2.43 input   66.30 | X-H torsion
[ 10763 10752 10751 10750 ] final -133.29 input  -60.55 | X-H torsion
[ 11005 11000 10999 10996 ] final   74.21 input  -57.11 | X-H torsion

> <Gold.Protein.ActiveResidues>
 VAL166  LYS551  ARG553  GLY616  TRP617  ASP618  TYR619  PRO620  LYS621  CYS622 
 ASP623  PHE694  ASN695  SER759  ASP760  ASP761  ALA762  ILE779  LEU786  VAL792 
 PHE793  MET794  SER795  GLU796  ALA797  LYS798  CYS799  TRP800  GLU811  SER814 

> <Gold.Protein.RotatedAtoms>
  151.6832  133.3311  159.3224 H   0  0  0  0  0  0  0  0  0  0  0  0  # atno 6907 bound_to 6896
  150.7813  134.6763  159.6428 H   0  0  0  0  0  0  0  0  0  0  0  0  # atno 6908 bound_to 6896
  152.3871  134.6503  160.0173 H   0  0  0  0  0  0  0  0  0  0  0  0  # atno 6909 bound_to 6896
  145.9215  140.7829  142.9645 H   0  0  0  0  0  0  0  0  0  0  0  0  # atno 7974 bound_to 7965
  156.2607  140.2008  156.6407 H   0  0  0  0  0  0  0  0  0  0  0  0  # atno 8008 bound_to 7997
  154.6612  140.0560  157.0088 H   0  0  0  0  0  0  0  0  0  0  0  0  # atno 8009 bound_to 7997
  155.1274  140.3230  155.4485 H   0  0  0  0  0  0  0  0  0  0  0  0  # atno 8010 bound_to 7997
  139.4964  144.3831  151.9600 H   0  0  0  0  0  0  0  0  0  0  0  0  # atno 10167 bound_to 10162
  156.7909  130.5361  149.5736 H   0  0  0  0  0  0  0  0  0  0  0  0  # atno 10718 bound_to 10713
  154.8734  135.3771  154.4548 H   0  0  0  0  0  0  0  0  0  0  0  0  # atno 10763 bound_to 10752
  153.5221  135.7029  153.5731 H   0  0  0  0  0  0  0  0  0  0  0  0  # atno 10764 bound_to 10752
  153.3973  135.3957  155.1930 H   0  0  0  0  0  0  0  0  0  0  0  0  # atno 10765 bound_to 10752
  139.9402  134.7413  156.1120 H   0  0  0  0  0  0  0  0  0  0  0  0  # atno 11005 bound_to 11000
  144.6753  140.1984  143.7389 LP  0  0  0  0  0  0  0  0  0  0  0  0  # atno 17320 bound_to 7965
  145.8543  139.2191  143.1753 LP  0  0  0  0  0  0  0  0  0  0  0  0  # atno 17321 bound_to 7965
  140.3268  144.3364  150.5996 LP  0  0  0  0  0  0  0  0  0  0  0  0  # atno 17342 bound_to 10162
  140.5678  143.2184  151.7653 LP  0  0  0  0  0  0  0  0  0  0  0  0  # atno 17343 bound_to 10162
  156.1159  130.6075  151.0120 LP  0  0  0  0  0  0  0  0  0  0  0  0  # atno 17370 bound_to 10713
  157.6601  131.0882  150.7859 LP  0  0  0  0  0  0  0  0  0  0  0  0  # atno 17371 bound_to 10713
  141.1033  133.6669  156.2806 LP  0  0  0  0  0  0  0  0  0  0  0  0  # atno 17394 bound_to 11000
  140.5971  134.5592  157.5510 LP  0  0  0  0  0  0  0  0  0  0  0  0  # atno 17395 bound_to 11000

$$$$
