#       Name:                AV-unprocessed.smi:2833
#       Creating user name   scv26
#       Creation time:       Fri Mar 27 15:36:24 2020


#       File generated by GOLD software.
#

@<TRIPOS>MOLECULE
AV-unprocessed.smi:2833
    34    35     1
SMALL
NO_CHARGES


@<TRIPOS>ATOM
      1 ****        -3.2758   3.2193   0.2841 O.3            1 S1                 0.0000
      2 ****        -2.9097   1.8921  -0.0289 C.3            1 S1                 0.0000
      3 ****        -1.3799   1.7493  -0.0305 C.3            1 S1                 0.0000
      4 ****        -0.9479   0.2780   0.1329 C.3            1 S1                 0.0000
      5 ****         0.5020   0.1659   0.0331 N.3            1 S1                 0.0000
      6 ****         0.9899  -1.1205   0.3054 C.ar           1 S1                 0.0000
      7 ****         0.6252  -2.1322  -0.5200 N.ar           1 S1                 0.0000
      8 ****         1.0967  -3.3711  -0.2617 C.ar           1 S1                 0.0000
      9 ****         1.9476  -3.6623   0.8226 C.ar           1 S1                 0.0000
     10 ****         2.5131  -5.2694   1.0941 Cl             1 S1                 0.0000
     11 ****         2.3259  -2.6114   1.6795 C.ar           1 S1                 0.0000
     12 ****         1.8396  -1.3160   1.4169 C.ar           1 S1                 0.0000
     13 ****         2.1846  -0.2810   2.2205 F              1 S1                 0.0000
     14 ****         1.0214   0.7336  -1.2041 C.3            1 S1                 0.0000
     15 ****         0.5345   2.1836  -1.3591 C.3            1 S1                 0.0000
     16 ****        -0.8880   2.2161  -1.2863 O.3            1 S1                 0.0000
     17 ****        -4.2189   3.2794   0.2833 H              1 S1                 0.0000
     18 ****        -3.3474   1.2483   0.7346 H              1 S1                 0.0000
     19 ****        -3.3377   1.5940  -0.9866 H              1 S1                 0.0000
     20 ****        -0.9548   2.3396   0.7841 H              1 S1                 0.0000
     21 ****        -1.2764  -0.1043   1.1003 H              1 S1                 0.0000
     22 ****        -1.4201  -0.3365  -0.6352 H              1 S1                 0.0000
     23 ****         0.7863  -4.1514  -0.9409 H              1 S1                 0.0000
     24 ****         2.9770  -2.7931   2.5219 H              1 S1                 0.0000
     25 ****         2.1117   0.7023  -1.1975 H              1 S1                 0.0000
     26 ****         0.6849   0.1379  -2.0540 H              1 S1                 0.0000
     27 ****         0.9647   2.8243  -0.5877 H              1 S1                 0.0000
     28 ****         0.8511   2.5861  -2.3212 H              1 S1                 0.0000
     29 ****        -2.8977   3.8434  -0.3996 LP             1 S1                 0.0000
     30 ****        -2.9233   3.4619   1.1879 LP             1 S1                 0.0000
     31 ****         0.8674   0.7330   0.7713 LP             1 S1                 0.0000
     32 ****         0.0224  -1.9654  -1.3002 LP             1 S1                 0.0000
     33 ****        -1.1949   3.1582  -1.4212 LP             1 S1                 0.0000
     34 ****        -1.2599   1.6372  -2.0120 LP             1 S1                 0.0000
@<TRIPOS>BOND
    1    1    2 1     
    2    1   17 1     
    3    2    3 1     
    4    2   18 1     
    5    2   19 1     
    6    3   16 1     
    7    3    4 1     
    8    3   20 1     
    9    4    5 1     
   10    4   21 1     
   11    4   22 1     
   12    5    6 1     
   13    5   14 1     
   14    6   12 ar    
   15    6    7 ar    
   16    7    8 ar    
   17    8    9 ar    
   18    8   23 1     
   19    9   10 1     
   20    9   11 ar    
   21   11   12 ar    
   22   11   24 1     
   23   12   13 1     
   24   14   15 1     
   25   14   25 1     
   26   14   26 1     
   27   15   16 1     
   28   15   27 1     
   29   15   28 1     
   30    1   29 1     
   31    1   30 1     
   32    5   31 1     
   33    7   32 1     
   34   16   33 1     
   35   16   34 1     
@<TRIPOS>SUBSTRUCTURE
      1 S1             1
@<TRIPOS>SET
LONE_PAIRS      STATIC     ATOMS    <user>   **** ""
6 29 30 31 32 33 34
DONOR_HYDROGENS      STATIC     ATOMS    <user>   **** ""
1 17
ATOM$BLUE        STATIC     ATOMS    COLORGROUP SYSTEM
6 29 30 31 32 33 34
ATOM$RED        STATIC     ATOMS    COLORGROUP SYSTEM
1 17
