AV-unprocessed.smi:1122|AV-procd|sdf|4828|dock2
  -GOLD-   22720 3393D 1   1.00000     0.00000
 Structure written by MMmdl.
 38 39  0  0  0  0  0  0  0  0  1 V2000
  152.0211  138.6640  155.8002 C   0  0  0  0  0  0  0  0  0  0  0  0
  151.7025  138.3331  154.3402 C   0  0  0  0  0  0  0  0  0  0  0  0
  150.2898  138.2253  154.1954 O   0  0  0  0  0  0  0  0  0  0  0  0
  149.5286  139.3785  154.2219 C   0  0  0  0  0  0  0  0  0  0  0  0
  150.0821  140.5060  154.7347 N   0  0  0  0  0  0  0  0  0  0  0  0
  149.3424  141.6335  154.7549 C   0  0  0  0  0  0  0  0  0  0  0  0
  148.0256  141.6992  154.2641 C   0  0  0  0  0  0  0  0  0  0  0  0
  147.4489  140.5309  153.7324 C   0  0  0  0  0  0  0  0  0  0  0  0
  148.2077  139.3352  153.7175 C   0  0  0  0  0  0  0  0  0  0  0  0
  147.7347  138.1011  153.1908 N   0  0  0  0  0  0  0  0  0  0  0  0
  146.4756  137.6360  153.1294 C   0  0  0  0  0  0  0  0  0  0  0  0
  145.4763  138.2241  153.5418 O   0  0  0  0  0  0  0  0  0  0  0  0
  146.4399  136.4188  152.5696 N   0  0  0  0  0  0  0  0  0  0  0  0
  145.2377  135.6201  152.3531 C   0  0  0  0  0  0  0  0  0  0  0  0
  145.3544  134.7298  151.1037 C   0  0  1  0  0  0  0  0  0  0  0  0
  146.4920  133.7077  151.1350 C   0  0  0  0  0  0  0  0  0  0  0  0
  145.9822  132.6568  150.1765 C   0  0  0  0  0  0  0  0  0  0  0  0
  144.4927  132.6370  150.5053 C   0  0  0  0  0  0  0  0  0  0  0  0
  144.1688  133.9550  150.9415 O   0  0  0  0  0  0  0  0  0  0  0  0
  153.0969  138.7486  155.9548 H   0  0  0  0  0  0  0  0  0  0  0  0
  151.6476  137.8871  156.4677 H   0  0  0  0  0  0  0  0  0  0  0  0
  151.5651  139.6091  156.0958 H   0  0  0  0  0  0  0  0  0  0  0  0
  152.0935  139.1194  153.6925 H   0  0  0  0  0  0  0  0  0  0  0  0
  152.1864  137.3946  154.0646 H   0  0  0  0  0  0  0  0  0  0  0  0
  149.8165  142.5110  155.1690 H   0  0  0  0  0  0  0  0  0  0  0  0
  147.4716  142.6258  154.2903 H   0  0  0  0  0  0  0  0  0  0  0  0
  146.4467  140.5826  153.3369 H   0  0  0  0  0  0  0  0  0  0  0  0
  148.4550  137.4673  152.8767 H   0  0  0  0  0  0  0  0  0  0  0  0
  147.3126  136.0116  152.2666 H   0  0  0  0  0  0  0  0  0  0  0  0
  145.0008  135.0191  153.2327 H   0  0  0  0  0  0  0  0  0  0  0  0
  144.4050  136.3121  152.2253 H   0  0  0  0  0  0  0  0  0  0  0  0
  145.4573  135.3514  150.2127 H   0  0  0  0  0  0  0  0  0  0  0  0
  147.4533  134.1281  150.8384 H   0  0  0  0  0  0  0  0  0  0  0  0
  146.5982  133.2784  152.1326 H   0  0  0  0  0  0  0  0  0  0  0  0
  146.1375  132.9822  149.1470 H   0  0  0  0  0  0  0  0  0  0  0  0
  146.4619  131.6863  150.3061 H   0  0  0  0  0  0  0  0  0  0  0  0
  143.8831  132.3377  149.6524 H   0  0  0  0  0  0  0  0  0  0  0  0
  144.2928  131.9447  151.3239 H   0  0  0  0  0  0  0  0  0  0  0  0
  1  2  1  0  0  0  0
  1 20  1  0  0  0  0
  1 21  1  0  0  0  0
  1 22  1  0  0  0  0
  2  3  1  0  0  0  0
  2 23  1  0  0  0  0
  2 24  1  0  0  0  0
  3  4  1  0  0  0  0
  4  9  1  0  0  0  0
  4  5  2  0  0  0  0
  5  6  1  0  0  0  0
  6  7  2  0  0  0  0
  6 25  1  0  0  0  0
  7  8  1  0  0  0  0
  7 26  1  0  0  0  0
  8  9  2  0  0  0  0
  8 27  1  0  0  0  0
  9 10  1  0  0  0  0
 10 11  1  0  0  0  0
 10 28  1  0  0  0  0
 11 12  2  0  0  0  0
 11 13  1  0  0  0  0
 13 14  1  0  0  0  0
 13 29  1  0  0  0  0
 14 15  1  0  0  0  0
 14 30  1  0  0  0  0
 14 31  1  0  0  0  0
 15 19  1  0  0  0  0
 15 16  1  0  0  0  0
 15 32  1  0  0  0  0
 16 17  1  0  0  0  0
 16 33  1  0  0  0  0
 16 34  1  0  0  0  0
 17 18  1  0  0  0  0
 17 35  1  0  0  0  0
 17 36  1  0  0  0  0
 18 19  1  0  0  0  0
 18 37  1  0  0  0  0
 18 38  1  0  0  0  0
M  END
> <s_m_source_file>
AV-unprocessed.smi

> <i_m_source_file_index>
1122

> <i_lp_mmshare_version>
43012

> <i_f3d_flags>
0

> <s_epik_input>
W0NIM11bQ0gyXU9jMW5bY0hdW2NIXVtjSF1jMVtOSF1DKD1PKVtOSF1bQ0gyXVtDQEBIXTJbQ0gyXVtDSDJdW0NIMl1PMg==

> <s_epik_cmdline>
J2VwaWtfcHl0aG9uJywgJy1waCcsICc3LjAnLCAnLXRuJywgJzgnLCAnLW1hJywgJzIwMCcsICctbWV0YWxfYmluZGluZycsICctaW1hZScsICc8aW5maWxlLm1hZT4nLCAnLW9tYWUnLCAnPG91dGZpbGUubWFlPic=

> <r_lp_tautomer_probability>
1

> <r_epik_Ionization_Penalty>
0.000110193

> <r_epik_Ionization_Penalty_Charging>
0

> <r_epik_Ionization_Penalty_Neutral>
0.000110193

> <r_epik_State_Penalty>
-0

> <r_epik_Charging_Adjusted_Penalty>
0

> <i_epik_Tot_Q>
0

> <i_epik_Tot_abs_Q>
0

> <r_epik_Metal_State_Penalty>
-0

> <b_epik_Metal_Only>
0

> <s_lp_Force_Field>
OPLS_2005

> <r_lp_Energy>
19.7185

> <b_lp_Chiralities_Consistent>
1

> <s_lp_Variant>
AV-unprocessed.smi:1122-2

> <Gold.Version>
5.8.1

> <Gold.Id.Protein>
6NUR|6NUR_protein|mol2

> <Gold.PLP.Fitness>
43.9029

> <Gold.PLP.PLP>
-33.3760

> <Gold.PLP.part.hbond>
-3.0000

> <Gold.PLP.part.metal>
0.0000

> <Gold.PLP.part.buried>
-3.0519

> <Gold.PLP.part.nonpolar>
-28.2914

> <Gold.PLP.part.repulsive>
1.1859

> <Gold.PLP.ligand.clash>
0.0000

> <Gold.PLP.ligand.torsion>
0.6385

> <Gold.PLP.Chemscore.Hbond>
2.9200

> <Gold.PLP.Chemscore.CHOScore>
0.9978

> <Gold.PLP.Chemscore.Metal>
0.0000

> <Gold.Chemscore.Hbonds>
donor molecule, donor type, donor heavy atom, donor atom, acceptor molecule, acceptor atom, score
      L1  H    10    28       P1  7948  1.00
      L1  H    13    29       P1  7948  0.99
      P1  H  7989  7998       L1     5  0.91
      L1  C     6    25       P1  8028  1.00

> <Gold.PLP.Chemscore.Internal.Correction>
0.0505

> <Gold.Rescore>
     Score         DG    S(hbond)    S(metal)    S(lipo)     H(rot)  DE(clash)    DE(int)     intcor
     15.62     -17.17       2.11        0.00      74.91       1.61       0.00       1.55       ----

> <Gold.Chemscore.Fitness>
15.6190

> <Gold.Chemscore.DG>
-17.1651

> <Gold.Chemscore.ZeroCoef>
-5.4800

> <Gold.Chemscore.Hbond>
2.1110

> <Gold.Chemscore.Metal>
0.0000

> <Gold.Chemscore.Lipo>
74.9069

> <Gold.Chemscore.Internal_Hbond>
0.0000

> <Gold.Chemscore.DEClash>
0.0009

> <Gold.Chemscore.DEInternal>
1.5452

> <Gold.Chemscore.Rot>
1.6131

> <Gold.Chemscore.Internal.Correction>
   9.000000E+99

> <Gold.Chemscore.Hbonds>
donor molecule, donor type, donor heavy atom, donor atom, acceptor molecule, acceptor atom, score
      L1  H    10    28       P1  7948  0.94
      L1  H    13    29       P1  7948  0.93
      P1  H  7989  7998       L1     5  0.19

> <Gold.Chemscore.Hbond.Weighted>
-7.0506

> <Gold.Chemscore.Metal.Weighted>
-0.0000

> <Gold.Chemscore.Lipo.Weighted>
-8.7641

> <Gold.Chemscore.Internal_Hbond.Weighted>
0.0000

> <Gold.Chemscore.DEClash.Weighted>
0.0009

> <Gold.Chemscore.DEInternal.Weighted>
1.5452

> <Gold.Chemscore.Rot.Weighted>
4.1296

> <Gold.Chemscore.Internal.Correction.Weighted>
   9.000000E+99

> <Gold.Protein.RotatedTorsions>
[ 6907 6896 6895 6894 ] final   59.48 input  -60.11 | X-H torsion
[ 7974 7965 7964 7962 ] final   30.96 input  175.53 | X-H torsion
[ 8008 7997 7996 7995 ] final  -75.04 input   59.86 | X-H torsion
[ 10167 10162 10161 10158 ] final  -26.03 input  -65.29 | X-H torsion
[ 10718 10713 10712 10709 ] final   91.36 input   66.30 | X-H torsion
[ 10763 10752 10751 10750 ] final   38.71 input  -60.55 | X-H torsion
[ 11005 11000 10999 10996 ] final   80.60 input  -57.11 | X-H torsion

> <Gold.Protein.ActiveResidues>
 VAL166  LYS551  ARG553  GLY616  TRP617  ASP618  TYR619  PRO620  LYS621  CYS622 
 ASP623  PHE694  ASN695  SER759  ASP760  ASP761  ALA762  ILE779  LEU786  VAL792 
 PHE793  MET794  SER795  GLU796  ALA797  LYS798  CYS799  TRP800  GLU811  SER814 

> <Gold.Protein.RotatedAtoms>
  152.3919  134.6428  160.0104 H   0  0  0  0  0  0  0  0  0  0  0  0  # atno 6907 bound_to 6896
  151.6659  133.3310  159.3193 H   0  0  0  0  0  0  0  0  0  0  0  0  # atno 6908 bound_to 6896
  150.7833  134.6840  159.6505 H   0  0  0  0  0  0  0  0  0  0  0  0  # atno 6909 bound_to 6896
  146.1580  139.6719  142.9053 H   0  0  0  0  0  0  0  0  0  0  0  0  # atno 7974 bound_to 7965
  154.5383  140.0751  156.8465 H   0  0  0  0  0  0  0  0  0  0  0  0  # atno 8008 bound_to 7997
  155.3233  140.3397  155.4222 H   0  0  0  0  0  0  0  0  0  0  0  0  # atno 8009 bound_to 7997
  156.1849  140.1665  156.8190 H   0  0  0  0  0  0  0  0  0  0  0  0  # atno 8010 bound_to 7997
  140.7284  143.4213  151.0946 H   0  0  0  0  0  0  0  0  0  0  0  0  # atno 10167 bound_to 10162
  157.6960  131.0404  150.3717 H   0  0  0  0  0  0  0  0  0  0  0  0  # atno 10718 bound_to 10713
  152.9992  135.6241  154.2348 H   0  0  0  0  0  0  0  0  0  0  0  0  # atno 10763 bound_to 10752
  154.2089  135.2801  155.2967 H   0  0  0  0  0  0  0  0  0  0  0  0  # atno 10764 bound_to 10752
  154.5622  135.5701  153.7077 H   0  0  0  0  0  0  0  0  0  0  0  0  # atno 10765 bound_to 10752
  139.9128  134.7933  156.1931 H   0  0  0  0  0  0  0  0  0  0  0  0  # atno 11005 bound_to 11000
  145.4661  141.0434  143.2725 LP  0  0  0  0  0  0  0  0  0  0  0  0  # atno 17320 bound_to 7965
  144.7988  139.6181  143.7081 LP  0  0  0  0  0  0  0  0  0  0  0  0  # atno 17321 bound_to 7965
  139.7859  143.8288  152.3145 LP  0  0  0  0  0  0  0  0  0  0  0  0  # atno 17342 bound_to 10162
  139.8255  144.7277  150.9517 LP  0  0  0  0  0  0  0  0  0  0  0  0  # atno 17343 bound_to 10162
  156.4141  130.3940  149.6870 LP  0  0  0  0  0  0  0  0  0  0  0  0  # atno 17370 bound_to 10713
  156.4144  130.7738  151.2752 LP  0  0  0  0  0  0  0  0  0  0  0  0  # atno 17371 bound_to 10713
  141.0571  133.6859  156.1882 LP  0  0  0  0  0  0  0  0  0  0  0  0  # atno 17394 bound_to 11000
  140.6719  134.4859  157.5587 LP  0  0  0  0  0  0  0  0  0  0  0  0  # atno 17395 bound_to 11000

$$$$
