AV-unprocessed.smi:160|AV-procd|sdf|1368|dock7
  -GOLD-   2262019 83D 1   1.00000     0.00000
 Structure written by MMmdl.
 28 29  0  0  0  0  0  0  0  0  2 V2000
  154.1525  136.0748  157.0045 N   0  5  0  0  0  0  0  0  0  0  0  0
  154.1138  137.4226  157.0911 C   0  0  0  0  0  0  0  0  0  0  0  0
  154.8651  138.1303  157.7612 O   0  0  0  0  0  0  0  0  0  0  0  0
  153.0267  138.0721  156.2677 C   0  0  0  0  0  0  0  0  0  0  0  0
  152.3073  137.3417  155.3625 N   0  0  0  0  0  0  0  0  0  0  0  0
  151.5124  138.2981  154.9013 C   0  0  0  0  0  0  0  0  0  0  0  0
  151.7027  139.4928  155.4727 N   0  0  0  0  0  0  0  0  0  0  0  0
  151.0669  140.8260  155.2195 C   0  0  1  0  0  0  0  0  0  0  0  0
  150.1191  140.6840  154.2080 O   0  0  0  0  0  0  0  0  0  0  0  0
  148.8699  140.3294  154.7859 C   0  0  2  0  0  0  0  0  0  0  0  0
  147.7318  140.6414  153.8019 C   0  0  0  0  0  0  0  0  0  0  0  0
  147.6764  139.6570  152.7914 O   0  0  0  0  0  0  0  0  0  0  0  0
  148.8374  141.1953  156.0512 C   0  0  1  0  0  0  0  0  0  0  0  0
  148.0831  140.5533  157.0595 O   0  0  0  0  0  0  0  0  0  0  0  0
  150.3051  141.3094  156.4679 C   0  0  2  0  0  0  0  0  0  0  0  0
  150.6292  142.6483  156.7832 O   0  0  0  0  0  0  0  0  0  0  0  0
  152.7153  139.3684  156.3649 N   0  0  0  0  0  0  0  0  0  0  0  0
  151.8969  141.4634  154.9115 H   0  0  0  0  0  0  0  0  0  0  0  0
  148.8756  139.2714  155.0562 H   0  0  0  0  0  0  0  0  0  0  0  0
  148.4155  142.1774  155.8299 H   0  0  0  0  0  0  0  0  0  0  0  0
  150.5381  140.6765  157.3258 H   0  0  0  0  0  0  0  0  0  0  0  0
  154.3468  135.5363  157.8569 H   0  0  0  0  0  0  0  0  0  0  0  0
  150.7785  138.1218  154.1289 H   0  0  0  0  0  0  0  0  0  0  0  0
  146.7736  140.6282  154.3224 H   0  0  0  0  0  0  0  0  0  0  0  0
  147.8483  141.6323  153.3621 H   0  0  0  0  0  0  0  0  0  0  0  0
  148.3927  139.8016  152.1921 H   0  0  0  0  0  0  0  0  0  0  0  0
  147.5125  141.1931  157.4574 H   0  0  0  0  0  0  0  0  0  0  0  0
  150.0228  143.2151  156.3307 H   0  0  0  0  0  0  0  0  0  0  0  0
  1  2  1  0  0  0  0
  1 22  1  0  0  0  0
  2  3  2  0  0  0  0
  2  4  1  0  0  0  0
  4 17  2  0  0  0  0
  4  5  1  0  0  0  0
  5  6  2  0  0  0  0
  6  7  1  0  0  0  0
  6 23  1  0  0  0  0
  7  8  1  0  0  0  0
  7 17  1  0  0  0  0
  8 18  1  0  0  0  0
  8 15  1  0  0  0  0
  8  9  1  0  0  0  0
  9 10  1  0  0  0  0
 10 19  1  0  0  0  0
 10 11  1  0  0  0  0
 10 13  1  0  0  0  0
 11 12  1  0  0  0  0
 11 24  1  0  0  0  0
 11 25  1  0  0  0  0
 12 26  1  0  0  0  0
 13 20  1  0  0  0  0
 13 14  1  0  0  0  0
 13 15  1  0  0  0  0
 14 27  1  0  0  0  0
 15 21  1  0  0  0  0
 15 16  1  0  0  0  0
 16 28  1  0  0  0  0
M  CHG  1   1  -1
M  END
> <s_m_source_file>
AV-unprocessed.smi

> <i_m_source_file_index>
160

> <i_lp_mmshare_version>
43012

> <i_f3d_flags>
0

> <s_epik_input>
W05IMl1DKD1PKWMxbltjSF1uKG4xKVtDQEBIXTJPW0NASF0oW0NIMl1bT0hdKVtDQEBIXShbT0hdKVtDQEhdMltPSF0=

> <s_epik_cmdline>
J2VwaWtfcHl0aG9uJywgJy1waCcsICc3LjAnLCAnLXRuJywgJzgnLCAnLW1hJywgJzIwMCcsICctbWV0YWxfYmluZGluZycsICctaW1hZScsICc8aW5maWxlLm1hZT4nLCAnLW9tYWUnLCAnPG91dGZpbGUubWFlPic=

> <r_lp_tautomer_probability>
1

> <r_epik_Ionization_Penalty>
6.6993

> <r_epik_Ionization_Penalty_Charging>
6.6993

> <r_epik_Ionization_Penalty_Neutral>
6.01698e-06

> <r_epik_State_Penalty>
6.69929

> <r_epik_Charging_Adjusted_Penalty>
13.3986

> <i_epik_Tot_Q>
-1

> <i_epik_Tot_abs_Q>
1

> <r_epik_Metal_State_Penalty>
2.62798

> <b_epik_Metal_Only>
1

> <s_epik_Chemistry_Notes>
This compound contains an acetal/aminal-like group ( X-CH(R)-Y where X, Y are N, S, or O) that may be acid/base labile, releasing an aldehyde.

> <s_lp_Force_Field>
OPLS_2005

> <r_lp_Energy>
37.5232

> <b_lp_Chiralities_Consistent>
1

> <s_lp_Variant>
AV-unprocessed.smi:160-26

> <Gold.Version>
5.8.1

> <Gold.Id.Protein>
6NUR|6NUR_protein|mol2

> <Gold.PLP.Fitness>
41.5281

> <Gold.PLP.PLP>
-23.9773

> <Gold.PLP.part.hbond>
-6.9585

> <Gold.PLP.part.metal>
0.0000

> <Gold.PLP.part.buried>
-1.1241

> <Gold.PLP.part.nonpolar>
-15.7909

> <Gold.PLP.part.repulsive>
0.1965

> <Gold.PLP.ligand.clash>
0.0000

> <Gold.PLP.ligand.torsion>
0.1714

> <Gold.PLP.Chemscore.Hbond>
5.9507

> <Gold.PLP.Chemscore.CHOScore>
0.0000

> <Gold.PLP.Chemscore.Metal>
0.0000

> <Gold.Chemscore.Hbonds>
donor molecule, donor type, donor heavy atom, donor atom, acceptor molecule, acceptor atom, score
      L1  H    12    26       P1  7957  1.00
      L1  H    16    28       P1  8028  1.00
      P1  H  7997  8008       L1     3  0.48
      P1  H  7997  8009       L1    17  0.98
      P1  H 10752 10763       L1     5  0.45
      P1  H 10752 10764       L1     1  2.00

> <Gold.PLP.Chemscore.Internal.Correction>
0.0415

> <Gold.Rescore>
     Score         DG    S(hbond)    S(metal)    S(lipo)     H(rot)  DE(clash)    DE(int)     intcor
      8.19     -10.23       3.74        0.00      22.26       4.04       1.59       0.45       ----

> <Gold.Chemscore.Fitness>
8.1893

> <Gold.Chemscore.DG>
-10.2282

> <Gold.Chemscore.ZeroCoef>
-5.4800

> <Gold.Chemscore.Hbond>
3.7385

> <Gold.Chemscore.Metal>
0.0000

> <Gold.Chemscore.Lipo>
22.2626

> <Gold.Chemscore.Internal_Hbond>
0.0000

> <Gold.Chemscore.DEClash>
1.5866

> <Gold.Chemscore.DEInternal>
0.4523

> <Gold.Chemscore.Rot>
4.0403

> <Gold.Chemscore.Internal.Correction>
   9.000000E+99

> <Gold.Chemscore.Hbonds>
donor molecule, donor type, donor heavy atom, donor atom, acceptor molecule, acceptor atom, score
      L1  H    12    26       P1  7957  0.99
      L1  H    16    28       P1  8028  0.96
      P1  H  7997  8008       L1     3  0.45
      P1  H  7997  8009       L1    17  0.28
      P1  H 10752 10763       L1     5  0.43
      P1  H 10752 10764       L1     1  0.93

> <Gold.Chemscore.Hbond.Weighted>
-12.4865

> <Gold.Chemscore.Metal.Weighted>
-0.0000

> <Gold.Chemscore.Lipo.Weighted>
-2.6047

> <Gold.Chemscore.Internal_Hbond.Weighted>
0.0000

> <Gold.Chemscore.DEClash.Weighted>
1.5866

> <Gold.Chemscore.DEInternal.Weighted>
0.4523

> <Gold.Chemscore.Rot.Weighted>
10.3431

> <Gold.Chemscore.Internal.Correction.Weighted>
   9.000000E+99

> <Gold.Protein.RotatedTorsions>
[ 6907 6896 6895 6894 ] final   76.02 input  -60.11 | X-H torsion
[ 7974 7965 7964 7962 ] final  135.15 input  175.53 | X-H torsion
[ 8008 7997 7996 7995 ] final -144.31 input   59.86 | X-H torsion
[ 10167 10162 10161 10158 ] final   63.65 input  -65.29 | X-H torsion
[ 10718 10713 10712 10709 ] final  105.01 input   66.30 | X-H torsion
[ 10763 10752 10751 10750 ] final   39.13 input  -60.55 | X-H torsion
[ 11005 11000 10999 10996 ] final -165.60 input  -57.11 | X-H torsion

> <Gold.Protein.ActiveResidues>
 VAL166  LYS551  ARG553  GLY616  TRP617  ASP618  TYR619  PRO620  LYS621  CYS622 
 ASP623  PHE694  ASN695  SER759  ASP760  ASP761  ALA762  ILE779  LEU786  VAL792 
 PHE793  MET794  SER795  GLU796  ALA797  LYS798  CYS799  TRP800  GLU811  SER814 

> <Gold.Protein.RotatedAtoms>
  152.5054  134.4032  159.9423 H   0  0  0  0  0  0  0  0  0  0  0  0  # atno 6907 bound_to 6896
  151.3997  133.3755  159.2738 H   0  0  0  0  0  0  0  0  0  0  0  0  # atno 6908 bound_to 6896
  150.9371  134.8804  159.7647 H   0  0  0  0  0  0  0  0  0  0  0  0  # atno 6909 bound_to 6896
  144.9692  139.4624  143.5441 H   0  0  0  0  0  0  0  0  0  0  0  0  # atno 7974 bound_to 7965
  155.5249  140.0594  157.2900 H   0  0  0  0  0  0  0  0  0  0  0  0  # atno 8008 bound_to 7997
  154.4505  140.1946  156.0481 H   0  0  0  0  0  0  0  0  0  0  0  0  # atno 8009 bound_to 7997
  156.0693  140.3262  155.7560 H   0  0  0  0  0  0  0  0  0  0  0  0  # atno 8010 bound_to 7997
  140.1307  144.4645  150.6866 H   0  0  0  0  0  0  0  0  0  0  0  0  # atno 10167 bound_to 10162
  157.6721  131.0817  150.5792 H   0  0  0  0  0  0  0  0  0  0  0  0  # atno 10718 bound_to 10713
  152.9977  135.6229  154.2416 H   0  0  0  0  0  0  0  0  0  0  0  0  # atno 10763 bound_to 10752
  154.2156  135.2798  155.2944 H   0  0  0  0  0  0  0  0  0  0  0  0  # atno 10764 bound_to 10752
  154.5571  135.5716  153.7032 H   0  0  0  0  0  0  0  0  0  0  0  0  # atno 10765 bound_to 10752
  140.5739  134.5210  157.5167 H   0  0  0  0  0  0  0  0  0  0  0  0  # atno 11005 bound_to 11000
  146.3377  139.8893  142.8811 LP  0  0  0  0  0  0  0  0  0  0  0  0  # atno 17320 bound_to 7965
  145.2584  141.0068  143.3840 LP  0  0  0  0  0  0  0  0  0  0  0  0  # atno 17321 bound_to 7965
  140.6818  143.2330  151.5364 LP  0  0  0  0  0  0  0  0  0  0  0  0  # atno 17342 bound_to 10162
  139.5521  144.2369  152.1548 LP  0  0  0  0  0  0  0  0  0  0  0  0  # atno 17343 bound_to 10162
  156.6092  130.4375  149.5866 LP  0  0  0  0  0  0  0  0  0  0  0  0  # atno 17370 bound_to 10713
  156.2444  130.6870  151.1586 LP  0  0  0  0  0  0  0  0  0  0  0  0  # atno 17371 bound_to 10713
  139.9349  134.7894  156.0831 LP  0  0  0  0  0  0  0  0  0  0  0  0  # atno 17394 bound_to 11000
  141.1039  133.6667  156.2818 LP  0  0  0  0  0  0  0  0  0  0  0  0  # atno 17395 bound_to 11000

$$$$
