#       Name:                AV-unprocessed.smi:273
#       Creating user name   scv26
#       Creation time:       Thu Mar 26 21:29:45 2020


#       File generated by GOLD software.
#

@<TRIPOS>MOLECULE
AV-unprocessed.smi:273
    69    72     1
SMALL
NO_CHARGES


@<TRIPOS>ATOM
      1 ****        -8.6481  -2.2812   1.8811 C.3            1 S1                 0.0000
      2 ****        -8.1442  -1.9785   0.4667 C.3            1 S1                 0.0000
      3 ****        -6.8894  -1.2421   0.5190 N.am           1 S1                 0.0000
      4 ****        -6.1336  -0.9419  -0.5489 C.2            1 S1                 0.0000
      5 ****        -6.4501  -1.2703  -1.6926 O.2            1 S1                 0.0000
      6 ****        -4.8371  -0.1403  -0.3168 C.3            1 S1                 0.0000
      7 ****        -3.6570  -0.7409  -1.1117 C.3            1 S1                 0.0000
      8 ****        -2.3674   0.0688  -0.9017 C.3            1 S1                 0.0000
      9 ****        -2.0589   0.2053   0.5207 N.3            1 S1                 0.0000
     10 ****        -0.7876   0.6033   0.7807 C.ar           1 S1                 0.0000
     11 ****        -0.5598   1.7983   1.3898 N.ar           1 S1                 0.0000
     12 ****         0.6894   2.2056   1.6331 C.ar           1 S1                 0.0000
     13 ****         1.8379   1.5858   1.3555 N.ar           1 S1                 0.0000
     14 ****         1.6160   0.3828   0.7535 C.ar           1 S1                 0.0000
     15 ****         0.3487  -0.1811   0.4341 C.ar           1 S1                 0.0000
     16 ****         0.5224  -1.4260  -0.1605 N.2            1 S1                 0.0000
     17 ****         1.8174  -1.5837  -0.1999 C.2            1 S1                 0.0000
     18 ****         2.5496  -0.5409   0.3207 N.pl3          1 S1                 0.0000
     19 ****         3.9962  -0.4434   0.3994 C.3            1 S1                 0.0000
     20 ****         4.5987   0.5105  -0.6618 C.3            1 S1                 0.0000
     21 ****         4.1420   0.1670  -2.1006 C.3            1 S1                 0.0000
     22 ****         4.5702  -1.1235  -2.4851 O.3            1 S1                 0.0000
     23 ****         6.1403   0.6011  -0.5360 C.3            1 S1                 0.0000
     24 ****         6.8003   1.6093  -1.4606 C.3            1 S1                 0.0000
     25 ****         8.1579   1.8222  -0.7985 C.3            1 S1                 0.0000
     26 ****         7.9470   1.6234   0.5950 O.3            1 S1                 0.0000
     27 ****         6.6390   1.1089   0.8206 C.3            1 S1                 0.0000
     28 ****        -3.1297   0.7911   1.3276 C.3            1 S1                 0.0000
     29 ****        -4.4344  -0.0060   1.1717 C.3            1 S1                 0.0000
     30 ****        -9.5937  -2.8227   1.8481 H              1 S1                 0.0000
     31 ****        -8.8100  -1.3635   2.4476 H              1 S1                 0.0000
     32 ****        -7.9331  -2.8945   2.4305 H              1 S1                 0.0000
     33 ****        -8.0037  -2.9103  -0.0835 H              1 S1                 0.0000
     34 ****        -8.8859  -1.3902  -0.0758 H              1 S1                 0.0000
     35 ****        -6.5714  -0.9389   1.4281 H              1 S1                 0.0000
     36 ****        -5.0284   0.8620  -0.7028 H              1 S1                 0.0000
     37 ****        -3.4880  -1.7732  -0.8007 H              1 S1                 0.0000
     38 ****        -3.8859  -0.7726  -2.1778 H              1 S1                 0.0000
     39 ****        -1.5522  -0.4109  -1.4423 H              1 S1                 0.0000
     40 ****        -2.4815   1.0648  -1.3317 H              1 S1                 0.0000
     41 ****         0.7820   3.1671   2.1165 H              1 S1                 0.0000
     42 ****         2.2777  -2.4664  -0.6198 H              1 S1                 0.0000
     43 ****         4.2489  -0.1095   1.4059 H              1 S1                 0.0000
     44 ****         4.4171  -1.4439   0.2926 H              1 S1                 0.0000
     45 ****         4.2043   1.5054  -0.4492 H              1 S1                 0.0000
     46 ****         3.0567   0.2165  -2.1890 H              1 S1                 0.0000
     47 ****         4.5305   0.8918  -2.8155 H              1 S1                 0.0000
     48 ****         4.2765  -1.2869  -3.3685 H              1 S1                 0.0000
     49 ****         6.5820  -0.3795  -0.7211 H              1 S1                 0.0000
     50 ****         6.8913   1.2573  -2.4886 H              1 S1                 0.0000
     51 ****         6.2386   2.5446  -1.4680 H              1 S1                 0.0000
     52 ****         8.8741   1.0785  -1.1499 H              1 S1                 0.0000
     53 ****         8.5685   2.8113  -1.0024 H              1 S1                 0.0000
     54 ****         6.0096   1.9226   1.1841 H              1 S1                 0.0000
     55 ****         6.6530   0.3282   1.5815 H              1 S1                 0.0000
     56 ****        -2.8400   0.8070   2.3793 H              1 S1                 0.0000
     57 ****        -3.2881   1.8261   1.0205 H              1 S1                 0.0000
     58 ****        -5.2205   0.4918   1.7409 H              1 S1                 0.0000
     59 ****        -4.3033  -0.9950   1.6143 H              1 S1                 0.0000
     60 ****        -7.2965  -1.7790  -1.8506 LP             1 S1                 0.0000
     61 ****        -5.8608  -1.0284  -2.4634 LP             1 S1                 0.0000
     62 ****        -2.0492  -0.7285   0.8785 LP             1 S1                 0.0000
     63 ****        -1.3317   2.3752   1.6570 LP             1 S1                 0.0000
     64 ****         2.7437   1.9556   1.5622 LP             1 S1                 0.0000
     65 ****        -0.1834  -2.0563  -0.4839 LP             1 S1                 0.0000
     66 ****         4.1790  -1.8063  -1.8680 LP             1 S1                 0.0000
     67 ****         5.5682  -1.1728  -2.4471 LP             1 S1                 0.0000
     68 ****         8.0466   2.4961   1.0729 LP             1 S1                 0.0000
     69 ****         8.6230   0.9738   0.9430 LP             1 S1                 0.0000
@<TRIPOS>BOND
    1    1    2 1     
    2    1   30 1     
    3    1   31 1     
    4    1   32 1     
    5    2    3 1     
    6    2   33 1     
    7    2   34 1     
    8    3    4 am    
    9    3   35 1     
   10    4    5 2     
   11    4    6 1     
   12    6   29 1     
   13    6    7 1     
   14    6   36 1     
   15    7    8 1     
   16    7   37 1     
   17    7   38 1     
   18    8    9 1     
   19    8   39 1     
   20    8   40 1     
   21    9   10 1     
   22    9   28 1     
   23   10   15 ar    
   24   10   11 ar    
   25   11   12 ar    
   26   12   13 ar    
   27   12   41 1     
   28   13   14 ar    
   29   14   18 1     
   30   14   15 ar    
   31   15   16 1     
   32   16   17 2     
   33   17   18 1     
   34   17   42 1     
   35   18   19 1     
   36   19   20 1     
   37   19   43 1     
   38   19   44 1     
   39   20   21 1     
   40   20   23 1     
   41   20   45 1     
   42   21   22 1     
   43   21   46 1     
   44   21   47 1     
   45   22   48 1     
   46   23   27 1     
   47   23   24 1     
   48   23   49 1     
   49   24   25 1     
   50   24   50 1     
   51   24   51 1     
   52   25   26 1     
   53   25   52 1     
   54   25   53 1     
   55   26   27 1     
   56   27   54 1     
   57   27   55 1     
   58   28   29 1     
   59   28   56 1     
   60   28   57 1     
   61   29   58 1     
   62   29   59 1     
   63    5   60 1     
   64    5   61 1     
   65    9   62 1     
   66   11   63 1     
   67   13   64 1     
   68   16   65 1     
   69   22   66 1     
   70   22   67 1     
   71   26   68 1     
   72   26   69 1     
@<TRIPOS>SUBSTRUCTURE
      1 S1             1
@<TRIPOS>SET
LONE_PAIRS      STATIC     ATOMS    <user>   **** ""
10 60 61 62 63 64 65 66 67 68 69
DONOR_HYDROGENS      STATIC     ATOMS    <user>   **** ""
2 35 48
ATOM$BLUE        STATIC     ATOMS    COLORGROUP SYSTEM
10 60 61 62 63 64 65 66 67 68 69
ATOM$RED        STATIC     ATOMS    COLORGROUP SYSTEM
2 35 48
