AV-unprocessed.smi:2787|AV-procd|sdf|10757|dock6
  -GOLD-   2272015193D 1   1.00000     0.00000
 Structure written by MMmdl.
 35 36  0  0  0  0  0  0  0  0  1 V2000
  152.0614  136.8053  155.2184 O   0  0  0  0  0  0  0  0  0  0  0  0
  151.6532  137.9491  154.4977 C   0  0  0  0  0  0  0  0  0  0  0  0
  152.0433  139.2289  155.2516 C   0  0  0  0  0  0  0  0  0  0  0  0
  151.8393  139.1228  156.7731 C   0  0  0  0  0  0  0  0  0  0  0  0
  151.9082  140.4548  157.4649 C   0  0  0  0  0  0  0  0  0  0  0  0
  152.6225  140.6046  158.5818 N   0  0  0  0  0  0  0  0  0  0  0  0
  152.4403  141.9372  158.8904 C   0  0  0  0  0  0  0  0  0  0  0  0
  152.9479  142.7110  159.9587 C   0  0  0  0  0  0  0  0  0  0  0  0
  152.6181  144.0778  160.0693 C   0  0  0  0  0  0  0  0  0  0  0  0
  151.7777  144.6882  159.1160 C   0  0  0  0  0  0  0  0  0  0  0  0
  151.2617  143.9345  158.0443 C   0  0  0  0  0  0  0  0  0  0  0  0
  151.5947  142.5705  157.9378 C   0  0  0  0  0  0  0  0  0  0  0  0
  151.2625  141.5706  157.0277 N   0  0  0  0  0  0  0  0  0  0  0  0
  150.3902  141.7532  155.8719 C   0  0  0  0  0  0  0  0  0  0  0  0
  148.9399  141.3047  156.1426 C   0  0  1  0  0  0  0  0  0  0  0  0
  148.2432  142.3252  156.8290 O   0  0  0  0  0  0  0  0  0  0  0  0
  148.1733  140.9458  154.8551 C   0  0  0  0  0  0  0  0  0  0  0  0
  147.0056  140.3787  155.1588 F   0  0  0  0  0  0  0  0  0  0  0  0
  147.9632  142.0284  154.1056 F   0  0  0  0  0  0  0  0  0  0  0  0
  148.8838  140.0684  154.1461 F   0  0  0  0  0  0  0  0  0  0  0  0
  152.6064  137.0817  155.9394 H   0  0  0  0  0  0  0  0  0  0  0  0
  152.0988  137.9318  153.5025 H   0  0  0  0  0  0  0  0  0  0  0  0
  150.5715  137.9067  154.3678 H   0  0  0  0  0  0  0  0  0  0  0  0
  153.0934  139.4441  155.0504 H   0  0  0  0  0  0  0  0  0  0  0  0
  151.4823  140.0731  154.8511 H   0  0  0  0  0  0  0  0  0  0  0  0
  150.8967  138.6233  156.9806 H   0  0  0  0  0  0  0  0  0  0  0  0
  152.6116  138.4811  157.1990 H   0  0  0  0  0  0  0  0  0  0  0  0
  153.5920  142.2519  160.6939 H   0  0  0  0  0  0  0  0  0  0  0  0
  153.0113  144.6606  160.8894 H   0  0  0  0  0  0  0  0  0  0  0  0
  151.5291  145.7354  159.2083 H   0  0  0  0  0  0  0  0  0  0  0  0
  150.6180  144.4001  157.3129 H   0  0  0  0  0  0  0  0  0  0  0  0
  150.4258  142.7840  155.5260 H   0  0  0  0  0  0  0  0  0  0  0  0
  150.8033  141.1653  155.0516 H   0  0  0  0  0  0  0  0  0  0  0  0
  148.9563  140.4291  156.7927 H   0  0  0  0  0  0  0  0  0  0  0  0
  148.2762  143.1126  156.3078 H   0  0  0  0  0  0  0  0  0  0  0  0
  1  2  1  0  0  0  0
  1 21  1  0  0  0  0
  2  3  1  0  0  0  0
  2 22  1  0  0  0  0
  2 23  1  0  0  0  0
  3  4  1  0  0  0  0
  3 24  1  0  0  0  0
  3 25  1  0  0  0  0
  4  5  1  0  0  0  0
  4 26  1  0  0  0  0
  4 27  1  0  0  0  0
  5 13  1  0  0  0  0
  5  6  2  0  0  0  0
  6  7  1  0  0  0  0
  7 12  2  0  0  0  0
  7  8  1  0  0  0  0
  8  9  2  0  0  0  0
  8 28  1  0  0  0  0
  9 10  1  0  0  0  0
  9 29  1  0  0  0  0
 10 11  2  0  0  0  0
 10 30  1  0  0  0  0
 11 12  1  0  0  0  0
 11 31  1  0  0  0  0
 12 13  1  0  0  0  0
 13 14  1  0  0  0  0
 14 15  1  0  0  0  0
 14 32  1  0  0  0  0
 14 33  1  0  0  0  0
 15 16  1  0  0  0  0
 15 17  1  0  0  0  0
 15 34  1  0  0  0  0
 16 35  1  0  0  0  0
 17 18  1  0  0  0  0
 17 19  1  0  0  0  0
 17 20  1  0  0  0  0
M  END
> <s_m_source_file>
AV-unprocessed.smi

> <i_m_source_file_index>
2787

> <i_lp_mmshare_version>
43012

> <i_f3d_flags>
0

> <s_epik_input>
W09IXVtDSDJdW0NIMl1bQ0gyXWMobjEpbihbQ0gyXVtDQEhdKFtPSF0pQyhGKShGKUYpYyhjMTIpW2NIXVtjSF1bY0hdW2NIXTI=

> <s_epik_cmdline>
J2VwaWtfcHl0aG9uJywgJy1waCcsICc3LjAnLCAnLXRuJywgJzgnLCAnLW1hJywgJzIwMCcsICctbWV0YWxfYmluZGluZycsICctaW1hZScsICc8aW5maWxlLm1hZT4nLCAnLW9tYWUnLCAnPG91dGZpbGUubWFlPic=

> <r_epik_Ionization_Penalty>
0.137914

> <r_epik_Ionization_Penalty_Charging>
0

> <r_epik_Ionization_Penalty_Neutral>
0.137914

> <r_epik_State_Penalty>
0.107668

> <r_epik_Charging_Adjusted_Penalty>
0.107668

> <i_epik_Tot_Q>
0

> <i_epik_Tot_abs_Q>
0

> <r_epik_Metal_State_Penalty>
0.000111872

> <b_epik_Metal_Only>
0

> <s_lp_Force_Field>
OPLS_2005

> <r_lp_Energy>
11.7706

> <b_lp_Chiralities_Consistent>
1

> <s_lp_Variant>
AV-unprocessed.smi:2787-2

> <Gold.Version>
5.8.1

> <Gold.Id.Protein>
6NUR|6NUR_protein|mol2

> <Gold.PLP.Fitness>
49.0523

> <Gold.PLP.PLP>
-44.8247

> <Gold.PLP.part.hbond>
-1.9499

> <Gold.PLP.part.metal>
0.0000

> <Gold.PLP.part.buried>
-3.8733

> <Gold.PLP.part.nonpolar>
-38.7527

> <Gold.PLP.part.repulsive>
0.0000

> <Gold.PLP.ligand.clash>
0.0000

> <Gold.PLP.ligand.torsion>
0.9301

> <Gold.PLP.Chemscore.Hbond>
1.9920

> <Gold.PLP.Chemscore.CHOScore>
0.0000

> <Gold.PLP.Chemscore.Metal>
0.0000

> <Gold.Chemscore.Hbonds>
donor molecule, donor type, donor heavy atom, donor atom, acceptor molecule, acceptor atom, score
      L1  H    16    35       P1  8028  1.00
      P1  H 10752 10763       L1     1  1.00

> <Gold.PLP.Chemscore.Internal.Correction>
0.1119

> <Gold.Rescore>
     Score         DG    S(hbond)    S(metal)    S(lipo)     H(rot)  DE(clash)    DE(int)     intcor
     13.64     -14.78       1.61        0.00     108.81       3.44       0.17       0.97       ----

> <Gold.Chemscore.Fitness>
13.6390

> <Gold.Chemscore.DG>
-14.7773

> <Gold.Chemscore.ZeroCoef>
-5.4800

> <Gold.Chemscore.Hbond>
1.6063

> <Gold.Chemscore.Metal>
0.0000

> <Gold.Chemscore.Lipo>
108.8073

> <Gold.Chemscore.Internal_Hbond>
0.0000

> <Gold.Chemscore.DEClash>
0.1696

> <Gold.Chemscore.DEInternal>
0.9687

> <Gold.Chemscore.Rot>
3.4369

> <Gold.Chemscore.Internal.Correction>
   9.000000E+99

> <Gold.Chemscore.Hbonds>
donor molecule, donor type, donor heavy atom, donor atom, acceptor molecule, acceptor atom, score
      L1  H    16    35       P1  8028  0.65
      P1  H 10752 10763       L1     1  0.24

> <Gold.Chemscore.Hbond.Weighted>
-5.3652

> <Gold.Chemscore.Metal.Weighted>
-0.0000

> <Gold.Chemscore.Lipo.Weighted>
-12.7305

> <Gold.Chemscore.Internal_Hbond.Weighted>
0.0000

> <Gold.Chemscore.DEClash.Weighted>
0.1696

> <Gold.Chemscore.DEInternal.Weighted>
0.9687

> <Gold.Chemscore.Rot.Weighted>
8.7984

> <Gold.Chemscore.Internal.Correction.Weighted>
   9.000000E+99

> <Gold.Protein.RotatedTorsions>
[ 6907 6896 6895 6894 ] final -122.18 input  -60.11 | X-H torsion
[ 7974 7965 7964 7962 ] final   60.62 input  175.53 | X-H torsion
[ 8008 7997 7996 7995 ] final -167.19 input   59.86 | X-H torsion
[ 10167 10162 10161 10158 ] final   31.24 input  -65.29 | X-H torsion
[ 10718 10713 10712 10709 ] final   91.44 input   66.30 | X-H torsion
[ 10763 10752 10751 10750 ] final   60.84 input  -60.55 | X-H torsion
[ 11005 11000 10999 10996 ] final  138.22 input  -57.11 | X-H torsion

> <Gold.Protein.ActiveResidues>
 VAL166  LYS551  ARG553  GLY616  TRP617  ASP618  TYR619  PRO620  LYS621  CYS622 
 ASP623  PHE694  ASN695  SER759  ASP760  ASP761  ALA762  ILE779  LEU786  VAL792 
 PHE793  MET794  SER795  GLU796  ALA797  LYS798  CYS799  TRP800  GLU811  SER814 

> <Gold.Protein.RotatedAtoms>
  150.8552  133.7726  159.3011 H   0  0  0  0  0  0  0  0  0  0  0  0  # atno 6907 bound_to 6896
  151.5385  135.1067  159.9930 H   0  0  0  0  0  0  0  0  0  0  0  0  # atno 6908 bound_to 6896
  152.4584  133.7727  159.6864 H   0  0  0  0  0  0  0  0  0  0  0  0  # atno 6909 bound_to 6896
  145.8939  139.3531  143.0632 H   0  0  0  0  0  0  0  0  0  0  0  0  # atno 7974 bound_to 7965
  155.8743  140.0998  157.1529 H   0  0  0  0  0  0  0  0  0  0  0  0  # atno 8008 bound_to 7997
  154.3999  140.1341  156.4180 H   0  0  0  0  0  0  0  0  0  0  0  0  # atno 8009 bound_to 7997
  155.7715  140.3461  155.5252 H   0  0  0  0  0  0  0  0  0  0  0  0  # atno 8010 bound_to 7997
  140.4607  144.0911  150.6212 H   0  0  0  0  0  0  0  0  0  0  0  0  # atno 10167 bound_to 10162
  157.6960  131.0407  150.3729 H   0  0  0  0  0  0  0  0  0  0  0  0  # atno 10718 bound_to 10713
  152.9933  135.5522  154.5938 H   0  0  0  0  0  0  0  0  0  0  0  0  # atno 10763 bound_to 10752
  154.5294  135.2812  155.1195 H   0  0  0  0  0  0  0  0  0  0  0  0  # atno 10764 bound_to 10752
  154.2517  135.6397  153.5295 H   0  0  0  0  0  0  0  0  0  0  0  0  # atno 10765 bound_to 10752
  140.0168  134.9414  157.0393 H   0  0  0  0  0  0  0  0  0  0  0  0  # atno 11005 bound_to 11000
  145.8874  140.9325  143.0570 LP  0  0  0  0  0  0  0  0  0  0  0  0  # atno 17320 bound_to 7965
  144.6732  140.0860  143.7467 LP  0  0  0  0  0  0  0  0  0  0  0  0  # atno 17321 bound_to 7965
  140.4097  143.2663  151.9847 LP  0  0  0  0  0  0  0  0  0  0  0  0  # atno 17342 bound_to 10162
  139.4806  144.5926  151.7746 LP  0  0  0  0  0  0  0  0  0  0  0  0  # atno 17343 bound_to 10162
  156.4152  130.3942  149.6863 LP  0  0  0  0  0  0  0  0  0  0  0  0  # atno 17370 bound_to 10713
  156.4134  130.7733  151.2747 LP  0  0  0  0  0  0  0  0  0  0  0  0  # atno 17371 bound_to 10713
  140.4456  134.1635  155.7177 LP  0  0  0  0  0  0  0  0  0  0  0  0  # atno 17394 bound_to 11000
  141.1748  133.8536  157.1456 LP  0  0  0  0  0  0  0  0  0  0  0  0  # atno 17395 bound_to 11000

$$$$
