AV-unprocessed.smi:3259|AV-procd|sdf|12473|dock8
  -GOLD-   2272018373D 1   1.00000     0.00000
 Structure written by MMmdl.
 39 40  0  0  0  0  0  0  0  0  1 V2000
  150.7622  135.4318  155.5577 C   0  0  0  0  0  0  0  0  0  0  0  0
  151.6811  136.4859  155.8177 O   0  0  0  0  0  0  0  0  0  0  0  0
  151.1754  137.8272  155.7697 C   0  0  2  0  0  0  0  0  0  0  0  0
  150.3052  138.0304  154.5229 C   0  0  0  0  0  0  0  0  0  0  0  0
  152.3020  138.8328  156.0760 C   0  0  0  0  0  0  0  0  0  0  0  0
  152.0345  138.5684  157.5564 C   0  0  1  0  0  0  0  0  0  0  0  0
  152.1469  139.7712  158.3720 N   0  0  0  0  0  0  0  0  0  0  0  0
  153.2669  140.1620  158.9986 C   0  0  0  0  0  0  0  0  0  0  0  0
  154.3484  139.5882  158.8745 O   0  0  0  0  0  0  0  0  0  0  0  0
  153.1442  141.3767  159.9205 C   0  0  0  0  0  0  0  0  0  0  0  0
  152.5876  142.5182  159.2137 N   0  0  0  0  0  0  0  0  0  0  0  0
  152.7783  143.8606  159.4690 C   0  0  0  0  0  0  0  0  0  0  0  0
  152.0753  144.5577  158.5287 C   0  0  0  0  0  0  0  0  0  0  0  0
  151.4771  143.5418  157.7321 C   0  0  0  0  0  0  0  0  0  0  0  0
  151.7846  142.3227  158.1447 N   0  0  0  0  0  0  0  0  0  0  0  0
  150.5823  138.1822  157.1726 C   0  0  0  0  0  0  0  0  0  0  0  0
  149.5349  139.3135  157.1959 C   0  0  0  0  0  0  0  0  0  0  0  0
  149.9646  137.0284  157.9700 C   0  0  0  0  0  0  0  0  0  0  0  0
  151.3127  134.4953  155.4690 H   0  0  0  0  0  0  0  0  0  0  0  0
  150.2103  135.5791  154.6299 H   0  0  0  0  0  0  0  0  0  0  0  0
  150.0502  135.3088  156.3737 H   0  0  0  0  0  0  0  0  0  0  0  0
  149.8300  139.0107  154.5155 H   0  0  0  0  0  0  0  0  0  0  0  0
  149.5134  137.2830  154.4661 H   0  0  0  0  0  0  0  0  0  0  0  0
  150.8885  137.9720  153.6043 H   0  0  0  0  0  0  0  0  0  0  0  0
  153.3010  138.5518  155.7450 H   0  0  0  0  0  0  0  0  0  0  0  0
  152.0584  139.8495  155.7622 H   0  0  0  0  0  0  0  0  0  0  0  0
  152.6184  137.7231  157.9282 H   0  0  0  0  0  0  0  0  0  0  0  0
  151.3030  140.3042  158.5233 H   0  0  0  0  0  0  0  0  0  0  0  0
  152.5102  141.1398  160.7764 H   0  0  0  0  0  0  0  0  0  0  0  0
  154.1271  141.6435  160.3106 H   0  0  0  0  0  0  0  0  0  0  0  0
  153.3962  144.2038  160.2857 H   0  0  0  0  0  0  0  0  0  0  0  0
  152.0005  145.6300  158.4251 H   0  0  0  0  0  0  0  0  0  0  0  0
  150.8331  143.6531  156.8722 H   0  0  0  0  0  0  0  0  0  0  0  0
  149.3008  139.6266  158.2141 H   0  0  0  0  0  0  0  0  0  0  0  0
  148.5980  138.9991  156.7350 H   0  0  0  0  0  0  0  0  0  0  0  0
  149.8738  140.2013  156.6619 H   0  0  0  0  0  0  0  0  0  0  0  0
  149.6390  137.3531  158.9588 H   0  0  0  0  0  0  0  0  0  0  0  0
  150.6737  136.2156  158.1275 H   0  0  0  0  0  0  0  0  0  0  0  0
  149.0982  136.6090  157.4577 H   0  0  0  0  0  0  0  0  0  0  0  0
  1  2  1  0  0  0  0
  1 19  1  0  0  0  0
  1 20  1  0  0  0  0
  1 21  1  0  0  0  0
  2  3  1  0  0  0  0
  3 16  1  0  0  0  0
  3  4  1  0  0  0  0
  3  5  1  0  0  0  0
  4 22  1  0  0  0  0
  4 23  1  0  0  0  0
  4 24  1  0  0  0  0
  5  6  1  0  0  0  0
  5 25  1  0  0  0  0
  5 26  1  0  0  0  0
  6  7  1  0  0  0  0
  6 16  1  0  0  0  0
  6 27  1  0  0  0  0
  7  8  1  0  0  0  0
  7 28  1  0  0  0  0
  8  9  2  0  0  0  0
  8 10  1  0  0  0  0
 10 11  1  0  0  0  0
 10 29  1  0  0  0  0
 10 30  1  0  0  0  0
 11 15  1  0  0  0  0
 11 12  1  0  0  0  0
 12 13  2  0  0  0  0
 12 31  1  0  0  0  0
 13 14  1  0  0  0  0
 13 32  1  0  0  0  0
 14 15  2  0  0  0  0
 14 33  1  0  0  0  0
 16 17  1  0  0  0  0
 16 18  1  0  0  0  0
 17 34  1  0  0  0  0
 17 35  1  0  0  0  0
 17 36  1  0  0  0  0
 18 37  1  0  0  0  0
 18 38  1  0  0  0  0
 18 39  1  0  0  0  0
M  END
> <s_m_source_file>
AV-unprocessed.smi

> <i_m_source_file_index>
3259

> <i_lp_mmshare_version>
43012

> <i_f3d_flags>
0

> <s_epik_input>
W0NIM11PW0NAQF0xKFtDSDNdKVtDSDJdW0NASF0oQzEoW0NIM10pW0NIM10pW05IXUMoPU8pW0NIMl1uMltjSF1bY0hdW2NIXW4y

> <s_epik_cmdline>
J2VwaWtfcHl0aG9uJywgJy1waCcsICc3LjAnLCAnLXRuJywgJzgnLCAnLW1hJywgJzIwMCcsICctbWV0YWxfYmluZGluZycsICctaW1hZScsICc8aW5maWxlLm1hZT4nLCAnLW9tYWUnLCAnPG91dGZpbGUubWFlPic=

> <r_lp_tautomer_probability>
1

> <r_epik_Ionization_Penalty>
1.78399e-05

> <r_epik_Ionization_Penalty_Charging>
0

> <r_epik_Ionization_Penalty_Neutral>
1.78399e-05

> <r_epik_State_Penalty>
-0

> <r_epik_Charging_Adjusted_Penalty>
0

> <i_epik_Tot_Q>
0

> <i_epik_Tot_abs_Q>
0

> <r_epik_Metal_State_Penalty>
-0

> <b_epik_Metal_Only>
0

> <s_lp_Force_Field>
OPLS_2005

> <r_lp_Energy>
22.327

> <b_lp_Chiralities_Consistent>
1

> <s_lp_Variant>
AV-unprocessed.smi:3259-2

> <Gold.Version>
5.8.1

> <Gold.Id.Protein>
6NUR|6NUR_protein|mol2

> <Gold.PLP.Fitness>
39.3758

> <Gold.PLP.PLP>
-32.4140

> <Gold.PLP.part.hbond>
-2.0000

> <Gold.PLP.part.metal>
0.0000

> <Gold.PLP.part.buried>
-4.5461

> <Gold.PLP.part.nonpolar>
-27.1246

> <Gold.PLP.part.repulsive>
0.1602

> <Gold.PLP.ligand.clash>
0.0000

> <Gold.PLP.ligand.torsion>
0.8366

> <Gold.PLP.Chemscore.Hbond>
1.7500

> <Gold.PLP.Chemscore.CHOScore>
1.0000

> <Gold.PLP.Chemscore.Metal>
0.0000

> <Gold.Chemscore.Hbonds>
donor molecule, donor type, donor heavy atom, donor atom, acceptor molecule, acceptor atom, score
      P1  H  7997  8008       L1     9  1.00
      P1  H 10752 10763       L1     2  0.65
      L1  C    14    33       P1  8028  1.00

> <Gold.PLP.Chemscore.Internal.Correction>
0.3850

> <Gold.Rescore>
     Score         DG    S(hbond)    S(metal)    S(lipo)     H(rot)  DE(clash)    DE(int)     intcor
     12.15     -14.68       1.03        0.00      84.04       1.60       0.06       2.47       ----

> <Gold.Chemscore.Fitness>
12.1499

> <Gold.Chemscore.DG>
-14.6791

> <Gold.Chemscore.ZeroCoef>
-5.4800

> <Gold.Chemscore.Hbond>
1.0337

> <Gold.Chemscore.Metal>
0.0000

> <Gold.Chemscore.Lipo>
84.0399

> <Gold.Chemscore.Internal_Hbond>
0.0000

> <Gold.Chemscore.DEClash>
0.0567

> <Gold.Chemscore.DEInternal>
2.4725

> <Gold.Chemscore.Rot>
1.5962

> <Gold.Chemscore.Internal.Correction>
   9.000000E+99

> <Gold.Chemscore.Hbonds>
donor molecule, donor type, donor heavy atom, donor atom, acceptor molecule, acceptor atom, score
      P1  H  7997  8008       L1     9  0.65
      P1  H 10752 10763       L1     2  0.05

> <Gold.Chemscore.Hbond.Weighted>
-3.4527

> <Gold.Chemscore.Metal.Weighted>
-0.0000

> <Gold.Chemscore.Lipo.Weighted>
-9.8327

> <Gold.Chemscore.Internal_Hbond.Weighted>
0.0000

> <Gold.Chemscore.DEClash.Weighted>
0.0567

> <Gold.Chemscore.DEInternal.Weighted>
2.4725

> <Gold.Chemscore.Rot.Weighted>
4.0862

> <Gold.Chemscore.Internal.Correction.Weighted>
   9.000000E+99

> <Gold.Protein.RotatedTorsions>
[ 6907 6896 6895 6894 ] final  171.89 input  -60.11 | X-H torsion
[ 7974 7965 7964 7962 ] final  140.43 input  175.53 | X-H torsion
[ 8008 7997 7996 7995 ] final -114.25 input   59.86 | X-H torsion
[ 10167 10162 10161 10158 ] final   66.09 input  -65.29 | X-H torsion
[ 10718 10713 10712 10709 ] final -120.66 input   66.30 | X-H torsion
[ 10763 10752 10751 10750 ] final   97.06 input  -60.55 | X-H torsion
[ 11005 11000 10999 10996 ] final  -19.40 input  -57.11 | X-H torsion

> <Gold.Protein.ActiveResidues>
 VAL166  LYS551  ARG553  GLY616  TRP617  ASP618  TYR619  PRO620  LYS621  CYS622 
 ASP623  PHE694  ASN695  SER759  ASP760  ASP761  ALA762  ILE779  LEU786  VAL792 
 PHE793  MET794  SER795  GLU796  ALA797  LYS798  CYS799  TRP800  GLU811  SER814 

> <Gold.Protein.RotatedAtoms>
  151.7930  133.3361  159.3504 H   0  0  0  0  0  0  0  0  0  0  0  0  # atno 6907 bound_to 6896
  150.7385  134.5825  159.5955 H   0  0  0  0  0  0  0  0  0  0  0  0  # atno 6908 bound_to 6896
  152.3197  134.7397  160.0368 H   0  0  0  0  0  0  0  0  0  0  0  0  # atno 6909 bound_to 6896
  144.9187  139.5196  143.5674 H   0  0  0  0  0  0  0  0  0  0  0  0  # atno 7974 bound_to 7965
  155.0333  140.0393  157.2482 H   0  0  0  0  0  0  0  0  0  0  0  0  # atno 8008 bound_to 7997
  154.7278  140.2724  155.6460 H   0  0  0  0  0  0  0  0  0  0  0  0  # atno 8009 bound_to 7997
  156.2833  140.2690  156.1969 H   0  0  0  0  0  0  0  0  0  0  0  0  # atno 8010 bound_to 7997
  140.1042  144.4876  150.7018 H   0  0  0  0  0  0  0  0  0  0  0  0  # atno 10167 bound_to 10162
  156.1276  130.6371  150.9568 H   0  0  0  0  0  0  0  0  0  0  0  0  # atno 10718 bound_to 10713
  153.2724  135.4196  155.1000 H   0  0  0  0  0  0  0  0  0  0  0  0  # atno 10763 bound_to 10752
  154.8460  135.3475  154.6226 H   0  0  0  0  0  0  0  0  0  0  0  0  # atno 10764 bound_to 10752
  153.6646  135.7046  153.5224 H   0  0  0  0  0  0  0  0  0  0  0  0  # atno 10765 bound_to 10752
  140.8363  133.7959  155.9812 H   0  0  0  0  0  0  0  0  0  0  0  0  # atno 11005 bound_to 11000
  146.3194  139.8050  142.8957 LP  0  0  0  0  0  0  0  0  0  0  0  0  # atno 17320 bound_to 7965
  145.3332  141.0271  143.3434 LP  0  0  0  0  0  0  0  0  0  0  0  0  # atno 17321 bound_to 7965
  140.6961  143.2405  151.4997 LP  0  0  0  0  0  0  0  0  0  0  0  0  # atno 17342 bound_to 10162
  139.5654  144.2054  152.1757 LP  0  0  0  0  0  0  0  0  0  0  0  0  # atno 17343 bound_to 10162
  157.6456  131.0904  150.8160 LP  0  0  0  0  0  0  0  0  0  0  0  0  # atno 17370 bound_to 10713
  156.8248  130.4996  149.5338 LP  0  0  0  0  0  0  0  0  0  0  0  0  # atno 17371 bound_to 10713
  140.8944  134.2456  157.5077 LP  0  0  0  0  0  0  0  0  0  0  0  0  # atno 17394 bound_to 11000
  139.8704  134.9677  156.4604 LP  0  0  0  0  0  0  0  0  0  0  0  0  # atno 17395 bound_to 11000

$$$$
