#       Name:                AV-unprocessed.smi:670
#       Creating user name   scv26
#       Creation time:       Fri Mar 27 00:21:48 2020


#       File generated by GOLD software.
#

@<TRIPOS>MOLECULE
AV-unprocessed.smi:670
    53    54     1
SMALL
NO_CHARGES


@<TRIPOS>ATOM
      1 ****        -2.5983   0.2081   3.5782 C.3            1 S1                 0.0000
      2 ****        -3.0018   0.6635   2.1662 C.3            1 S1                 0.0000
      3 ****        -4.5055   1.0011   2.1132 C.3            1 S1                 0.0000
      4 ****        -4.9386   1.4564   0.7116 C.3            1 S1                 0.0000
      5 ****        -4.5859   0.3996  -0.3442 C.3            1 S1                 0.0000
      6 ****        -3.0882   0.0626  -0.3072 C.3            1 S1                 0.0000
      7 ****        -2.6409  -0.3939   1.0981 C.3            1 S1                 0.0000
      8 ****        -1.2289  -0.5624   1.1110 O.3            1 S1                 0.0000
      9 ****        -0.7804  -1.8247   0.6390 C.3            1 S1                 0.0000
     10 ****         0.7516  -1.8418   0.6511 C.3            1 S1                 0.0000
     11 ****         1.2790  -0.8822  -0.3086 N.am           1 S1                 0.0000
     12 ****         2.5820  -0.6875  -0.5542 C.2            1 S1                 0.0000
     13 ****         3.4737  -1.3157   0.0191 O.2            1 S1                 0.0000
     14 ****         2.9061   0.3917  -1.5998 C.3            1 S1                 0.0000
     15 ****         4.3101   0.4094  -2.0365 N.am           1 S1                 0.0000
     16 ****         5.0873   1.5121  -1.4776 N.pl3          1 S1                -1.0000
     17 ****         6.4011   1.6302  -1.8062 C.2            1 S1                 0.0000
     18 ****         7.1198   2.5257  -1.3678 O.2            1 S1                 0.0000
     19 ****         6.9685   0.6521  -2.7196 C.2            1 S1                 0.0000
     20 ****         6.2224  -0.3442  -3.2362 C.2            1 S1                 0.0000
     21 ****         4.8102  -0.5081  -2.9132 C.2            1 S1                 0.0000
     22 ****         4.1188  -1.4070  -3.3929 O.2            1 S1                 0.0000
     23 ****        -3.1182  -0.7072   3.8631 H              1 S1                 0.0000
     24 ****        -2.8377   0.9712   4.3191 H              1 S1                 0.0000
     25 ****        -1.5270   0.0164   3.6434 H              1 S1                 0.0000
     26 ****        -2.4464   1.5754   1.9411 H              1 S1                 0.0000
     27 ****        -5.0896   0.1274   2.4059 H              1 S1                 0.0000
     28 ****        -4.7381   1.7831   2.8369 H              1 S1                 0.0000
     29 ****        -6.0113   1.6514   0.6987 H              1 S1                 0.0000
     30 ****        -4.4491   2.3994   0.4653 H              1 S1                 0.0000
     31 ****        -5.1696  -0.5050  -0.1681 H              1 S1                 0.0000
     32 ****        -4.8621   0.7588  -1.3359 H              1 S1                 0.0000
     33 ****        -2.8763  -0.7081  -1.0479 H              1 S1                 0.0000
     34 ****        -2.5132   0.9404  -0.6048 H              1 S1                 0.0000
     35 ****        -3.1374  -1.3314   1.3570 H              1 S1                 0.0000
     36 ****        -1.1613  -2.6125   1.2903 H              1 S1                 0.0000
     37 ****        -1.1484  -2.0272  -0.3671 H              1 S1                 0.0000
     38 ****         1.1243  -1.6106   1.6500 H              1 S1                 0.0000
     39 ****         1.1104  -2.8397   0.3946 H              1 S1                 0.0000
     40 ****         0.6086  -0.3186  -0.8110 H              1 S1                 0.0000
     41 ****         2.2597   0.2514  -2.4678 H              1 S1                 0.0000
     42 ****         2.6256   1.3599  -1.1811 H              1 S1                 0.0000
     43 ****         8.0110   0.7277  -2.9917 H              1 S1                 0.0000
     44 ****         6.6850  -1.0473  -3.9127 H              1 S1                 0.0000
     45 ****        -0.9098  -0.4498   2.0520 LP             1 S1                 0.0000
     46 ****        -0.8246   0.1478   0.5347 LP             1 S1                 0.0000
     47 ****         3.2384  -2.0070   0.7023 LP             1 S1                 0.0000
     48 ****         4.4326  -1.1342  -0.1989 LP             1 S1                 0.0000
     49 ****         4.6584   2.1721  -0.8608 LP             1 S1                 0.0000
     50 ****         6.7428   3.2076  -0.7410 LP             1 S1                 0.0000
     51 ****         8.0815   2.5724  -1.6379 LP             1 S1                 0.0000
     52 ****         3.1536  -1.4832  -3.1425 LP             1 S1                 0.0000
     53 ****         4.5224  -2.0609  -4.0329 LP             1 S1                 0.0000
@<TRIPOS>BOND
    1    1    2 1     
    2    1   23 1     
    3    1   24 1     
    4    1   25 1     
    5    2    7 1     
    6    2    3 1     
    7    2   26 1     
    8    3    4 1     
    9    3   27 1     
   10    3   28 1     
   11    4    5 1     
   12    4   29 1     
   13    4   30 1     
   14    5    6 1     
   15    5   31 1     
   16    5   32 1     
   17    6    7 1     
   18    6   33 1     
   19    6   34 1     
   20    7    8 1     
   21    7   35 1     
   22    8    9 1     
   23    9   10 1     
   24    9   36 1     
   25    9   37 1     
   26   10   11 1     
   27   10   38 1     
   28   10   39 1     
   29   11   12 am    
   30   11   40 1     
   31   12   13 2     
   32   12   14 1     
   33   14   41 1     
   34   14   42 1     
   35   14   15 1     
   36   15   16 1     
   37   15   21 am    
   38   16   17 1     
   39   17   18 2     
   40   17   19 1     
   41   19   43 1     
   42   19   20 2     
   43   20   44 1     
   44   20   21 1     
   45   21   22 2     
   46    8   45 1     
   47    8   46 1     
   48   13   47 1     
   49   13   48 1     
   50   16   49 1     
   51   18   50 1     
   52   18   51 1     
   53   22   52 1     
   54   22   53 1     
@<TRIPOS>SUBSTRUCTURE
      1 S1             1
@<TRIPOS>SET
LONE_PAIRS      STATIC     ATOMS    <user>   **** ""
9 45 46 47 48 49 50 51 52 53
DONOR_HYDROGENS      STATIC     ATOMS    <user>   **** ""
1 40
ATOM$BLUE        STATIC     ATOMS    COLORGROUP SYSTEM
9 45 46 47 48 49 50 51 52 53
ATOM$RED        STATIC     ATOMS    COLORGROUP SYSTEM
1 40
