AV-unprocessed.smi:536|AV-procd|sdf|2862|dock4
  -GOLD-   2262023353D 1   1.00000     0.00000
 Structure written by MMmdl.
 46 48  0  0  0  0  0  0  0  0  1 V2000
  152.0392  139.5201  155.4667 C   0  0  0  0  0  0  0  0  0  0  0  0
  152.2702  139.7261  156.8486 O   0  0  0  0  0  0  0  0  0  0  0  0
  151.1124  140.1682  157.5367 C   0  0  0  0  0  0  0  0  0  0  0  0
  151.1851  139.7682  159.0191 C   0  0  0  0  0  0  0  0  0  0  0  0
  152.5184  139.9703  159.5762 N   0  0  0  0  0  0  0  0  0  0  0  0
  153.1371  141.1477  159.8489 C   0  0  0  0  0  0  0  0  0  0  0  0
  152.4884  142.3649  159.6606 N   0  0  0  0  0  0  0  0  0  0  0  0
  152.1804  142.8653  158.3237 C   0  0  0  0  0  0  0  0  0  0  0  0
  152.4831  144.3590  158.1013 C   0  0  0  0  0  0  0  0  0  0  0  0
  151.4299  145.2820  158.7328 C   0  0  0  0  0  0  0  0  0  0  0  0
  151.6312  145.5668  160.2308 C   0  0  0  0  0  0  0  0  0  0  0  0
  152.2438  144.4217  161.0541 C   0  0  0  0  0  0  0  0  0  0  0  0
  151.7145  143.0185  160.7127 C   0  0  0  0  0  0  0  0  0  0  0  0
  154.3783  141.0351  160.3284 N   0  0  0  0  0  0  0  0  0  0  0  0
  154.5609  139.6610  160.3801 C   0  0  0  0  0  0  0  0  0  0  0  0
  153.4552  139.0045  159.9459 C   0  0  0  0  0  0  0  0  0  0  0  0
  153.3729  137.5385  159.9135 C   0  0  0  0  0  0  0  0  0  0  0  0
  152.3771  136.9215  159.5421 O   0  0  0  0  0  0  0  0  0  0  0  0
  154.5078  136.9345  160.3424 N   0  0  0  0  0  0  0  0  0  0  0  0
  155.6548  137.5346  160.7861 C   0  0  0  0  0  0  0  0  0  0  0  0
  156.6057  136.8406  161.1450 O   0  0  0  0  0  0  0  0  0  0  0  0
  155.6872  138.9070  160.8114 N   0  0  0  0  0  0  0  0  0  0  0  0
  156.8619  139.6469  161.2766 C   0  0  0  0  0  0  0  0  0  0  0  0
  154.5053  135.9249  160.3380 H   0  0  0  0  0  0  0  0  0  0  0  0
  152.9571  139.1758  154.9905 H   0  0  0  0  0  0  0  0  0  0  0  0
  151.7315  140.4444  154.9761 H   0  0  0  0  0  0  0  0  0  0  0  0
  151.2708  138.7634  155.3034 H   0  0  0  0  0  0  0  0  0  0  0  0
  151.0316  141.2513  157.4447 H   0  0  0  0  0  0  0  0  0  0  0  0
  150.2207  139.7339  157.0822 H   0  0  0  0  0  0  0  0  0  0  0  0
  150.4651  140.3488  159.5946 H   0  0  0  0  0  0  0  0  0  0  0  0
  150.8927  138.7273  159.1509 H   0  0  0  0  0  0  0  0  0  0  0  0
  152.7710  142.2878  157.6111 H   0  0  0  0  0  0  0  0  0  0  0  0
  151.1377  142.6477  158.0893 H   0  0  0  0  0  0  0  0  0  0  0  0
  153.4899  144.6182  158.4310 H   0  0  0  0  0  0  0  0  0  0  0  0
  152.4710  144.5346  157.0251 H   0  0  0  0  0  0  0  0  0  0  0  0
  151.4203  146.2348  158.2022 H   0  0  0  0  0  0  0  0  0  0  0  0
  150.4397  144.8531  158.5740 H   0  0  0  0  0  0  0  0  0  0  0  0
  152.2699  146.4434  160.3445 H   0  0  0  0  0  0  0  0  0  0  0  0
  150.6687  145.8479  160.6599 H   0  0  0  0  0  0  0  0  0  0  0  0
  153.3285  144.4436  160.9522 H   0  0  0  0  0  0  0  0  0  0  0  0
  152.0488  144.6249  162.1076 H   0  0  0  0  0  0  0  0  0  0  0  0
  150.6570  143.0519  160.4485 H   0  0  0  0  0  0  0  0  0  0  0  0
  151.7812  142.3955  161.6057 H   0  0  0  0  0  0  0  0  0  0  0  0
  157.6958  139.0129  161.5794 H   0  0  0  0  0  0  0  0  0  0  0  0
  156.5948  140.2672  162.1328 H   0  0  0  0  0  0  0  0  0  0  0  0
  157.2243  140.3049  160.4861 H   0  0  0  0  0  0  0  0  0  0  0  0
  1  2  1  0  0  0  0
  1 25  1  0  0  0  0
  1 26  1  0  0  0  0
  1 27  1  0  0  0  0
  2  3  1  0  0  0  0
  3  4  1  0  0  0  0
  3 28  1  0  0  0  0
  3 29  1  0  0  0  0
  4  5  1  0  0  0  0
  4 30  1  0  0  0  0
  4 31  1  0  0  0  0
  5 16  1  0  0  0  0
  5  6  1  0  0  0  0
  6  7  1  0  0  0  0
  6 14  2  0  0  0  0
  7 13  1  0  0  0  0
  7  8  1  0  0  0  0
  8  9  1  0  0  0  0
  8 32  1  0  0  0  0
  8 33  1  0  0  0  0
  9 10  1  0  0  0  0
  9 34  1  0  0  0  0
  9 35  1  0  0  0  0
 10 11  1  0  0  0  0
 10 36  1  0  0  0  0
 10 37  1  0  0  0  0
 11 12  1  0  0  0  0
 11 38  1  0  0  0  0
 11 39  1  0  0  0  0
 12 13  1  0  0  0  0
 12 40  1  0  0  0  0
 12 41  1  0  0  0  0
 13 42  1  0  0  0  0
 13 43  1  0  0  0  0
 14 15  1  0  0  0  0
 15 22  1  0  0  0  0
 15 16  2  0  0  0  0
 16 17  1  0  0  0  0
 17 18  2  0  0  0  0
 17 19  1  0  0  0  0
 19 24  1  0  0  0  0
 19 20  1  0  0  0  0
 20 21  2  0  0  0  0
 20 22  1  0  0  0  0
 22 23  1  0  0  0  0
 23 44  1  0  0  0  0
 23 45  1  0  0  0  0
 23 46  1  0  0  0  0
M  END
> <s_m_source_file>
AV-unprocessed.smi

> <i_m_source_file_index>
536

> <i_lp_mmshare_version>
43012

> <i_f3d_flags>
0

> <s_epik_input>
W0NIM11uMWMoPU8pW25IXWMoPU8pYyhjMTIpbihbQ0gyXVtDSDJdT1tDSDNdKWMobjIpTjNbQ0gyXVtDSDJdW0NIMl1bQ0gyXVtDSDJdW0NIMl0z

> <s_epik_cmdline>
J2VwaWtfcHl0aG9uJywgJy1waCcsICc3LjAnLCAnLXRuJywgJzgnLCAnLW1hJywgJzIwMCcsICctbWV0YWxfYmluZGluZycsICctaW1hZScsICc8aW5maWxlLm1hZT4nLCAnLW9tYWUnLCAnPG91dGZpbGUubWFlPic=

> <r_lp_tautomer_probability>
1

> <r_epik_Ionization_Penalty>
0.000219348

> <r_epik_Ionization_Penalty_Charging>
2.05342e-05

> <r_epik_Ionization_Penalty_Neutral>
0.000198814

> <r_epik_State_Penalty>
-0

> <r_epik_Charging_Adjusted_Penalty>
2.05342e-05

> <i_epik_Tot_Q>
0

> <i_epik_Tot_abs_Q>
0

> <r_epik_Metal_State_Penalty>
0.0195159

> <b_epik_Metal_Only>
0

> <s_lp_Force_Field>
OPLS_2005

> <r_lp_Energy>
45.5568

> <b_lp_Chiralities_Consistent>
1

> <s_lp_Variant>
AV-unprocessed.smi:536-1

> <Gold.Version>
5.8.1

> <Gold.Id.Protein>
6NUR|6NUR_protein|mol2

> <Gold.PLP.Fitness>
45.9632

> <Gold.PLP.PLP>
-42.9439

> <Gold.PLP.part.hbond>
-1.8864

> <Gold.PLP.part.metal>
0.0000

> <Gold.PLP.part.buried>
-5.7551

> <Gold.PLP.part.nonpolar>
-36.9267

> <Gold.PLP.part.repulsive>
0.0272

> <Gold.PLP.ligand.clash>
0.0000

> <Gold.PLP.ligand.torsion>
1.7434

> <Gold.PLP.Chemscore.Hbond>
1.8288

> <Gold.PLP.Chemscore.CHOScore>
0.0000

> <Gold.PLP.Chemscore.Metal>
0.0000

> <Gold.Chemscore.Hbonds>
donor molecule, donor type, donor heavy atom, donor atom, acceptor molecule, acceptor atom, score
      P1  H  6896  6909       L1    18  1.00
      P1  H  7997  8009       L1     2  0.55

> <Gold.PLP.Chemscore.Internal.Correction>
1.0198

> <Gold.Rescore>
     Score         DG    S(hbond)    S(metal)    S(lipo)     H(rot)  DE(clash)    DE(int)     intcor
     16.23     -18.20       1.47        0.00      98.48       1.46       0.03       1.94       ----

> <Gold.Chemscore.Fitness>
16.2290

> <Gold.Chemscore.DG>
-18.1976

> <Gold.Chemscore.ZeroCoef>
-5.4800

> <Gold.Chemscore.Hbond>
1.4736

> <Gold.Chemscore.Metal>
0.0000

> <Gold.Chemscore.Lipo>
98.4839

> <Gold.Chemscore.Internal_Hbond>
0.0000

> <Gold.Chemscore.DEClash>
0.0282

> <Gold.Chemscore.DEInternal>
1.9403

> <Gold.Chemscore.Rot>
1.4557

> <Gold.Chemscore.Internal.Correction>
   9.000000E+99

> <Gold.Chemscore.Hbonds>
donor molecule, donor type, donor heavy atom, donor atom, acceptor molecule, acceptor atom, score
      P1  H  6896  6909       L1    18  0.96
      P1  H  7997  8009       L1     2  0.13

> <Gold.Chemscore.Hbond.Weighted>
-4.9217

> <Gold.Chemscore.Metal.Weighted>
-0.0000

> <Gold.Chemscore.Lipo.Weighted>
-11.5226

> <Gold.Chemscore.Internal_Hbond.Weighted>
0.0000

> <Gold.Chemscore.DEClash.Weighted>
0.0282

> <Gold.Chemscore.DEInternal.Weighted>
1.9403

> <Gold.Chemscore.Rot.Weighted>
3.7267

> <Gold.Chemscore.Internal.Correction.Weighted>
   9.000000E+99

> <Gold.Protein.RotatedTorsions>
[ 6907 6896 6895 6894 ] final  146.24 input  -60.11 | X-H torsion
[ 7974 7965 7964 7962 ] final  -29.55 input  175.53 | X-H torsion
[ 8008 7997 7996 7995 ] final  166.91 input   59.86 | X-H torsion
[ 10167 10162 10161 10158 ] final   -8.78 input  -65.29 | X-H torsion
[ 10718 10713 10712 10709 ] final    7.11 input   66.30 | X-H torsion
[ 10763 10752 10751 10750 ] final   65.87 input  -60.55 | X-H torsion
[ 11005 11000 10999 10996 ] final -152.14 input  -57.11 | X-H torsion

> <Gold.Protein.ActiveResidues>
 VAL166  LYS551  ARG553  GLY616  TRP617  ASP618  TYR619  PRO620  LYS621  CYS622 
 ASP623  PHE694  ASN695  SER759  ASP760  ASP761  ALA762  ILE779  LEU786  VAL792 
 PHE793  MET794  SER795  GLU796  ALA797  LYS798  CYS799  TRP800  GLU811  SER814 

> <Gold.Protein.RotatedAtoms>
  152.1705  133.4640  159.4906 H   0  0  0  0  0  0  0  0  0  0  0  0  # atno 6907 bound_to 6896
  150.6919  134.1959  159.4312 H   0  0  0  0  0  0  0  0  0  0  0  0  # atno 6908 bound_to 6896
  151.9866  135.0000  160.0610 H   0  0  0  0  0  0  0  0  0  0  0  0  # atno 6909 bound_to 6896
  146.1208  140.5427  142.8736 H   0  0  0  0  0  0  0  0  0  0  0  0  # atno 7974 bound_to 7965
  156.1679  140.1631  156.8500 H   0  0  0  0  0  0  0  0  0  0  0  0  # atno 8008 bound_to 7997
  154.5226  140.0775  156.8234 H   0  0  0  0  0  0  0  0  0  0  0  0  # atno 8009 bound_to 7997
  155.3574  140.3393  155.4242 H   0  0  0  0  0  0  0  0  0  0  0  0  # atno 8010 bound_to 7997
  140.7069  143.5931  150.8874 H   0  0  0  0  0  0  0  0  0  0  0  0  # atno 10167 bound_to 10162
  156.9322  130.5830  149.5650 H   0  0  0  0  0  0  0  0  0  0  0  0  # atno 10718 bound_to 10713
  153.0115  135.5341  154.6735 H   0  0  0  0  0  0  0  0  0  0  0  0  # atno 10763 bound_to 10752
  154.5914  135.2859  155.0634 H   0  0  0  0  0  0  0  0  0  0  0  0  # atno 10764 bound_to 10752
  154.1726  135.6529  153.5066 H   0  0  0  0  0  0  0  0  0  0  0  0  # atno 10765 bound_to 10752
  140.7221  134.3716  157.5181 H   0  0  0  0  0  0  0  0  0  0  0  0  # atno 11005 bound_to 11000
  144.7595  140.5389  143.6745 LP  0  0  0  0  0  0  0  0  0  0  0  0  # atno 17320 bound_to 7965
  145.5470  139.1476  143.3415 LP  0  0  0  0  0  0  0  0  0  0  0  0  # atno 17321 bound_to 7965
  139.9656  143.6114  152.2989 LP  0  0  0  0  0  0  0  0  0  0  0  0  # atno 17342 bound_to 10162
  139.6683  144.7661  151.1832 LP  0  0  0  0  0  0  0  0  0  0  0  0  # atno 17343 bound_to 10162
  156.0442  130.5521  150.8842 LP  0  0  0  0  0  0  0  0  0  0  0  0  # atno 17370 bound_to 10713
  157.5840  131.0946  150.9226 LP  0  0  0  0  0  0  0  0  0  0  0  0  # atno 17371 bound_to 10713
  139.8846  134.8961  156.2695 LP  0  0  0  0  0  0  0  0  0  0  0  0  # atno 17394 bound_to 11000
  140.9995  133.7160  156.0937 LP  0  0  0  0  0  0  0  0  0  0  0  0  # atno 17395 bound_to 11000

$$$$
