#       Name:                AV-unprocessed.smi:910
#       Creating user name   scv26
#       Creation time:       Fri Mar 27 02:03:26 2020


#       File generated by GOLD software.
#

@<TRIPOS>MOLECULE
AV-unprocessed.smi:910
    53    54     1
SMALL
NO_CHARGES


@<TRIPOS>ATOM
      1 ****        -5.5163   0.8420   1.4874 C.3            1 S1                 0.0000
      2 ****        -4.0333   0.6584   1.5679 C.2            1 S1                 0.0000
      3 ****        -3.3222  -0.4961   1.7971 N.pl3          1 S1                 1.0000
      4 ****        -2.0197  -0.2240   1.7945 C.2            1 S1                 0.0000
      5 ****        -1.0056  -1.1908   1.9797 N.am           1 S1                 0.0000
      6 ****         0.3116  -0.9391   1.9826 C.2            1 S1                 0.0000
      7 ****         0.8050   0.1893   1.9871 O.2            1 S1                 0.0000
      8 ****         1.0341  -2.0693   1.9623 N.am           1 S1                 0.0000
      9 ****         2.4845  -2.1265   1.8049 C.3            1 S1                 0.0000
     10 ****         2.8821  -2.0807   0.3211 C.3            1 S1                 0.0000
     11 ****         2.5495  -0.8047  -0.2035 O.3            1 S1                 0.0000
     12 ****         2.6587  -0.6824  -1.6155 C.3            1 S1                 0.0000
     13 ****         3.4634   0.5986  -1.9026 C.3            1 S1                 0.0000
     14 ****         2.7084   1.8624  -1.4556 C.3            1 S1                 0.0000
     15 ****         1.3138   1.9344  -2.0947 C.3            1 S1                 0.0000
     16 ****         0.4999   0.6638  -1.8041 C.3            1 S1                 0.0000
     17 ****         1.2504  -0.6056  -2.2557 C.3            1 S1                 0.0000
     18 ****         0.4129  -1.8712  -2.0174 C.3            1 S1                 0.0000
     19 ****        -1.8080   1.0992   1.5623 O.3            1 S1                 0.0000
     20 ****        -3.0714   1.6351   1.4217 C.2            1 S1                 0.0000
     21 ****        -3.1564   3.0991   1.1517 C.3            1 S1                 0.0000
     22 ****        -5.8562   1.6112   2.1812 H              1 S1                 0.0000
     23 ****        -6.0448  -0.0794   1.7330 H              1 S1                 0.0000
     24 ****        -5.8216   1.1414   0.4846 H              1 S1                 0.0000
     25 ****        -3.7621  -1.3962   1.9407 H              1 S1                 0.0000
     26 ****         0.5461  -2.9530   1.9777 H              1 S1                 0.0000
     27 ****         2.9709  -1.3225   2.3600 H              1 S1                 0.0000
     28 ****         2.8318  -3.0609   2.2458 H              1 S1                 0.0000
     29 ****         3.9548  -2.2450   0.2116 H              1 S1                 0.0000
     30 ****         2.3742  -2.8762  -0.2255 H              1 S1                 0.0000
     31 ****         3.2069  -1.5280  -2.0360 H              1 S1                 0.0000
     32 ****         4.4319   0.5492  -1.4043 H              1 S1                 0.0000
     33 ****         3.6718   0.6633  -2.9713 H              1 S1                 0.0000
     34 ****         2.6123   1.8687  -0.3690 H              1 S1                 0.0000
     35 ****         3.2838   2.7506  -1.7180 H              1 S1                 0.0000
     36 ****         0.7803   2.8102  -1.7243 H              1 S1                 0.0000
     37 ****         1.4128   2.0659  -3.1728 H              1 S1                 0.0000
     38 ****         0.2808   0.6078  -0.7376 H              1 S1                 0.0000
     39 ****        -0.4635   0.7274  -2.3107 H              1 S1                 0.0000
     40 ****         1.3952  -0.5282  -3.3343 H              1 S1                 0.0000
     41 ****         0.1746  -2.0013  -0.9620 H              1 S1                 0.0000
     42 ****         0.9422  -2.7625  -2.3552 H              1 S1                 0.0000
     43 ****        -0.5301  -1.8228  -2.5627 H              1 S1                 0.0000
     44 ****        -4.1677   3.3885   0.8659 H              1 S1                 0.0000
     45 ****        -2.4843   3.3825   0.3415 H              1 S1                 0.0000
     46 ****        -2.8792   3.6705   2.0376 H              1 S1                 0.0000
     47 ****        -1.3020  -2.1540   2.0334 H              1 S1                 0.0000
     48 ****         0.2118   0.9944   1.9888 LP             1 S1                 0.0000
     49 ****         1.7988   0.3005   1.9890 LP             1 S1                 0.0000
     50 ****         3.1593  -0.1305   0.2133 LP             1 S1                 0.0000
     51 ****         1.6042  -0.6021   0.0522 LP             1 S1                 0.0000
     52 ****        -1.2742   1.2299   0.7268 LP             1 S1                 0.0000
     53 ****        -1.3297   1.5206   2.3328 LP             1 S1                 0.0000
@<TRIPOS>BOND
    1    1   22 1     
    2    1   23 1     
    3    1   24 1     
    4    1    2 1     
    5    2    3 1     
    6    2   20 2     
    7    3   25 1     
    8    3    4 2     
    9    4   19 1     
   10    4    5 1     
   11    5    6 am    
   12    5   47 1     
   13    6    8 am    
   14    6    7 2     
   15    8    9 1     
   16    8   26 1     
   17    9   10 1     
   18    9   27 1     
   19    9   28 1     
   20   10   11 1     
   21   10   29 1     
   22   10   30 1     
   23   11   12 1     
   24   12   17 1     
   25   12   13 1     
   26   12   31 1     
   27   13   14 1     
   28   13   32 1     
   29   13   33 1     
   30   14   15 1     
   31   14   34 1     
   32   14   35 1     
   33   15   16 1     
   34   15   36 1     
   35   15   37 1     
   36   16   17 1     
   37   16   38 1     
   38   16   39 1     
   39   17   18 1     
   40   17   40 1     
   41   18   41 1     
   42   18   42 1     
   43   18   43 1     
   44   19   20 1     
   45   20   21 1     
   46   21   44 1     
   47   21   45 1     
   48   21   46 1     
   49    7   48 1     
   50    7   49 1     
   51   11   50 1     
   52   11   51 1     
   53   19   52 1     
   54   19   53 1     
@<TRIPOS>SUBSTRUCTURE
      1 S1             1
@<TRIPOS>SET
LONE_PAIRS      STATIC     ATOMS    <user>   **** ""
6 48 49 50 51 52 53
DONOR_HYDROGENS      STATIC     ATOMS    <user>   **** ""
3 25 47 26
ATOM$BLUE        STATIC     ATOMS    COLORGROUP SYSTEM
6 48 49 50 51 52 53
ATOM$RED        STATIC     ATOMS    COLORGROUP SYSTEM
3 25 47 26
