AV-unprocessed.smi:3041|AV-procd|sdf|11597|dock3
  -GOLD-   2272016573D 1   1.00000     0.00000
 Structure written by MMmdl.
 38 39  0  0  0  0  0  0  0  0  1 V2000
  144.4023  132.0856  149.8426 C   0  0  0  0  0  0  0  0  0  0  0  0
  144.8938  133.2517  150.5448 N   0  0  0  0  0  0  0  0  0  0  0  0
  144.2113  134.3967  150.8963 C   0  0  0  0  0  0  0  0  0  0  0  0
  145.0923  135.2157  151.5448 C   0  0  0  0  0  0  0  0  0  0  0  0
  144.8556  136.5785  152.1334 C   0  0  0  0  0  0  0  0  0  0  0  0
  145.5267  136.7224  153.5090 C   0  0  0  0  0  0  0  0  0  0  0  0
  146.9113  137.1638  153.3877 N   0  0  0  0  0  0  0  0  0  0  0  0
  147.4430  138.2069  154.0402 C   0  0  0  0  0  0  0  0  0  0  0  0
  146.8190  138.9199  154.8264 O   0  0  0  0  0  0  0  0  0  0  0  0
  148.7368  138.3781  153.7360 N   0  0  0  0  0  0  0  0  0  0  0  0
  149.5943  139.4248  154.2822 C   0  0  0  0  0  0  0  0  0  0  0  0
  150.6578  138.8625  155.2451 C   0  0  2  0  0  0  0  0  0  0  0  0
  151.9856  139.5886  155.1857 C   0  0  0  0  0  0  0  0  0  0  0  0
  152.9251  138.5774  155.8349 C   0  0  0  0  0  0  0  0  0  0  0  0
  152.3997  137.2940  155.5083 O   0  0  0  0  0  0  0  0  0  0  0  0
  151.0938  137.4255  154.9538 C   0  0  0  0  0  0  0  0  0  0  0  0
  146.3046  134.4689  151.5375 C   0  0  0  0  0  0  0  0  0  0  0  0
  146.1832  133.2958  150.9379 N   0  0  0  0  0  0  0  0  0  0  0  0
  143.3227  132.1567  149.7083 H   0  0  0  0  0  0  0  0  0  0  0  0
  144.6289  131.1853  150.4150 H   0  0  0  0  0  0  0  0  0  0  0  0
  144.8783  132.0172  148.8640 H   0  0  0  0  0  0  0  0  0  0  0  0
  143.1661  134.5327  150.6603 H   0  0  0  0  0  0  0  0  0  0  0  0
  145.2337  137.3498  151.4613 H   0  0  0  0  0  0  0  0  0  0  0  0
  143.7864  136.7709  152.2315 H   0  0  0  0  0  0  0  0  0  0  0  0
  144.9893  137.4566  154.1099 H   0  0  0  0  0  0  0  0  0  0  0  0
  145.4817  135.7798  154.0574 H   0  0  0  0  0  0  0  0  0  0  0  0
  147.5051  136.6377  152.7631 H   0  0  0  0  0  0  0  0  0  0  0  0
  149.1600  137.7406  153.0774 H   0  0  0  0  0  0  0  0  0  0  0  0
  150.0760  139.9331  153.4466 H   0  0  0  0  0  0  0  0  0  0  0  0
  148.9858  140.1753  154.7893 H   0  0  0  0  0  0  0  0  0  0  0  0
  150.2874  138.9132  156.2705 H   0  0  0  0  0  0  0  0  0  0  0  0
  152.2815  139.7607  154.1496 H   0  0  0  0  0  0  0  0  0  0  0  0
  151.9742  140.5491  155.7016 H   0  0  0  0  0  0  0  0  0  0  0  0
  153.9545  138.6860  155.4929 H   0  0  0  0  0  0  0  0  0  0  0  0
  152.9148  138.6913  156.9197 H   0  0  0  0  0  0  0  0  0  0  0  0
  150.4083  136.6893  155.3741 H   0  0  0  0  0  0  0  0  0  0  0  0
  151.1587  137.2509  153.8790 H   0  0  0  0  0  0  0  0  0  0  0  0
  147.2643  134.7441  151.9494 H   0  0  0  0  0  0  0  0  0  0  0  0
  1  2  1  0  0  0  0
  1 19  1  0  0  0  0
  1 20  1  0  0  0  0
  1 21  1  0  0  0  0
  2 18  1  0  0  0  0
  2  3  1  0  0  0  0
  3  4  2  0  0  0  0
  3 22  1  0  0  0  0
  4  5  1  0  0  0  0
  4 17  1  0  0  0  0
  5  6  1  0  0  0  0
  5 23  1  0  0  0  0
  5 24  1  0  0  0  0
  6  7  1  0  0  0  0
  6 25  1  0  0  0  0
  6 26  1  0  0  0  0
  7  8  1  0  0  0  0
  7 27  1  0  0  0  0
  8  9  2  0  0  0  0
  8 10  1  0  0  0  0
 10 11  1  0  0  0  0
 10 28  1  0  0  0  0
 11 12  1  0  0  0  0
 11 29  1  0  0  0  0
 11 30  1  0  0  0  0
 12 16  1  0  0  0  0
 12 13  1  0  0  0  0
 12 31  1  0  0  0  0
 13 14  1  0  0  0  0
 13 32  1  0  0  0  0
 13 33  1  0  0  0  0
 14 15  1  0  0  0  0
 14 34  1  0  0  0  0
 14 35  1  0  0  0  0
 15 16  1  0  0  0  0
 16 36  1  0  0  0  0
 16 37  1  0  0  0  0
 17 18  2  0  0  0  0
 17 38  1  0  0  0  0
M  END
> <s_m_source_file>
AV-unprocessed.smi

> <i_m_source_file_index>
3041

> <i_lp_mmshare_version>
43012

> <i_f3d_flags>
0

> <s_epik_input>
W0NIM11uMVtjSF1jKFtjSF1uMSlbQ0gyXVtDSDJdW05IXUMoPU8pW05IXVtDSDJdW0NAQEhdMltDSDJdW0NIMl1PW0NIMl0y

> <s_epik_cmdline>
J2VwaWtfcHl0aG9uJywgJy1waCcsICc3LjAnLCAnLXRuJywgJzgnLCAnLW1hJywgJzIwMCcsICctbWV0YWxfYmluZGluZycsICctaW1hZScsICc8aW5maWxlLm1hZT4nLCAnLW9tYWUnLCAnPG91dGZpbGUubWFlPic=

> <r_lp_tautomer_probability>
1

> <r_epik_Ionization_Penalty>
0.000557811

> <r_epik_Ionization_Penalty_Charging>
0

> <r_epik_Ionization_Penalty_Neutral>
0.000557811

> <r_epik_State_Penalty>
-0

> <r_epik_Charging_Adjusted_Penalty>
0

> <i_epik_Tot_Q>
0

> <i_epik_Tot_abs_Q>
0

> <r_epik_Metal_State_Penalty>
-0

> <b_epik_Metal_Only>
0

> <s_lp_Force_Field>
OPLS_2005

> <r_lp_Energy>
13.0487

> <b_lp_Chiralities_Consistent>
1

> <s_lp_Variant>
AV-unprocessed.smi:3041-1

> <Gold.Version>
5.8.1

> <Gold.Id.Protein>
6NUR|6NUR_protein|mol2

> <Gold.PLP.Fitness>
42.8769

> <Gold.PLP.PLP>
-30.2506

> <Gold.PLP.part.hbond>
-3.2340

> <Gold.PLP.part.metal>
0.0000

> <Gold.PLP.part.buried>
-3.5064

> <Gold.PLP.part.nonpolar>
-25.1234

> <Gold.PLP.part.repulsive>
0.3138

> <Gold.PLP.ligand.clash>
0.0000

> <Gold.PLP.ligand.torsion>
0.9137

> <Gold.PLP.Chemscore.Hbond>
2.8000

> <Gold.PLP.Chemscore.CHOScore>
2.0000

> <Gold.PLP.Chemscore.Metal>
0.0000

> <Gold.Chemscore.Hbonds>
donor molecule, donor type, donor heavy atom, donor atom, acceptor molecule, acceptor atom, score
      L1  H     7    27       P1  7948  1.00
      L1  H    10    28       P1  7948  0.99
      P1  H 10752 10763       L1    15  0.72
      L1  C     3    22       P1 10186  1.00
      L1  C    17    38       P1  7948  1.00

> <Gold.PLP.Chemscore.Internal.Correction>
0.0537

> <Gold.Rescore>
     Score         DG    S(hbond)    S(metal)    S(lipo)     H(rot)  DE(clash)    DE(int)     intcor
     17.12     -18.16       2.79        0.00      69.28       1.85       0.13       0.90       ----

> <Gold.Chemscore.Fitness>
17.1242

> <Gold.Chemscore.DG>
-18.1596

> <Gold.Chemscore.ZeroCoef>
-5.4800

> <Gold.Chemscore.Hbond>
2.7895

> <Gold.Chemscore.Metal>
0.0000

> <Gold.Chemscore.Lipo>
69.2814

> <Gold.Chemscore.Internal_Hbond>
0.0000

> <Gold.Chemscore.DEClash>
0.1325

> <Gold.Chemscore.DEInternal>
0.9030

> <Gold.Chemscore.Rot>
1.8528

> <Gold.Chemscore.Internal.Correction>
   9.000000E+99

> <Gold.Chemscore.Hbonds>
donor molecule, donor type, donor heavy atom, donor atom, acceptor molecule, acceptor atom, score
      L1  H     7    27       P1  7948  0.99
      L1  H    10    28       P1  7948  0.93
      P1  H 10752 10763       L1    15  0.35

> <Gold.Chemscore.Hbond.Weighted>
-9.3170

> <Gold.Chemscore.Metal.Weighted>
-0.0000

> <Gold.Chemscore.Lipo.Weighted>
-8.1059

> <Gold.Chemscore.Internal_Hbond.Weighted>
0.0000

> <Gold.Chemscore.DEClash.Weighted>
0.1325

> <Gold.Chemscore.DEInternal.Weighted>
0.9030

> <Gold.Chemscore.Rot.Weighted>
4.7433

> <Gold.Chemscore.Internal.Correction.Weighted>
   9.000000E+99

> <Gold.Protein.RotatedTorsions>
[ 6907 6896 6895 6894 ] final  -78.86 input  -60.11 | X-H torsion
[ 7974 7965 7964 7962 ] final  -83.24 input  175.53 | X-H torsion
[ 8008 7997 7996 7995 ] final -165.49 input   59.86 | X-H torsion
[ 10167 10162 10161 10158 ] final  161.03 input  -65.29 | X-H torsion
[ 10718 10713 10712 10709 ] final -178.46 input   66.30 | X-H torsion
[ 10763 10752 10751 10750 ] final   75.92 input  -60.55 | X-H torsion
[ 11005 11000 10999 10996 ] final  135.94 input  -57.11 | X-H torsion

> <Gold.Protein.ActiveResidues>
 VAL166  LYS551  ARG553  GLY616  TRP617  ASP618  TYR619  PRO620  LYS621  CYS622 
 ASP623  PHE694  ASN695  SER759  ASP760  ASP761  ALA762  ILE779  LEU786  VAL792 
 PHE793  MET794  SER795  GLU796  ALA797  LYS798  CYS799  TRP800  GLU811  SER814 

> <Gold.Protein.RotatedAtoms>
  150.6963  134.4209  159.5204 H   0  0  0  0  0  0  0  0  0  0  0  0  # atno 6907 bound_to 6896
  152.1952  134.8634  160.0523 H   0  0  0  0  0  0  0  0  0  0  0  0  # atno 6908 bound_to 6896
  151.9575  133.3650  159.4060 H   0  0  0  0  0  0  0  0  0  0  0  0  # atno 6909 bound_to 6896
  145.5226  140.9530  143.1647 H   0  0  0  0  0  0  0  0  0  0  0  0  # atno 7974 bound_to 7965
  155.8505  140.0962  157.1678 H   0  0  0  0  0  0  0  0  0  0  0  0  # atno 8008 bound_to 7997
  154.3985  140.1384  156.3900 H   0  0  0  0  0  0  0  0  0  0  0  0  # atno 8009 bound_to 7997
  155.7966  140.3454  155.5381 H   0  0  0  0  0  0  0  0  0  0  0  0  # atno 8010 bound_to 7997
  139.4845  144.4576  151.8748 H   0  0  0  0  0  0  0  0  0  0  0  0  # atno 10167 bound_to 10162
  156.8446  130.9698  151.3097 H   0  0  0  0  0  0  0  0  0  0  0  0  # atno 10718 bound_to 10713
  153.0689  135.4970  154.8261 H   0  0  0  0  0  0  0  0  0  0  0  0  # atno 10763 bound_to 10752
  154.6994  135.2999  154.9366 H   0  0  0  0  0  0  0  0  0  0  0  0  # atno 10764 bound_to 10752
  154.0095  135.6756  153.4817 H   0  0  0  0  0  0  0  0  0  0  0  0  # atno 10765 bound_to 10752
  140.0013  134.9477  157.0078 H   0  0  0  0  0  0  0  0  0  0  0  0  # atno 11005 bound_to 11000
  144.7668  139.6826  143.7211 LP  0  0  0  0  0  0  0  0  0  0  0  0  # atno 17320 bound_to 7965
  146.2096  139.5444  142.9689 LP  0  0  0  0  0  0  0  0  0  0  0  0  # atno 17321 bound_to 7965
  140.4036  144.2461  150.5892 LP  0  0  0  0  0  0  0  0  0  0  0  0  # atno 17342 bound_to 10162
  140.5033  143.2311  151.8645 LP  0  0  0  0  0  0  0  0  0  0  0  0  # atno 17343 bound_to 10162
  157.6337  130.8749  149.9320 LP  0  0  0  0  0  0  0  0  0  0  0  0  # atno 17370 bound_to 10713
  156.0862  130.3668  150.0484 LP  0  0  0  0  0  0  0  0  0  0  0  0  # atno 17371 bound_to 10713
  140.4723  134.1374  155.7205 LP  0  0  0  0  0  0  0  0  0  0  0  0  # atno 17394 bound_to 11000
  141.1644  133.8732  157.1757 LP  0  0  0  0  0  0  0  0  0  0  0  0  # atno 17395 bound_to 11000

$$$$
