AV-unprocessed.smi:1047|AV-procd|sdf|4584|dock10
  -GOLD-   22720 3 53D 1   1.00000     0.00000
 Structure written by MMmdl.
 58 60  0  0  0  0  0  0  0  0  4 V2000
  150.3281  129.2303  154.5040 C   0  0  0  0  0  0  0  0  0  0  0  0
  150.3236  130.4618  155.4207 C   0  0  0  0  0  0  0  0  0  0  0  0
  150.0836  131.7245  154.6773 N   0  3  1  0  0  0  0  0  0  0  0  0
  148.7416  131.7603  154.0491 C   0  0  0  0  0  0  0  0  0  0  0  0
  148.5574  133.0556  153.2411 C   0  0  0  0  0  0  0  0  0  0  0  0
  148.7540  134.1815  154.0882 O   0  0  0  0  0  0  0  0  0  0  0  0
  150.0632  134.2140  154.6464 C   0  0  1  0  0  0  0  0  0  0  0  0
  150.2316  135.5212  155.4402 C   0  0  0  0  0  0  0  0  0  0  0  0
  149.9157  136.7122  154.6243 N   0  3  0  0  0  0  0  0  0  0  0  0
  151.0539  137.6331  154.4315 C   0  0  0  0  0  0  0  0  0  0  0  0
  150.6900  139.0676  154.8502 C   0  0  1  0  0  0  0  0  0  0  0  0
  149.3967  139.0555  155.4232 O   0  0  0  0  0  0  0  0  0  0  0  0
  151.7018  139.6426  155.8614 C   0  0  0  0  0  0  0  0  0  0  0  0
  151.2738  140.9260  156.4380 N   0  0  0  0  0  0  0  0  0  0  0  0
  150.4602  141.8841  155.9153 C   0  0  0  0  0  0  0  0  0  0  0  0
  150.3758  142.8936  156.8252 N   0  3  0  0  0  0  0  0  0  0  0  0
  151.1477  142.5779  157.9450 C   0  0  0  0  0  0  0  0  0  0  0  0
  151.3750  143.2829  159.1208 C   0  0  0  0  0  0  0  0  0  0  0  0
  152.2185  142.6806  160.0813 C   0  0  0  0  0  0  0  0  0  0  0  0
  152.4853  143.4230  161.3796 C   0  0  0  0  0  0  0  0  0  0  0  0
  152.8047  141.4104  159.8437 C   0  0  0  0  0  0  0  0  0  0  0  0
  153.7059  140.7704  160.8858 C   0  0  0  0  0  0  0  0  0  0  0  0
  152.5644  140.7112  158.6393 C   0  0  0  0  0  0  0  0  0  0  0  0
  151.7289  141.3174  157.7036 C   0  0  0  0  0  0  0  0  0  0  0  0
  150.3054  132.9452  155.4921 C   0  0  0  0  0  0  0  0  0  0  0  0
  150.4156  128.3164  155.0924 H   0  0  0  0  0  0  0  0  0  0  0  0
  151.1632  129.2428  153.8042 H   0  0  0  0  0  0  0  0  0  0  0  0
  149.4046  129.1633  153.9282 H   0  0  0  0  0  0  0  0  0  0  0  0
  149.5300  130.3261  156.1568 H   0  0  0  0  0  0  0  0  0  0  0  0
  151.2572  130.5268  155.9816 H   0  0  0  0  0  0  0  0  0  0  0  0
  148.6173  130.8995  153.3908 H   0  0  0  0  0  0  0  0  0  0  0  0
  147.9730  131.6877  154.8202 H   0  0  0  0  0  0  0  0  0  0  0  0
  149.2503  133.0919  152.3989 H   0  0  0  0  0  0  0  0  0  0  0  0
  147.5506  133.0991  152.8258 H   0  0  0  0  0  0  0  0  0  0  0  0
  150.7857  134.2314  153.8282 H   0  0  0  0  0  0  0  0  0  0  0  0
  149.5867  135.5048  156.3198 H   0  0  0  0  0  0  0  0  0  0  0  0
  151.2579  135.6021  155.8005 H   0  0  0  0  0  0  0  0  0  0  0  0
  149.5920  136.4059  153.7178 H   0  0  0  0  0  0  0  0  0  0  0  0
  151.9158  137.2785  154.9988 H   0  0  0  0  0  0  0  0  0  0  0  0
  151.3366  137.6170  153.3779 H   0  0  0  0  0  0  0  0  0  0  0  0
  150.6666  139.7090  153.9679 H   0  0  0  0  0  0  0  0  0  0  0  0
  149.2668  139.8678  155.8897 H   0  0  0  0  0  0  0  0  0  0  0  0
  151.9052  138.9365  156.6670 H   0  0  0  0  0  0  0  0  0  0  0  0
  152.6575  139.8210  155.3666 H   0  0  0  0  0  0  0  0  0  0  0  0
  149.9723  141.8528  154.9516 H   0  0  0  0  0  0  0  0  0  0  0  0
  150.9250  144.2496  159.2949 H   0  0  0  0  0  0  0  0  0  0  0  0
  153.5525  143.6093  161.5024 H   0  0  0  0  0  0  0  0  0  0  0  0
  152.1344  142.8414  162.2326 H   0  0  0  0  0  0  0  0  0  0  0  0
  151.9746  144.3864  161.4005 H   0  0  0  0  0  0  0  0  0  0  0  0
  154.0692  139.7963  160.5567 H   0  0  0  0  0  0  0  0  0  0  0  0
  153.1652  140.6246  161.8214 H   0  0  0  0  0  0  0  0  0  0  0  0
  154.5738  141.4004  161.0814 H   0  0  0  0  0  0  0  0  0  0  0  0
  153.0100  139.7435  158.4628 H   0  0  0  0  0  0  0  0  0  0  0  0
  149.6369  132.9258  156.3541 H   0  0  0  0  0  0  0  0  0  0  0  0
  151.3242  132.9609  155.8783 H   0  0  0  0  0  0  0  0  0  0  0  0
  149.1725  137.2273  155.0745 H   0  0  0  0  0  0  0  0  0  0  0  0
  150.7518  131.7443  153.9196 H   0  0  0  0  0  0  0  0  0  0  0  0
  149.8331  143.7370  156.6882 H   0  0  0  0  0  0  0  0  0  0  0  0
  1  2  1  0  0  0  0
  1 26  1  0  0  0  0
  1 27  1  0  0  0  0
  1 28  1  0  0  0  0
  2  3  1  0  0  0  0
  2 29  1  0  0  0  0
  2 30  1  0  0  0  0
  3 25  1  0  0  0  0
  3  4  1  0  0  0  0
  3 57  1  0  0  0  0
  4  5  1  0  0  0  0
  4 31  1  0  0  0  0
  4 32  1  0  0  0  0
  5  6  1  0  0  0  0
  5 33  1  0  0  0  0
  5 34  1  0  0  0  0
  6  7  1  0  0  0  0
  7  8  1  0  0  0  0
  7 25  1  0  0  0  0
  7 35  1  0  0  0  0
  8  9  1  0  0  0  0
  8 36  1  0  0  0  0
  8 37  1  0  0  0  0
  9 10  1  0  0  0  0
  9 38  1  0  0  0  0
  9 56  1  0  0  0  0
 10 11  1  0  0  0  0
 10 39  1  0  0  0  0
 10 40  1  0  0  0  0
 11 12  1  0  0  0  0
 11 13  1  0  0  0  0
 11 41  1  0  0  0  0
 12 42  1  0  0  0  0
 13 14  1  0  0  0  0
 13 43  1  0  0  0  0
 13 44  1  0  0  0  0
 14 24  1  0  0  0  0
 14 15  1  0  0  0  0
 15 16  2  0  0  0  0
 15 45  1  0  0  0  0
 16 17  1  0  0  0  0
 16 58  1  0  0  0  0
 17 24  2  0  0  0  0
 17 18  1  0  0  0  0
 18 19  2  0  0  0  0
 18 46  1  0  0  0  0
 19 20  1  0  0  0  0
 19 21  1  0  0  0  0
 20 47  1  0  0  0  0
 20 48  1  0  0  0  0
 20 49  1  0  0  0  0
 21 22  1  0  0  0  0
 21 23  2  0  0  0  0
 22 50  1  0  0  0  0
 22 51  1  0  0  0  0
 22 52  1  0  0  0  0
 23 24  1  0  0  0  0
 23 53  1  0  0  0  0
 25 54  1  0  0  0  0
 25 55  1  0  0  0  0
M  CHG  1   3   1
M  CHG  1   9   1
M  CHG  1  16   1
M  END
> <s_m_source_file>
AV-unprocessed.smi

> <i_m_source_file_index>
1047

> <i_lp_mmshare_version>
43012

> <i_f3d_flags>
0

> <s_epik_input>
W0NIM11bQ0gyXU4xW0NIMl1bQ0gyXU9bQ0BIXShbQ0gyXTEpW0NIMl1bTkhdW0NIMl1bQ0BIXShbT0hdKVtDSDJdbihbY0hdbjIpYyhjMjMpW2NIXWMoW0NIM10pYyhbY0hdMylbQ0gzXQ==

> <s_epik_cmdline>
J2VwaWtfcHl0aG9uJywgJy1waCcsICc3LjAnLCAnLXRuJywgJzgnLCAnLW1hJywgJzIwMCcsICctbWV0YWxfYmluZGluZycsICctaW1hZScsICc8aW5maWxlLm1hZT4nLCAnLW9tYWUnLCAnPG91dGZpbGUubWFlPic=

> <r_epik_Ionization_Penalty>
1.6114

> <r_epik_Ionization_Penalty_Charging>
1.61139

> <r_epik_Ionization_Penalty_Neutral>
5.04732e-06

> <r_epik_State_Penalty>
1.63724

> <r_epik_Charging_Adjusted_Penalty>
3.24864

> <i_epik_Tot_Q>
3

> <i_epik_Tot_abs_Q>
3

> <r_epik_Metal_State_Penalty>
5.64594

> <b_epik_Metal_Only>
0

> <s_lp_Force_Field>
OPLS_2005

> <r_lp_Energy>
40.2566

> <b_lp_Chiralities_Consistent>
1

> <s_lp_Variant>
AV-unprocessed.smi:1047-25

> <Gold.Version>
5.8.1

> <Gold.Id.Protein>
6NUR|6NUR_protein|mol2

> <Gold.PLP.Fitness>
61.9581

> <Gold.PLP.PLP>
-53.6202

> <Gold.PLP.part.hbond>
-2.0000

> <Gold.PLP.part.metal>
0.0000

> <Gold.PLP.part.buried>
-6.9504

> <Gold.PLP.part.nonpolar>
-45.4541

> <Gold.PLP.part.repulsive>
1.0434

> <Gold.PLP.ligand.clash>
0.0000

> <Gold.PLP.ligand.torsion>
1.9166

> <Gold.PLP.Chemscore.Hbond>
4.0000

> <Gold.PLP.Chemscore.CHOScore>
0.0000

> <Gold.PLP.Chemscore.Metal>
0.0000

> <Gold.Chemscore.Hbonds>
donor molecule, donor type, donor heavy atom, donor atom, acceptor molecule, acceptor atom, score
      L1  H     9    38       P1  7948  2.00
      L1  H    16    58       P1  8028  2.00

> <Gold.PLP.Chemscore.Internal.Correction>
0.1712

> <Gold.Rescore>
     Score         DG    S(hbond)    S(metal)    S(lipo)     H(rot)  DE(clash)    DE(int)     intcor
     18.03     -20.22       1.83        0.00     134.61       2.78       0.23       1.95       ----

> <Gold.Chemscore.Fitness>
18.0317

> <Gold.Chemscore.DG>
-20.2152

> <Gold.Chemscore.ZeroCoef>
-5.4800

> <Gold.Chemscore.Hbond>
1.8306

> <Gold.Chemscore.Metal>
0.0000

> <Gold.Chemscore.Lipo>
134.6147

> <Gold.Chemscore.Internal_Hbond>
0.0000

> <Gold.Chemscore.DEClash>
0.2290

> <Gold.Chemscore.DEInternal>
1.9545

> <Gold.Chemscore.Rot>
2.7848

> <Gold.Chemscore.Internal.Correction>
   9.000000E+99

> <Gold.Chemscore.Hbonds>
donor molecule, donor type, donor heavy atom, donor atom, acceptor molecule, acceptor atom, score
      L1  H     9    38       P1  7948  0.60
      L1  H    16    58       P1  8028  0.94

> <Gold.Chemscore.Hbond.Weighted>
-6.1144

> <Gold.Chemscore.Metal.Weighted>
-0.0000

> <Gold.Chemscore.Lipo.Weighted>
-15.7499

> <Gold.Chemscore.Internal_Hbond.Weighted>
0.0000

> <Gold.Chemscore.DEClash.Weighted>
0.2290

> <Gold.Chemscore.DEInternal.Weighted>
1.9545

> <Gold.Chemscore.Rot.Weighted>
7.1291

> <Gold.Chemscore.Internal.Correction.Weighted>
   9.000000E+99

> <Gold.Protein.RotatedTorsions>
[ 6907 6896 6895 6894 ] final   -0.32 input  -60.11 | X-H torsion
[ 7974 7965 7964 7962 ] final   59.25 input  175.53 | X-H torsion
[ 8008 7997 7996 7995 ] final  -39.12 input   59.86 | X-H torsion
[ 10167 10162 10161 10158 ] final  176.99 input  -65.29 | X-H torsion
[ 10718 10713 10712 10709 ] final   60.56 input   66.30 | X-H torsion
[ 10763 10752 10751 10750 ] final -179.12 input  -60.55 | X-H torsion
[ 11005 11000 10999 10996 ] final  148.52 input  -57.11 | X-H torsion

> <Gold.Protein.ActiveResidues>
 VAL166  LYS551  ARG553  GLY616  TRP617  ASP618  TYR619  PRO620  LYS621  CYS622 
 ASP623  PHE694  ASN695  SER759  ASP760  ASP761  ALA762  ILE779  LEU786  VAL792 
 PHE793  MET794  SER795  GLU796  ALA797  LYS798  CYS799  TRP800  GLU811  SER814 

> <Gold.Protein.RotatedAtoms>
  151.5641  135.1064  159.9979 H   0  0  0  0  0  0  0  0  0  0  0  0  # atno 6907 bound_to 6896
  152.4432  133.7483  159.6690 H   0  0  0  0  0  0  0  0  0  0  0  0  # atno 6908 bound_to 6896
  150.8342  133.7972  159.3110 H   0  0  0  0  0  0  0  0  0  0  0  0  # atno 6909 bound_to 6896
  145.9093  139.3641  143.0545 H   0  0  0  0  0  0  0  0  0  0  0  0  # atno 7974 bound_to 7965
  154.4027  140.1560  156.2812 H   0  0  0  0  0  0  0  0  0  0  0  0  # atno 8008 bound_to 7997
  155.8868  140.3441  155.5905 H   0  0  0  0  0  0  0  0  0  0  0  0  # atno 8009 bound_to 7997
  155.7604  140.0817  157.2148 H   0  0  0  0  0  0  0  0  0  0  0  0  # atno 8010 bound_to 7997
  139.5236  144.2850  152.0513 H   0  0  0  0  0  0  0  0  0  0  0  0  # atno 10167 bound_to 10162
  157.5762  130.8946  149.9352 H   0  0  0  0  0  0  0  0  0  0  0  0  # atno 10718 bound_to 10713
  154.5391  135.2805  155.1112 H   0  0  0  0  0  0  0  0  0  0  0  0  # atno 10763 bound_to 10752
  154.2602  135.6323  153.5275 H   0  0  0  0  0  0  0  0  0  0  0  0  # atno 10764 bound_to 10752
  152.9974  135.5603  154.5925 H   0  0  0  0  0  0  0  0  0  0  0  0  # atno 10765 bound_to 10752
  140.0967  134.9008  157.1733 H   0  0  0  0  0  0  0  0  0  0  0  0  # atno 11005 bound_to 11000
  145.8692  140.9430  143.0659 LP  0  0  0  0  0  0  0  0  0  0  0  0  # atno 17320 bound_to 7965
  144.6742  140.0632  143.7475 LP  0  0  0  0  0  0  0  0  0  0  0  0  # atno 17321 bound_to 7965
  140.2304  144.4374  150.6302 LP  0  0  0  0  0  0  0  0  0  0  0  0  # atno 17342 bound_to 10162
  140.6359  143.2195  151.6396 LP  0  0  0  0  0  0  0  0  0  0  0  0  # atno 17343 bound_to 10162
  156.0807  130.3673  150.0586 LP  0  0  0  0  0  0  0  0  0  0  0  0  # atno 17370 bound_to 10713
  156.8732  130.9531  151.3607 LP  0  0  0  0  0  0  0  0  0  0  0  0  # atno 17371 bound_to 10713
  140.3277  134.2845  155.7234 LP  0  0  0  0  0  0  0  0  0  0  0  0  # atno 17394 bound_to 11000
  141.2094  133.7750  157.0000 LP  0  0  0  0  0  0  0  0  0  0  0  0  # atno 17395 bound_to 11000

$$$$
