AV-unprocessed.smi:258|AV-procd|sdf|1968|dock3
  -GOLD-   2262021123D 1   1.00000     0.00000
 Structure written by MMmdl.
 57 60  0  0  0  0  0  0  0  0  1 V2000
  142.4161  132.4738  147.9641 O   0  0  0  0  0  0  0  0  0  0  0  0
  143.5867  132.0385  148.6228 C   0  0  0  0  0  0  0  0  0  0  0  0
  144.3262  133.2342  149.2352 C   0  0  0  0  0  0  0  0  0  0  0  0
  145.2936  132.7572  150.1599 O   0  0  0  0  0  0  0  0  0  0  0  0
  146.0313  133.7782  150.8189 C   0  0  1  0  0  0  0  0  0  0  0  0
  145.0926  134.8571  151.3959 C   0  0  0  0  0  0  0  0  0  0  0  0
  145.8934  135.8675  152.2310 C   0  0  0  0  0  0  0  0  0  0  0  0
  146.7100  135.1580  153.3230 C   0  0  0  0  0  0  0  0  0  0  0  0
  147.5502  134.1072  152.7455 N   0  0  0  0  0  0  0  0  0  0  0  0
  148.5518  133.6056  153.5123 C   0  0  0  0  0  0  0  0  0  0  0  0
  149.5039  134.4369  154.0151 N   0  0  0  0  0  0  0  0  0  0  0  0
  150.4862  133.9543  154.7816 C   0  0  0  0  0  0  0  0  0  0  0  0
  150.7043  132.6948  155.1634 N   0  0  0  0  0  0  0  0  0  0  0  0
  149.7581  131.8537  154.6568 C   0  0  0  0  0  0  0  0  0  0  0  0
  148.6599  132.2214  153.8285 C   0  0  0  0  0  0  0  0  0  0  0  0
  147.9203  131.0920  153.4963 N   0  0  0  0  0  0  0  0  0  0  0  0
  148.5376  130.1156  154.1037 C   0  0  0  0  0  0  0  0  0  0  0  0
  149.6453  130.4852  154.8318 N   0  0  0  0  0  0  0  0  0  0  0  0
  150.5059  129.6040  155.6024 C   0  0  0  0  0  0  0  0  0  0  0  0
  151.6910  130.3418  156.2723 C   0  0  1  0  0  0  0  0  0  0  0  0
  151.2087  131.1425  157.5053 C   0  0  0  0  0  0  0  0  0  0  0  0
  152.2208  132.0188  157.9554 O   0  0  0  0  0  0  0  0  0  0  0  0
  152.8901  129.3984  156.5736 C   0  0  2  0  0  0  0  0  0  0  0  0
  153.6163  128.8409  155.3502 C   0  0  0  0  0  0  0  0  0  0  0  0
  154.0275  127.4460  155.8015 C   0  0  0  0  0  0  0  0  0  0  0  0
  152.9202  127.0384  156.5857 O   0  0  0  0  0  0  0  0  0  0  0  0
  152.5423  128.1441  157.3955 C   0  0  0  0  0  0  0  0  0  0  0  0
  146.8326  133.1109  151.9501 C   0  0  0  0  0  0  0  0  0  0  0  0
  141.9930  133.1250  148.5025 H   0  0  0  0  0  0  0  0  0  0  0  0
  143.3454  131.2904  149.3786 H   0  0  0  0  0  0  0  0  0  0  0  0
  144.2203  131.5541  147.8797 H   0  0  0  0  0  0  0  0  0  0  0  0
  144.8444  133.7734  148.4409 H   0  0  0  0  0  0  0  0  0  0  0  0
  143.6245  133.9316  149.6935 H   0  0  0  0  0  0  0  0  0  0  0  0
  146.7392  134.2352  150.1247 H   0  0  0  0  0  0  0  0  0  0  0  0
  144.5639  135.3818  150.6007 H   0  0  0  0  0  0  0  0  0  0  0  0
  144.3317  134.3873  152.0204 H   0  0  0  0  0  0  0  0  0  0  0  0
  146.5659  136.4260  151.5788 H   0  0  0  0  0  0  0  0  0  0  0  0
  145.2214  136.5977  152.6827 H   0  0  0  0  0  0  0  0  0  0  0  0
  147.3288  135.8898  153.8441 H   0  0  0  0  0  0  0  0  0  0  0  0
  146.0390  134.7170  154.0617 H   0  0  0  0  0  0  0  0  0  0  0  0
  151.1981  134.6822  155.1419 H   0  0  0  0  0  0  0  0  0  0  0  0
  148.1971  129.0922  154.0412 H   0  0  0  0  0  0  0  0  0  0  0  0
  149.8866  129.1154  156.3550 H   0  0  0  0  0  0  0  0  0  0  0  0
  150.8748  128.8122  154.9495 H   0  0  0  0  0  0  0  0  0  0  0  0
  152.0629  131.0702  155.5498 H   0  0  0  0  0  0  0  0  0  0  0  0
  150.3191  131.7283  157.2747 H   0  0  0  0  0  0  0  0  0  0  0  0
  150.9496  130.4857  158.3347 H   0  0  0  0  0  0  0  0  0  0  0  0
  152.8537  131.5190  158.4485 H   0  0  0  0  0  0  0  0  0  0  0  0
  153.6216  129.9455  157.1692 H   0  0  0  0  0  0  0  0  0  0  0  0
  152.9520  128.7548  154.4917 H   0  0  0  0  0  0  0  0  0  0  0  0
  154.4688  129.4494  155.0487 H   0  0  0  0  0  0  0  0  0  0  0  0
  154.2056  126.7667  154.9675 H   0  0  0  0  0  0  0  0  0  0  0  0
  154.9259  127.4815  156.4198 H   0  0  0  0  0  0  0  0  0  0  0  0
  153.1268  128.1220  158.3167 H   0  0  0  0  0  0  0  0  0  0  0  0
  151.4916  128.0789  157.6774 H   0  0  0  0  0  0  0  0  0  0  0  0
  146.1581  132.5623  152.6091 H   0  0  0  0  0  0  0  0  0  0  0  0
  147.5126  132.3753  151.5221 H   0  0  0  0  0  0  0  0  0  0  0  0
  1  2  1  0  0  0  0
  1 29  1  0  0  0  0
  2  3  1  0  0  0  0
  2 30  1  0  0  0  0
  2 31  1  0  0  0  0
  3  4  1  0  0  0  0
  3 32  1  0  0  0  0
  3 33  1  0  0  0  0
  4  5  1  0  0  0  0
  5 28  1  0  0  0  0
  5  6  1  0  0  0  0
  5 34  1  0  0  0  0
  6  7  1  0  0  0  0
  6 35  1  0  0  0  0
  6 36  1  0  0  0  0
  7  8  1  0  0  0  0
  7 37  1  0  0  0  0
  7 38  1  0  0  0  0
  8  9  1  0  0  0  0
  8 39  1  0  0  0  0
  8 40  1  0  0  0  0
  9 10  1  0  0  0  0
  9 28  1  0  0  0  0
 10 15  1  0  0  0  0
 10 11  2  0  0  0  0
 11 12  1  0  0  0  0
 12 13  2  0  0  0  0
 12 41  1  0  0  0  0
 13 14  1  0  0  0  0
 14 18  1  0  0  0  0
 14 15  2  0  0  0  0
 15 16  1  0  0  0  0
 16 17  2  0  0  0  0
 17 18  1  0  0  0  0
 17 42  1  0  0  0  0
 18 19  1  0  0  0  0
 19 20  1  0  0  0  0
 19 43  1  0  0  0  0
 19 44  1  0  0  0  0
 20 21  1  0  0  0  0
 20 23  1  0  0  0  0
 20 45  1  0  0  0  0
 21 22  1  0  0  0  0
 21 46  1  0  0  0  0
 21 47  1  0  0  0  0
 22 48  1  0  0  0  0
 23 27  1  0  0  0  0
 23 24  1  0  0  0  0
 23 49  1  0  0  0  0
 24 25  1  0  0  0  0
 24 50  1  0  0  0  0
 24 51  1  0  0  0  0
 25 26  1  0  0  0  0
 25 52  1  0  0  0  0
 25 53  1  0  0  0  0
 26 27  1  0  0  0  0
 27 54  1  0  0  0  0
 27 55  1  0  0  0  0
 28 56  1  0  0  0  0
 28 57  1  0  0  0  0
M  END
> <s_m_source_file>
AV-unprocessed.smi

> <i_m_source_file_index>
258

> <i_lp_mmshare_version>
43012

> <i_f3d_flags>
0

> <s_epik_input>
W09IXVtDSDJdW0NIMl1PW0NAQEhdMVtDSDJdW0NIMl1bQ0gyXU4oW0NIMl0xKWMobltjSF1uMiljKGMyMyluW2NIXW4zW0NIMl1bQ0BIXShbQ0gyXVtPSF0pW0NAQEhdNFtDSDJdW0NIMl1PW0NIMl00

> <s_epik_cmdline>
J2VwaWtfcHl0aG9uJywgJy1waCcsICc3LjAnLCAnLXRuJywgJzgnLCAnLW1hJywgJzIwMCcsICctbWV0YWxfYmluZGluZycsICctaW1hZScsICc8aW5maWxlLm1hZT4nLCAnLW9tYWUnLCAnPG91dGZpbGUubWFlPic=

> <r_lp_tautomer_probability>
1

> <r_epik_Ionization_Penalty>
0.00349036

> <r_epik_Ionization_Penalty_Charging>
0

> <r_epik_Ionization_Penalty_Neutral>
0.00349036

> <r_epik_State_Penalty>
0.00229798

> <r_epik_Charging_Adjusted_Penalty>
0.00229798

> <i_epik_Tot_Q>
0

> <i_epik_Tot_abs_Q>
0

> <r_epik_Metal_State_Penalty>
-0

> <b_epik_Metal_Only>
0

> <s_lp_Force_Field>
OPLS_2005

> <r_lp_Energy>
48.0574

> <b_lp_Chiralities_Consistent>
1

> <s_lp_Variant>
AV-unprocessed.smi:258-4

> <Gold.Version>
5.8.1

> <Gold.Id.Protein>
6NUR|6NUR_protein|mol2

> <Gold.PLP.Fitness>
46.8667

> <Gold.PLP.PLP>
-41.5354

> <Gold.PLP.part.hbond>
-4.0588

> <Gold.PLP.part.metal>
0.0000

> <Gold.PLP.part.buried>
-3.7978

> <Gold.PLP.part.nonpolar>
-35.4510

> <Gold.PLP.part.repulsive>
1.6890

> <Gold.PLP.ligand.clash>
0.0000

> <Gold.PLP.ligand.torsion>
0.6801

> <Gold.PLP.Chemscore.Hbond>
2.0000

> <Gold.PLP.Chemscore.CHOScore>
0.0000

> <Gold.PLP.Chemscore.Metal>
0.0000

> <Gold.Chemscore.Hbonds>
donor molecule, donor type, donor heavy atom, donor atom, acceptor molecule, acceptor atom, score
      L1  H     1    29       P1 10186  1.00
      P1  H  6896  6909       L1    22  0.75

> <Gold.PLP.Chemscore.Internal.Correction>
0.6916

> <Gold.Rescore>
     Score         DG    S(hbond)    S(metal)    S(lipo)     H(rot)  DE(clash)    DE(int)     intcor
      6.54     -10.58       1.98        0.00      79.48       4.22       0.19       3.85       ----

> <Gold.Chemscore.Fitness>
6.5393

> <Gold.Chemscore.DG>
-10.5770

> <Gold.Chemscore.ZeroCoef>
-5.4800

> <Gold.Chemscore.Hbond>
1.9799

> <Gold.Chemscore.Metal>
0.0000

> <Gold.Chemscore.Lipo>
79.4788

> <Gold.Chemscore.Internal_Hbond>
0.0000

> <Gold.Chemscore.DEClash>
0.1860

> <Gold.Chemscore.DEInternal>
3.8516

> <Gold.Chemscore.Rot>
4.2246

> <Gold.Chemscore.Internal.Correction>
   9.000000E+99

> <Gold.Chemscore.Hbonds>
donor molecule, donor type, donor heavy atom, donor atom, acceptor molecule, acceptor atom, score
      L1  H     1    29       P1 10186  1.00
      P1  H  6896  6909       L1    22  0.09

> <Gold.Chemscore.Hbond.Weighted>
-6.6128

> <Gold.Chemscore.Metal.Weighted>
-0.0000

> <Gold.Chemscore.Lipo.Weighted>
-9.2990

> <Gold.Chemscore.Internal_Hbond.Weighted>
0.0000

> <Gold.Chemscore.DEClash.Weighted>
0.1860

> <Gold.Chemscore.DEInternal.Weighted>
3.8516

> <Gold.Chemscore.Rot.Weighted>
10.8149

> <Gold.Chemscore.Internal.Correction.Weighted>
   9.000000E+99

> <Gold.Protein.RotatedTorsions>
[ 6907 6896 6895 6894 ] final  -76.12 input  -60.11 | X-H torsion
[ 7974 7965 7964 7962 ] final   12.21 input  175.53 | X-H torsion
[ 8008 7997 7996 7995 ] final  161.91 input   59.86 | X-H torsion
[ 10167 10162 10161 10158 ] final    7.28 input  -65.29 | X-H torsion
[ 10718 10713 10712 10709 ] final  102.30 input   66.30 | X-H torsion
[ 10763 10752 10751 10750 ] final  164.00 input  -60.55 | X-H torsion
[ 11005 11000 10999 10996 ] final   64.31 input  -57.11 | X-H torsion

> <Gold.Protein.ActiveResidues>
 VAL166  LYS551  ARG553  GLY616  TRP617  ASP618  TYR619  PRO620  LYS621  CYS622 
 ASP623  PHE694  ASN695  SER759  ASP760  ASP761  ALA762  ILE779  LEU786  VAL792 
 PHE793  MET794  SER795  GLU796  ALA797  LYS798  CYS799  TRP800  GLU811  SER814 

> <Gold.Protein.RotatedAtoms>
  150.7037  134.4619  159.5384 H   0  0  0  0  0  0  0  0  0  0  0  0  # atno 6907 bound_to 6896
  152.2292  134.8335  160.0485 H   0  0  0  0  0  0  0  0  0  0  0  0  # atno 6908 bound_to 6896
  151.9157  133.3537  159.3916 H   0  0  0  0  0  0  0  0  0  0  0  0  # atno 6909 bound_to 6896
  146.2356  139.9370  142.8488 H   0  0  0  0  0  0  0  0  0  0  0  0  # atno 7974 bound_to 7965
  156.2069  140.1764  156.7780 H   0  0  0  0  0  0  0  0  0  0  0  0  # atno 8008 bound_to 7997
  154.5668  140.0689  156.8934 H   0  0  0  0  0  0  0  0  0  0  0  0  # atno 8009 bound_to 7997
  155.2746  140.3345  155.4265 H   0  0  0  0  0  0  0  0  0  0  0  0  # atno 8010 bound_to 7997
  140.6381  143.7839  150.7388 H   0  0  0  0  0  0  0  0  0  0  0  0  # atno 10167 bound_to 10162
  157.6806  131.0749  150.5382 H   0  0  0  0  0  0  0  0  0  0  0  0  # atno 10718 bound_to 10713
  154.3023  135.2759  155.2605 H   0  0  0  0  0  0  0  0  0  0  0  0  # atno 10763 bound_to 10752
  154.5036  135.5801  153.6554 H   0  0  0  0  0  0  0  0  0  0  0  0  # atno 10764 bound_to 10752
  152.9899  135.6164  154.3195 H   0  0  0  0  0  0  0  0  0  0  0  0  # atno 10765 bound_to 10752
  139.9967  134.6506  155.9998 H   0  0  0  0  0  0  0  0  0  0  0  0  # atno 11005 bound_to 11000
  145.1989  140.9845  143.4167 LP  0  0  0  0  0  0  0  0  0  0  0  0  # atno 17320 bound_to 7965
  144.9791  139.3802  143.6271 LP  0  0  0  0  0  0  0  0  0  0  0  0  # atno 17321 bound_to 7965
  140.1465  143.4395  152.2159 LP  0  0  0  0  0  0  0  0  0  0  0  0  # atno 17342 bound_to 10162
  139.5590  144.7393  151.4209 LP  0  0  0  0  0  0  0  0  0  0  0  0  # atno 17343 bound_to 10162
  156.5690  130.4275  149.6028 LP  0  0  0  0  0  0  0  0  0  0  0  0  # atno 17370 bound_to 10713
  156.2756  130.7042  151.1852 LP  0  0  0  0  0  0  0  0  0  0  0  0  # atno 17371 bound_to 10713
  141.1610  133.6539  156.4318 LP  0  0  0  0  0  0  0  0  0  0  0  0  # atno 17394 bound_to 11000
  140.4805  134.6669  157.5169 LP  0  0  0  0  0  0  0  0  0  0  0  0  # atno 17395 bound_to 11000

$$$$
