#       Name:                AV-unprocessed.smi:2124
#       Creating user name   scv26
#       Creation time:       Fri Mar 27 11:41:20 2020


#       File generated by GOLD software.
#

@<TRIPOS>MOLECULE
AV-unprocessed.smi:2124
    52    54     1
SMALL
NO_CHARGES


@<TRIPOS>ATOM
      1 ****        -3.9571   6.0818   0.3880 C.3            1 S1                 0.0000
      2 ****        -3.4103   4.6755   0.2739 C.2            1 S1                 0.0000
      3 ****        -3.0913   4.1024   1.4940 N.pl3          1 S1                 0.0000
      4 ****        -2.5848   2.8149   1.4918 C.2            1 S1                 0.0000
      5 ****        -2.2590   2.2626   2.8686 C.3            1 S1                 0.0000
      6 ****        -2.4029   2.1336   0.3320 C.2            1 S1                 0.0000
      7 ****        -1.8381   0.7142   0.2850 C.3            1 S1                 0.0000
      8 ****        -0.3132   0.5900   0.3464 C.2            1 S1                 0.0000
      9 ****         0.4006   1.5932   0.3228 O.2            1 S1                 0.0000
     10 ****         0.1713  -0.6584   0.4274 N.am           1 S1                 0.0000
     11 ****         1.5869  -1.0168   0.4855 C.3            1 S1                 0.0000
     12 ****         2.0585  -0.9691   1.9504 C.3            1 S1                 0.0000
     13 ****         1.8059  -2.4091  -0.1553 C.3            1 S1                 0.0000
     14 ****         3.2979  -2.8017  -0.2879 C.3            1 S1                 0.0000
     15 ****         3.4440  -3.1488  -1.7804 C.3            1 S1                 0.0000
     16 ****         2.6909  -4.4569  -2.0820 C.3            1 S1                 0.0000
     17 ****         1.2156  -4.0245  -1.9923 C.3            1 S1                 0.0000
     18 ****         1.3201  -2.5318  -1.6234 C.3            1 S1                 0.0000
     19 ****         2.5438  -2.1055  -2.4279 C.3            1 S1                 0.0000
     20 ****        -2.7578   2.8015  -0.9424 C.2            1 S1                 0.0000
     21 ****        -2.6050   2.2413  -2.0270 O.2            1 S1                 0.0000
     22 ****        -3.2737   4.1063  -0.8851 N.2            1 S1                 0.0000
     23 ****        -3.2072   4.5745   2.3791 H              1 S1                 0.0000
     24 ****        -4.1416   6.5100  -0.5980 H              1 S1                 0.0000
     25 ****        -3.2477   6.7247   0.9101 H              1 S1                 0.0000
     26 ****        -4.8969   6.0798   0.9408 H              1 S1                 0.0000
     27 ****        -1.2099   1.9712   2.9247 H              1 S1                 0.0000
     28 ****        -2.8724   1.3870   3.0822 H              1 S1                 0.0000
     29 ****        -2.4439   2.9997   3.6513 H              1 S1                 0.0000
     30 ****        -2.1921   0.1920  -0.6048 H              1 S1                 0.0000
     31 ****        -2.2530   0.1501   1.1206 H              1 S1                 0.0000
     32 ****        -0.4901  -1.4213   0.4402 H              1 S1                 0.0000
     33 ****         2.1593  -0.2829  -0.0845 H              1 S1                 0.0000
     34 ****         3.1217  -1.1906   2.0389 H              1 S1                 0.0000
     35 ****         1.5178  -1.6901   2.5643 H              1 S1                 0.0000
     36 ****         1.8993   0.0190   2.3834 H              1 S1                 0.0000
     37 ****         1.2850  -3.1462   0.4584 H              1 S1                 0.0000
     38 ****         3.9563  -1.9683  -0.0396 H              1 S1                 0.0000
     39 ****         3.5657  -3.6368   0.3604 H              1 S1                 0.0000
     40 ****         4.4768  -3.1474  -2.1300 H              1 S1                 0.0000
     41 ****         2.9241  -4.8183  -3.0843 H              1 S1                 0.0000
     42 ****         2.9378  -5.2486  -1.3737 H              1 S1                 0.0000
     43 ****         0.7209  -4.1508  -2.9563 H              1 S1                 0.0000
     44 ****         0.6561  -4.6004  -1.2543 H              1 S1                 0.0000
     45 ****         0.4102  -1.9772  -1.8523 H              1 S1                 0.0000
     46 ****         2.8591  -1.0790  -2.2342 H              1 S1                 0.0000
     47 ****         2.4245  -2.2450  -3.5040 H              1 S1                 0.0000
     48 ****        -0.0146   2.5010   0.2630 LP             1 S1                 0.0000
     49 ****         1.3954   1.5001   0.3634 LP             1 S1                 0.0000
     50 ****        -2.2336   1.3136  -2.0626 LP             1 S1                 0.0000
     51 ****        -2.8523   2.7137  -2.8730 LP             1 S1                 0.0000
     52 ****        -3.5314   4.5887  -1.7223 LP             1 S1                 0.0000
@<TRIPOS>BOND
    1    1   24 1     
    2    1   25 1     
    3    1   26 1     
    4    1    2 1     
    5    2    3 1     
    6    2   22 2     
    7    3    4 1     
    8    3   23 1     
    9    4    6 2     
   10    4    5 1     
   11    5   27 1     
   12    5   28 1     
   13    5   29 1     
   14    6   20 1     
   15    6    7 1     
   16    7    8 1     
   17    7   30 1     
   18    7   31 1     
   19    8    9 2     
   20    8   10 am    
   21   10   11 1     
   22   10   32 1     
   23   11   12 1     
   24   11   13 1     
   25   11   33 1     
   26   12   34 1     
   27   12   35 1     
   28   12   36 1     
   29   13   18 1     
   30   13   14 1     
   31   13   37 1     
   32   14   15 1     
   33   14   38 1     
   34   14   39 1     
   35   15   19 1     
   36   15   16 1     
   37   15   40 1     
   38   16   17 1     
   39   16   41 1     
   40   16   42 1     
   41   17   18 1     
   42   17   43 1     
   43   17   44 1     
   44   18   19 1     
   45   18   45 1     
   46   19   46 1     
   47   19   47 1     
   48   20   21 2     
   49   20   22 1     
   50    9   48 1     
   51    9   49 1     
   52   21   50 1     
   53   21   51 1     
   54   22   52 1     
@<TRIPOS>SUBSTRUCTURE
      1 S1             1
@<TRIPOS>SET
LONE_PAIRS      STATIC     ATOMS    <user>   **** ""
5 48 49 50 51 52
DONOR_HYDROGENS      STATIC     ATOMS    <user>   **** ""
2 23 32
ATOM$BLUE        STATIC     ATOMS    COLORGROUP SYSTEM
5 48 49 50 51 52
ATOM$RED        STATIC     ATOMS    COLORGROUP SYSTEM
2 23 32
