AV-unprocessed.smi:1978|AV-procd|sdf|7999|dock10
  -GOLD-   2272010183D 1   1.00000     0.00000
 Structure written by MMmdl.
 45 46  0  0  0  0  0  0  0  0  2 V2000
  153.6812  137.4911  156.8419 C   0  0  0  0  0  0  0  0  0  0  0  0
  152.6948  138.1660  155.9516 C   0  0  0  0  0  0  0  0  0  0  0  0
  151.6469  137.7049  155.2052 C   0  0  0  0  0  0  0  0  0  0  0  0
  151.1364  138.8871  154.6065 C   0  0  0  0  0  0  0  0  0  0  0  0
  150.0184  138.8373  153.7354 N   0  0  0  0  0  0  0  0  0  0  0  0
  148.7224  138.7295  154.0733 C   0  0  0  0  0  0  0  0  0  0  0  0
  148.2912  138.6490  155.2239 O   0  0  0  0  0  0  0  0  0  0  0  0
  147.9333  138.7201  152.9890 N   0  0  0  0  0  0  0  0  0  0  0  0
  146.4776  138.6039  153.0188 C   0  0  0  0  0  0  0  0  0  0  0  0
  145.9729  137.2918  153.6897 C   0  0  1  0  0  0  0  0  0  0  0  0
  144.4824  137.4489  154.0822 C   0  0  0  0  0  0  0  0  0  0  0  0
  146.1931  136.0762  152.8291 N   0  3  2  0  0  0  0  0  0  0  0  0
  145.2748  135.9975  151.6510 C   0  0  0  0  0  0  0  0  0  0  0  0
  145.6604  134.8604  150.6904 C   0  0  0  0  0  0  0  0  0  0  0  0
  145.7051  133.5125  151.4104 C   0  0  0  0  0  0  0  0  0  0  0  0
  146.6496  133.6138  152.6114 C   0  0  0  0  0  0  0  0  0  0  0  0
  146.2637  134.7665  153.5623 C   0  0  2  0  0  0  0  0  0  0  0  0
  144.9876  134.4466  154.3732 C   0  0  0  0  0  0  0  0  0  0  0  0
  151.8121  139.9716  154.9539 N   0  0  0  0  0  0  0  0  0  0  0  0
  152.8143  139.5150  155.8184 O   0  0  0  0  0  0  0  0  0  0  0  0
  153.5514  136.4090  156.8179 H   0  0  0  0  0  0  0  0  0  0  0  0
  153.5606  137.8234  157.8731 H   0  0  0  0  0  0  0  0  0  0  0  0
  154.7014  137.7159  156.5302 H   0  0  0  0  0  0  0  0  0  0  0  0
  151.3032  136.6858  155.1068 H   0  0  0  0  0  0  0  0  0  0  0  0
  150.2296  138.8875  152.7498 H   0  0  0  0  0  0  0  0  0  0  0  0
  148.3685  138.7878  152.0803 H   0  0  0  0  0  0  0  0  0  0  0  0
  146.0801  139.4697  153.5493 H   0  0  0  0  0  0  0  0  0  0  0  0
  146.1445  138.6929  151.9856 H   0  0  0  0  0  0  0  0  0  0  0  0
  146.5358  137.1432  154.6120 H   0  0  0  0  0  0  0  0  0  0  0  0
  144.2927  138.3779  154.6184 H   0  0  0  0  0  0  0  0  0  0  0  0
  144.1437  136.6647  154.7572 H   0  0  0  0  0  0  0  0  0  0  0  0
  143.8382  137.4449  153.2025 H   0  0  0  0  0  0  0  0  0  0  0  0
  144.2443  135.8795  151.9876 H   0  0  0  0  0  0  0  0  0  0  0  0
  145.3044  136.9122  151.0643 H   0  0  0  0  0  0  0  0  0  0  0  0
  144.9510  134.8158  149.8634 H   0  0  0  0  0  0  0  0  0  0  0  0
  146.6354  135.0706  150.2481 H   0  0  0  0  0  0  0  0  0  0  0  0
  144.7045  133.2266  151.7361 H   0  0  0  0  0  0  0  0  0  0  0  0
  146.0444  132.7322  150.7285 H   0  0  0  0  0  0  0  0  0  0  0  0
  146.6673  132.6669  153.1524 H   0  0  0  0  0  0  0  0  0  0  0  0
  147.6669  133.7720  152.2504 H   0  0  0  0  0  0  0  0  0  0  0  0
  147.0929  134.8113  154.2656 H   0  0  0  0  0  0  0  0  0  0  0  0
  145.0892  133.4915  154.8890 H   0  0  0  0  0  0  0  0  0  0  0  0
  144.1011  134.3798  153.7434 H   0  0  0  0  0  0  0  0  0  0  0  0
  144.7904  135.1964  155.1386 H   0  0  0  0  0  0  0  0  0  0  0  0
  147.1152  136.2006  152.4364 H   0  0  0  0  0  0  0  0  0  0  0  0
  1  2  1  0  0  0  0
  1 21  1  0  0  0  0
  1 22  1  0  0  0  0
  1 23  1  0  0  0  0
  2 20  1  0  0  0  0
  2  3  2  0  0  0  0
  3  4  1  0  0  0  0
  3 24  1  0  0  0  0
  4  5  1  0  0  0  0
  4 19  2  0  0  0  0
  5  6  1  0  0  0  0
  5 25  1  0  0  0  0
  6  7  2  0  0  0  0
  6  8  1  0  0  0  0
  8  9  1  0  0  0  0
  8 26  1  0  0  0  0
  9 10  1  0  0  0  0
  9 27  1  0  0  0  0
  9 28  1  0  0  0  0
 10 11  1  0  0  0  0
 10 12  1  0  0  0  0
 10 29  1  0  0  0  0
 11 30  1  0  0  0  0
 11 31  1  0  0  0  0
 11 32  1  0  0  0  0
 12 17  1  0  0  0  0
 12 13  1  0  0  0  0
 12 45  1  0  0  0  0
 13 14  1  0  0  0  0
 13 33  1  0  0  0  0
 13 34  1  0  0  0  0
 14 15  1  0  0  0  0
 14 35  1  0  0  0  0
 14 36  1  0  0  0  0
 15 16  1  0  0  0  0
 15 37  1  0  0  0  0
 15 38  1  0  0  0  0
 16 17  1  0  0  0  0
 16 39  1  0  0  0  0
 16 40  1  0  0  0  0
 17 18  1  0  0  0  0
 17 41  1  0  0  0  0
 18 42  1  0  0  0  0
 18 43  1  0  0  0  0
 18 44  1  0  0  0  0
 19 20  1  0  0  0  0
M  CHG  1  12   1
M  END
> <s_m_source_file>
AV-unprocessed.smi

> <i_m_source_file_index>
1978

> <i_lp_mmshare_version>
43012

> <i_f3d_flags>
0

> <s_epik_input>
W0NIM11jMVtjSF1jKG5vMSlbTkhdQyg9TylbTkhdW0NIMl1bQ0BIXShbQ0gzXSlOMltDSDJdW0NIMl1bQ0gyXVtDSDJdW0NASF0yW0NIM10=

> <s_epik_cmdline>
J2VwaWtfcHl0aG9uJywgJy1waCcsICc3LjAnLCAnLXRuJywgJzgnLCAnLW1hJywgJzIwMCcsICctbWV0YWxfYmluZGluZycsICctaW1hZScsICc8aW5maWxlLm1hZT4nLCAnLW9tYWUnLCAnPG91dGZpbGUubWFlPic=

> <r_epik_Ionization_Penalty>
0.00265971

> <r_epik_Ionization_Penalty_Charging>
0.00262393

> <r_epik_Ionization_Penalty_Neutral>
3.57846e-05

> <r_epik_State_Penalty>
0.00182566

> <r_epik_Charging_Adjusted_Penalty>
0.00444959

> <i_epik_Tot_Q>
1

> <i_epik_Tot_abs_Q>
1

> <r_epik_Metal_State_Penalty>
0.0216344

> <b_epik_Metal_Only>
0

> <s_lp_Force_Field>
OPLS_2005

> <r_lp_Energy>
22.4222

> <b_lp_Chiralities_Consistent>
1

> <s_lp_Variant>
AV-unprocessed.smi:1978-8

> <Gold.Version>
5.8.1

> <Gold.Id.Protein>
6NUR|6NUR_protein|mol2

> <Gold.PLP.Fitness>
44.2099

> <Gold.PLP.PLP>
-29.7253

> <Gold.PLP.part.hbond>
-6.0000

> <Gold.PLP.part.metal>
0.0000

> <Gold.PLP.part.buried>
-6.2661

> <Gold.PLP.part.nonpolar>
-19.4599

> <Gold.PLP.part.repulsive>
0.2487

> <Gold.PLP.ligand.clash>
0.0000

> <Gold.PLP.ligand.torsion>
1.1144

> <Gold.PLP.Chemscore.Hbond>
5.5440

> <Gold.PLP.Chemscore.CHOScore>
0.0000

> <Gold.PLP.Chemscore.Metal>
0.0000

> <Gold.Chemscore.Hbonds>
donor molecule, donor type, donor heavy atom, donor atom, acceptor molecule, acceptor atom, score
      L1  H     5    25       P1  7957  0.73
      L1  H     8    26       P1  7957  0.77
      L1  H    12    45       P1  7948  2.00
      P1  H  7989  7998       L1    19  0.91
      P1  H  7997  8008       L1    20  1.00

> <Gold.PLP.Chemscore.Internal.Correction>
0.0814

> <Gold.Rescore>
     Score         DG    S(hbond)    S(metal)    S(lipo)     H(rot)  DE(clash)    DE(int)     intcor
     17.76     -18.86       3.43        0.00      50.35       1.55       0.00       1.10       ----

> <Gold.Chemscore.Fitness>
17.7582

> <Gold.Chemscore.DG>
-18.8636

> <Gold.Chemscore.ZeroCoef>
-5.4800

> <Gold.Chemscore.Hbond>
3.4295

> <Gold.Chemscore.Metal>
0.0000

> <Gold.Chemscore.Lipo>
50.3455

> <Gold.Chemscore.Internal_Hbond>
0.0000

> <Gold.Chemscore.DEClash>
0.0038

> <Gold.Chemscore.DEInternal>
1.1016

> <Gold.Chemscore.Rot>
1.5474

> <Gold.Chemscore.Internal.Correction>
   9.000000E+99

> <Gold.Chemscore.Hbonds>
donor molecule, donor type, donor heavy atom, donor atom, acceptor molecule, acceptor atom, score
      L1  H     5    25       P1  7957  0.34
      L1  H     8    26       P1  7957  0.69
      L1  H    12    45       P1  7948  1.00
      P1  H  7989  7998       L1    19  0.20
      P1  H  7997  8008       L1    20  0.81

> <Gold.Chemscore.Hbond.Weighted>
-11.4544

> <Gold.Chemscore.Metal.Weighted>
-0.0000

> <Gold.Chemscore.Lipo.Weighted>
-5.8904

> <Gold.Chemscore.Internal_Hbond.Weighted>
0.0000

> <Gold.Chemscore.DEClash.Weighted>
0.0038

> <Gold.Chemscore.DEInternal.Weighted>
1.1016

> <Gold.Chemscore.Rot.Weighted>
3.9612

> <Gold.Chemscore.Internal.Correction.Weighted>
   9.000000E+99

> <Gold.Protein.RotatedTorsions>
[ 6907 6896 6895 6894 ] final -120.13 input  -60.11 | X-H torsion
[ 7974 7965 7964 7962 ] final  113.98 input  175.53 | X-H torsion
[ 8008 7997 7996 7995 ] final  -49.05 input   59.86 | X-H torsion
[ 10167 10162 10161 10158 ] final -114.25 input  -65.29 | X-H torsion
[ 10718 10713 10712 10709 ] final  149.29 input   66.30 | X-H torsion
[ 10763 10752 10751 10750 ] final -124.09 input  -60.55 | X-H torsion
[ 11005 11000 10999 10996 ] final -137.16 input  -57.11 | X-H torsion

> <Gold.Protein.ActiveResidues>
 VAL166  LYS551  ARG553  GLY616  TRP617  ASP618  TYR619  PRO620  LYS621  CYS622 
 ASP623  PHE694  ASN695  SER759  ASP760  ASP761  ALA762  ILE779  LEU786  VAL792 
 PHE793  MET794  SER795  GLU796  ALA797  LYS798  CYS799  TRP800  GLU811  SER814 

> <Gold.Protein.RotatedAtoms>
  150.8366  133.8004  159.3077 H   0  0  0  0  0  0  0  0  0  0  0  0  # atno 6907 bound_to 6896
  151.5718  135.1060  160.0006 H   0  0  0  0  0  0  0  0  0  0  0  0  # atno 6908 bound_to 6896
  152.4437  133.7454  159.6721 H   0  0  0  0  0  0  0  0  0  0  0  0  # atno 6909 bound_to 6896
  145.2101  139.2910  143.4273 H   0  0  0  0  0  0  0  0  0  0  0  0  # atno 7974 bound_to 7965
  154.4038  140.1306  156.4439 H   0  0  0  0  0  0  0  0  0  0  0  0  # atno 8008 bound_to 7997
  155.7432  140.3489  155.5094 H   0  0  0  0  0  0  0  0  0  0  0  0  # atno 8009 bound_to 7997
  155.9019  140.1021  157.1333 H   0  0  0  0  0  0  0  0  0  0  0  0  # atno 8010 bound_to 7997
  140.1030  143.4596  152.1800 H   0  0  0  0  0  0  0  0  0  0  0  0  # atno 10167 bound_to 10162
  157.2979  131.0865  151.1412 H   0  0  0  0  0  0  0  0  0  0  0  0  # atno 10718 bound_to 10713
  154.8718  135.4076  154.3048 H   0  0  0  0  0  0  0  0  0  0  0  0  # atno 10763 bound_to 10752
  153.3902  135.7014  153.6506 H   0  0  0  0  0  0  0  0  0  0  0  0  # atno 10764 bound_to 10752
  153.5292  135.3671  155.2639 H   0  0  0  0  0  0  0  0  0  0  0  0  # atno 10765 bound_to 10752
  140.8737  134.2019  157.4635 H   0  0  0  0  0  0  0  0  0  0  0  0  # atno 11005 bound_to 11000
  146.3399  140.2374  142.8595 LP  0  0  0  0  0  0  0  0  0  0  0  0  # atno 17320 bound_to 7965
  144.9864  140.8507  143.5366 LP  0  0  0  0  0  0  0  0  0  0  0  0  # atno 17321 bound_to 7965
  139.5661  144.7435  151.4020 LP  0  0  0  0  0  0  0  0  0  0  0  0  # atno 17342 bound_to 10162
  140.6967  143.7731  150.7338 LP  0  0  0  0  0  0  0  0  0  0  0  0  # atno 17343 bound_to 10162
  157.2783  130.6737  149.6053 LP  0  0  0  0  0  0  0  0  0  0  0  0  # atno 17370 bound_to 10713
  155.9670  130.4458  150.5514 LP  0  0  0  0  0  0  0  0  0  0  0  0  # atno 17371 bound_to 10713
  139.8714  134.9786  156.5003 LP  0  0  0  0  0  0  0  0  0  0  0  0  # atno 17394 bound_to 11000
  140.8543  133.8108  155.9200 LP  0  0  0  0  0  0  0  0  0  0  0  0  # atno 17395 bound_to 11000

$$$$
