AV-unprocessed.smi:1883|AV-procd|sdf|7642|dock3
  -GOLD-   22720 9373D 1   1.00000     0.00000
 Structure written by MMmdl.
 35 37  0  0  0  0  0  0  0  0  1 V2000
  152.6334  139.2889  155.7223 C   0  0  0  0  0  0  0  0  0  0  0  0
  151.2865  139.9372  155.6701 C   0  0  0  0  0  0  0  0  0  0  0  0
  150.6290  140.1177  154.5241 N   0  0  0  0  0  0  0  0  0  0  0  0
  149.4643  140.7356  154.9372 C   0  0  0  0  0  0  0  0  0  0  0  0
  148.3508  141.1886  154.1941 C   0  0  0  0  0  0  0  0  0  0  0  0
  147.2600  141.8020  154.8447 C   0  0  0  0  0  0  0  0  0  0  0  0
  147.2662  141.9703  156.2448 C   0  0  0  0  0  0  0  0  0  0  0  0
  148.3649  141.5242  157.0045 C   0  0  0  0  0  0  0  0  0  0  0  0
  149.4511  140.9134  156.3497 C   0  0  0  0  0  0  0  0  0  0  0  0
  150.6578  140.3777  156.7880 N   0  0  0  0  0  0  0  0  0  0  0  0
  151.1169  140.3169  158.1690 C   0  0  0  0  0  0  0  0  0  0  0  0
  152.5043  140.9604  158.3614 C   0  0  2  0  0  0  0  0  0  0  0  0
  153.4616  139.9620  158.6610 O   0  0  0  0  0  0  0  0  0  0  0  0
  152.4585  142.0585  159.4154 C   0  0  0  0  0  0  0  0  0  0  0  0
  152.8854  141.7990  160.7374 C   0  0  0  0  0  0  0  0  0  0  0  0
  152.8344  142.8117  161.7145 C   0  0  0  0  0  0  0  0  0  0  0  0
  153.2467  142.5543  162.9783 F   0  0  0  0  0  0  0  0  0  0  0  0
  152.3528  144.0908  161.3781 C   0  0  0  0  0  0  0  0  0  0  0  0
  151.9179  144.3548  160.0655 C   0  0  0  0  0  0  0  0  0  0  0  0
  151.9669  143.3426  159.0866 C   0  0  0  0  0  0  0  0  0  0  0  0
  151.5341  143.6113  157.8312 F   0  0  0  0  0  0  0  0  0  0  0  0
  152.9990  139.0852  154.7154 H   0  0  0  0  0  0  0  0  0  0  0  0
  152.5759  138.3454  156.2650 H   0  0  0  0  0  0  0  0  0  0  0  0
  153.3511  139.9406  156.2204 H   0  0  0  0  0  0  0  0  0  0  0  0
  148.3365  141.0641  153.1215 H   0  0  0  0  0  0  0  0  0  0  0  0
  146.4146  142.1452  154.2667 H   0  0  0  0  0  0  0  0  0  0  0  0
  146.4269  142.4415  156.7350 H   0  0  0  0  0  0  0  0  0  0  0  0
  148.3736  141.6511  158.0769 H   0  0  0  0  0  0  0  0  0  0  0  0
  150.3811  140.8337  158.7863 H   0  0  0  0  0  0  0  0  0  0  0  0
  151.1227  139.2813  158.5101 H   0  0  0  0  0  0  0  0  0  0  0  0
  152.8196  141.4036  157.4164 H   0  0  0  0  0  0  0  0  0  0  0  0
  153.0149  139.2237  159.0460 H   0  0  0  0  0  0  0  0  0  0  0  0
  153.2513  140.8195  161.0093 H   0  0  0  0  0  0  0  0  0  0  0  0
  152.3138  144.8679  162.1274 H   0  0  0  0  0  0  0  0  0  0  0  0
  151.5435  145.3350  159.8093 H   0  0  0  0  0  0  0  0  0  0  0  0
  1  2  1  0  0  0  0
  1 22  1  0  0  0  0
  1 23  1  0  0  0  0
  1 24  1  0  0  0  0
  2 10  1  0  0  0  0
  2  3  2  0  0  0  0
  3  4  1  0  0  0  0
  4  9  2  0  0  0  0
  4  5  1  0  0  0  0
  5  6  2  0  0  0  0
  5 25  1  0  0  0  0
  6  7  1  0  0  0  0
  6 26  1  0  0  0  0
  7  8  2  0  0  0  0
  7 27  1  0  0  0  0
  8  9  1  0  0  0  0
  8 28  1  0  0  0  0
  9 10  1  0  0  0  0
 10 11  1  0  0  0  0
 11 12  1  0  0  0  0
 11 29  1  0  0  0  0
 11 30  1  0  0  0  0
 12 13  1  0  0  0  0
 12 14  1  0  0  0  0
 12 31  1  0  0  0  0
 13 32  1  0  0  0  0
 14 20  1  0  0  0  0
 14 15  2  0  0  0  0
 15 16  1  0  0  0  0
 15 33  1  0  0  0  0
 16 17  1  0  0  0  0
 16 18  2  0  0  0  0
 18 19  1  0  0  0  0
 18 34  1  0  0  0  0
 19 20  2  0  0  0  0
 19 35  1  0  0  0  0
 20 21  1  0  0  0  0
M  END
> <s_m_source_file>
AV-unprocessed.smi

> <i_m_source_file_index>
1883

> <i_lp_mmshare_version>
43012

> <i_f3d_flags>
0

> <s_epik_input>
W2NIXTFbY0hdW2NIXVtjSF1jKGMxMiluKGMobjIpW0NIM10pW0NIMl1bQ0BIXShbT0hdKWMzW2NIXWMoRilbY0hdW2NIXWMzRg==

> <s_epik_cmdline>
J2VwaWtfcHl0aG9uJywgJy1waCcsICc3LjAnLCAnLXRuJywgJzgnLCAnLW1hJywgJzIwMCcsICctbWV0YWxfYmluZGluZycsICctaW1hZScsICc8aW5maWxlLm1hZT4nLCAnLW9tYWUnLCAnPG91dGZpbGUubWFlPic=

> <r_epik_Ionization_Penalty>
0.129664

> <r_epik_Ionization_Penalty_Charging>
0

> <r_epik_Ionization_Penalty_Neutral>
0.129664

> <r_epik_State_Penalty>
0.119073

> <r_epik_Charging_Adjusted_Penalty>
0.119073

> <i_epik_Tot_Q>
0

> <i_epik_Tot_abs_Q>
0

> <r_epik_Metal_State_Penalty>
0.000131867

> <b_epik_Metal_Only>
0

> <s_lp_Force_Field>
OPLS_2005

> <r_lp_Energy>
11.5832

> <b_lp_Chiralities_Consistent>
1

> <s_lp_Variant>
AV-unprocessed.smi:1883-1

> <Gold.Version>
5.8.1

> <Gold.Id.Protein>
6NUR|6NUR_protein|mol2

> <Gold.PLP.Fitness>
56.4417

> <Gold.PLP.PLP>
-53.2482

> <Gold.PLP.part.hbond>
-1.9420

> <Gold.PLP.part.metal>
0.0000

> <Gold.PLP.part.buried>
-2.6294

> <Gold.PLP.part.nonpolar>
-48.3775

> <Gold.PLP.part.repulsive>
0.1100

> <Gold.PLP.ligand.clash>
0.0000

> <Gold.PLP.ligand.torsion>
1.3792

> <Gold.PLP.Chemscore.Hbond>
1.9760

> <Gold.PLP.Chemscore.CHOScore>
0.0000

> <Gold.PLP.Chemscore.Metal>
0.0000

> <Gold.Chemscore.Hbonds>
donor molecule, donor type, donor heavy atom, donor atom, acceptor molecule, acceptor atom, score
      P1  H  7989  7998       L1     3  1.00
      P1  H  7997  8010       L1    13  0.91

> <Gold.PLP.Chemscore.Internal.Correction>
0.0238

> <Gold.Rescore>
     Score         DG    S(hbond)    S(metal)    S(lipo)     H(rot)  DE(clash)    DE(int)     intcor
     16.48     -17.71       0.89        0.00     120.23       1.88       0.05       1.18       ----

> <Gold.Chemscore.Fitness>
16.4770

> <Gold.Chemscore.DG>
-17.7070

> <Gold.Chemscore.ZeroCoef>
-5.4800

> <Gold.Chemscore.Hbond>
0.8931

> <Gold.Chemscore.Metal>
0.0000

> <Gold.Chemscore.Lipo>
120.2295

> <Gold.Chemscore.Internal_Hbond>
0.0000

> <Gold.Chemscore.DEClash>
0.0456

> <Gold.Chemscore.DEInternal>
1.1843

> <Gold.Chemscore.Rot>
1.8839

> <Gold.Chemscore.Internal.Correction>
   9.000000E+99

> <Gold.Chemscore.Hbonds>
donor molecule, donor type, donor heavy atom, donor atom, acceptor molecule, acceptor atom, score
      P1  H  7989  7998       L1     3  0.63
      P1  H  7997  8010       L1    13  0.19

> <Gold.Chemscore.Hbond.Weighted>
-2.9829

> <Gold.Chemscore.Metal.Weighted>
-0.0000

> <Gold.Chemscore.Lipo.Weighted>
-14.0668

> <Gold.Chemscore.Internal_Hbond.Weighted>
0.0000

> <Gold.Chemscore.DEClash.Weighted>
0.0456

> <Gold.Chemscore.DEInternal.Weighted>
1.1843

> <Gold.Chemscore.Rot.Weighted>
4.8227

> <Gold.Chemscore.Internal.Correction.Weighted>
   9.000000E+99

> <Gold.Protein.RotatedTorsions>
[ 6907 6896 6895 6894 ] final  -20.37 input  -60.11 | X-H torsion
[ 7974 7965 7964 7962 ] final   22.77 input  175.53 | X-H torsion
[ 8008 7997 7996 7995 ] final   38.80 input   59.86 | X-H torsion
[ 10167 10162 10161 10158 ] final   14.67 input  -65.29 | X-H torsion
[ 10718 10713 10712 10709 ] final  -12.77 input   66.30 | X-H torsion
[ 10763 10752 10751 10750 ] final -120.88 input  -60.55 | X-H torsion
[ 11005 11000 10999 10996 ] final  -72.19 input  -57.11 | X-H torsion

> <Gold.Protein.ActiveResidues>
 VAL166  LYS551  ARG553  GLY616  TRP617  ASP618  TYR619  PRO620  LYS621  CYS622 
 ASP623  PHE694  ASN695  SER759  ASP760  ASP761  ALA762  ILE779  LEU786  VAL792 
 PHE793  MET794  SER795  GLU796  ALA797  LYS798  CYS799  TRP800  GLU811  SER814 

> <Gold.Protein.RotatedAtoms>
  151.2492  135.0616  159.9054 H   0  0  0  0  0  0  0  0  0  0  0  0  # atno 6907 bound_to 6896
  152.5382  134.0351  159.8052 H   0  0  0  0  0  0  0  0  0  0  0  0  # atno 6908 bound_to 6896
  151.0556  133.5538  159.2670 H   0  0  0  0  0  0  0  0  0  0  0  0  # atno 6909 bound_to 6896
  146.2014  139.7838  142.8759 H   0  0  0  0  0  0  0  0  0  0  0  0  # atno 7974 bound_to 7965
  155.2262  140.3335  155.4309 H   0  0  0  0  0  0  0  0  0  0  0  0  # atno 8008 bound_to 7997
  156.2313  140.1852  156.7280 H   0  0  0  0  0  0  0  0  0  0  0  0  # atno 8009 bound_to 7997
  154.5983  140.0627  156.9319 H   0  0  0  0  0  0  0  0  0  0  0  0  # atno 8010 bound_to 7997
  140.5920  143.8776  150.6882 H   0  0  0  0  0  0  0  0  0  0  0  0  # atno 10167 bound_to 10162
  156.6398  130.4925  149.6099 H   0  0  0  0  0  0  0  0  0  0  0  0  # atno 10718 bound_to 10713
  154.8655  135.4187  154.2530 H   0  0  0  0  0  0  0  0  0  0  0  0  # atno 10763 bound_to 10752
  153.3473  135.6997  153.6823 H   0  0  0  0  0  0  0  0  0  0  0  0  # atno 10764 bound_to 10752
  153.5777  135.3579  155.2835 H   0  0  0  0  0  0  0  0  0  0  0  0  # atno 10765 bound_to 10752
  141.1604  133.6839  156.7021 H   0  0  0  0  0  0  0  0  0  0  0  0  # atno 11005 bound_to 11000
  145.3471  141.0300  143.3360 LP  0  0  0  0  0  0  0  0  0  0  0  0  # atno 17320 bound_to 7965
  144.8692  139.5063  143.6776 LP  0  0  0  0  0  0  0  0  0  0  0  0  # atno 17321 bound_to 7965
  140.2302  143.3742  152.1572 LP  0  0  0  0  0  0  0  0  0  0  0  0  # atno 17342 bound_to 10162
  139.5233  144.7070  151.5323 LP  0  0  0  0  0  0  0  0  0  0  0  0  # atno 17343 bound_to 10162
  156.2168  130.6712  151.1327 LP  0  0  0  0  0  0  0  0  0  0  0  0  # atno 17370 bound_to 10713
  157.7174  131.0701  150.6271 LP  0  0  0  0  0  0  0  0  0  0  0  0  # atno 17371 bound_to 10713
  140.2951  134.8209  157.4050 LP  0  0  0  0  0  0  0  0  0  0  0  0  # atno 17394 bound_to 11000
  140.1312  134.5093  155.8104 LP  0  0  0  0  0  0  0  0  0  0  0  0  # atno 17395 bound_to 11000

$$$$
