AV-unprocessed.smi:306|AV-procd|sdf|2283|dock10
  -GOLD-   2262022183D 1   1.00000     0.00000
 Structure written by MMmdl.
 46 48  0  0  0  0  0  0  0  0  2 V2000
  151.9528  145.9197  159.7009 C   0  0  0  0  0  0  0  0  0  0  0  0
  151.6523  144.6733  158.8604 C   0  0  0  0  0  0  0  0  0  0  0  0
  152.2777  143.4383  159.4439 C   0  0  0  0  0  0  0  0  0  0  0  0
  152.8601  143.2716  160.7316 C   0  0  0  0  0  0  0  0  0  0  0  0
  153.2845  141.9726  160.7453 C   0  0  0  0  0  0  0  0  0  0  0  0
  153.9728  141.1957  161.8232 C   0  0  0  0  0  0  0  0  0  0  0  0
  154.2720  142.0290  163.0744 C   0  0  0  0  0  0  0  0  0  0  0  0
  152.9571  141.4341  159.5137 N   0  0  0  0  0  0  0  0  0  0  0  0
  153.1957  140.1307  159.0355 C   0  0  0  0  0  0  0  0  0  0  0  0
  154.2579  139.3994  159.3745 N   0  0  0  0  0  0  0  0  0  0  0  0
  154.0508  138.2246  158.6653 C   0  0  0  0  0  0  0  0  0  0  0  0
  152.8994  138.2779  157.9406 C   0  0  0  0  0  0  0  0  0  0  0  0
  152.4079  137.1695  157.0924 C   0  0  0  0  0  0  0  0  0  0  0  0
  151.3535  137.2646  156.4680 O   0  0  0  0  0  0  0  0  0  0  0  0
  153.2550  136.0918  157.1099 N   0  5  0  0  0  0  0  0  0  0  0  0
  154.4314  135.9966  157.8220 C   0  0  0  0  0  0  0  0  0  0  0  0
  155.1382  134.9888  157.7775 O   0  0  0  0  0  0  0  0  0  0  0  0
  154.8407  137.0443  158.6049 N   0  0  0  0  0  0  0  0  0  0  0  0
  156.0863  136.9698  159.3739 C   0  0  0  0  0  0  0  0  0  0  0  0
  152.3319  139.5333  158.1782 N   0  0  0  0  0  0  0  0  0  0  0  0
  151.0911  140.0941  157.6490 C   0  0  0  0  0  0  0  0  0  0  0  0
  151.3374  141.0189  156.4479 C   0  0  0  0  0  0  0  0  0  0  0  0
  151.2528  140.2830  155.2389 O   0  0  0  0  0  0  0  0  0  0  0  0
  150.0021  139.6387  155.0795 C   0  0  0  0  0  0  0  0  0  0  0  0
  152.3322  142.3305  158.7228 N   0  0  0  0  0  0  0  0  0  0  0  0
  151.4860  146.8035  159.2658 H   0  0  0  0  0  0  0  0  0  0  0  0
  153.0255  146.1057  159.7618 H   0  0  0  0  0  0  0  0  0  0  0  0
  151.5740  145.8087  160.7173 H   0  0  0  0  0  0  0  0  0  0  0  0
  150.5726  144.5409  158.7853 H   0  0  0  0  0  0  0  0  0  0  0  0
  152.0086  144.8266  157.8412 H   0  0  0  0  0  0  0  0  0  0  0  0
  152.9536  143.9975  161.5255 H   0  0  0  0  0  0  0  0  0  0  0  0
  153.3673  140.3322  162.1002 H   0  0  0  0  0  0  0  0  0  0  0  0
  154.9071  140.7910  161.4330 H   0  0  0  0  0  0  0  0  0  0  0  0
  154.7834  141.4288  163.8270 H   0  0  0  0  0  0  0  0  0  0  0  0
  153.3567  142.4141  163.5239 H   0  0  0  0  0  0  0  0  0  0  0  0
  154.9108  142.8797  162.8353 H   0  0  0  0  0  0  0  0  0  0  0  0
  156.0712  136.1115  160.0473 H   0  0  0  0  0  0  0  0  0  0  0  0
  156.2582  137.8559  159.9846 H   0  0  0  0  0  0  0  0  0  0  0  0
  156.9404  136.8627  158.7041 H   0  0  0  0  0  0  0  0  0  0  0  0
  150.4287  139.2803  157.3550 H   0  0  0  0  0  0  0  0  0  0  0  0
  150.5605  140.6221  158.4386 H   0  0  0  0  0  0  0  0  0  0  0  0
  150.6022  141.8245  156.4424 H   0  0  0  0  0  0  0  0  0  0  0  0
  152.3218  141.4805  156.5355 H   0  0  0  0  0  0  0  0  0  0  0  0
  149.9894  139.0941  154.1355 H   0  0  0  0  0  0  0  0  0  0  0  0
  149.1850  140.3609  155.0631 H   0  0  0  0  0  0  0  0  0  0  0  0
  149.8228  138.9238  155.8834 H   0  0  0  0  0  0  0  0  0  0  0  0
  1  2  1  0  0  0  0
  1 26  1  0  0  0  0
  1 27  1  0  0  0  0
  1 28  1  0  0  0  0
  2  3  1  0  0  0  0
  2 29  1  0  0  0  0
  2 30  1  0  0  0  0
  3 25  2  0  0  0  0
  3  4  1  0  0  0  0
  4  5  2  0  0  0  0
  4 31  1  0  0  0  0
  5  6  1  0  0  0  0
  5  8  1  0  0  0  0
  6  7  1  0  0  0  0
  6 32  1  0  0  0  0
  6 33  1  0  0  0  0
  7 34  1  0  0  0  0
  7 35  1  0  0  0  0
  7 36  1  0  0  0  0
  8  9  1  0  0  0  0
  8 25  1  0  0  0  0
  9 20  1  0  0  0  0
  9 10  2  0  0  0  0
 10 11  1  0  0  0  0
 11 18  1  0  0  0  0
 11 12  2  0  0  0  0
 12 13  1  0  0  0  0
 12 20  1  0  0  0  0
 13 14  2  0  0  0  0
 13 15  1  0  0  0  0
 15 16  1  0  0  0  0
 16 17  2  0  0  0  0
 16 18  1  0  0  0  0
 18 19  1  0  0  0  0
 19 37  1  0  0  0  0
 19 38  1  0  0  0  0
 19 39  1  0  0  0  0
 20 21  1  0  0  0  0
 21 22  1  0  0  0  0
 21 40  1  0  0  0  0
 21 41  1  0  0  0  0
 22 23  1  0  0  0  0
 22 42  1  0  0  0  0
 22 43  1  0  0  0  0
 23 24  1  0  0  0  0
 24 44  1  0  0  0  0
 24 45  1  0  0  0  0
 24 46  1  0  0  0  0
M  CHG  1  15  -1
M  END
> <s_m_source_file>
AV-unprocessed.smi

> <i_m_source_file_index>
306

> <i_lp_mmshare_version>
43012

> <i_f3d_flags>
0

> <s_epik_input>
W0NIM11bQ0gyXWMxW2NIXWMoW0NIMl1bQ0gzXSluKG4xKS1jKG4yKW4oW0NIMl1bQ0gyXU9bQ0gzXSljKGMyMyljKD1PKVtuSF1jKD1PKW4zW0NIM10=

> <s_epik_cmdline>
J2VwaWtfcHl0aG9uJywgJy1waCcsICc3LjAnLCAnLXRuJywgJzgnLCAnLW1hJywgJzIwMCcsICctbWV0YWxfYmluZGluZycsICctaW1hZScsICc8aW5maWxlLm1hZT4nLCAnLW9tYWUnLCAnPG91dGZpbGUubWFlPic=

> <r_lp_tautomer_probability>
1

> <r_epik_Ionization_Penalty>
3.98741

> <r_epik_Ionization_Penalty_Charging>
0.0180637

> <r_epik_Ionization_Penalty_Neutral>
3.96934

> <r_epik_State_Penalty>
3.96767

> <r_epik_Charging_Adjusted_Penalty>
3.98573

> <i_epik_Tot_Q>
-1

> <i_epik_Tot_abs_Q>
1

> <r_epik_Metal_State_Penalty>
0.612217

> <b_epik_Metal_Only>
1

> <s_lp_Force_Field>
OPLS_2005

> <r_lp_Energy>
26.8748

> <b_lp_Chiralities_Consistent>
1

> <s_lp_Variant>
AV-unprocessed.smi:306-2

> <Gold.Version>
5.8.1

> <Gold.Id.Protein>
6NUR|6NUR_protein|mol2

> <Gold.PLP.Fitness>
50.8640

> <Gold.PLP.PLP>
-43.1814

> <Gold.PLP.part.hbond>
-2.1475

> <Gold.PLP.part.metal>
0.0000

> <Gold.PLP.part.buried>
-3.3628

> <Gold.PLP.part.nonpolar>
-37.3634

> <Gold.PLP.part.repulsive>
0.0301

> <Gold.PLP.ligand.clash>
0.0000

> <Gold.PLP.ligand.torsion>
1.0988

> <Gold.PLP.Chemscore.Hbond>
3.0000

> <Gold.PLP.Chemscore.CHOScore>
0.0000

> <Gold.PLP.Chemscore.Metal>
0.0000

> <Gold.Chemscore.Hbonds>
donor molecule, donor type, donor heavy atom, donor atom, acceptor molecule, acceptor atom, score
      P1  H  7989  7998       L1    23  1.00
      P1  H 10752 10764       L1    15  1.56

> <Gold.PLP.Chemscore.Internal.Correction>
0.8801

> <Gold.Rescore>
     Score         DG    S(hbond)    S(metal)    S(lipo)     H(rot)  DE(clash)    DE(int)     intcor
     13.25     -18.10       1.63        0.00     100.89       1.81       0.08       4.77       ----

> <Gold.Chemscore.Fitness>
13.2539

> <Gold.Chemscore.DG>
-18.1014

> <Gold.Chemscore.ZeroCoef>
-5.4800

> <Gold.Chemscore.Hbond>
1.6346

> <Gold.Chemscore.Metal>
0.0000

> <Gold.Chemscore.Lipo>
100.8948

> <Gold.Chemscore.Internal_Hbond>
0.0000

> <Gold.Chemscore.DEClash>
0.0754

> <Gold.Chemscore.DEInternal>
4.7720

> <Gold.Chemscore.Rot>
1.8136

> <Gold.Chemscore.Internal.Correction>
   9.000000E+99

> <Gold.Chemscore.Hbonds>
donor molecule, donor type, donor heavy atom, donor atom, acceptor molecule, acceptor atom, score
      P1  H  7989  7998       L1    23  0.38
      P1  H 10752 10764       L1    15  0.10

> <Gold.Chemscore.Hbond.Weighted>
-5.4594

> <Gold.Chemscore.Metal.Weighted>
-0.0000

> <Gold.Chemscore.Lipo.Weighted>
-11.8047

> <Gold.Chemscore.Internal_Hbond.Weighted>
0.0000

> <Gold.Chemscore.DEClash.Weighted>
0.0754

> <Gold.Chemscore.DEInternal.Weighted>
4.7720

> <Gold.Chemscore.Rot.Weighted>
4.6427

> <Gold.Chemscore.Internal.Correction.Weighted>
   9.000000E+99

> <Gold.Protein.RotatedTorsions>
[ 6907 6896 6895 6894 ] final -163.04 input  -60.11 | X-H torsion
[ 7974 7965 7964 7962 ] final   64.82 input  175.53 | X-H torsion
[ 8008 7997 7996 7995 ] final  144.06 input   59.86 | X-H torsion
[ 10167 10162 10161 10158 ] final   21.02 input  -65.29 | X-H torsion
[ 10718 10713 10712 10709 ] final   86.11 input   66.30 | X-H torsion
[ 10763 10752 10751 10750 ] final   25.44 input  -60.55 | X-H torsion
[ 11005 11000 10999 10996 ] final  136.08 input  -57.11 | X-H torsion

> <Gold.Protein.ActiveResidues>
 VAL166  LYS551  ARG553  GLY616  TRP617  ASP618  TYR619  PRO620  LYS621  CYS622 
 ASP623  PHE694  ASN695  SER759  ASP760  ASP761  ALA762  ILE779  LEU786  VAL792 
 PHE793  MET794  SER795  GLU796  ALA797  LYS798  CYS799  TRP800  GLU811  SER814 

> <Gold.Protein.RotatedAtoms>
  151.3898  133.3792  159.2719 H   0  0  0  0  0  0  0  0  0  0  0  0  # atno 6907 bound_to 6896
  150.9513  134.8914  159.7684 H   0  0  0  0  0  0  0  0  0  0  0  0  # atno 6908 bound_to 6896
  152.5113  134.3854  159.9417 H   0  0  0  0  0  0  0  0  0  0  0  0  # atno 6909 bound_to 6896
  145.8458  139.3223  143.0905 H   0  0  0  0  0  0  0  0  0  0  0  0  # atno 7974 bound_to 7965
  156.2917  140.2246  156.4991 H   0  0  0  0  0  0  0  0  0  0  0  0  # atno 8008 bound_to 7997
  154.7705  140.0467  157.1069 H   0  0  0  0  0  0  0  0  0  0  0  0  # atno 8009 bound_to 7997
  154.9880  140.3086  155.4921 H   0  0  0  0  0  0  0  0  0  0  0  0  # atno 8010 bound_to 7997
  140.5459  143.9595  150.6547 H   0  0  0  0  0  0  0  0  0  0  0  0  # atno 10167 bound_to 10162
  157.6924  131.0202  150.2923 H   0  0  0  0  0  0  0  0  0  0  0  0  # atno 10718 bound_to 10713
  153.0691  135.6583  154.0286 H   0  0  0  0  0  0  0  0  0  0  0  0  # atno 10763 bound_to 10752
  153.9936  135.2943  155.3411 H   0  0  0  0  0  0  0  0  0  0  0  0  # atno 10764 bound_to 10752
  154.7060  135.5225  153.8665 H   0  0  0  0  0  0  0  0  0  0  0  0  # atno 10765 bound_to 10752
  140.0022  134.9474  157.0098 H   0  0  0  0  0  0  0  0  0  0  0  0  # atno 11005 bound_to 11000
  145.9414  140.8977  143.0306 LP  0  0  0  0  0  0  0  0  0  0  0  0  # atno 17320 bound_to 7965
  144.6731  140.1554  143.7426 LP  0  0  0  0  0  0  0  0  0  0  0  0  # atno 17321 bound_to 7965
  140.3008  143.3261  152.0973 LP  0  0  0  0  0  0  0  0  0  0  0  0  # atno 17342 bound_to 10162
  139.5007  144.6698  151.6271 LP  0  0  0  0  0  0  0  0  0  0  0  0  # atno 17343 bound_to 10162
  156.3452  130.3822  149.7375 LP  0  0  0  0  0  0  0  0  0  0  0  0  # atno 17370 bound_to 10713
  156.4871  130.8068  151.3079 LP  0  0  0  0  0  0  0  0  0  0  0  0  # atno 17371 bound_to 10713
  140.4706  134.1390  155.7202 LP  0  0  0  0  0  0  0  0  0  0  0  0  # atno 17394 bound_to 11000
  141.1651  133.8719  157.1739 LP  0  0  0  0  0  0  0  0  0  0  0  0  # atno 17395 bound_to 11000

$$$$
