AV-unprocessed.smi:3097|AV-procd|sdf|11798|dock9
  -GOLD-   2272017173D 1   1.00000     0.00000
 Structure written by MMmdl.
 35 35  0  0  0  0  0  0  0  0  2 V2000
  145.2742  132.3590  150.8759 C   0  0  0  0  0  0  0  0  0  0  0  0
  145.5876  133.8564  150.7613 C   0  0  0  0  0  0  0  0  0  0  0  0
  146.0766  134.4745  152.0796 C   0  0  0  0  0  0  0  0  0  0  0  0
  146.2023  135.9365  151.9836 N   0  0  0  0  0  0  0  0  0  0  0  0
  145.2527  136.8403  152.2968 C   0  0  0  0  0  0  0  0  0  0  0  0
  145.4973  138.1550  152.1319 N   0  3  0  0  0  0  0  0  0  0  0  0
  146.7468  138.7350  151.6246 C   0  0  0  0  0  0  0  0  0  0  0  0
  144.0597  136.4327  152.7722 N   0  0  0  0  0  0  0  0  0  0  0  0
  142.9396  137.3078  153.1416 C   0  0  0  0  0  0  0  0  0  0  0  0
  141.7121  136.4895  153.5628 C   0  0  0  0  0  0  0  0  0  0  0  0
  140.5031  137.2890  153.5366 N   0  0  0  0  0  0  0  0  0  0  0  0
  140.3498  138.6029  153.1463 C   0  0  0  0  0  0  0  0  0  0  0  0
  139.0299  138.9193  153.2958 C   0  0  0  0  0  0  0  0  0  0  0  0
  138.4484  137.7189  153.7918 C   0  0  0  0  0  0  0  0  0  0  0  0
  139.3326  136.7444  153.9338 N   0  0  0  0  0  0  0  0  0  0  0  0
  144.9117  131.9659  149.9258 H   0  0  0  0  0  0  0  0  0  0  0  0
  144.5057  132.1738  151.6269 H   0  0  0  0  0  0  0  0  0  0  0  0
  146.1601  131.7873  151.1535 H   0  0  0  0  0  0  0  0  0  0  0  0
  146.3321  134.0119  149.9796 H   0  0  0  0  0  0  0  0  0  0  0  0
  144.6916  134.3840  150.4329 H   0  0  0  0  0  0  0  0  0  0  0  0
  145.3888  134.2294  152.8893 H   0  0  0  0  0  0  0  0  0  0  0  0
  147.0436  134.0533  152.3556 H   0  0  0  0  0  0  0  0  0  0  0  0
  147.0719  136.2811  151.6020 H   0  0  0  0  0  0  0  0  0  0  0  0
  146.6666  139.8210  151.5802 H   0  0  0  0  0  0  0  0  0  0  0  0
  146.9606  138.3631  150.6226 H   0  0  0  0  0  0  0  0  0  0  0  0
  147.5796  138.4769  152.2789 H   0  0  0  0  0  0  0  0  0  0  0  0
  143.9040  135.4400  152.8733 H   0  0  0  0  0  0  0  0  0  0  0  0
  143.2525  137.9600  153.9577 H   0  0  0  0  0  0  0  0  0  0  0  0
  142.6974  137.9459  152.2909 H   0  0  0  0  0  0  0  0  0  0  0  0
  141.5767  135.6321  152.9015 H   0  0  0  0  0  0  0  0  0  0  0  0
  141.8460  136.0950  154.5710 H   0  0  0  0  0  0  0  0  0  0  0  0
  141.1821  139.1971  152.7981 H   0  0  0  0  0  0  0  0  0  0  0  0
  138.5523  139.8646  153.0843 H   0  0  0  0  0  0  0  0  0  0  0  0
  137.4171  137.5275  154.0499 H   0  0  0  0  0  0  0  0  0  0  0  0
  144.7657  138.8088  152.3720 H   0  0  0  0  0  0  0  0  0  0  0  0
  1  2  1  0  0  0  0
  1 16  1  0  0  0  0
  1 17  1  0  0  0  0
  1 18  1  0  0  0  0
  2  3  1  0  0  0  0
  2 19  1  0  0  0  0
  2 20  1  0  0  0  0
  3  4  1  0  0  0  0
  3 21  1  0  0  0  0
  3 22  1  0  0  0  0
  4  5  1  0  0  0  0
  4 23  1  0  0  0  0
  5  6  2  0  0  0  0
  5  8  1  0  0  0  0
  6  7  1  0  0  0  0
  6 35  1  0  0  0  0
  7 24  1  0  0  0  0
  7 25  1  0  0  0  0
  7 26  1  0  0  0  0
  8  9  1  0  0  0  0
  8 27  1  0  0  0  0
  9 10  1  0  0  0  0
  9 28  1  0  0  0  0
  9 29  1  0  0  0  0
 10 11  1  0  0  0  0
 10 30  1  0  0  0  0
 10 31  1  0  0  0  0
 11 15  1  0  0  0  0
 11 12  1  0  0  0  0
 12 13  2  0  0  0  0
 12 32  1  0  0  0  0
 13 14  1  0  0  0  0
 13 33  1  0  0  0  0
 14 15  2  0  0  0  0
 14 34  1  0  0  0  0
M  CHG  1   6   1
M  END
> <s_m_source_file>
AV-unprocessed.smi

> <i_m_source_file_index>
3097

> <i_lp_mmshare_version>
43012

> <i_f3d_flags>
0

> <s_epik_input>
W0NIM11bQ0gyXVtDSDJdW05IXS9DKD1OXFtDSDNdKVtOSF1bQ0gyXVtDSDJdbjFbY0hdW2NIXVtjSF1uMQ==

> <s_epik_cmdline>
J2VwaWtfcHl0aG9uJywgJy1waCcsICc3LjAnLCAnLXRuJywgJzgnLCAnLW1hJywgJzIwMCcsICctbWV0YWxfYmluZGluZycsICctaW1hZScsICc8aW5maWxlLm1hZT4nLCAnLW9tYWUnLCAnPG91dGZpbGUubWFlPic=

> <r_lp_tautomer_probability>
1

> <r_epik_Ionization_Penalty>
4.40305e-05

> <r_epik_Ionization_Penalty_Charging>
1.64417e-07

> <r_epik_Ionization_Penalty_Neutral>
4.38661e-05

> <r_epik_State_Penalty>
-0

> <r_epik_Charging_Adjusted_Penalty>
1.64417e-07

> <i_epik_Tot_Q>
1

> <i_epik_Tot_abs_Q>
1

> <r_epik_Metal_State_Penalty>
-0

> <b_epik_Metal_Only>
0

> <s_epik_Chemistry_Notes>
This compound has an imine and may undergo hydrolysis.

> <s_lp_Force_Field>
OPLS_2005

> <r_lp_Energy>
7.72145

> <b_lp_Chiralities_Consistent>
1

> <s_lp_Variant>
AV-unprocessed.smi:3097-1

> <Gold.Version>
5.8.1

> <Gold.Id.Protein>
6NUR|6NUR_protein|mol2

> <Gold.PLP.Fitness>
45.3355

> <Gold.PLP.PLP>
-31.2576

> <Gold.PLP.part.hbond>
-3.0000

> <Gold.PLP.part.metal>
0.0000

> <Gold.PLP.part.buried>
-2.9090

> <Gold.PLP.part.nonpolar>
-25.0214

> <Gold.PLP.part.repulsive>
0.1746

> <Gold.PLP.ligand.clash>
0.0000

> <Gold.PLP.ligand.torsion>
0.2852

> <Gold.PLP.Chemscore.Hbond>
3.8880

> <Gold.PLP.Chemscore.CHOScore>
0.9878

> <Gold.PLP.Chemscore.Metal>
0.0000

> <Gold.Chemscore.Hbonds>
donor molecule, donor type, donor heavy atom, donor atom, acceptor molecule, acceptor atom, score
      L1  H     4    23       P1  7948  1.73
      L1  H     6    35       P1 10175  2.00
      L1  C    12    32       P1 10160  0.59
      L1  C    12    32       P1 10175  0.52

> <Gold.PLP.Chemscore.Internal.Correction>
0.0208

> <Gold.Rescore>
     Score         DG    S(hbond)    S(metal)    S(lipo)     H(rot)  DE(clash)    DE(int)     intcor
     13.74     -14.04       1.83        0.00      61.47       1.86       0.01       0.28       ----

> <Gold.Chemscore.Fitness>
13.7449

> <Gold.Chemscore.DG>
-14.0365

> <Gold.Chemscore.ZeroCoef>
-5.4800

> <Gold.Chemscore.Hbond>
1.8313

> <Gold.Chemscore.Metal>
0.0000

> <Gold.Chemscore.Lipo>
61.4680

> <Gold.Chemscore.Internal_Hbond>
0.0000

> <Gold.Chemscore.DEClash>
0.0106

> <Gold.Chemscore.DEInternal>
0.2809

> <Gold.Chemscore.Rot>
1.8561

> <Gold.Chemscore.Internal.Correction>
   9.000000E+99

> <Gold.Chemscore.Hbonds>
donor molecule, donor type, donor heavy atom, donor atom, acceptor molecule, acceptor atom, score
      L1  H     4    23       P1  7948  0.85
      L1  H     6    35       P1 10175  0.98

> <Gold.Chemscore.Hbond.Weighted>
-6.1164

> <Gold.Chemscore.Metal.Weighted>
-0.0000

> <Gold.Chemscore.Lipo.Weighted>
-7.1918

> <Gold.Chemscore.Internal_Hbond.Weighted>
0.0000

> <Gold.Chemscore.DEClash.Weighted>
0.0106

> <Gold.Chemscore.DEInternal.Weighted>
0.2809

> <Gold.Chemscore.Rot.Weighted>
4.7517

> <Gold.Chemscore.Internal.Correction.Weighted>
   9.000000E+99

> <Gold.Protein.RotatedTorsions>
[ 6907 6896 6895 6894 ] final  159.73 input  -60.11 | X-H torsion
[ 7974 7965 7964 7962 ] final   15.17 input  175.53 | X-H torsion
[ 8008 7997 7996 7995 ] final   89.71 input   59.86 | X-H torsion
[ 10167 10162 10161 10158 ] final   93.90 input  -65.29 | X-H torsion
[ 10718 10713 10712 10709 ] final   71.79 input   66.30 | X-H torsion
[ 10763 10752 10751 10750 ] final -148.04 input  -60.55 | X-H torsion
[ 11005 11000 10999 10996 ] final  -88.35 input  -57.11 | X-H torsion

> <Gold.Protein.ActiveResidues>
 VAL166  LYS551  ARG553  GLY616  TRP617  ASP618  TYR619  PRO620  LYS621  CYS622 
 ASP623  PHE694  ASN695  SER759  ASP760  ASP761  ALA762  ILE779  LEU786  VAL792 
 PHE793  MET794  SER795  GLU796  ALA797  LYS798  CYS799  TRP800  GLU811  SER814 

> <Gold.Protein.RotatedAtoms>
  151.9812  133.3758  159.4108 H   0  0  0  0  0  0  0  0  0  0  0  0  # atno 6907 bound_to 6896
  150.6934  134.4036  159.5139 H   0  0  0  0  0  0  0  0  0  0  0  0  # atno 6908 bound_to 6896
  152.1755  134.8798  160.0581 H   0  0  0  0  0  0  0  0  0  0  0  0  # atno 6909 bound_to 6896
  146.2285  139.8933  142.8551 H   0  0  0  0  0  0  0  0  0  0  0  0  # atno 7974 bound_to 7965
  156.0032  140.3357  155.6866 H   0  0  0  0  0  0  0  0  0  0  0  0  # atno 8008 bound_to 7997
  155.6261  140.0680  157.2681 H   0  0  0  0  0  0  0  0  0  0  0  0  # atno 8009 bound_to 7997
  154.4256  140.1768  156.1410 H   0  0  0  0  0  0  0  0  0  0  0  0  # atno 8010 bound_to 7997
  139.8135  144.6763  150.9609 H   0  0  0  0  0  0  0  0  0  0  0  0  # atno 10167 bound_to 10162
  157.6469  130.9546  150.0838 H   0  0  0  0  0  0  0  0  0  0  0  0  # atno 10718 bound_to 10713
  154.8254  135.3345  154.6912 H   0  0  0  0  0  0  0  0  0  0  0  0  # atno 10763 bound_to 10752
  153.7538  135.6937  153.4944 H   0  0  0  0  0  0  0  0  0  0  0  0  # atno 10764 bound_to 10752
  153.2157  135.4466  155.0382 H   0  0  0  0  0  0  0  0  0  0  0  0  # atno 10765 bound_to 10752
  141.1603  133.7565  156.9438 H   0  0  0  0  0  0  0  0  0  0  0  0  # atno 11005 bound_to 11000
  145.2396  141.0004  143.3943 LP  0  0  0  0  0  0  0  0  0  0  0  0  # atno 17320 bound_to 7965
  144.9463  139.4132  143.6424 LP  0  0  0  0  0  0  0  0  0  0  0  0  # atno 17321 bound_to 7965
  140.7817  143.4161  151.0915 LP  0  0  0  0  0  0  0  0  0  0  0  0  # atno 17342 bound_to 10162
  139.7826  143.8333  152.3140 LP  0  0  0  0  0  0  0  0  0  0  0  0  # atno 17343 bound_to 10162
  156.1807  130.3650  149.9040 LP  0  0  0  0  0  0  0  0  0  0  0  0  # atno 17370 bound_to 10713
  156.6993  130.8926  151.3597 LP  0  0  0  0  0  0  0  0  0  0  0  0  # atno 17371 bound_to 10713
  140.1303  134.9360  157.2328 LP  0  0  0  0  0  0  0  0  0  0  0  0  # atno 17394 bound_to 11000
  140.2961  134.3185  155.7302 LP  0  0  0  0  0  0  0  0  0  0  0  0  # atno 17395 bound_to 11000

$$$$
