AV-unprocessed.smi:1920|AV-procd|sdf|7783|dock4
  -GOLD-   22720 9523D 1   1.00000     0.00000
 Structure written by MMmdl.
 36 37  0  0  0  0  0  0  0  0  1 V2000
  147.9428  141.4829  154.2298 C   0  0  0  0  0  0  0  0  0  0  0  0
  149.3725  141.0770  154.6352 C   0  0  2  0  0  0  0  0  0  0  0  0
  149.5097  139.5725  154.9422 C   0  0  0  0  0  0  0  0  0  0  0  0
  150.8908  139.1515  155.0855 N   0  0  0  0  0  0  0  0  0  0  0  0
  151.5584  138.2017  154.3235 C   0  0  0  0  0  0  0  0  0  0  0  0
  152.8429  138.1367  154.8140 C   0  0  0  0  0  0  0  0  0  0  0  0
  152.9884  139.0353  155.8682 N   0  0  0  0  0  0  0  0  0  0  0  0
  151.7926  139.6016  155.9687 C   0  0  0  0  0  0  0  0  0  0  0  0
  149.8028  141.8413  155.8026 N   0  0  0  0  0  0  0  0  0  0  0  0
  149.2362  141.7923  157.0183 C   0  0  0  0  0  0  0  0  0  0  0  0
  148.2666  141.0828  157.2857 O   0  0  0  0  0  0  0  0  0  0  0  0
  149.8608  142.6811  158.0990 C   0  0  0  0  0  0  0  0  0  0  0  0
  151.3833  142.4783  158.2604 C   0  0  1  0  0  0  0  0  0  0  0  0
  152.0882  143.6584  158.8851 C   0  0  0  0  0  0  0  0  0  0  0  0
  152.8126  143.3205  159.9492 C   0  0  0  0  0  0  0  0  0  0  0  0
  152.7394  141.8499  160.2524 C   0  0  0  0  0  0  0  0  0  0  0  0
  151.7441  141.3028  159.2047 C   0  0  0  0  0  0  0  0  0  0  0  0
  147.6253  140.9729  153.3202 H   0  0  0  0  0  0  0  0  0  0  0  0
  147.8753  142.5538  154.0355 H   0  0  0  0  0  0  0  0  0  0  0  0
  147.2258  141.2420  155.0152 H   0  0  0  0  0  0  0  0  0  0  0  0
  150.0410  141.3095  153.8039 H   0  0  0  0  0  0  0  0  0  0  0  0
  148.9846  139.3256  155.8661 H   0  0  0  0  0  0  0  0  0  0  0  0
  149.0465  138.9796  154.1518 H   0  0  0  0  0  0  0  0  0  0  0  0
  151.0767  137.6645  153.5196 H   0  0  0  0  0  0  0  0  0  0  0  0
  153.6676  137.5187  154.4906 H   0  0  0  0  0  0  0  0  0  0  0  0
  151.5666  140.3590  156.7050 H   0  0  0  0  0  0  0  0  0  0  0  0
  150.5957  142.4538  155.6773 H   0  0  0  0  0  0  0  0  0  0  0  0
  149.6513  143.7289  157.8770 H   0  0  0  0  0  0  0  0  0  0  0  0
  149.3614  142.4618  159.0433 H   0  0  0  0  0  0  0  0  0  0  0  0
  151.8380  142.3065  157.2834 H   0  0  0  0  0  0  0  0  0  0  0  0
  152.0103  144.6580  158.4825 H   0  0  0  0  0  0  0  0  0  0  0  0
  153.4063  144.0015  160.5406 H   0  0  0  0  0  0  0  0  0  0  0  0
  153.7263  141.3988  160.1450 H   0  0  0  0  0  0  0  0  0  0  0  0
  152.3880  141.6849  161.2713 H   0  0  0  0  0  0  0  0  0  0  0  0
  150.8560  140.9185  159.7081 H   0  0  0  0  0  0  0  0  0  0  0  0
  152.1769  140.4711  158.6479 H   0  0  0  0  0  0  0  0  0  0  0  0
  1  2  1  0  0  0  0
  1 18  1  0  0  0  0
  1 19  1  0  0  0  0
  1 20  1  0  0  0  0
  2  3  1  0  0  0  0
  2  9  1  0  0  0  0
  2 21  1  0  0  0  0
  3  4  1  0  0  0  0
  3 22  1  0  0  0  0
  3 23  1  0  0  0  0
  4  8  1  0  0  0  0
  4  5  1  0  0  0  0
  5  6  2  0  0  0  0
  5 24  1  0  0  0  0
  6  7  1  0  0  0  0
  6 25  1  0  0  0  0
  7  8  2  0  0  0  0
  8 26  1  0  0  0  0
  9 10  1  0  0  0  0
  9 27  1  0  0  0  0
 10 11  2  0  0  0  0
 10 12  1  0  0  0  0
 12 13  1  0  0  0  0
 12 28  1  0  0  0  0
 12 29  1  0  0  0  0
 13 17  1  0  0  0  0
 13 14  1  0  0  0  0
 13 30  1  0  0  0  0
 14 15  2  0  0  0  0
 14 31  1  0  0  0  0
 15 16  1  0  0  0  0
 15 32  1  0  0  0  0
 16 17  1  0  0  0  0
 16 33  1  0  0  0  0
 16 34  1  0  0  0  0
 17 35  1  0  0  0  0
 17 36  1  0  0  0  0
M  END
> <s_m_source_file>
AV-unprocessed.smi

> <i_m_source_file_index>
1920

> <i_lp_mmshare_version>
43012

> <i_f3d_flags>
0

> <s_epik_input>
W2NIXTFuW2NIXVtjSF1uMVtDSDJdW0NAQEhdKFtDSDNdKVtOSF1DKD1PKVtDSDJdW0NAQEhdMltDSF09W0NIXVtDSDJdW0NIMl0y

> <s_epik_cmdline>
J2VwaWtfcHl0aG9uJywgJy1waCcsICc3LjAnLCAnLXRuJywgJzgnLCAnLW1hJywgJzIwMCcsICctbWV0YWxfYmluZGluZycsICctaW1hZScsICc8aW5maWxlLm1hZT4nLCAnLW9tYWUnLCAnPG91dGZpbGUubWFlPic=

> <r_lp_tautomer_probability>
1

> <r_epik_Ionization_Penalty>
0.635367

> <r_epik_Ionization_Penalty_Charging>
0.635367

> <r_epik_Ionization_Penalty_Neutral>
2.1249e-08

> <r_epik_State_Penalty>
0.65258

> <r_epik_Charging_Adjusted_Penalty>
1.28795

> <i_epik_Tot_Q>
0

> <i_epik_Tot_abs_Q>
0

> <r_epik_Metal_State_Penalty>
0.310403

> <b_epik_Metal_Only>
0

> <s_lp_Force_Field>
OPLS_2005

> <r_lp_Energy>
18.7511

> <b_lp_Chiralities_Consistent>
1

> <s_lp_Variant>
AV-unprocessed.smi:1920-7

> <Gold.Version>
5.8.1

> <Gold.Id.Protein>
6NUR|6NUR_protein|mol2

> <Gold.PLP.Fitness>
45.5082

> <Gold.PLP.PLP>
-40.1765

> <Gold.PLP.part.hbond>
-2.0000

> <Gold.PLP.part.metal>
0.0000

> <Gold.PLP.part.buried>
-4.2865

> <Gold.PLP.part.nonpolar>
-34.2623

> <Gold.PLP.part.repulsive>
0.1850

> <Gold.PLP.ligand.clash>
0.0000

> <Gold.PLP.ligand.torsion>
0.3538

> <Gold.PLP.Chemscore.Hbond>
1.0000

> <Gold.PLP.Chemscore.CHOScore>
0.9951

> <Gold.PLP.Chemscore.Metal>
0.0000

> <Gold.Chemscore.Hbonds>
donor molecule, donor type, donor heavy atom, donor atom, acceptor molecule, acceptor atom, score
      P1  H  7997  8010       L1     7  1.00
      L1  C     5    24       P1  7949  0.75

> <Gold.PLP.Chemscore.Internal.Correction>
0.0539

> <Gold.Rescore>
     Score         DG    S(hbond)    S(metal)    S(lipo)     H(rot)  DE(clash)    DE(int)     intcor
     13.83     -15.28       0.90        0.00     100.18       1.93       0.05       1.41       ----

> <Gold.Chemscore.Fitness>
13.8269

> <Gold.Chemscore.DG>
-15.2789

> <Gold.Chemscore.ZeroCoef>
-5.4800

> <Gold.Chemscore.Hbond>
0.9042

> <Gold.Chemscore.Metal>
0.0000

> <Gold.Chemscore.Lipo>
100.1811

> <Gold.Chemscore.Internal_Hbond>
0.0000

> <Gold.Chemscore.DEClash>
0.0461

> <Gold.Chemscore.DEInternal>
1.4058

> <Gold.Chemscore.Rot>
1.9306

> <Gold.Chemscore.Internal.Correction>
   9.000000E+99

> <Gold.Chemscore.Hbonds>
donor molecule, donor type, donor heavy atom, donor atom, acceptor molecule, acceptor atom, score
      P1  H  7997  8010       L1     7  0.91

> <Gold.Chemscore.Hbond.Weighted>
-3.0201

> <Gold.Chemscore.Metal.Weighted>
-0.0000

> <Gold.Chemscore.Lipo.Weighted>
-11.7212

> <Gold.Chemscore.Internal_Hbond.Weighted>
0.0000

> <Gold.Chemscore.DEClash.Weighted>
0.0461

> <Gold.Chemscore.DEInternal.Weighted>
1.4058

> <Gold.Chemscore.Rot.Weighted>
4.9424

> <Gold.Chemscore.Internal.Correction.Weighted>
   9.000000E+99

> <Gold.Protein.RotatedTorsions>
[ 6907 6896 6895 6894 ] final  122.19 input  -60.11 | X-H torsion
[ 7974 7965 7964 7962 ] final  104.14 input  175.53 | X-H torsion
[ 8008 7997 7996 7995 ] final   96.75 input   59.86 | X-H torsion
[ 10167 10162 10161 10158 ] final   21.71 input  -65.29 | X-H torsion
[ 10718 10713 10712 10709 ] final   73.49 input   66.30 | X-H torsion
[ 10763 10752 10751 10750 ] final  -67.77 input  -60.55 | X-H torsion
[ 11005 11000 10999 10996 ] final   79.81 input  -57.11 | X-H torsion

> <Gold.Protein.ActiveResidues>
 VAL166  LYS551  ARG553  GLY616  TRP617  ASP618  TYR619  PRO620  LYS621  CYS622 
 ASP623  PHE694  ASN695  SER759  ASP760  ASP761  ALA762  ILE779  LEU786  VAL792 
 PHE793  MET794  SER795  GLU796  ALA797  LYS798  CYS799  TRP800  GLU811  SER814 

> <Gold.Protein.RotatedAtoms>
  152.4263  133.7200  159.6527 H   0  0  0  0  0  0  0  0  0  0  0  0  # atno 6907 bound_to 6896
  150.8139  133.8360  159.3175 H   0  0  0  0  0  0  0  0  0  0  0  0  # atno 6908 bound_to 6896
  151.6062  135.1046  160.0123 H   0  0  0  0  0  0  0  0  0  0  0  0  # atno 6909 bound_to 6896
  145.3367  139.2472  143.3631 H   0  0  0  0  0  0  0  0  0  0  0  0  # atno 7974 bound_to 7965
  156.0829  140.3268  155.7717 H   0  0  0  0  0  0  0  0  0  0  0  0  # atno 8008 bound_to 7997
  155.5123  140.0578  157.2938 H   0  0  0  0  0  0  0  0  0  0  0  0  # atno 8009 bound_to 7997
  154.4592  140.1958  156.0308 H   0  0  0  0  0  0  0  0  0  0  0  0  # atno 8010 bound_to 7997
  140.5405  143.9685  150.6517 H   0  0  0  0  0  0  0  0  0  0  0  0  # atno 10167 bound_to 10162
  157.6550  130.9631  150.1077 H   0  0  0  0  0  0  0  0  0  0  0  0  # atno 10718 bound_to 10713
  154.3793  135.6077  153.5782 H   0  0  0  0  0  0  0  0  0  0  0  0  # atno 10763 bound_to 10752
  152.9788  135.5857  154.4429 H   0  0  0  0  0  0  0  0  0  0  0  0  # atno 10764 bound_to 10752
  154.4196  135.2845  155.1962 H   0  0  0  0  0  0  0  0  0  0  0  0  # atno 10765 bound_to 10752
  139.9158  134.7871  156.1827 H   0  0  0  0  0  0  0  0  0  0  0  0  # atno 11005 bound_to 11000
  146.3024  140.3956  142.8699 LP  0  0  0  0  0  0  0  0  0  0  0  0  # atno 17320 bound_to 7965
  144.8822  140.7415  143.5979 LP  0  0  0  0  0  0  0  0  0  0  0  0  # atno 17321 bound_to 7965
  140.3084  143.3214  152.0903 LP  0  0  0  0  0  0  0  0  0  0  0  0  # atno 17342 bound_to 10162
  139.4987  144.6652  151.6373 LP  0  0  0  0  0  0  0  0  0  0  0  0  # atno 17343 bound_to 10162
  156.1982  130.3658  149.8822 LP  0  0  0  0  0  0  0  0  0  0  0  0  # atno 17370 bound_to 10713
  156.6733  130.8829  151.3565 LP  0  0  0  0  0  0  0  0  0  0  0  0  # atno 17371 bound_to 10713
  141.0632  133.6831  156.1994 LP  0  0  0  0  0  0  0  0  0  0  0  0  # atno 17394 bound_to 11000
  140.6627  134.4951  157.5584 LP  0  0  0  0  0  0  0  0  0  0  0  0  # atno 17395 bound_to 11000

$$$$
