AV-unprocessed.smi:657|AV-procd|sdf|3227|dock2
  -GOLD-   22720 0163D 1   1.00000     0.00000
 Structure written by MMmdl.
 46 47  0  0  0  0  0  0  0  0  3 V2000
  149.1274  137.6179  156.6607 C   0  0  0  0  0  0  0  0  0  0  0  0
  149.7317  137.9652  155.2829 C   0  0  0  0  0  0  0  0  0  0  0  0
  151.1890  138.4246  155.4982 C   0  0  0  0  0  0  0  0  0  0  0  0
  148.9164  138.9809  154.5314 N   0  3  1  0  0  0  0  0  0  0  0  0
  147.4369  138.7726  154.6343 C   0  0  0  0  0  0  0  0  0  0  0  0
  146.6379  139.7391  153.7429 C   0  0  0  0  0  0  0  0  0  0  0  0
  147.0038  141.1975  154.0208 C   0  0  0  0  0  0  0  0  0  0  0  0
  148.5141  141.3698  153.8351 C   0  0  0  0  0  0  0  0  0  0  0  0
  149.3290  140.4137  154.7361 C   0  0  1  0  0  0  0  0  0  0  0  0
  149.3321  140.8950  156.2089 C   0  0  0  0  0  0  0  0  0  0  0  0
  148.2592  141.0185  156.8091 O   0  0  0  0  0  0  0  0  0  0  0  0
  150.6014  141.1508  156.6329 N   0  5  0  0  0  0  0  0  0  0  0  0
  150.9412  141.5381  158.0038 C   0  0  0  0  0  0  0  0  0  0  0  0
  151.8512  142.7885  158.0117 C   0  0  0  0  0  0  0  0  0  0  0  0
  152.1070  143.3551  159.3914 C   0  0  0  0  0  0  0  0  0  0  0  0
  151.9681  144.7019  159.8407 C   0  0  0  0  0  0  0  0  0  0  0  0
  152.3040  144.8601  161.1109 N   0  0  0  0  0  0  0  0  0  0  0  0
  152.6596  143.6252  161.5195 N   0  0  0  0  0  0  0  0  0  0  0  0
  153.1036  143.4228  162.8815 C   0  0  0  0  0  0  0  0  0  0  0  0
  152.5358  142.6963  160.5102 C   0  0  0  0  0  0  0  0  0  0  0  0
  149.7867  136.9553  157.2220 H   0  0  0  0  0  0  0  0  0  0  0  0
  148.1763  137.0928  156.5763 H   0  0  0  0  0  0  0  0  0  0  0  0
  148.9701  138.5126  157.2639 H   0  0  0  0  0  0  0  0  0  0  0  0
  149.7670  137.0468  154.6957 H   0  0  0  0  0  0  0  0  0  0  0  0
  151.7236  137.7378  156.1551 H   0  0  0  0  0  0  0  0  0  0  0  0
  151.2321  139.4140  155.9546 H   0  0  0  0  0  0  0  0  0  0  0  0
  151.7566  138.4500  154.5687 H   0  0  0  0  0  0  0  0  0  0  0  0
  147.1703  137.7685  154.3112 H   0  0  0  0  0  0  0  0  0  0  0  0
  147.1082  138.8529  155.6697 H   0  0  0  0  0  0  0  0  0  0  0  0
  146.8296  139.5096  152.6940 H   0  0  0  0  0  0  0  0  0  0  0  0
  145.5692  139.5896  153.8998 H   0  0  0  0  0  0  0  0  0  0  0  0
  146.4635  141.8588  153.3432 H   0  0  0  0  0  0  0  0  0  0  0  0
  146.7054  141.4767  155.0319 H   0  0  0  0  0  0  0  0  0  0  0  0
  148.7698  141.1827  152.7913 H   0  0  0  0  0  0  0  0  0  0  0  0
  148.7945  142.4064  154.0251 H   0  0  0  0  0  0  0  0  0  0  0  0
  150.3484  140.4906  154.3555 H   0  0  0  0  0  0  0  0  0  0  0  0
  150.0596  141.7333  158.6161 H   0  0  0  0  0  0  0  0  0  0  0  0
  151.4654  140.7282  158.5112 H   0  0  0  0  0  0  0  0  0  0  0  0
  152.7976  142.5253  157.5392 H   0  0  0  0  0  0  0  0  0  0  0  0
  151.4120  143.5486  157.3644 H   0  0  0  0  0  0  0  0  0  0  0  0
  151.6489  145.5665  159.2775 H   0  0  0  0  0  0  0  0  0  0  0  0
  153.5192  142.4209  162.9928 H   0  0  0  0  0  0  0  0  0  0  0  0
  152.2609  143.5376  163.5638 H   0  0  0  0  0  0  0  0  0  0  0  0
  153.8732  144.1532  163.1333 H   0  0  0  0  0  0  0  0  0  0  0  0
  152.7776  141.6547  160.6616 H   0  0  0  0  0  0  0  0  0  0  0  0
  149.1259  138.8055  153.5597 H   0  0  0  0  0  0  0  0  0  0  0  0
  1  2  1  0  0  0  0
  1 21  1  0  0  0  0
  1 22  1  0  0  0  0
  1 23  1  0  0  0  0
  2  3  1  0  0  0  0
  2  4  1  0  0  0  0
  2 24  1  0  0  0  0
  3 25  1  0  0  0  0
  3 26  1  0  0  0  0
  3 27  1  0  0  0  0
  4  9  1  0  0  0  0
  4  5  1  0  0  0  0
  4 46  1  0  0  0  0
  5  6  1  0  0  0  0
  5 28  1  0  0  0  0
  5 29  1  0  0  0  0
  6  7  1  0  0  0  0
  6 30  1  0  0  0  0
  6 31  1  0  0  0  0
  7  8  1  0  0  0  0
  7 32  1  0  0  0  0
  7 33  1  0  0  0  0
  8  9  1  0  0  0  0
  8 34  1  0  0  0  0
  8 35  1  0  0  0  0
  9 10  1  0  0  0  0
  9 36  1  0  0  0  0
 10 11  2  0  0  0  0
 10 12  1  0  0  0  0
 12 13  1  0  0  0  0
 13 14  1  0  0  0  0
 13 37  1  0  0  0  0
 13 38  1  0  0  0  0
 14 15  1  0  0  0  0
 14 39  1  0  0  0  0
 14 40  1  0  0  0  0
 15 20  2  0  0  0  0
 15 16  1  0  0  0  0
 16 17  2  0  0  0  0
 16 41  1  0  0  0  0
 17 18  1  0  0  0  0
 18 19  1  0  0  0  0
 18 20  1  0  0  0  0
 19 42  1  0  0  0  0
 19 43  1  0  0  0  0
 19 44  1  0  0  0  0
 20 45  1  0  0  0  0
M  CHG  1   4   1
M  CHG  1  12  -1
M  END
> <s_m_source_file>
AV-unprocessed.smi

> <i_m_source_file_index>
657

> <i_lp_mmshare_version>
43012

> <i_f3d_flags>
0

> <s_epik_input>
W0NIM11bQ0hdKFtDSDNdKU4xW0NIMl1bQ0gyXVtDSDJdW0NIMl1bQ0BIXTFDKD1PKVtOSF1bQ0gyXVtDSDJdYzJbY0hdbm4oW0NIM10pW2NIXTI=

> <s_epik_cmdline>
J2VwaWtfcHl0aG9uJywgJy1waCcsICc3LjAnLCAnLXRuJywgJzgnLCAnLW1hJywgJzIwMCcsICctbWV0YWxfYmluZGluZycsICctaW1hZScsICc8aW5maWxlLm1hZT4nLCAnLW9tYWUnLCAnPG91dGZpbGUubWFlPic=

> <r_lp_tautomer_probability>
1

> <r_epik_Ionization_Penalty>
6.1622

> <r_epik_Ionization_Penalty_Charging>
6.16146

> <r_epik_Ionization_Penalty_Neutral>
0.00073675

> <r_epik_State_Penalty>
6.18018

> <r_epik_Charging_Adjusted_Penalty>
12.3416

> <i_epik_Tot_Q>
0

> <i_epik_Tot_abs_Q>
2

> <r_epik_Metal_State_Penalty>
2.12232

> <b_epik_Metal_Only>
1

> <s_lp_Force_Field>
OPLS_2005

> <r_lp_Energy>
12.187

> <b_lp_Chiralities_Consistent>
1

> <s_lp_Variant>
AV-unprocessed.smi:657-8

> <Gold.Version>
5.8.1

> <Gold.Id.Protein>
6NUR|6NUR_protein|mol2

> <Gold.PLP.Fitness>
45.5821

> <Gold.PLP.PLP>
-43.8454

> <Gold.PLP.part.hbond>
-1.0000

> <Gold.PLP.part.metal>
0.0000

> <Gold.PLP.part.buried>
-3.6487

> <Gold.PLP.part.nonpolar>
-39.2887

> <Gold.PLP.part.repulsive>
0.3596

> <Gold.PLP.ligand.clash>
0.0000

> <Gold.PLP.ligand.torsion>
0.7685

> <Gold.PLP.Chemscore.Hbond>
1.0000

> <Gold.PLP.Chemscore.CHOScore>
0.0000

> <Gold.PLP.Chemscore.Metal>
0.0000

> <Gold.PLP.Chemscore.Internal.Correction>
0.2737

> <Gold.Rescore>
     Score         DG    S(hbond)    S(metal)    S(lipo)     H(rot)  DE(clash)    DE(int)     intcor
     17.25     -17.98       0.99        0.00     112.92       1.57       0.20       0.54       ----

> <Gold.Chemscore.Fitness>
17.2506

> <Gold.Chemscore.DG>
-17.9844

> <Gold.Chemscore.ZeroCoef>
-5.4800

> <Gold.Chemscore.Hbond>
0.9946

> <Gold.Chemscore.Metal>
0.0000

> <Gold.Chemscore.Lipo>
112.9250

> <Gold.Chemscore.Internal_Hbond>
0.0000

> <Gold.Chemscore.DEClash>
0.1973

> <Gold.Chemscore.DEInternal>
0.5366

> <Gold.Chemscore.Rot>
1.5741

> <Gold.Chemscore.Internal.Correction>
   9.000000E+99

> <Gold.Chemscore.Hbond.Weighted>
-3.3219

> <Gold.Chemscore.Metal.Weighted>
-0.0000

> <Gold.Chemscore.Lipo.Weighted>
-13.2122

> <Gold.Chemscore.Internal_Hbond.Weighted>
0.0000

> <Gold.Chemscore.DEClash.Weighted>
0.1973

> <Gold.Chemscore.DEInternal.Weighted>
0.5366

> <Gold.Chemscore.Rot.Weighted>
4.0297

> <Gold.Chemscore.Internal.Correction.Weighted>
   9.000000E+99

> <Gold.Protein.RotatedTorsions>
[ 6907 6896 6895 6894 ] final  140.66 input  -60.11 | X-H torsion
[ 7974 7965 7964 7962 ] final   60.39 input  175.53 | X-H torsion
[ 8008 7997 7996 7995 ] final  -16.36 input   59.86 | X-H torsion
[ 10167 10162 10161 10158 ] final  149.13 input  -65.29 | X-H torsion
[ 10718 10713 10712 10709 ] final   -0.06 input   66.30 | X-H torsion
[ 10763 10752 10751 10750 ] final  -49.47 input  -60.55 | X-H torsion
[ 11005 11000 10999 10996 ] final  176.05 input  -57.11 | X-H torsion

> <Gold.Protein.ActiveResidues>
 VAL166  LYS551  ARG553  GLY616  TRP617  ASP618  TYR619  PRO620  LYS621  CYS622 
 ASP623  PHE694  ASN695  SER759  ASP760  ASP761  ALA762  ILE779  LEU786  VAL792 
 PHE793  MET794  SER795  GLU796  ALA797  LYS798  CYS799  TRP800  GLU811  SER814 

> <Gold.Protein.RotatedAtoms>
  152.2403  133.5130  159.5266 H   0  0  0  0  0  0  0  0  0  0  0  0  # atno 6907 bound_to 6896
  150.7062  134.1098  159.4005 H   0  0  0  0  0  0  0  0  0  0  0  0  # atno 6908 bound_to 6896
  151.9018  135.0375  160.0558 H   0  0  0  0  0  0  0  0  0  0  0  0  # atno 6909 bound_to 6896
  145.8966  139.3550  143.0617 H   0  0  0  0  0  0  0  0  0  0  0  0  # atno 7974 bound_to 7965
  154.5059  140.2171  155.9252 H   0  0  0  0  0  0  0  0  0  0  0  0  # atno 8008 bound_to 7997
  156.1493  140.3164  155.8588 H   0  0  0  0  0  0  0  0  0  0  0  0  # atno 8009 bound_to 7997
  155.3970  140.0482  157.3029 H   0  0  0  0  0  0  0  0  0  0  0  0  # atno 8010 bound_to 7997
  139.4865  144.5626  151.7203 H   0  0  0  0  0  0  0  0  0  0  0  0  # atno 10167 bound_to 10162
  156.8260  130.5472  149.5692 H   0  0  0  0  0  0  0  0  0  0  0  0  # atno 10718 bound_to 10713
  154.0947  135.6572  153.4858 H   0  0  0  0  0  0  0  0  0  0  0  0  # atno 10763 bound_to 10752
  153.0309  135.5210  154.7346 H   0  0  0  0  0  0  0  0  0  0  0  0  # atno 10764 bound_to 10752
  154.6480  135.2997  154.9991 H   0  0  0  0  0  0  0  0  0  0  0  0  # atno 10765 bound_to 10752
  140.3689  134.7047  157.4379 H   0  0  0  0  0  0  0  0  0  0  0  0  # atno 11005 bound_to 11000
  145.8843  140.9343  143.0585 LP  0  0  0  0  0  0  0  0  0  0  0  0  # atno 17320 bound_to 7965
  144.6733  140.0821  143.7469 LP  0  0  0  0  0  0  0  0  0  0  0  0  # atno 17321 bound_to 7965
  140.5198  144.0896  150.6019 LP  0  0  0  0  0  0  0  0  0  0  0  0  # atno 17342 bound_to 10162
  140.3850  143.2782  152.0126 LP  0  0  0  0  0  0  0  0  0  0  0  0  # atno 17343 bound_to 10162
  156.0961  130.5933  150.9816 LP  0  0  0  0  0  0  0  0  0  0  0  0  # atno 17370 bound_to 10713
  157.6432  131.0907  150.8208 LP  0  0  0  0  0  0  0  0  0  0  0  0  # atno 17371 bound_to 10713
  140.0567  134.6053  155.8796 LP  0  0  0  0  0  0  0  0  0  0  0  0  # atno 17394 bound_to 11000
  141.1961  133.6590  156.5674 LP  0  0  0  0  0  0  0  0  0  0  0  0  # atno 17395 bound_to 11000

$$$$
