AV-unprocessed.smi:157|AV-procd|sdf|1310|dock7
  -GOLD-   2262019 03D 1   1.00000     0.00000
 Structure written by MMmdl.
 36 38  0  0  0  0  0  0  0  0  2 V2000
  151.0640  138.8586  158.5164 O   0  0  0  0  0  0  0  0  0  0  0  0
  152.3692  139.2524  158.8841 C   0  0  0  0  0  0  0  0  0  0  0  0
  153.4016  138.7653  157.8464 C   0  0  2  0  0  0  0  0  0  0  0  0
  152.9726  139.2483  156.5710 O   0  0  0  0  0  0  0  0  0  0  0  0
  152.6306  138.1854  155.7329 C   0  0  2  0  0  0  0  0  0  0  0  0
  151.3451  138.5121  155.0466 N   0  0  0  0  0  0  0  0  0  0  0  0
  150.7331  137.7691  154.1007 C   0  0  0  0  0  0  0  0  0  0  0  0
  149.6044  138.2870  153.6471 N   0  3  0  0  0  0  0  0  0  0  0  0
  149.4199  139.4745  154.3229 C   0  0  0  0  0  0  0  0  0  0  0  0
  150.5176  139.6032  155.1780 C   0  0  0  0  0  0  0  0  0  0  0  0
  150.8414  140.6304  156.0775 N   0  0  0  0  0  0  0  0  0  0  0  0
  150.2749  141.7930  156.0537 C   0  0  0  0  0  0  0  0  0  0  0  0
  149.2304  142.2415  155.2624 N   0  0  0  0  0  0  0  0  0  0  0  0
  148.0194  141.4739  155.0327 C   0  0  0  0  0  0  0  0  0  0  0  0
  148.2065  140.3077  154.0535 C   0  0  1  0  0  0  0  0  0  0  0  0
  148.1786  140.8150  152.7353 O   0  0  0  0  0  0  0  0  0  0  0  0
  152.4639  136.9571  156.6185 C   0  0  0  0  0  0  0  0  0  0  0  0
  153.5126  137.2386  157.6706 C   0  0  2  0  0  0  0  0  0  0  0  0
  153.2830  136.4850  158.8439 O   0  0  0  0  0  0  0  0  0  0  0  0
  154.3773  139.1980  158.0712 H   0  0  0  0  0  0  0  0  0  0  0  0
  153.3770  138.0650  154.9469 H   0  0  0  0  0  0  0  0  0  0  0  0
  147.3342  139.6591  154.1432 H   0  0  0  0  0  0  0  0  0  0  0  0
  154.4984  136.9889  157.2751 H   0  0  0  0  0  0  0  0  0  0  0  0
  151.0268  137.9144  158.5011 H   0  0  0  0  0  0  0  0  0  0  0  0
  152.4122  140.3336  159.0176 H   0  0  0  0  0  0  0  0  0  0  0  0
  152.5810  138.8034  159.8549 H   0  0  0  0  0  0  0  0  0  0  0  0
  151.1331  136.8346  153.7502 H   0  0  0  0  0  0  0  0  0  0  0  0
  150.6277  142.5651  156.7390 H   0  0  0  0  0  0  0  0  0  0  0  0
  149.0523  143.2347  155.2138 H   0  0  0  0  0  0  0  0  0  0  0  0
  147.6956  141.0784  155.9966 H   0  0  0  0  0  0  0  0  0  0  0  0
  147.2230  142.1383  154.6955 H   0  0  0  0  0  0  0  0  0  0  0  0
  148.8528  140.3875  152.2302 H   0  0  0  0  0  0  0  0  0  0  0  0
  151.4625  136.9431  157.0527 H   0  0  0  0  0  0  0  0  0  0  0  0
  152.6288  136.0365  156.0576 H   0  0  0  0  0  0  0  0  0  0  0  0
  154.0658  136.5079  159.3735 H   0  0  0  0  0  0  0  0  0  0  0  0
  148.9964  137.8832  152.9459 H   0  0  0  0  0  0  0  0  0  0  0  0
  1  2  1  0  0  0  0
  1 24  1  0  0  0  0
  2  3  1  0  0  0  0
  2 25  1  0  0  0  0
  2 26  1  0  0  0  0
  3 20  1  0  0  0  0
  3 18  1  0  0  0  0
  3  4  1  0  0  0  0
  4  5  1  0  0  0  0
  5 21  1  0  0  0  0
  5  6  1  0  0  0  0
  5 17  1  0  0  0  0
  6 10  1  0  0  0  0
  6  7  1  0  0  0  0
  7  8  2  0  0  0  0
  7 27  1  0  0  0  0
  8  9  1  0  0  0  0
  8 36  1  0  0  0  0
  9 15  1  0  0  0  0
  9 10  2  0  0  0  0
 10 11  1  0  0  0  0
 11 12  2  0  0  0  0
 12 13  1  0  0  0  0
 12 28  1  0  0  0  0
 13 14  1  0  0  0  0
 13 29  1  0  0  0  0
 14 15  1  0  0  0  0
 14 30  1  0  0  0  0
 14 31  1  0  0  0  0
 15 22  1  0  0  0  0
 15 16  1  0  0  0  0
 16 32  1  0  0  0  0
 17 18  1  0  0  0  0
 17 33  1  0  0  0  0
 17 34  1  0  0  0  0
 18 23  1  0  0  0  0
 18 19  1  0  0  0  0
 19 35  1  0  0  0  0
M  CHG  1   8   1
M  END
> <s_m_source_file>
AV-unprocessed.smi

> <i_m_source_file_index>
157

> <i_lp_mmshare_version>
43012

> <i_f3d_flags>
0

> <s_epik_input>
W09IXVtDSDJdW0NASF0xT1tDQEhdKFtDSDJdW0NAQEhdMVtPSF0pbihbY0hdbjIpYyhjMjMpTj1bQ0hdW05IXVtDSDJdW0NASF0zW09IXQ==

> <s_epik_cmdline>
J2VwaWtfcHl0aG9uJywgJy1waCcsICc3LjAnLCAnLXRuJywgJzgnLCAnLW1hJywgJzIwMCcsICctbWV0YWxfYmluZGluZycsICctaW1hZScsICc8aW5maWxlLm1hZT4nLCAnLW9tYWUnLCAnPG91dGZpbGUubWFlPic=

> <r_epik_Ionization_Penalty>
1.68594

> <r_epik_Ionization_Penalty_Charging>
0

> <r_epik_Ionization_Penalty_Neutral>
1.68594

> <r_epik_State_Penalty>
1.79006

> <r_epik_Charging_Adjusted_Penalty>
1.79006

> <i_epik_Tot_Q>
1

> <i_epik_Tot_abs_Q>
1

> <r_epik_Metal_State_Penalty>
5.85324

> <b_epik_Metal_Only>
0

> <s_epik_Chemistry_Notes>
This compound has an imine and may undergo hydrolysis. This compound contains an acetal/aminal-like group ( X-CH(R)-Y where X, Y are N, S, or O) that may be acid/base labile, releasing an aldehyde.

> <s_lp_Force_Field>
OPLS_2005

> <r_lp_Energy>
54.8473

> <b_lp_Chiralities_Consistent>
1

> <s_lp_Variant>
AV-unprocessed.smi:157-20

> <Gold.Version>
5.8.1

> <Gold.Id.Protein>
6NUR|6NUR_protein|mol2

> <Gold.PLP.Fitness>
46.0039

> <Gold.PLP.PLP>
-27.2087

> <Gold.PLP.part.hbond>
-5.7474

> <Gold.PLP.part.metal>
0.0000

> <Gold.PLP.part.buried>
-4.2661

> <Gold.PLP.part.nonpolar>
-19.5442

> <Gold.PLP.part.repulsive>
0.2216

> <Gold.PLP.ligand.clash>
0.0000

> <Gold.PLP.ligand.torsion>
0.0643

> <Gold.PLP.Chemscore.Hbond>
5.3820

> <Gold.PLP.Chemscore.CHOScore>
0.9212

> <Gold.PLP.Chemscore.Metal>
0.0000

> <Gold.Chemscore.Hbonds>
donor molecule, donor type, donor heavy atom, donor atom, acceptor molecule, acceptor atom, score
      L1  H     8    36       P1  7948  1.44
      L1  H    13    29       P1  8028  1.00
      L1  H    16    32       P1  7957  0.54
      P1  H  6896  6907       L1    19  0.38
      P1  H  7997  8008       L1     4  0.35
      L1  C     7    27       P1  7949  0.96

> <Gold.PLP.Chemscore.Internal.Correction>
0.0141

> <Gold.Rescore>
     Score         DG    S(hbond)    S(metal)    S(lipo)     H(rot)  DE(clash)    DE(int)     intcor
      9.56     -12.12       3.67        0.00      32.27       3.67       0.00       2.56       ----

> <Gold.Chemscore.Fitness>
9.5643

> <Gold.Chemscore.DG>
-12.1244

> <Gold.Chemscore.ZeroCoef>
-5.4800

> <Gold.Chemscore.Hbond>
3.6686

> <Gold.Chemscore.Metal>
0.0000

> <Gold.Chemscore.Lipo>
32.2740

> <Gold.Chemscore.Internal_Hbond>
0.0000

> <Gold.Chemscore.DEClash>
0.0000

> <Gold.Chemscore.DEInternal>
2.5600

> <Gold.Chemscore.Rot>
3.6659

> <Gold.Chemscore.Internal.Correction>
   9.000000E+99

> <Gold.Chemscore.Hbonds>
donor molecule, donor type, donor heavy atom, donor atom, acceptor molecule, acceptor atom, score
      L1  H     8    36       P1  7948  0.71
      L1  H    13    29       P1  8028  0.95
      L1  H    16    32       P1  7957  0.54
      P1  H  6896  6907       L1    19  0.10
      P1  H  7997  8008       L1     4  0.01

> <Gold.Chemscore.Hbond.Weighted>
-12.2531

> <Gold.Chemscore.Metal.Weighted>
-0.0000

> <Gold.Chemscore.Lipo.Weighted>
-3.7761

> <Gold.Chemscore.Internal_Hbond.Weighted>
0.0000

> <Gold.Chemscore.DEClash.Weighted>
0.0000

> <Gold.Chemscore.DEInternal.Weighted>
2.5600

> <Gold.Chemscore.Rot.Weighted>
9.3848

> <Gold.Chemscore.Internal.Correction.Weighted>
   9.000000E+99

> <Gold.Protein.RotatedTorsions>
[ 6907 6896 6895 6894 ] final   27.44 input  -60.11 | X-H torsion
[ 7974 7965 7964 7962 ] final  -77.37 input  175.53 | X-H torsion
[ 8008 7997 7996 7995 ] final  -54.05 input   59.86 | X-H torsion
[ 10167 10162 10161 10158 ] final   14.78 input  -65.29 | X-H torsion
[ 10718 10713 10712 10709 ] final    8.72 input   66.30 | X-H torsion
[ 10763 10752 10751 10750 ] final -102.62 input  -60.55 | X-H torsion
[ 11005 11000 10999 10996 ] final  106.87 input  -57.11 | X-H torsion

> <Gold.Protein.ActiveResidues>
 VAL166  LYS551  ARG553  GLY616  TRP617  ASP618  TYR619  PRO620  LYS621  CYS622 
 ASP623  PHE694  ASN695  SER759  ASP760  ASP761  ALA762  ILE779  LEU786  VAL792 
 PHE793  MET794  SER795  GLU796  ALA797  LYS798  CYS799  TRP800  GLU811  SER814 

> <Gold.Protein.RotatedAtoms>
  152.0023  134.9922  160.0565 H   0  0  0  0  0  0  0  0  0  0  0  0  # atno 6907 bound_to 6896
  152.1508  133.4516  159.4821 H   0  0  0  0  0  0  0  0  0  0  0  0  # atno 6908 bound_to 6896
  150.6875  134.2109  159.4402 H   0  0  0  0  0  0  0  0  0  0  0  0  # atno 6909 bound_to 6896
  145.6006  140.9409  143.1243 H   0  0  0  0  0  0  0  0  0  0  0  0  # atno 7974 bound_to 7965
  154.4151  140.1185  156.5252 H   0  0  0  0  0  0  0  0  0  0  0  0  # atno 8008 bound_to 7997
  155.6661  140.3496  155.4781 H   0  0  0  0  0  0  0  0  0  0  0  0  # atno 8009 bound_to 7997
  155.9672  140.1134  157.0834 H   0  0  0  0  0  0  0  0  0  0  0  0  # atno 8010 bound_to 7997
  140.5912  143.8791  150.6875 H   0  0  0  0  0  0  0  0  0  0  0  0  # atno 10167 bound_to 10162
  156.9558  130.5914  149.5659 H   0  0  0  0  0  0  0  0  0  0  0  0  # atno 10718 bound_to 10713
  154.7747  135.4854  153.9721 H   0  0  0  0  0  0  0  0  0  0  0  0  # atno 10763 bound_to 10752
  153.1414  135.6773  153.9029 H   0  0  0  0  0  0  0  0  0  0  0  0  # atno 10764 bound_to 10752
  153.8703  135.3144  155.3420 H   0  0  0  0  0  0  0  0  0  0  0  0  # atno 10765 bound_to 10752
  139.8820  134.9383  156.5733 H   0  0  0  0  0  0  0  0  0  0  0  0  # atno 11005 bound_to 11000
  144.7311  139.7722  143.7346 LP  0  0  0  0  0  0  0  0  0  0  0  0  # atno 17320 bound_to 7965
  146.1579  139.4683  143.0007 LP  0  0  0  0  0  0  0  0  0  0  0  0  # atno 17321 bound_to 7965
  140.2315  143.3732  152.1562 LP  0  0  0  0  0  0  0  0  0  0  0  0  # atno 17342 bound_to 10162
  139.5229  144.7064  151.5340 LP  0  0  0  0  0  0  0  0  0  0  0  0  # atno 17343 bound_to 10162
  156.0343  130.5432  150.8614 LP  0  0  0  0  0  0  0  0  0  0  0  0  # atno 17370 bound_to 10713
  157.5691  131.0946  150.9444 LP  0  0  0  0  0  0  0  0  0  0  0  0  # atno 17371 bound_to 10713
  140.8082  133.8450  155.8786 LP  0  0  0  0  0  0  0  0  0  0  0  0  # atno 17394 bound_to 11000
  140.9530  134.1753  157.4713 LP  0  0  0  0  0  0  0  0  0  0  0  0  # atno 17395 bound_to 11000

$$$$
