AV-unprocessed.smi:532|AV-procd|sdf|2853|dock7
  -GOLD-   2262023343D 1   1.00000     0.00000
 Structure written by MMmdl.
 48 50  0  0  0  0  0  0  0  0  2 V2000
  147.3976  141.2396  157.5054 C   0  0  0  0  0  0  0  0  0  0  0  0
  148.7442  141.2077  157.0671 O   0  0  0  0  0  0  0  0  0  0  0  0
  149.4361  142.4093  157.3604 C   0  0  0  0  0  0  0  0  0  0  0  0
  150.8619  142.3124  156.8049 C   0  0  0  0  0  0  0  0  0  0  0  0
  151.6007  141.2168  157.4184 N   0  0  0  0  0  0  0  0  0  0  0  0
  152.3067  141.2411  158.5772 C   0  0  0  0  0  0  0  0  0  0  0  0
  152.4105  142.4022  159.3386 N   0  0  0  0  0  0  0  0  0  0  0  0
  152.6719  143.7131  158.7430 C   0  0  0  0  0  0  0  0  0  0  0  0
  152.0270  144.8887  159.5114 C   0  0  1  0  0  0  0  0  0  0  0  0
  150.5106  145.0007  159.2837 C   0  0  0  0  0  0  0  0  0  0  0  0
  152.4008  144.8337  161.0026 C   0  0  0  0  0  0  0  0  0  0  0  0
  152.1384  143.4376  161.5905 C   0  0  2  0  0  0  0  0  0  0  0  0
  152.5791  143.3552  163.0582 C   0  0  0  0  0  0  0  0  0  0  0  0
  152.8463  142.3738  160.7322 C   0  0  0  0  0  0  0  0  0  0  0  0
  152.8726  140.0811  158.9154 N   0  0  0  0  0  0  0  0  0  0  0  0
  152.5058  139.2490  157.8675 C   0  0  0  0  0  0  0  0  0  0  0  0
  151.7468  139.9082  156.9523 C   0  0  0  0  0  0  0  0  0  0  0  0
  151.2164  139.2864  155.7211 C   0  0  0  0  0  0  0  0  0  0  0  0
  150.5486  139.9367  154.9194 O   0  0  0  0  0  0  0  0  0  0  0  0
  151.5664  137.9648  155.6203 N   0  5  0  0  0  0  0  0  0  0  0  0
  152.3299  137.2554  156.5239 C   0  0  0  0  0  0  0  0  0  0  0  0
  152.5962  136.0664  156.3482 O   0  0  0  0  0  0  0  0  0  0  0  0
  152.8094  137.8797  157.6479 N   0  0  0  0  0  0  0  0  0  0  0  0
  153.6302  137.1991  158.6542 C   0  0  0  0  0  0  0  0  0  0  0  0
  146.9083  140.2978  157.2574 H   0  0  0  0  0  0  0  0  0  0  0  0
  146.8443  142.0446  157.0198 H   0  0  0  0  0  0  0  0  0  0  0  0
  147.3380  141.3748  158.5860 H   0  0  0  0  0  0  0  0  0  0  0  0
  148.9160  143.2613  156.9205 H   0  0  0  0  0  0  0  0  0  0  0  0
  149.4643  142.5680  158.4389 H   0  0  0  0  0  0  0  0  0  0  0  0
  150.8435  142.1674  155.7257 H   0  0  0  0  0  0  0  0  0  0  0  0
  151.4021  143.2456  156.9600 H   0  0  0  0  0  0  0  0  0  0  0  0
  153.7529  143.8537  158.7057 H   0  0  0  0  0  0  0  0  0  0  0  0
  152.3314  143.7141  157.7070 H   0  0  0  0  0  0  0  0  0  0  0  0
  152.4556  145.8061  159.1062 H   0  0  0  0  0  0  0  0  0  0  0  0
  149.9744  144.1336  159.6639 H   0  0  0  0  0  0  0  0  0  0  0  0
  150.2799  145.0969  158.2229 H   0  0  0  0  0  0  0  0  0  0  0  0
  150.1050  145.8798  159.7846 H   0  0  0  0  0  0  0  0  0  0  0  0
  153.4595  145.0736  161.1113 H   0  0  0  0  0  0  0  0  0  0  0  0
  151.8562  145.5955  161.5617 H   0  0  0  0  0  0  0  0  0  0  0  0
  151.0659  143.2409  161.5604 H   0  0  0  0  0  0  0  0  0  0  0  0
  153.6510  143.5272  163.1613 H   0  0  0  0  0  0  0  0  0  0  0  0
  152.3568  142.3743  163.4792 H   0  0  0  0  0  0  0  0  0  0  0  0
  152.0621  144.0987  163.6653 H   0  0  0  0  0  0  0  0  0  0  0  0
  152.6489  141.3820  161.1414 H   0  0  0  0  0  0  0  0  0  0  0  0
  153.9276  142.5141  160.7681 H   0  0  0  0  0  0  0  0  0  0  0  0
  153.8267  136.1482  158.4412 H   0  0  0  0  0  0  0  0  0  0  0  0
  153.1381  137.2461  159.6261 H   0  0  0  0  0  0  0  0  0  0  0  0
  154.5955  137.6982  158.7431 H   0  0  0  0  0  0  0  0  0  0  0  0
  1  2  1  0  0  0  0
  1 25  1  0  0  0  0
  1 26  1  0  0  0  0
  1 27  1  0  0  0  0
  2  3  1  0  0  0  0
  3  4  1  0  0  0  0
  3 28  1  0  0  0  0
  3 29  1  0  0  0  0
  4  5  1  0  0  0  0
  4 30  1  0  0  0  0
  4 31  1  0  0  0  0
  5 17  1  0  0  0  0
  5  6  1  0  0  0  0
  6  7  1  0  0  0  0
  6 15  2  0  0  0  0
  7 14  1  0  0  0  0
  7  8  1  0  0  0  0
  8  9  1  0  0  0  0
  8 32  1  0  0  0  0
  8 33  1  0  0  0  0
  9 10  1  0  0  0  0
  9 11  1  0  0  0  0
  9 34  1  0  0  0  0
 10 35  1  0  0  0  0
 10 36  1  0  0  0  0
 10 37  1  0  0  0  0
 11 12  1  0  0  0  0
 11 38  1  0  0  0  0
 11 39  1  0  0  0  0
 12 13  1  0  0  0  0
 12 14  1  0  0  0  0
 12 40  1  0  0  0  0
 13 41  1  0  0  0  0
 13 42  1  0  0  0  0
 13 43  1  0  0  0  0
 14 44  1  0  0  0  0
 14 45  1  0  0  0  0
 15 16  1  0  0  0  0
 16 23  1  0  0  0  0
 16 17  2  0  0  0  0
 17 18  1  0  0  0  0
 18 19  2  0  0  0  0
 18 20  1  0  0  0  0
 20 21  1  0  0  0  0
 21 22  2  0  0  0  0
 21 23  1  0  0  0  0
 23 24  1  0  0  0  0
 24 46  1  0  0  0  0
 24 47  1  0  0  0  0
 24 48  1  0  0  0  0
M  CHG  1  20  -1
M  END
> <s_m_source_file>
AV-unprocessed.smi

> <i_m_source_file_index>
532

> <i_lp_mmshare_version>
43012

> <i_f3d_flags>
0

> <s_epik_input>
W0NIM11uMWMoPU8pW25IXWMoPU8pYyhjMTIpbihbQ0gyXVtDSDJdT1tDSDNdKWMobjIpTjNbQ0gyXVtDQEBIXShbQ0gzXSlbQ0gyXVtDQEBIXShbQ0gzXSlbQ0gyXTM=

> <s_epik_cmdline>
J2VwaWtfcHl0aG9uJywgJy1waCcsICc3LjAnLCAnLXRuJywgJzgnLCAnLW1hJywgJzIwMCcsICctbWV0YWxfYmluZGluZycsICctaW1hZScsICc8aW5maWxlLm1hZT4nLCAnLW9tYWUnLCAnPG91dGZpbGUubWFlPic=

> <r_lp_tautomer_probability>
1

> <r_epik_Ionization_Penalty>
5.12128

> <r_epik_Ionization_Penalty_Charging>
0.0789629

> <r_epik_Ionization_Penalty_Neutral>
5.04232

> <r_epik_State_Penalty>
5.03111

> <r_epik_Charging_Adjusted_Penalty>
5.11007

> <i_epik_Tot_Q>
-1

> <i_epik_Tot_abs_Q>
1

> <r_epik_Metal_State_Penalty>
1.14201

> <b_epik_Metal_Only>
1

> <s_lp_Force_Field>
OPLS_2005

> <r_lp_Energy>
48.0239

> <b_lp_Chiralities_Consistent>
1

> <s_lp_Variant>
AV-unprocessed.smi:532-6

> <Gold.Version>
5.8.1

> <Gold.Id.Protein>
6NUR|6NUR_protein|mol2

> <Gold.PLP.Fitness>
47.9779

> <Gold.PLP.PLP>
-42.7136

> <Gold.PLP.part.hbond>
-2.0000

> <Gold.PLP.part.metal>
0.0000

> <Gold.PLP.part.buried>
-2.7270

> <Gold.PLP.part.nonpolar>
-37.8958

> <Gold.PLP.part.repulsive>
0.1473

> <Gold.PLP.ligand.clash>
0.0294

> <Gold.PLP.ligand.torsion>
0.7810

> <Gold.PLP.Chemscore.Hbond>
2.0000

> <Gold.PLP.Chemscore.CHOScore>
0.0000

> <Gold.PLP.Chemscore.Metal>
0.0000

> <Gold.Chemscore.Hbonds>
donor molecule, donor type, donor heavy atom, donor atom, acceptor molecule, acceptor atom, score
      P1  H  7989  7998       L1    19  1.00
      P1  H 10752 10764       L1    22  0.89

> <Gold.PLP.Chemscore.Internal.Correction>
0.8557

> <Gold.Rescore>
     Score         DG    S(hbond)    S(metal)    S(lipo)     H(rot)  DE(clash)    DE(int)     intcor
     17.63     -20.71       1.96        0.00     105.26       1.41       1.22       1.86       ----

> <Gold.Chemscore.Fitness>
17.6326

> <Gold.Chemscore.DG>
-20.7050

> <Gold.Chemscore.ZeroCoef>
-5.4800

> <Gold.Chemscore.Hbond>
1.9554

> <Gold.Chemscore.Metal>
0.0000

> <Gold.Chemscore.Lipo>
105.2614

> <Gold.Chemscore.Internal_Hbond>
0.0000

> <Gold.Chemscore.DEClash>
1.2152

> <Gold.Chemscore.DEInternal>
1.8573

> <Gold.Chemscore.Rot>
1.4147

> <Gold.Chemscore.Internal.Correction>
   9.000000E+99

> <Gold.Chemscore.Hbonds>
donor molecule, donor type, donor heavy atom, donor atom, acceptor molecule, acceptor atom, score
      P1  H  7989  7998       L1    19  0.86
      P1  H 10752 10764       L1    22  0.87

> <Gold.Chemscore.Hbond.Weighted>
-6.5310

> <Gold.Chemscore.Metal.Weighted>
-0.0000

> <Gold.Chemscore.Lipo.Weighted>
-12.3156

> <Gold.Chemscore.Internal_Hbond.Weighted>
0.0000

> <Gold.Chemscore.DEClash.Weighted>
1.2152

> <Gold.Chemscore.DEInternal.Weighted>
1.8573

> <Gold.Chemscore.Rot.Weighted>
3.6216

> <Gold.Chemscore.Internal.Correction.Weighted>
   9.000000E+99

> <Gold.Protein.RotatedTorsions>
[ 6907 6896 6895 6894 ] final  138.21 input  -60.11 | X-H torsion
[ 7974 7965 7964 7962 ] final -118.55 input  175.53 | X-H torsion
[ 8008 7997 7996 7995 ] final   58.12 input   59.86 | X-H torsion
[ 10167 10162 10161 10158 ] final   37.15 input  -65.29 | X-H torsion
[ 10718 10713 10712 10709 ] final -136.83 input   66.30 | X-H torsion
[ 10763 10752 10751 10750 ] final  -21.66 input  -60.55 | X-H torsion
[ 11005 11000 10999 10996 ] final -118.93 input  -57.11 | X-H torsion

> <Gold.Protein.ActiveResidues>
 VAL166  LYS551  ARG553  GLY616  TRP617  ASP618  TYR619  PRO620  LYS621  CYS622 
 ASP623  PHE694  ASN695  SER759  ASP760  ASP761  ALA762  ILE779  LEU786  VAL792 
 PHE793  MET794  SER795  GLU796  ALA797  LYS798  CYS799  TRP800  GLU811  SER814 

> <Gold.Protein.RotatedAtoms>
  152.2692  133.5367  159.5428 H   0  0  0  0  0  0  0  0  0  0  0  0  # atno 6907 bound_to 6896
  150.7153  134.0722  159.3877 H   0  0  0  0  0  0  0  0  0  0  0  0  # atno 6908 bound_to 6896
  151.8637  135.0515  160.0523 H   0  0  0  0  0  0  0  0  0  0  0  0  # atno 6909 bound_to 6896
  145.0725  140.8369  143.4087 H   0  0  0  0  0  0  0  0  0  0  0  0  # atno 7974 bound_to 7965
  155.5448  140.3485  155.4455 H   0  0  0  0  0  0  0  0  0  0  0  0  # atno 8008 bound_to 7997
  156.0625  140.1343  156.9950 H   0  0  0  0  0  0  0  0  0  0  0  0  # atno 8009 bound_to 7997
  154.4487  140.0982  156.6523 H   0  0  0  0  0  0  0  0  0  0  0  0  # atno 8010 bound_to 7997
  140.4060  144.1658  150.6136 H   0  0  0  0  0  0  0  0  0  0  0  0  # atno 10167 bound_to 10162
  156.2814  130.7322  151.1321 H   0  0  0  0  0  0  0  0  0  0  0  0  # atno 10718 bound_to 10713
  153.6397  135.6985  153.5246 H   0  0  0  0  0  0  0  0  0  0  0  0  # atno 10763 bound_to 10752
  153.2792  135.4191  155.1062 H   0  0  0  0  0  0  0  0  0  0  0  0  # atno 10764 bound_to 10752
  154.8502  135.3598  154.5941 H   0  0  0  0  0  0  0  0  0  0  0  0  # atno 10765 bound_to 10752
  141.0251  134.0065  157.3226 H   0  0  0  0  0  0  0  0  0  0  0  0  # atno 11005 bound_to 11000
  145.1275  139.2653  143.5556 LP  0  0  0  0  0  0  0  0  0  0  0  0  # atno 17320 bound_to 7965
  146.3529  140.0916  142.8612 LP  0  0  0  0  0  0  0  0  0  0  0  0  # atno 17321 bound_to 7965
  140.4689  143.2420  151.9116 LP  0  0  0  0  0  0  0  0  0  0  0  0  # atno 17342 bound_to 10162
  139.4783  144.5390  151.8556 LP  0  0  0  0  0  0  0  0  0  0  0  0  # atno 17343 bound_to 10162
  157.7315  131.0607  150.5673 LP  0  0  0  0  0  0  0  0  0  0  0  0  # atno 17370 bound_to 10713
  156.5779  130.4297  149.5990 LP  0  0  0  0  0  0  0  0  0  0  0  0  # atno 17371 bound_to 10713
  139.9171  135.0198  156.7922 LP  0  0  0  0  0  0  0  0  0  0  0  0  # atno 17394 bound_to 11000
  140.6505  133.9736  155.7753 LP  0  0  0  0  0  0  0  0  0  0  0  0  # atno 17395 bound_to 11000

$$$$
