AV-unprocessed.smi:2213|AV-procd|sdf|8956|dock10
  -GOLD-   2272012173D 1   1.00000     0.00000
 Structure written by MMmdl.
 38 39  0  0  0  0  0  0  0  0  1 V2000
  148.5579  134.1302  157.5087 C   0  0  0  0  0  0  0  0  0  0  0  0
  149.1883  135.3445  156.8501 C   0  0  0  0  0  0  0  0  0  0  0  0
  148.5557  136.5652  157.1029 N   0  0  0  0  0  0  0  0  0  0  0  0
  149.0181  137.6521  156.5775 C   0  0  0  0  0  0  0  0  0  0  0  0
  150.1527  137.6467  155.7498 N   0  0  0  0  0  0  0  0  0  0  0  0
  150.5718  138.9508  155.2097 C   0  0  0  0  0  0  0  0  0  0  0  0
  151.8077  139.5200  155.9425 C   0  0  2  0  0  0  0  0  0  0  0  0
  152.9356  138.6964  155.7239 O   0  0  0  0  0  0  0  0  0  0  0  0
  151.6031  139.6396  157.4624 C   0  0  0  0  0  0  0  0  0  0  0  0
  152.8379  139.9623  158.0904 O   0  0  0  0  0  0  0  0  0  0  0  0
  152.8564  140.9677  159.0340 C   0  0  0  0  0  0  0  0  0  0  0  0
  151.9780  142.0813  159.0212 C   0  0  0  0  0  0  0  0  0  0  0  0
  152.0619  143.0699  160.0213 C   0  0  0  0  0  0  0  0  0  0  0  0
  150.9870  144.4192  159.9914 Cl  0  0  0  0  0  0  0  0  0  0  0  0
  153.0209  142.9591  161.0450 C   0  0  0  0  0  0  0  0  0  0  0  0
  153.8956  141.8577  161.0677 C   0  0  0  0  0  0  0  0  0  0  0  0
  153.8133  140.8679  160.0687 C   0  0  0  0  0  0  0  0  0  0  0  0
  154.8978  139.5241  160.1209 Cl  0  0  0  0  0  0  0  0  0  0  0  0
  150.8384  136.5023  155.4639 C   0  0  0  0  0  0  0  0  0  0  0  0
  151.8450  136.5123  154.7527 O   0  0  0  0  0  0  0  0  0  0  0  0
  150.2955  135.2718  156.0619 C   0  0  0  0  0  0  0  0  0  0  0  0
  151.0256  133.9712  155.7510 C   0  0  0  0  0  0  0  0  0  0  0  0
  148.2207  133.4193  156.7540 H   0  0  0  0  0  0  0  0  0  0  0  0
  147.6940  134.4099  158.1131 H   0  0  0  0  0  0  0  0  0  0  0  0
  149.2753  133.6332  158.1620 H   0  0  0  0  0  0  0  0  0  0  0  0
  148.5632  138.6298  156.7457 H   0  0  0  0  0  0  0  0  0  0  0  0
  150.8094  138.8231  154.1518 H   0  0  0  0  0  0  0  0  0  0  0  0
  149.7572  139.6785  155.2141 H   0  0  0  0  0  0  0  0  0  0  0  0
  152.0521  140.5123  155.5615 H   0  0  0  0  0  0  0  0  0  0  0  0
  152.6457  137.8848  155.3365 H   0  0  0  0  0  0  0  0  0  0  0  0
  150.8382  140.3854  157.6864 H   0  0  0  0  0  0  0  0  0  0  0  0
  151.2523  138.6796  157.8447 H   0  0  0  0  0  0  0  0  0  0  0  0
  151.2291  142.1995  158.2531 H   0  0  0  0  0  0  0  0  0  0  0  0
  153.0867  143.7163  161.8124 H   0  0  0  0  0  0  0  0  0  0  0  0
  154.6312  141.7723  161.8540 H   0  0  0  0  0  0  0  0  0  0  0  0
  152.0547  134.0237  156.1075 H   0  0  0  0  0  0  0  0  0  0  0  0
  151.0482  133.8001  154.6743 H   0  0  0  0  0  0  0  0  0  0  0  0
  150.5644  133.0988  156.2108 H   0  0  0  0  0  0  0  0  0  0  0  0
  1  2  1  0  0  0  0
  1 23  1  0  0  0  0
  1 24  1  0  0  0  0
  1 25  1  0  0  0  0
  2 21  2  0  0  0  0
  2  3  1  0  0  0  0
  3  4  2  0  0  0  0
  4  5  1  0  0  0  0
  4 26  1  0  0  0  0
  5  6  1  0  0  0  0
  5 19  1  0  0  0  0
  6  7  1  0  0  0  0
  6 27  1  0  0  0  0
  6 28  1  0  0  0  0
  7  8  1  0  0  0  0
  7  9  1  0  0  0  0
  7 29  1  0  0  0  0
  8 30  1  0  0  0  0
  9 10  1  0  0  0  0
  9 31  1  0  0  0  0
  9 32  1  0  0  0  0
 10 11  1  0  0  0  0
 11 17  1  0  0  0  0
 11 12  2  0  0  0  0
 12 13  1  0  0  0  0
 12 33  1  0  0  0  0
 13 14  1  0  0  0  0
 13 15  2  0  0  0  0
 15 16  1  0  0  0  0
 15 34  1  0  0  0  0
 16 17  2  0  0  0  0
 16 35  1  0  0  0  0
 17 18  1  0  0  0  0
 19 20  2  0  0  0  0
 19 21  1  0  0  0  0
 21 22  1  0  0  0  0
 22 36  1  0  0  0  0
 22 37  1  0  0  0  0
 22 38  1  0  0  0  0
M  END
> <s_m_source_file>
AV-unprocessed.smi

> <i_m_source_file_index>
2213

> <i_lp_mmshare_version>
43012

> <i_f3d_flags>
0

> <s_epik_input>
W0NIM11jMW5bY0hdbihjKD1PKWMxW0NIM10pW0NIMl1bQ0BIXShbT0hdKVtDSDJdT2MyW2NIXWMoQ2wpW2NIXVtjSF1jMkNs

> <s_epik_cmdline>
J2VwaWtfcHl0aG9uJywgJy1waCcsICc3LjAnLCAnLXRuJywgJzgnLCAnLW1hJywgJzIwMCcsICctbWV0YWxfYmluZGluZycsICctaW1hZScsICc8aW5maWxlLm1hZT4nLCAnLW9tYWUnLCAnPG91dGZpbGUubWFlPic=

> <r_lp_tautomer_probability>
1

> <r_epik_Ionization_Penalty>
3.50205e-05

> <r_epik_Ionization_Penalty_Charging>
7.87908e-08

> <r_epik_Ionization_Penalty_Neutral>
3.49418e-05

> <r_epik_State_Penalty>
-0

> <r_epik_Charging_Adjusted_Penalty>
7.87908e-08

> <i_epik_Tot_Q>
0

> <i_epik_Tot_abs_Q>
0

> <r_epik_Metal_State_Penalty>
-0

> <b_epik_Metal_Only>
0

> <s_lp_Force_Field>
OPLS_2005

> <r_lp_Energy>
24.8727

> <b_lp_Chiralities_Consistent>
1

> <s_lp_Variant>
AV-unprocessed.smi:2213-1

> <Gold.Version>
5.8.1

> <Gold.Id.Protein>
6NUR|6NUR_protein|mol2

> <Gold.PLP.Fitness>
46.6094

> <Gold.PLP.PLP>
-42.5541

> <Gold.PLP.part.hbond>
-2.8726

> <Gold.PLP.part.metal>
0.0000

> <Gold.PLP.part.buried>
-3.0963

> <Gold.PLP.part.nonpolar>
-36.1547

> <Gold.PLP.part.repulsive>
0.1836

> <Gold.PLP.ligand.clash>
0.0000

> <Gold.PLP.ligand.torsion>
0.9792

> <Gold.PLP.Chemscore.Hbond>
1.9920

> <Gold.PLP.Chemscore.CHOScore>
0.0000

> <Gold.PLP.Chemscore.Metal>
0.0000

> <Gold.Chemscore.Hbonds>
donor molecule, donor type, donor heavy atom, donor atom, acceptor molecule, acceptor atom, score
      P1  H  7997  8008       L1    10  0.96
      P1  H 10752 10763       L1    20  0.86

> <Gold.PLP.Chemscore.Internal.Correction>
0.0377

> <Gold.Rescore>
     Score         DG    S(hbond)    S(metal)    S(lipo)     H(rot)  DE(clash)    DE(int)     intcor
     15.38     -17.68       1.77        0.00     105.96       2.38       0.11       2.19       ----

> <Gold.Chemscore.Fitness>
15.3813

> <Gold.Chemscore.DG>
-17.6757

> <Gold.Chemscore.ZeroCoef>
-5.4800

> <Gold.Chemscore.Hbond>
1.7657

> <Gold.Chemscore.Metal>
0.0000

> <Gold.Chemscore.Lipo>
105.9634

> <Gold.Chemscore.Internal_Hbond>
0.0000

> <Gold.Chemscore.DEClash>
0.1080

> <Gold.Chemscore.DEInternal>
2.1864

> <Gold.Chemscore.Rot>
2.3826

> <Gold.Chemscore.Internal.Correction>
   9.000000E+99

> <Gold.Chemscore.Hbonds>
donor molecule, donor type, donor heavy atom, donor atom, acceptor molecule, acceptor atom, score
      P1  H  7997  8008       L1    10  0.65
      P1  H 10752 10763       L1    20  0.79

> <Gold.Chemscore.Hbond.Weighted>
-5.8976

> <Gold.Chemscore.Metal.Weighted>
-0.0000

> <Gold.Chemscore.Lipo.Weighted>
-12.3977

> <Gold.Chemscore.Internal_Hbond.Weighted>
0.0000

> <Gold.Chemscore.DEClash.Weighted>
0.1080

> <Gold.Chemscore.DEInternal.Weighted>
2.1864

> <Gold.Chemscore.Rot.Weighted>
6.0996

> <Gold.Chemscore.Internal.Correction.Weighted>
   9.000000E+99

> <Gold.Protein.RotatedTorsions>
[ 6907 6896 6895 6894 ] final  -83.26 input  -60.11 | X-H torsion
[ 7974 7965 7964 7962 ] final   24.98 input  175.53 | X-H torsion
[ 8008 7997 7996 7995 ] final  -72.04 input   59.86 | X-H torsion
[ 10167 10162 10161 10158 ] final -121.46 input  -65.29 | X-H torsion
[ 10718 10713 10712 10709 ] final -100.98 input   66.30 | X-H torsion
[ 10763 10752 10751 10750 ] final   31.25 input  -60.55 | X-H torsion
[ 11005 11000 10999 10996 ] final -103.46 input  -57.11 | X-H torsion

> <Gold.Protein.ActiveResidues>
 VAL166  LYS551  ARG553  GLY616  TRP617  ASP618  TYR619  PRO620  LYS621  CYS622 
 ASP623  PHE694  ASN695  SER759  ASP760  ASP761  ALA762  ILE779  LEU786  VAL792 
 PHE793  MET794  SER795  GLU796  ALA797  LYS798  CYS799  TRP800  GLU811  SER814 

> <Gold.Protein.RotatedAtoms>
  150.6887  134.3539  159.4920 H   0  0  0  0  0  0  0  0  0  0  0  0  # atno 6907 bound_to 6896
  152.1376  134.9084  160.0564 H   0  0  0  0  0  0  0  0  0  0  0  0  # atno 6908 bound_to 6896
  152.0230  133.3871  159.4303 H   0  0  0  0  0  0  0  0  0  0  0  0  # atno 6909 bound_to 6896
  146.1911  139.7529  142.8831 H   0  0  0  0  0  0  0  0  0  0  0  0  # atno 7974 bound_to 7965
  154.5135  140.0804  156.8036 H   0  0  0  0  0  0  0  0  0  0  0  0  # atno 8008 bound_to 7997
  155.3732  140.3424  155.4226 H   0  0  0  0  0  0  0  0  0  0  0  0  # atno 8009 bound_to 7997
  156.1601  140.1585  156.8614 H   0  0  0  0  0  0  0  0  0  0  0  0  # atno 8010 bound_to 7997
  140.0248  143.5308  152.2204 H   0  0  0  0  0  0  0  0  0  0  0  0  # atno 10167 bound_to 10162
  156.0180  130.5352  150.6897 H   0  0  0  0  0  0  0  0  0  0  0  0  # atno 10718 bound_to 10713
  153.0326  135.6443  154.1171 H   0  0  0  0  0  0  0  0  0  0  0  0  # atno 10763 bound_to 10752
  154.0890  135.2867  155.3277 H   0  0  0  0  0  0  0  0  0  0  0  0  # atno 10764 bound_to 10752
  154.6477  135.5437  153.7928 H   0  0  0  0  0  0  0  0  0  0  0  0  # atno 10765 bound_to 10752
  141.1144  133.8642  157.1489 H   0  0  0  0  0  0  0  0  0  0  0  0  # atno 11005 bound_to 11000
  145.3789  141.0355  143.3188 LP  0  0  0  0  0  0  0  0  0  0  0  0  # atno 17320 bound_to 7965
  144.8489  139.5353  143.6866 LP  0  0  0  0  0  0  0  0  0  0  0  0  # atno 17321 bound_to 7965
  139.6116  144.7610  151.2940 LP  0  0  0  0  0  0  0  0  0  0  0  0  # atno 17342 bound_to 10162
  140.7327  143.6815  150.7997 LP  0  0  0  0  0  0  0  0  0  0  0  0  # atno 17343 bound_to 10162
  157.4581  131.0880  151.0775 LP  0  0  0  0  0  0  0  0  0  0  0  0  # atno 17370 bound_to 10713
  157.1271  130.6086  149.5520 LP  0  0  0  0  0  0  0  0  0  0  0  0  # atno 17371 bound_to 10713
  140.0058  135.0009  157.0288 LP  0  0  0  0  0  0  0  0  0  0  0  0  # atno 17394 bound_to 11000
  140.4685  134.1410  155.7200 LP  0  0  0  0  0  0  0  0  0  0  0  0  # atno 17395 bound_to 11000

$$$$
