AV-unprocessed.smi:2792|AV-procd|sdf|10773|dock10
  -GOLD-   2272015213D 1   1.00000     0.00000
 Structure written by MMmdl.
 44 46  0  0  0  0  0  0  0  0  1 V2000
  144.7383  135.6467  152.5215 C   0  0  0  0  0  0  0  0  0  0  0  0
  145.7060  136.7331  152.0239 C   0  0  0  0  0  0  0  0  0  0  0  0
  146.1549  137.7682  153.0881 C   0  0  2  0  0  0  0  0  0  0  0  0
  146.9872  137.1255  154.2137 C   0  0  0  0  0  0  0  0  0  0  0  0
  144.9907  138.3096  153.6834 O   0  0  0  0  0  0  0  0  0  0  0  0
  146.9615  138.9349  152.4601 C   0  0  0  0  0  0  0  0  0  0  0  0
  147.6165  139.8030  153.4272 N   0  0  0  0  0  0  0  0  0  0  0  0
  147.1232  140.9795  153.9470 C   0  0  0  0  0  0  0  0  0  0  0  0
  147.9012  141.5800  154.8062 N   0  0  0  0  0  0  0  0  0  0  0  0
  149.0207  140.7607  154.8732 C   0  0  0  0  0  0  0  0  0  0  0  0
  150.2356  140.8138  155.6034 C   0  0  0  0  0  0  0  0  0  0  0  0
  150.4933  141.8271  156.4593 N   0  0  0  0  0  0  0  0  0  0  0  0
  151.6237  141.7439  157.3786 C   0  0  0  0  0  0  0  0  0  0  0  0
  151.7702  142.9265  158.3234 C   0  0  0  0  0  0  0  0  0  0  0  0
  151.9818  142.7185  159.7035 C   0  0  0  0  0  0  0  0  0  0  0  0
  152.1206  143.8178  160.5728 C   0  0  0  0  0  0  0  0  0  0  0  0
  152.0463  145.1298  160.0666 C   0  0  0  0  0  0  0  0  0  0  0  0
  151.8321  145.3418  158.6909 C   0  0  0  0  0  0  0  0  0  0  0  0
  151.6925  144.2425  157.8213 C   0  0  0  0  0  0  0  0  0  0  0  0
  151.1366  139.8154  155.4066 N   0  0  0  0  0  0  0  0  0  0  0  0
  150.8604  138.8224  154.5554 C   0  0  0  0  0  0  0  0  0  0  0  0
  149.7664  138.6394  153.8122 N   0  0  0  0  0  0  0  0  0  0  0  0
  148.8627  139.6427  154.0074 C   0  0  0  0  0  0  0  0  0  0  0  0
  144.4151  135.0158  151.6934 H   0  0  0  0  0  0  0  0  0  0  0  0
  143.8446  136.0806  152.9704 H   0  0  0  0  0  0  0  0  0  0  0  0
  145.2067  134.9950  153.2588 H   0  0  0  0  0  0  0  0  0  0  0  0
  146.5863  136.2456  151.6035 H   0  0  0  0  0  0  0  0  0  0  0  0
  145.2238  137.2478  151.1922 H   0  0  0  0  0  0  0  0  0  0  0  0
  147.8728  136.6311  153.8135 H   0  0  0  0  0  0  0  0  0  0  0  0
  146.4169  136.3837  154.7730 H   0  0  0  0  0  0  0  0  0  0  0  0
  147.3258  137.8730  154.9321 H   0  0  0  0  0  0  0  0  0  0  0  0
  144.6676  139.0072  153.1339 H   0  0  0  0  0  0  0  0  0  0  0  0
  147.7241  138.5487  151.7820 H   0  0  0  0  0  0  0  0  0  0  0  0
  146.3020  139.5533  151.8494 H   0  0  0  0  0  0  0  0  0  0  0  0
  146.1563  141.3761  153.6734 H   0  0  0  0  0  0  0  0  0  0  0  0
  149.8201  142.5526  156.6598 H   0  0  0  0  0  0  0  0  0  0  0  0
  151.5567  140.8168  157.9494 H   0  0  0  0  0  0  0  0  0  0  0  0
  152.5354  141.6705  156.7855 H   0  0  0  0  0  0  0  0  0  0  0  0
  152.0411  141.7151  160.0992 H   0  0  0  0  0  0  0  0  0  0  0  0
  152.2853  143.6544  161.6275 H   0  0  0  0  0  0  0  0  0  0  0  0
  152.1543  145.9731  160.7329 H   0  0  0  0  0  0  0  0  0  0  0  0
  151.7760  146.3477  158.3017 H   0  0  0  0  0  0  0  0  0  0  0  0
  151.5314  144.4129  156.7670 H   0  0  0  0  0  0  0  0  0  0  0  0
  151.6255  138.0668  154.4556 H   0  0  0  0  0  0  0  0  0  0  0  0
  1  2  1  0  0  0  0
  1 24  1  0  0  0  0
  1 25  1  0  0  0  0
  1 26  1  0  0  0  0
  2  3  1  0  0  0  0
  2 27  1  0  0  0  0
  2 28  1  0  0  0  0
  3  4  1  0  0  0  0
  3  5  1  0  0  0  0
  3  6  1  0  0  0  0
  4 29  1  0  0  0  0
  4 30  1  0  0  0  0
  4 31  1  0  0  0  0
  5 32  1  0  0  0  0
  6  7  1  0  0  0  0
  6 33  1  0  0  0  0
  6 34  1  0  0  0  0
  7 23  1  0  0  0  0
  7  8  1  0  0  0  0
  8  9  2  0  0  0  0
  8 35  1  0  0  0  0
  9 10  1  0  0  0  0
 10 23  2  0  0  0  0
 10 11  1  0  0  0  0
 11 12  1  0  0  0  0
 11 20  2  0  0  0  0
 12 13  1  0  0  0  0
 12 36  1  0  0  0  0
 13 14  1  0  0  0  0
 13 37  1  0  0  0  0
 13 38  1  0  0  0  0
 14 19  1  0  0  0  0
 14 15  2  0  0  0  0
 15 16  1  0  0  0  0
 15 39  1  0  0  0  0
 16 17  2  0  0  0  0
 16 40  1  0  0  0  0
 17 18  1  0  0  0  0
 17 41  1  0  0  0  0
 18 19  2  0  0  0  0
 18 42  1  0  0  0  0
 19 43  1  0  0  0  0
 20 21  1  0  0  0  0
 21 22  2  0  0  0  0
 21 44  1  0  0  0  0
 22 23  1  0  0  0  0
M  END
> <s_m_source_file>
AV-unprocessed.smi

> <i_m_source_file_index>
2792

> <i_lp_mmshare_version>
43012

> <i_f3d_flags>
0

> <s_epik_input>
W0NIM11bQ0gyXVtDQEBdKFtDSDNdKShbT0hdKVtDSDJdbihbY0hdbjEpYyhjMTIpbltjSF1uYzJbTkhdW0NIMl1jM1tjSF1bY0hdW2NIXVtjSF1bY0hdMw==

> <s_epik_cmdline>
J2VwaWtfcHl0aG9uJywgJy1waCcsICc3LjAnLCAnLXRuJywgJzgnLCAnLW1hJywgJzIwMCcsICctbWV0YWxfYmluZGluZycsICctaW1hZScsICc8aW5maWxlLm1hZT4nLCAnLW9tYWUnLCAnPG91dGZpbGUubWFlPic=

> <r_lp_tautomer_probability>
1

> <r_epik_Ionization_Penalty>
0.00163025

> <r_epik_Ionization_Penalty_Charging>
0

> <r_epik_Ionization_Penalty_Neutral>
0.00163025

> <r_epik_State_Penalty>
-0

> <r_epik_Charging_Adjusted_Penalty>
0

> <i_epik_Tot_Q>
0

> <i_epik_Tot_abs_Q>
0

> <r_epik_Metal_State_Penalty>
-0

> <b_epik_Metal_Only>
0

> <s_lp_Force_Field>
OPLS_2005

> <r_lp_Energy>
12.9035

> <b_lp_Chiralities_Consistent>
1

> <s_lp_Variant>
AV-unprocessed.smi:2792-2

> <Gold.Version>
5.8.1

> <Gold.Id.Protein>
6NUR|6NUR_protein|mol2

> <Gold.PLP.Fitness>
49.3199

> <Gold.PLP.PLP>
-46.7656

> <Gold.PLP.part.hbond>
-1.3053

> <Gold.PLP.part.metal>
0.0000

> <Gold.PLP.part.buried>
-5.2335

> <Gold.PLP.part.nonpolar>
-41.8562

> <Gold.PLP.part.repulsive>
1.5605

> <Gold.PLP.ligand.clash>
0.0000

> <Gold.PLP.ligand.torsion>
0.6910

> <Gold.PLP.Chemscore.Hbond>
1.0190

> <Gold.PLP.Chemscore.CHOScore>
0.2415

> <Gold.PLP.Chemscore.Metal>
0.0000

> <Gold.Chemscore.Hbonds>
donor molecule, donor type, donor heavy atom, donor atom, acceptor molecule, acceptor atom, score
      L1  H     5    32       P1 10175  1.00
      P1  H  7989  7998       L1    20  0.01
      L1  C     8    35       P1 10175  0.13

> <Gold.PLP.Chemscore.Internal.Correction>
0.1550

> <Gold.Rescore>
     Score         DG    S(hbond)    S(metal)    S(lipo)     H(rot)  DE(clash)    DE(int)     intcor
     13.99     -14.92       1.00        0.00     107.36       2.52       0.19       0.74       ----

> <Gold.Chemscore.Fitness>
13.9876

> <Gold.Chemscore.DG>
-14.9154

> <Gold.Chemscore.ZeroCoef>
-5.4800

> <Gold.Chemscore.Hbond>
0.9995

> <Gold.Chemscore.Metal>
0.0000

> <Gold.Chemscore.Lipo>
107.3600

> <Gold.Chemscore.Internal_Hbond>
0.0000

> <Gold.Chemscore.DEClash>
0.1878

> <Gold.Chemscore.DEInternal>
0.7399

> <Gold.Chemscore.Rot>
2.5250

> <Gold.Chemscore.Internal.Correction>
   9.000000E+99

> <Gold.Chemscore.Hbonds>
donor molecule, donor type, donor heavy atom, donor atom, acceptor molecule, acceptor atom, score
      L1  H     5    32       P1 10175  1.00

> <Gold.Chemscore.Hbond.Weighted>
-3.3382

> <Gold.Chemscore.Metal.Weighted>
-0.0000

> <Gold.Chemscore.Lipo.Weighted>
-12.5611

> <Gold.Chemscore.Internal_Hbond.Weighted>
0.0000

> <Gold.Chemscore.DEClash.Weighted>
0.1878

> <Gold.Chemscore.DEInternal.Weighted>
0.7399

> <Gold.Chemscore.Rot.Weighted>
6.4639

> <Gold.Chemscore.Internal.Correction.Weighted>
   9.000000E+99

> <Gold.Protein.RotatedTorsions>
[ 6907 6896 6895 6894 ] final   90.90 input  -60.11 | X-H torsion
[ 7974 7965 7964 7962 ] final   -1.06 input  175.53 | X-H torsion
[ 8008 7997 7996 7995 ] final  -22.93 input   59.86 | X-H torsion
[ 10167 10162 10161 10158 ] final   -5.46 input  -65.29 | X-H torsion
[ 10718 10713 10712 10709 ] final  129.04 input   66.30 | X-H torsion
[ 10763 10752 10751 10750 ] final  162.97 input  -60.55 | X-H torsion
[ 11005 11000 10999 10996 ] final -169.41 input  -57.11 | X-H torsion

> <Gold.Protein.ActiveResidues>
 VAL166  LYS551  ARG553  GLY616  TRP617  ASP618  TYR619  PRO620  LYS621  CYS622 
 ASP623  PHE694  ASN695  SER759  ASP760  ASP761  ALA762  ILE779  LEU786  VAL792 
 PHE793  MET794  SER795  GLU796  ALA797  LYS798  CYS799  TRP800  GLU811  SER814 

> <Gold.Protein.RotatedAtoms>
  152.5447  134.1740  159.8608 H   0  0  0  0  0  0  0  0  0  0  0  0  # atno 6907 bound_to 6896
  151.1748  133.4754  159.2601 H   0  0  0  0  0  0  0  0  0  0  0  0  # atno 6908 bound_to 6896
  151.1238  135.0105  159.8606 H   0  0  0  0  0  0  0  0  0  0  0  0  # atno 6909 bound_to 6896
  146.2421  140.1364  142.8336 H   0  0  0  0  0  0  0  0  0  0  0  0  # atno 7974 bound_to 7965
  154.4614  140.1994  156.0233 H   0  0  0  0  0  0  0  0  0  0  0  0  # atno 8008 bound_to 7997
  156.0848  140.3266  155.7711 H   0  0  0  0  0  0  0  0  0  0  0  0  # atno 8009 bound_to 7997
  155.5053  140.0557  157.2923 H   0  0  0  0  0  0  0  0  0  0  0  0  # atno 8010 bound_to 7997
  140.6964  143.6306  150.8527 H   0  0  0  0  0  0  0  0  0  0  0  0  # atno 10167 bound_to 10162
  157.5190  131.1098  150.9181 H   0  0  0  0  0  0  0  0  0  0  0  0  # atno 10718 bound_to 10713
  154.2866  135.2762  155.2674 H   0  0  0  0  0  0  0  0  0  0  0  0  # atno 10763 bound_to 10752
  154.5171  135.5766  153.6654 H   0  0  0  0  0  0  0  0  0  0  0  0  # atno 10764 bound_to 10752
  152.9921  135.6195  154.3028 H   0  0  0  0  0  0  0  0  0  0  0  0  # atno 10765 bound_to 10752
  140.5311  134.5615  157.5075 H   0  0  0  0  0  0  0  0  0  0  0  0  # atno 11005 bound_to 11000
  145.0283  140.8850  143.5125 LP  0  0  0  0  0  0  0  0  0  0  0  0  # atno 17320 bound_to 7965
  145.1424  139.2564  143.5483 LP  0  0  0  0  0  0  0  0  0  0  0  0  # atno 17321 bound_to 7965
  140.0024  143.5730  152.2870 LP  0  0  0  0  0  0  0  0  0  0  0  0  # atno 17342 bound_to 10162
  139.6424  144.7655  151.2312 LP  0  0  0  0  0  0  0  0  0  0  0  0  # atno 17343 bound_to 10162
  156.9798  130.5522  149.5295 LP  0  0  0  0  0  0  0  0  0  0  0  0  # atno 17370 bound_to 10713
  156.0340  130.5429  150.8607 LP  0  0  0  0  0  0  0  0  0  0  0  0  # atno 17371 bound_to 10713
  139.9554  134.7544  156.0354 LP  0  0  0  0  0  0  0  0  0  0  0  0  # atno 17394 bound_to 11000
  141.1281  133.6594  156.3390 LP  0  0  0  0  0  0  0  0  0  0  0  0  # atno 17395 bound_to 11000

$$$$
