#       Name:                AV-unprocessed.smi:1795
#       Creating user name   scv26
#       Creation time:       Fri Mar 27 08:49:58 2020


#       File generated by GOLD software.
#

@<TRIPOS>MOLECULE
AV-unprocessed.smi:1795
    54    55     1
SMALL
NO_CHARGES


@<TRIPOS>ATOM
      1 ****        -1.0168  -0.8768  -4.9091 C.3            1 S1                 0.0000
      2 ****        -0.9675  -1.8063  -3.6830 C.3            1 S1                 0.0000
      3 ****        -0.3797  -1.1350  -2.4247 C.3            1 S1                 0.0000
      4 ****        -1.3391  -0.1858  -1.7939 N.4            1 S1                 1.0000
      5 ****        -0.8318   0.5238  -0.5722 C.3            1 S1                 0.0000
      6 ****        -1.6888   1.7786  -0.2828 C.3            1 S1                 0.0000
      7 ****         0.6716   0.9153  -0.6564 C.3            1 S1                 0.0000
      8 ****         1.1567   1.5974   0.5406 N.am           1 S1                 0.0000
      9 ****         1.4556   0.9914   1.6998 C.2            1 S1                 0.0000
     10 ****         1.3216  -0.2200   1.8779 O.2            1 S1                 0.0000
     11 ****         1.9600   1.9004   2.8293 C.3            1 S1                 0.0000
     12 ****         2.8039   1.1926   3.8065 N.am           1 S1                 0.0000
     13 ****         2.1862   0.7637   4.9983 C.2            1 S1                 0.0000
     14 ****         2.8639   0.1056   5.9523 C.2            1 S1                 0.0000
     15 ****         4.2658  -0.1607   5.7336 C.2            1 S1                 0.0000
     16 ****         4.8659   0.2421   4.5957 C.2            1 S1                 0.0000
     17 ****         4.1280   0.9584   3.5486 C.2            1 S1                 0.0000
     18 ****         4.6663   1.3248   2.5032 O.2            1 S1                 0.0000
     19 ****        -2.6324  -0.8817  -1.5551 C.3            1 S1                 0.0000
     20 ****        -3.1894  -1.4839  -2.8561 C.3            1 S1                 0.0000
     21 ****        -4.4909  -2.2589  -2.6209 C.3            1 S1                 0.0000
     22 ****        -2.2357  -2.3892  -3.3975 O.3            1 S1                 0.0000
     23 ****        -0.0130  -0.5635  -5.1967 H              1 S1                 0.0000
     24 ****        -1.5955   0.0272  -4.7221 H              1 S1                 0.0000
     25 ****        -1.4583  -1.3871  -5.7655 H              1 S1                 0.0000
     26 ****        -0.3118  -2.6362  -3.9491 H              1 S1                 0.0000
     27 ****        -0.1051  -1.8977  -1.6940 H              1 S1                 0.0000
     28 ****         0.5373  -0.6299  -2.7254 H              1 S1                 0.0000
     29 ****        -0.9394  -0.1650   0.2674 H              1 S1                 0.0000
     30 ****        -1.3466   2.3078   0.6064 H              1 S1                 0.0000
     31 ****        -2.7348   1.5433  -0.0969 H              1 S1                 0.0000
     32 ****        -1.6502   2.4806  -1.1164 H              1 S1                 0.0000
     33 ****         1.3077   0.0412  -0.8002 H              1 S1                 0.0000
     34 ****         0.8410   1.5715  -1.5106 H              1 S1                 0.0000
     35 ****         1.2887   2.5968   0.4785 H              1 S1                 0.0000
     36 ****         2.5078   2.7440   2.4044 H              1 S1                 0.0000
     37 ****         1.0924   2.3426   3.3210 H              1 S1                 0.0000
     38 ****         1.1342   0.9955   5.0813 H              1 S1                 0.0000
     39 ****         2.3725  -0.2193   6.8578 H              1 S1                 0.0000
     40 ****         4.8361  -0.6863   6.4853 H              1 S1                 0.0000
     41 ****         5.9155   0.0331   4.4493 H              1 S1                 0.0000
     42 ****        -2.4895  -1.6664  -0.8099 H              1 S1                 0.0000
     43 ****        -3.3779  -0.1991  -1.1527 H              1 S1                 0.0000
     44 ****        -3.3973  -0.6876  -3.5710 H              1 S1                 0.0000
     45 ****        -5.2655  -1.6112  -2.2093 H              1 S1                 0.0000
     46 ****        -4.3399  -3.0846  -1.9248 H              1 S1                 0.0000
     47 ****        -4.8697  -2.6758  -3.5543 H              1 S1                 0.0000
     48 ****        -1.5135   0.5301  -2.4847 H              1 S1                 0.0000
     49 ****         0.9760  -0.7987   1.1392 LP             1 S1                 0.0000
     50 ****         1.5586  -0.6247   2.7611 LP             1 S1                 0.0000
     51 ****         4.1336   1.8102   1.8099 LP             1 S1                 0.0000
     52 ****         5.6361   1.1369   2.3476 LP             1 S1                 0.0000
     53 ****        -2.0986  -3.1297  -2.7396 LP             1 S1                 0.0000
     54 ****        -2.6066  -2.7630  -4.2476 LP             1 S1                 0.0000
@<TRIPOS>BOND
    1    1    2 1     
    2    1   23 1     
    3    1   24 1     
    4    1   25 1     
    5    2   22 1     
    6    2    3 1     
    7    2   26 1     
    8    3    4 1     
    9    3   27 1     
   10    3   28 1     
   11    4    5 1     
   12    4   19 1     
   13    4   48 1     
   14    5    6 1     
   15    5    7 1     
   16    5   29 1     
   17    6   30 1     
   18    6   31 1     
   19    6   32 1     
   20    7    8 1     
   21    7   33 1     
   22    7   34 1     
   23    8    9 am    
   24    8   35 1     
   25    9   10 2     
   26    9   11 1     
   27   11   12 1     
   28   11   36 1     
   29   11   37 1     
   30   12   17 am    
   31   12   13 1     
   32   13   14 2     
   33   13   38 1     
   34   14   15 1     
   35   14   39 1     
   36   15   16 2     
   37   15   40 1     
   38   16   17 1     
   39   16   41 1     
   40   17   18 2     
   41   19   20 1     
   42   19   42 1     
   43   19   43 1     
   44   20   21 1     
   45   20   22 1     
   46   20   44 1     
   47   21   45 1     
   48   21   46 1     
   49   21   47 1     
   50   10   49 1     
   51   10   50 1     
   52   18   51 1     
   53   18   52 1     
   54   22   53 1     
   55   22   54 1     
@<TRIPOS>SUBSTRUCTURE
      1 S1             1
@<TRIPOS>SET
LONE_PAIRS      STATIC     ATOMS    <user>   **** ""
6 49 50 51 52 53 54
DONOR_HYDROGENS      STATIC     ATOMS    <user>   **** ""
2 48 35
ATOM$BLUE        STATIC     ATOMS    COLORGROUP SYSTEM
6 49 50 51 52 53 54
ATOM$RED        STATIC     ATOMS    COLORGROUP SYSTEM
2 48 35
