AV-unprocessed.smi:483|AV-procd|sdf|2686|dock1
  -GOLD-   2262023113D 1   1.00000     0.00000
 Structure written by MMmdl.
 44 44  0  0  0  0  0  0  0  0  1 V2000
  146.2971  137.2643  151.6756 C   0  0  0  0  0  0  0  0  0  0  0  0
  146.8779  138.6647  151.4274 C   0  0  0  0  0  0  0  0  0  0  0  0
  147.4085  139.3641  152.6927 C   0  0  0  0  0  0  0  0  0  0  0  0
  148.4549  138.5835  153.3456 N   0  0  0  0  0  0  0  0  0  0  0  0
  148.6912  138.5515  154.6662 C   0  0  0  0  0  0  0  0  0  0  0  0
  148.0777  139.2427  155.4812 O   0  0  0  0  0  0  0  0  0  0  0  0
  149.7661  137.5601  155.1404 C   0  0  1  0  0  0  0  0  0  0  0  0
  151.1214  137.9570  154.5305 C   0  0  0  0  0  0  0  0  0  0  0  0
  149.8744  137.6434  156.5952 N   0  0  0  0  0  0  0  0  0  0  0  0
  148.9936  137.1138  157.4593 C   0  0  0  0  0  0  0  0  0  0  0  0
  148.0551  136.3960  157.1107 O   0  0  0  0  0  0  0  0  0  0  0  0
  149.1983  137.4551  158.9410 C   0  0  0  0  0  0  0  0  0  0  0  0
  148.2744  136.7107  159.8095 N   0  0  0  0  0  0  0  0  0  0  0  0
  147.6156  137.4930  160.7379 N   0  0  0  0  0  0  0  0  0  0  0  0
  146.8148  136.9728  161.6089 C   0  0  0  0  0  0  0  0  0  0  0  0
  146.1603  137.9215  162.5766 C   0  0  0  0  0  0  0  0  0  0  0  0
  146.5902  135.5306  161.6150 C   0  0  0  0  0  0  0  0  0  0  0  0
  145.6440  134.9735  162.6696 C   0  0  0  0  0  0  0  0  0  0  0  0
  147.2316  134.7748  160.6891 C   0  0  0  0  0  0  0  0  0  0  0  0
  147.0828  133.3567  160.6236 C   0  0  0  0  0  0  0  0  0  0  0  0
  146.9436  132.2092  160.5611 N   0  0  0  0  0  0  0  0  0  0  0  0
  148.1321  135.3583  159.6929 C   0  0  0  0  0  0  0  0  0  0  0  0
  148.7198  134.7018  158.8316 O   0  0  0  0  0  0  0  0  0  0  0  0
  145.8702  136.8527  150.7608 H   0  0  0  0  0  0  0  0  0  0  0  0
  145.5087  137.2906  152.4281 H   0  0  0  0  0  0  0  0  0  0  0  0
  147.0638  136.5698  152.0175 H   0  0  0  0  0  0  0  0  0  0  0  0
  147.6752  138.5960  150.6865 H   0  0  0  0  0  0  0  0  0  0  0  0
  146.1046  139.2908  150.9811 H   0  0  0  0  0  0  0  0  0  0  0  0
  147.8351  140.3293  152.4198 H   0  0  0  0  0  0  0  0  0  0  0  0
  146.5866  139.5800  153.3772 H   0  0  0  0  0  0  0  0  0  0  0  0
  149.0052  137.9777  152.7542 H   0  0  0  0  0  0  0  0  0  0  0  0
  149.5138  136.5422  154.8356 H   0  0  0  0  0  0  0  0  0  0  0  0
  151.0859  137.9315  153.4406 H   0  0  0  0  0  0  0  0  0  0  0  0
  151.9050  137.2671  154.8452 H   0  0  0  0  0  0  0  0  0  0  0  0
  151.4286  138.9600  154.8306 H   0  0  0  0  0  0  0  0  0  0  0  0
  150.6183  138.2175  156.9646 H   0  0  0  0  0  0  0  0  0  0  0  0
  150.2346  137.2318  159.2009 H   0  0  0  0  0  0  0  0  0  0  0  0
  149.0769  138.5281  159.1026 H   0  0  0  0  0  0  0  0  0  0  0  0
  145.0777  137.9172  162.4495 H   0  0  0  0  0  0  0  0  0  0  0  0
  146.5045  138.9474  162.4367 H   0  0  0  0  0  0  0  0  0  0  0  0
  146.3821  137.6393  163.6060 H   0  0  0  0  0  0  0  0  0  0  0  0
  145.4864  133.9013  162.5572 H   0  0  0  0  0  0  0  0  0  0  0  0
  144.6674  135.4542  162.6038 H   0  0  0  0  0  0  0  0  0  0  0  0
  146.0451  135.1441  163.6692 H   0  0  0  0  0  0  0  0  0  0  0  0
  1  2  1  0  0  0  0
  1 24  1  0  0  0  0
  1 25  1  0  0  0  0
  1 26  1  0  0  0  0
  2  3  1  0  0  0  0
  2 27  1  0  0  0  0
  2 28  1  0  0  0  0
  3  4  1  0  0  0  0
  3 29  1  0  0  0  0
  3 30  1  0  0  0  0
  4  5  1  0  0  0  0
  4 31  1  0  0  0  0
  5  6  2  0  0  0  0
  5  7  1  0  0  0  0
  7  8  1  0  0  0  0
  7  9  1  0  0  0  0
  7 32  1  0  0  0  0
  8 33  1  0  0  0  0
  8 34  1  0  0  0  0
  8 35  1  0  0  0  0
  9 10  1  0  0  0  0
  9 36  1  0  0  0  0
 10 11  2  0  0  0  0
 10 12  1  0  0  0  0
 12 13  1  0  0  0  0
 12 37  1  0  0  0  0
 12 38  1  0  0  0  0
 13 22  1  0  0  0  0
 13 14  1  0  0  0  0
 14 15  2  0  0  0  0
 15 16  1  0  0  0  0
 15 17  1  0  0  0  0
 16 39  1  0  0  0  0
 16 40  1  0  0  0  0
 16 41  1  0  0  0  0
 17 18  1  0  0  0  0
 17 19  2  0  0  0  0
 18 42  1  0  0  0  0
 18 43  1  0  0  0  0
 18 44  1  0  0  0  0
 19 20  1  0  0  0  0
 19 22  1  0  0  0  0
 20 21  3  0  0  0  0
 22 23  2  0  0  0  0
M  END
> <s_m_source_file>
AV-unprocessed.smi

> <i_m_source_file_index>
483

> <i_lp_mmshare_version>
43012

> <i_f3d_flags>
0

> <s_epik_input>
W0NIM11bQ0gyXVtDSDJdW05IXUMoPU8pW0NASF0oW0NIM10pW05IXUMoPU8pW0NIMl1uMW5jKFtDSDNdKWMoW0NIM10pYyhDI04pYzE9Tw==

> <s_epik_cmdline>
J2VwaWtfcHl0aG9uJywgJy1waCcsICc3LjAnLCAnLXRuJywgJzgnLCAnLW1hJywgJzIwMCcsICctbWV0YWxfYmluZGluZycsICctaW1hZScsICc8aW5maWxlLm1hZT4nLCAnLW9tYWUnLCAnPG91dGZpbGUubWFlPic=

> <r_lp_tautomer_probability>
1

> <r_epik_Ionization_Penalty>
5.96698e-08

> <r_epik_Ionization_Penalty_Charging>
1.88177e-11

> <r_epik_Ionization_Penalty_Neutral>
5.9651e-08

> <r_epik_State_Penalty>
-0

> <r_epik_Charging_Adjusted_Penalty>
1.88177e-11

> <i_epik_Tot_Q>
0

> <i_epik_Tot_abs_Q>
0

> <r_epik_Metal_State_Penalty>
-0

> <b_epik_Metal_Only>
0

> <s_lp_Force_Field>
OPLS_2005

> <r_lp_Energy>
18.0289

> <b_lp_Chiralities_Consistent>
1

> <s_lp_Variant>
AV-unprocessed.smi:483-2

> <Gold.Version>
5.8.1

> <Gold.Id.Protein>
6NUR|6NUR_protein|mol2

> <Gold.PLP.Fitness>
47.0830

> <Gold.PLP.PLP>
-36.8110

> <Gold.PLP.part.hbond>
-4.8796

> <Gold.PLP.part.metal>
0.0000

> <Gold.PLP.part.buried>
-0.0621

> <Gold.PLP.part.nonpolar>
-32.5574

> <Gold.PLP.part.repulsive>
0.0396

> <Gold.PLP.ligand.clash>
0.0000

> <Gold.PLP.ligand.torsion>
0.5306

> <Gold.PLP.Chemscore.Hbond>
3.7120

> <Gold.PLP.Chemscore.CHOScore>
0.0000

> <Gold.PLP.Chemscore.Metal>
0.0000

> <Gold.Chemscore.Hbonds>
donor molecule, donor type, donor heavy atom, donor atom, acceptor molecule, acceptor atom, score
      L1  H     4    31       P1  7948  0.86
      P1  H  6896  6909       L1    23  0.60
      P1  H  6931  6943       L1    14  0.67
      P1  H  6934  6947       L1    14  0.84

> <Gold.PLP.Chemscore.Internal.Correction>
0.1973

> <Gold.Rescore>
     Score         DG    S(hbond)    S(metal)    S(lipo)     H(rot)  DE(clash)    DE(int)     intcor
     12.85     -15.30       2.42        0.00      66.97       2.38       0.64       1.81       ----

> <Gold.Chemscore.Fitness>
12.8483

> <Gold.Chemscore.DG>
-15.2971

> <Gold.Chemscore.ZeroCoef>
-5.4800

> <Gold.Chemscore.Hbond>
2.4165

> <Gold.Chemscore.Metal>
0.0000

> <Gold.Chemscore.Lipo>
66.9668

> <Gold.Chemscore.Internal_Hbond>
0.0000

> <Gold.Chemscore.DEClash>
0.6430

> <Gold.Chemscore.DEInternal>
1.8057

> <Gold.Chemscore.Rot>
2.3785

> <Gold.Chemscore.Internal.Correction>
   9.000000E+99

> <Gold.Chemscore.Hbonds>
donor molecule, donor type, donor heavy atom, donor atom, acceptor molecule, acceptor atom, score
      L1  H     4    31       P1  7948  0.84
      P1  H  6896  6909       L1    23  0.54
      P1  H  6931  6943       L1    14  0.12
      P1  H  6934  6947       L1    14  0.16

> <Gold.Chemscore.Hbond.Weighted>
-8.0709

> <Gold.Chemscore.Metal.Weighted>
-0.0000

> <Gold.Chemscore.Lipo.Weighted>
-7.8351

> <Gold.Chemscore.Internal_Hbond.Weighted>
0.0000

> <Gold.Chemscore.DEClash.Weighted>
0.6430

> <Gold.Chemscore.DEInternal.Weighted>
1.8057

> <Gold.Chemscore.Rot.Weighted>
6.0890

> <Gold.Chemscore.Internal.Correction.Weighted>
   9.000000E+99

> <Gold.Protein.RotatedTorsions>
[ 6907 6896 6895 6894 ] final   10.44 input  -60.11 | X-H torsion
[ 7974 7965 7964 7962 ] final  -23.32 input  175.53 | X-H torsion
[ 8008 7997 7996 7995 ] final  156.20 input   59.86 | X-H torsion
[ 10167 10162 10161 10158 ] final   53.17 input  -65.29 | X-H torsion
[ 10718 10713 10712 10709 ] final  -56.23 input   66.30 | X-H torsion
[ 10763 10752 10751 10750 ] final  123.34 input  -60.55 | X-H torsion
[ 11005 11000 10999 10996 ] final  -96.83 input  -57.11 | X-H torsion

> <Gold.Protein.ActiveResidues>
 VAL166  LYS551  ARG553  GLY616  TRP617  ASP618  TYR619  PRO620  LYS621  CYS622 
 ASP623  PHE694  ASN695  SER759  ASP760  ASP761  ALA762  ILE779  LEU786  VAL792 
 PHE793  MET794  SER795  GLU796  ALA797  LYS798  CYS799  TRP800  GLU811  SER814 

> <Gold.Protein.RotatedAtoms>
  151.7383  135.0860  160.0311 H   0  0  0  0  0  0  0  0  0  0  0  0  # atno 6907 bound_to 6896
  152.3496  133.6159  159.5944 H   0  0  0  0  0  0  0  0  0  0  0  0  # atno 6908 bound_to 6896
  150.7531  133.9511  159.3527 H   0  0  0  0  0  0  0  0  0  0  0  0  # atno 6909 bound_to 6896
  146.1623  140.4600  142.8566 H   0  0  0  0  0  0  0  0  0  0  0  0  # atno 7974 bound_to 7965
  156.2436  140.1919  156.6918 H   0  0  0  0  0  0  0  0  0  0  0  0  # atno 8008 bound_to 7997
  154.6246  140.0604  156.9683 H   0  0  0  0  0  0  0  0  0  0  0  0  # atno 8009 bound_to 7997
  155.1808  140.3276  155.4378 H   0  0  0  0  0  0  0  0  0  0  0  0  # atno 8010 bound_to 7997
  140.2436  144.3556  150.6371 H   0  0  0  0  0  0  0  0  0  0  0  0  # atno 10167 bound_to 10162
  156.1305  130.4160  150.0277 H   0  0  0  0  0  0  0  0  0  0  0  0  # atno 10718 bound_to 10713
  153.6439  135.3374  155.3080 H   0  0  0  0  0  0  0  0  0  0  0  0  # atno 10763 bound_to 10752
  154.8553  135.4325  154.1975 H   0  0  0  0  0  0  0  0  0  0  0  0  # atno 10764 bound_to 10752
  153.2901  135.7016  153.7376 H   0  0  0  0  0  0  0  0  0  0  0  0  # atno 10765 bound_to 10752
  141.1399  133.8126  157.0624 H   0  0  0  0  0  0  0  0  0  0  0  0  # atno 11005 bound_to 11000
  144.8044  140.6272  143.6457 LP  0  0  0  0  0  0  0  0  0  0  0  0  # atno 17320 bound_to 7965
  145.4557  139.1518  143.3894 LP  0  0  0  0  0  0  0  0  0  0  0  0  # atno 17321 bound_to 7965
  140.6094  143.2169  151.6916 LP  0  0  0  0  0  0  0  0  0  0  0  0  # atno 17342 bound_to 10162
  139.5069  144.3665  152.0511 LP  0  0  0  0  0  0  0  0  0  0  0  0  # atno 17343 bound_to 10162
  156.8190  130.9352  151.3642 LP  0  0  0  0  0  0  0  0  0  0  0  0  # atno 17370 bound_to 10713
  157.6483  130.8863  149.9583 LP  0  0  0  0  0  0  0  0  0  0  0  0  # atno 17371 bound_to 10713
  140.0563  134.9779  157.1225 LP  0  0  0  0  0  0  0  0  0  0  0  0  # atno 17394 bound_to 11000
  140.3915  134.2179  155.7166 LP  0  0  0  0  0  0  0  0  0  0  0  0  # atno 17395 bound_to 11000

$$$$
