AV-unprocessed.smi:777|AV-procd|sdf|3702|dock4
  -GOLD-   22720 1123D 1   1.00000     0.00000
 Structure written by MMmdl.
 37 38  0  0  0  0  0  0  0  0  2 V2000
  153.5693  140.5919  160.3631 C   0  0  0  0  0  0  0  0  0  0  0  0
  153.1158  141.5441  159.2368 C   0  0  1  0  0  0  0  0  0  0  0  0
  152.0253  140.9421  158.3347 C   0  0  0  0  0  0  0  0  0  0  0  0
  151.3435  141.6704  157.6142 O   0  0  0  0  0  0  0  0  0  0  0  0
  151.8979  139.6039  158.4111 N   0  0  0  0  0  0  0  0  0  0  0  0
  151.1243  138.6342  157.6185 C   0  0  0  0  0  0  0  0  0  0  0  0
  150.3482  137.7751  158.6467 C   0  0  0  0  0  0  0  0  0  0  0  0
  150.6897  136.5798  158.7906 O   0  0  0  0  0  0  0  0  0  0  0  0
  149.3913  138.3104  159.2514 O   0  5  0  0  0  0  0  0  0  0  0  0
  150.1403  139.2357  156.5619 C   0  0  0  0  0  0  0  0  0  0  0  0
  150.8423  139.9121  155.3668 C   0  0  0  0  0  0  0  0  0  0  0  0
  151.8417  138.9656  154.6924 C   0  0  0  0  0  0  0  0  0  0  0  0
  152.8561  138.4349  155.7112 C   0  0  0  0  0  0  0  0  0  0  0  0
  152.1492  137.7255  156.8795 C   0  0  0  0  0  0  0  0  0  0  0  0
  152.6818  142.8381  159.7541 N   0  0  0  0  0  0  0  0  0  0  0  0
  152.2452  143.9340  159.0369 C   0  0  0  0  0  0  0  0  0  0  0  0
  151.8913  144.8993  159.9352 C   0  0  0  0  0  0  0  0  0  0  0  0
  152.1361  144.2913  161.1974 C   0  0  0  0  0  0  0  0  0  0  0  0
  152.6016  143.0584  161.0872 N   0  0  0  0  0  0  0  0  0  0  0  0
  153.9568  139.6573  159.9560 H   0  0  0  0  0  0  0  0  0  0  0  0
  152.7529  140.3428  161.0424 H   0  0  0  0  0  0  0  0  0  0  0  0
  154.3655  141.0430  160.9558 H   0  0  0  0  0  0  0  0  0  0  0  0
  153.9841  141.7277  158.6018 H   0  0  0  0  0  0  0  0  0  0  0  0
  152.4942  139.1653  159.0970 H   0  0  0  0  0  0  0  0  0  0  0  0
  149.5231  138.4296  156.1615 H   0  0  0  0  0  0  0  0  0  0  0  0
  149.4313  139.9271  157.0166 H   0  0  0  0  0  0  0  0  0  0  0  0
  150.0969  140.2386  154.6414 H   0  0  0  0  0  0  0  0  0  0  0  0
  151.3641  140.8125  155.6891 H   0  0  0  0  0  0  0  0  0  0  0  0
  151.3081  138.1312  154.2355 H   0  0  0  0  0  0  0  0  0  0  0  0
  152.3592  139.4844  153.8850 H   0  0  0  0  0  0  0  0  0  0  0  0
  153.5423  137.7436  155.2216 H   0  0  0  0  0  0  0  0  0  0  0  0
  153.4652  139.2574  156.0889 H   0  0  0  0  0  0  0  0  0  0  0  0
  152.9083  137.3560  157.5712 H   0  0  0  0  0  0  0  0  0  0  0  0
  151.6432  136.8404  156.4894 H   0  0  0  0  0  0  0  0  0  0  0  0
  152.2188  143.9334  157.9572 H   0  0  0  0  0  0  0  0  0  0  0  0
  151.5083  145.8863  159.7228 H   0  0  0  0  0  0  0  0  0  0  0  0
  151.9852  144.7044  162.1837 H   0  0  0  0  0  0  0  0  0  0  0  0
  1  2  1  0  0  0  0
  1 20  1  0  0  0  0
  1 21  1  0  0  0  0
  1 22  1  0  0  0  0
  2  3  1  0  0  0  0
  2 15  1  0  0  0  0
  2 23  1  0  0  0  0
  3  4  2  0  0  0  0
  3  5  1  0  0  0  0
  5  6  1  0  0  0  0
  5 24  1  0  0  0  0
  6 14  1  0  0  0  0
  6  7  1  0  0  0  0
  6 10  1  0  0  0  0
  7  8  2  0  0  0  0
  7  9  1  0  0  0  0
 10 11  1  0  0  0  0
 10 25  1  0  0  0  0
 10 26  1  0  0  0  0
 11 12  1  0  0  0  0
 11 27  1  0  0  0  0
 11 28  1  0  0  0  0
 12 13  1  0  0  0  0
 12 29  1  0  0  0  0
 12 30  1  0  0  0  0
 13 14  1  0  0  0  0
 13 31  1  0  0  0  0
 13 32  1  0  0  0  0
 14 33  1  0  0  0  0
 14 34  1  0  0  0  0
 15 19  1  0  0  0  0
 15 16  1  0  0  0  0
 16 17  2  0  0  0  0
 16 35  1  0  0  0  0
 17 18  1  0  0  0  0
 17 36  1  0  0  0  0
 18 19  2  0  0  0  0
 18 37  1  0  0  0  0
M  CHG  1   9  -1
M  END
> <s_m_source_file>
AV-unprocessed.smi

> <i_m_source_file_index>
777

> <i_lp_mmshare_version>
43012

> <i_f3d_flags>
0

> <s_epik_input>
bjFbY0hdW2NIXVtjSF1uMVtDQEhdKFtDSDNdKUMoPU8pW05IXUMyKEMoPU8pW09IXSlbQ0gyXVtDSDJdW0NIMl1bQ0gyXVtDSDJdMg==

> <s_epik_cmdline>
J2VwaWtfcHl0aG9uJywgJy1waCcsICc3LjAnLCAnLXRuJywgJzgnLCAnLW1hJywgJzIwMCcsICctbWV0YWxfYmluZGluZycsICctaW1hZScsICc8aW5maWxlLm1hZT4nLCAnLW9tYWUnLCAnPG91dGZpbGUubWFlPic=

> <r_lp_tautomer_probability>
1

> <r_epik_Ionization_Penalty>
0.000371068

> <r_epik_Ionization_Penalty_Charging>
0.000323848

> <r_epik_Ionization_Penalty_Neutral>
4.72198e-05

> <r_epik_State_Penalty>
0.000195685

> <r_epik_Charging_Adjusted_Penalty>
0.000519533

> <i_epik_Tot_Q>
-1

> <i_epik_Tot_abs_Q>
1

> <r_epik_Metal_State_Penalty>
-0

> <b_epik_Metal_Only>
0

> <s_lp_Force_Field>
OPLS_2005

> <r_lp_Energy>
12.5044

> <b_lp_Chiralities_Consistent>
1

> <s_lp_Variant>
AV-unprocessed.smi:777-2

> <Gold.Version>
5.8.1

> <Gold.Id.Protein>
6NUR|6NUR_protein|mol2

> <Gold.PLP.Fitness>
42.8198

> <Gold.PLP.PLP>
-38.3197

> <Gold.PLP.part.hbond>
-2.8850

> <Gold.PLP.part.metal>
0.0000

> <Gold.PLP.part.buried>
-3.5339

> <Gold.PLP.part.nonpolar>
-31.5014

> <Gold.PLP.part.repulsive>
0.1899

> <Gold.PLP.ligand.clash>
0.0000

> <Gold.PLP.ligand.torsion>
0.8434

> <Gold.PLP.Chemscore.Hbond>
2.0000

> <Gold.PLP.Chemscore.CHOScore>
0.0000

> <Gold.PLP.Chemscore.Metal>
0.0000

> <Gold.Chemscore.Hbonds>
donor molecule, donor type, donor heavy atom, donor atom, acceptor molecule, acceptor atom, score
      P1  H  6896  6908       L1     8  2.00

> <Gold.PLP.Chemscore.Internal.Correction>
0.1869

> <Gold.Rescore>
     Score         DG    S(hbond)    S(metal)    S(lipo)     H(rot)  DE(clash)    DE(int)     intcor
      9.39     -13.91       0.98        0.00      87.24       1.98       0.04       4.48       ----

> <Gold.Chemscore.Fitness>
9.3931

> <Gold.Chemscore.DG>
-13.9131

> <Gold.Chemscore.ZeroCoef>
-5.4800

> <Gold.Chemscore.Hbond>
0.9843

> <Gold.Chemscore.Metal>
0.0000

> <Gold.Chemscore.Lipo>
87.2440

> <Gold.Chemscore.Internal_Hbond>
0.0000

> <Gold.Chemscore.DEClash>
0.0358

> <Gold.Chemscore.DEInternal>
4.4842

> <Gold.Chemscore.Rot>
1.9774

> <Gold.Chemscore.Internal.Correction>
   9.000000E+99

> <Gold.Chemscore.Hbonds>
donor molecule, donor type, donor heavy atom, donor atom, acceptor molecule, acceptor atom, score
      P1  H  6896  6908       L1     8  0.95

> <Gold.Chemscore.Hbond.Weighted>
-3.2876

> <Gold.Chemscore.Metal.Weighted>
-0.0000

> <Gold.Chemscore.Lipo.Weighted>
-10.2075

> <Gold.Chemscore.Internal_Hbond.Weighted>
0.0000

> <Gold.Chemscore.DEClash.Weighted>
0.0358

> <Gold.Chemscore.DEInternal.Weighted>
4.4842

> <Gold.Chemscore.Rot.Weighted>
5.0620

> <Gold.Chemscore.Internal.Correction.Weighted>
   9.000000E+99

> <Gold.Protein.RotatedTorsions>
[ 6907 6896 6895 6894 ] final -156.97 input  -60.11 | X-H torsion
[ 7974 7965 7964 7962 ] final -171.21 input  175.53 | X-H torsion
[ 8008 7997 7996 7995 ] final -115.62 input   59.86 | X-H torsion
[ 10167 10162 10161 10158 ] final  -14.90 input  -65.29 | X-H torsion
[ 10718 10713 10712 10709 ] final    8.51 input   66.30 | X-H torsion
[ 10763 10752 10751 10750 ] final  -79.12 input  -60.55 | X-H torsion
[ 11005 11000 10999 10996 ] final -138.45 input  -57.11 | X-H torsion

> <Gold.Protein.ActiveResidues>
 VAL166  LYS551  ARG553  GLY616  TRP617  ASP618  TYR619  PRO620  LYS621  CYS622 
 ASP623  PHE694  ASN695  SER759  ASP760  ASP761  ALA762  ILE779  LEU786  VAL792 
 PHE793  MET794  SER795  GLU796  ALA797  LYS798  CYS799  TRP800  GLU811  SER814 

> <Gold.Protein.RotatedAtoms>
  151.2958  133.4145  159.2635 H   0  0  0  0  0  0  0  0  0  0  0  0  # atno 6907 bound_to 6896
  151.0238  134.9489  159.8084 H   0  0  0  0  0  0  0  0  0  0  0  0  # atno 6908 bound_to 6896
  152.5330  134.2920  159.9099 H   0  0  0  0  0  0  0  0  0  0  0  0  # atno 6909 bound_to 6896
  144.7160  140.1956  143.6344 H   0  0  0  0  0  0  0  0  0  0  0  0  # atno 7974 bound_to 7965
  155.0549  140.0393  157.2556 H   0  0  0  0  0  0  0  0  0  0  0  0  # atno 8008 bound_to 7997
  154.7107  140.2692  155.6608 H   0  0  0  0  0  0  0  0  0  0  0  0  # atno 8009 bound_to 7997
  156.2788  140.2722  156.1748 H   0  0  0  0  0  0  0  0  0  0  0  0  # atno 8010 bound_to 7997
  140.7209  143.5274  150.9561 H   0  0  0  0  0  0  0  0  0  0  0  0  # atno 10167 bound_to 10162
  156.9527  130.5903  149.5657 H   0  0  0  0  0  0  0  0  0  0  0  0  # atno 10718 bound_to 10713
  154.5346  135.5706  153.6788 H   0  0  0  0  0  0  0  0  0  0  0  0  # atno 10763 bound_to 10752
  152.9948  135.6213  154.2583 H   0  0  0  0  0  0  0  0  0  0  0  0  # atno 10764 bound_to 10752
  154.2511  135.2859  155.2796 H   0  0  0  0  0  0  0  0  0  0  0  0  # atno 10765 bound_to 10752
  140.8615  134.2163  157.4705 H   0  0  0  0  0  0  0  0  0  0  0  0  # atno 11005 bound_to 11000
  145.8728  139.2281  143.1651 LP  0  0  0  0  0  0  0  0  0  0  0  0  # atno 17320 bound_to 7965
  146.0069  140.8470  142.9990 LP  0  0  0  0  0  0  0  0  0  0  0  0  # atno 17321 bound_to 7965
  139.8993  143.6856  152.3134 LP  0  0  0  0  0  0  0  0  0  0  0  0  # atno 17342 bound_to 10162
  139.7199  144.7604  151.0972 LP  0  0  0  0  0  0  0  0  0  0  0  0  # atno 17343 bound_to 10162
  156.0356  130.5443  150.8644 LP  0  0  0  0  0  0  0  0  0  0  0  0  # atno 17370 bound_to 10713
  157.5711  131.0946  150.9416 LP  0  0  0  0  0  0  0  0  0  0  0  0  # atno 17371 bound_to 10713
  139.8707  134.9731  156.4799 LP  0  0  0  0  0  0  0  0  0  0  0  0  # atno 17394 bound_to 11000
  140.8678  133.8011  155.9332 LP  0  0  0  0  0  0  0  0  0  0  0  0  # atno 17395 bound_to 11000

$$$$
