AV-unprocessed.smi:1686|AV-procd|sdf|6761|dock5
  -GOLD-   22720 7523D 1   1.00000     0.00000
 Structure written by MMmdl.
 41 43  0  0  0  0  0  0  0  0  1 V2000
  152.6498  137.6180  159.0669 C   0  0  0  0  0  0  0  0  0  0  0  0
  153.5904  137.0184  160.0721 C   0  0  0  0  0  0  0  0  0  0  0  0
  153.8014  135.7087  160.0575 N   0  0  0  0  0  0  0  0  0  0  0  0
  154.7150  135.4450  161.0844 O   0  0  0  0  0  0  0  0  0  0  0  0
  155.0052  136.6294  161.6699 C   0  0  0  0  0  0  0  0  0  0  0  0
  156.1031  136.7596  162.9863 Cl  0  0  0  0  0  0  0  0  0  0  0  0
  154.3369  137.6724  161.0961 C   0  0  0  0  0  0  0  0  0  0  0  0
  154.3757  139.1419  161.4417 C   0  0  0  0  0  0  0  0  0  0  0  0
  154.3908  140.0214  160.1855 C   0  0  0  0  0  0  0  0  0  0  0  0
  155.3498  140.0157  159.4119 O   0  0  0  0  0  0  0  0  0  0  0  0
  153.3024  140.7841  160.0000 N   0  0  0  0  0  0  0  0  0  0  0  0
  153.0936  141.7196  158.8957 C   0  0  1  0  0  0  0  0  0  0  0  0
  151.8347  141.2983  158.1153 C   0  0  0  0  0  0  0  0  0  0  0  0
  153.0002  143.1624  159.4527 C   0  0  1  0  0  0  0  0  0  0  0  0
  152.8544  144.2461  158.3538 C   0  0  0  0  0  0  0  0  0  0  0  0
  151.6071  145.0329  158.7916 C   0  0  2  0  0  0  0  0  0  0  0  0
  151.9221  145.8316  160.0690 C   0  0  0  0  0  0  0  0  0  0  0  0
  151.9951  144.7317  161.1443 C   0  0  0  0  0  0  0  0  0  0  0  0
  151.7547  143.4441  160.3320 C   0  0  1  0  0  0  0  0  0  0  0  0
  150.7160  143.9177  159.3201 C   0  0  0  0  0  0  0  0  0  0  0  0
  152.6600  138.7069  159.1101 H   0  0  0  0  0  0  0  0  0  0  0  0
  151.6259  137.2885  159.2439 H   0  0  0  0  0  0  0  0  0  0  0  0
  152.9233  137.3282  158.0522 H   0  0  0  0  0  0  0  0  0  0  0  0
  153.5154  139.4193  162.0520 H   0  0  0  0  0  0  0  0  0  0  0  0
  155.2566  139.3829  162.0374 H   0  0  0  0  0  0  0  0  0  0  0  0
  152.5647  140.7253  160.6870 H   0  0  0  0  0  0  0  0  0  0  0  0
  153.9500  141.6671  158.2214 H   0  0  0  0  0  0  0  0  0  0  0  0
  151.6738  141.9211  157.2366 H   0  0  0  0  0  0  0  0  0  0  0  0
  150.9417  141.3638  158.7377 H   0  0  0  0  0  0  0  0  0  0  0  0
  151.9169  140.2696  157.7628 H   0  0  0  0  0  0  0  0  0  0  0  0
  153.9042  143.3556  160.0327 H   0  0  0  0  0  0  0  0  0  0  0  0
  153.7393  144.8787  158.2753 H   0  0  0  0  0  0  0  0  0  0  0  0
  152.6794  143.8026  157.3726 H   0  0  0  0  0  0  0  0  0  0  0  0
  151.1690  145.6351  157.9952 H   0  0  0  0  0  0  0  0  0  0  0  0
  152.8526  146.3940  159.9843 H   0  0  0  0  0  0  0  0  0  0  0  0
  151.1224  146.5377  160.2957 H   0  0  0  0  0  0  0  0  0  0  0  0
  152.9500  144.7244  161.6707 H   0  0  0  0  0  0  0  0  0  0  0  0
  151.2081  144.8719  161.8864 H   0  0  0  0  0  0  0  0  0  0  0  0
  151.4338  142.6095  160.9542 H   0  0  0  0  0  0  0  0  0  0  0  0
  149.7959  144.2816  159.7812 H   0  0  0  0  0  0  0  0  0  0  0  0
  150.4648  143.1693  158.5669 H   0  0  0  0  0  0  0  0  0  0  0  0
  1  2  1  0  0  0  0
  1 21  1  0  0  0  0
  1 22  1  0  0  0  0
  1 23  1  0  0  0  0
  2  7  1  0  0  0  0
  2  3  2  0  0  0  0
  3  4  1  0  0  0  0
  4  5  1  0  0  0  0
  5  6  1  0  0  0  0
  5  7  2  0  0  0  0
  7  8  1  0  0  0  0
  8  9  1  0  0  0  0
  8 24  1  0  0  0  0
  8 25  1  0  0  0  0
  9 10  2  0  0  0  0
  9 11  1  0  0  0  0
 11 12  1  0  0  0  0
 11 26  1  0  0  0  0
 12 13  1  0  0  0  0
 12 14  1  0  0  0  0
 12 27  1  0  0  0  0
 13 28  1  0  0  0  0
 13 29  1  0  0  0  0
 13 30  1  0  0  0  0
 14 19  1  0  0  0  0
 14 15  1  0  0  0  0
 14 31  1  0  0  0  0
 15 16  1  0  0  0  0
 15 32  1  0  0  0  0
 15 33  1  0  0  0  0
 16 20  1  0  0  0  0
 16 17  1  0  0  0  0
 16 34  1  0  0  0  0
 17 18  1  0  0  0  0
 17 35  1  0  0  0  0
 17 36  1  0  0  0  0
 18 19  1  0  0  0  0
 18 37  1  0  0  0  0
 18 38  1  0  0  0  0
 19 20  1  0  0  0  0
 19 39  1  0  0  0  0
 20 40  1  0  0  0  0
 20 41  1  0  0  0  0
M  END
> <s_m_source_file>
AV-unprocessed.smi

> <i_m_source_file_index>
1686

> <i_lp_mmshare_version>
43012

> <i_f3d_flags>
0

> <s_epik_input>
W0NIM11jMW5vYyhDbCljMVtDSDJdQyg9TylbTkhdW0NASF0oW0NIM10pW0NASF0oW0NIMl1bQ0BIXTIzKVtDQEhdKFtDSDJdMylbQ0gyXVtDSDJdMg==

> <s_epik_cmdline>
J2VwaWtfcHl0aG9uJywgJy1waCcsICc3LjAnLCAnLXRuJywgJzgnLCAnLW1hJywgJzIwMCcsICctbWV0YWxfYmluZGluZycsICctaW1hZScsICc8aW5maWxlLm1hZT4nLCAnLW9tYWUnLCAnPG91dGZpbGUubWFlPic=

> <r_lp_tautomer_probability>
1

> <r_epik_Ionization_Penalty>
2.01576e-08

> <r_epik_Ionization_Penalty_Charging>
0

> <r_epik_Ionization_Penalty_Neutral>
2.01576e-08

> <r_epik_State_Penalty>
-0

> <r_epik_Charging_Adjusted_Penalty>
0

> <i_epik_Tot_Q>
0

> <i_epik_Tot_abs_Q>
0

> <r_epik_Metal_State_Penalty>
-0

> <b_epik_Metal_Only>
0

> <s_lp_Force_Field>
OPLS_2005

> <r_lp_Energy>
46.9137

> <b_lp_Chiralities_Consistent>
1

> <s_lp_Variant>
AV-unprocessed.smi:1686-4

> <Gold.Version>
5.8.1

> <Gold.Id.Protein>
6NUR|6NUR_protein|mol2

> <Gold.PLP.Fitness>
44.9995

> <Gold.PLP.PLP>
-39.6643

> <Gold.PLP.part.hbond>
-2.0000

> <Gold.PLP.part.metal>
0.0000

> <Gold.PLP.part.buried>
-4.0203

> <Gold.PLP.part.nonpolar>
-32.9087

> <Gold.PLP.part.repulsive>
0.0852

> <Gold.PLP.ligand.clash>
0.0000

> <Gold.PLP.ligand.torsion>
0.3373

> <Gold.PLP.Chemscore.Hbond>
1.9913

> <Gold.PLP.Chemscore.CHOScore>
0.0000

> <Gold.PLP.Chemscore.Metal>
0.0000

> <Gold.Chemscore.Hbonds>
donor molecule, donor type, donor heavy atom, donor atom, acceptor molecule, acceptor atom, score
      P1  H  6896  6909       L1     3  1.00
      P1  H  7997  8010       L1    10  0.94

> <Gold.PLP.Chemscore.Internal.Correction>
0.0360

> <Gold.Rescore>
     Score         DG    S(hbond)    S(metal)    S(lipo)     H(rot)  DE(clash)    DE(int)     intcor
     23.18     -23.46       1.94        0.00     130.20       1.46       0.10       0.18       ----

> <Gold.Chemscore.Fitness>
23.1826

> <Gold.Chemscore.DG>
-23.4567

> <Gold.Chemscore.ZeroCoef>
-5.4800

> <Gold.Chemscore.Hbond>
1.9441

> <Gold.Chemscore.Metal>
0.0000

> <Gold.Chemscore.Lipo>
130.2000

> <Gold.Chemscore.Internal_Hbond>
0.0000

> <Gold.Chemscore.DEClash>
0.0966

> <Gold.Chemscore.DEInternal>
0.1775

> <Gold.Chemscore.Rot>
1.4648

> <Gold.Chemscore.Internal.Correction>
   9.000000E+99

> <Gold.Chemscore.Hbonds>
donor molecule, donor type, donor heavy atom, donor atom, acceptor molecule, acceptor atom, score
      P1  H  6896  6909       L1     3  0.84
      P1  H  7997  8010       L1    10  0.85

> <Gold.Chemscore.Hbond.Weighted>
-6.4932

> <Gold.Chemscore.Metal.Weighted>
-0.0000

> <Gold.Chemscore.Lipo.Weighted>
-15.2334

> <Gold.Chemscore.Internal_Hbond.Weighted>
0.0000

> <Gold.Chemscore.DEClash.Weighted>
0.0966

> <Gold.Chemscore.DEInternal.Weighted>
0.1775

> <Gold.Chemscore.Rot.Weighted>
3.7500

> <Gold.Chemscore.Internal.Correction.Weighted>
   9.000000E+99

> <Gold.Protein.RotatedTorsions>
[ 6907 6896 6895 6894 ] final -170.08 input  -60.11 | X-H torsion
[ 7974 7965 7964 7962 ] final  115.88 input  175.53 | X-H torsion
[ 8008 7997 7996 7995 ] final  -21.36 input   59.86 | X-H torsion
[ 10167 10162 10161 10158 ] final -107.55 input  -65.29 | X-H torsion
[ 10718 10713 10712 10709 ] final  106.96 input   66.30 | X-H torsion
[ 10763 10752 10751 10750 ] final  141.67 input  -60.55 | X-H torsion
[ 11005 11000 10999 10996 ] final -130.39 input  -57.11 | X-H torsion

> <Gold.Protein.ActiveResidues>
 VAL166  LYS551  ARG553  GLY616  TRP617  ASP618  TYR619  PRO620  LYS621  CYS622 
 ASP623  PHE694  ASN695  SER759  ASP760  ASP761  ALA762  ILE779  LEU786  VAL792 
 PHE793  MET794  SER795  GLU796  ALA797  LYS798  CYS799  TRP800  GLU811  SER814 

> <Gold.Protein.RotatedAtoms>
  151.5020  133.3502  159.2870 H   0  0  0  0  0  0  0  0  0  0  0  0  # atno 6907 bound_to 6896
  150.8767  134.8153  159.7206 H   0  0  0  0  0  0  0  0  0  0  0  0  # atno 6908 bound_to 6896
  152.4735  134.4912  159.9747 H   0  0  0  0  0  0  0  0  0  0  0  0  # atno 6909 bound_to 6896
  145.1865  139.3022  143.4390 H   0  0  0  0  0  0  0  0  0  0  0  0  # atno 7974 bound_to 7965
  154.4710  140.2037  155.9994 H   0  0  0  0  0  0  0  0  0  0  0  0  # atno 8008 bound_to 7997
  156.1011  140.3243  155.7914 H   0  0  0  0  0  0  0  0  0  0  0  0  # atno 8009 bound_to 7997
  155.4795  140.0537  157.2960 H   0  0  0  0  0  0  0  0  0  0  0  0  # atno 8010 bound_to 7997
  140.1758  143.4006  152.1320 H   0  0  0  0  0  0  0  0  0  0  0  0  # atno 10167 bound_to 10162
  157.6647  131.0862  150.6085 H   0  0  0  0  0  0  0  0  0  0  0  0  # atno 10718 bound_to 10713
  153.9431  135.2978  155.3442 H   0  0  0  0  0  0  0  0  0  0  0  0  # atno 10763 bound_to 10752
  154.7466  135.5000  153.9218 H   0  0  0  0  0  0  0  0  0  0  0  0  # atno 10764 bound_to 10752
  153.1032  135.6740  153.9741 H   0  0  0  0  0  0  0  0  0  0  0  0  # atno 10765 bound_to 10752
  140.9350  134.1269  157.4202 H   0  0  0  0  0  0  0  0  0  0  0  0  # atno 11005 bound_to 11000
  146.3444  140.2063  142.8589 LP  0  0  0  0  0  0  0  0  0  0  0  0  # atno 17320 bound_to 7965
  145.0084  140.8692  143.5239 LP  0  0  0  0  0  0  0  0  0  0  0  0  # atno 17321 bound_to 7965
  139.5318  144.7167  151.5031 LP  0  0  0  0  0  0  0  0  0  0  0  0  # atno 17342 bound_to 10162
  140.6552  143.8613  150.6828 LP  0  0  0  0  0  0  0  0  0  0  0  0  # atno 17343 bound_to 10162
  156.6387  130.4452  149.5760 LP  0  0  0  0  0  0  0  0  0  0  0  0  # atno 17370 bound_to 10713
  156.2226  130.6746  151.1384 LP  0  0  0  0  0  0  0  0  0  0  0  0  # atno 17371 bound_to 10713
  139.8805  135.0018  156.6087 LP  0  0  0  0  0  0  0  0  0  0  0  0  # atno 17394 bound_to 11000
  140.7812  133.8658  155.8569 LP  0  0  0  0  0  0  0  0  0  0  0  0  # atno 17395 bound_to 11000

$$$$
