AV-unprocessed.smi:6|AV-procd|sdf|41|dock2
  -GOLD-   2262015153D 1   1.00000     0.00000
 Structure written by MMmdl.
 36 37  0  0  0  0  0  0  0  0  2 V2000
  149.1946  141.6506  156.6074 C   0  0  0  0  0  0  0  0  0  0  0  0
  149.2149  141.1708  155.1475 C   0  0  0  0  0  0  0  0  0  0  0  0
  147.8088  140.9800  154.5582 C   0  0  0  0  0  0  0  0  0  0  0  0
  150.0816  139.9311  154.9664 C   0  0  0  0  0  0  0  0  0  0  0  0
  151.4053  140.1026  155.0480 N   0  0  0  0  0  0  0  0  0  0  0  0
  152.1739  139.0044  154.8849 C   0  0  0  0  0  0  0  0  0  0  0  0
  151.6140  137.7347  154.6396 C   0  0  0  0  0  0  0  0  0  0  0  0
  150.2072  137.6679  154.5702 C   0  0  0  0  0  0  0  0  0  0  0  0
  149.5888  136.4323  154.3364 N   0  0  0  0  0  0  0  0  0  0  0  0
  148.8786  135.7699  155.4233 C   0  0  0  0  0  0  0  0  0  0  0  0
  149.4819  134.4237  155.7937 C   0  0  0  0  0  0  0  0  0  0  0  0
  149.4869  133.3788  154.9397 C   0  0  0  0  0  0  0  0  0  0  0  0
  150.0663  132.1422  155.2672 N   0  0  0  0  0  0  0  0  0  0  0  0
  150.0132  131.0655  154.2753 C   0  0  0  0  0  0  0  0  0  0  0  0
  150.6634  131.9639  156.4797 C   0  0  0  0  0  0  0  0  0  0  0  0
  151.1649  130.8692  156.7389 O   0  0  0  0  0  0  0  0  0  0  0  0
  150.6827  133.0096  157.3614 N   0  5  0  0  0  0  0  0  0  0  0  0
  150.1342  134.2313  157.0943 C   0  0  0  0  0  0  0  0  0  0  0  0
  150.1720  135.1584  157.9028 O   0  0  0  0  0  0  0  0  0  0  0  0
  149.4469  138.7758  154.7378 N   0  0  0  0  0  0  0  0  0  0  0  0
  150.2041  141.8489  156.9685 H   0  0  0  0  0  0  0  0  0  0  0  0
  148.7452  140.9060  157.2656 H   0  0  0  0  0  0  0  0  0  0  0  0
  148.6203  142.5715  156.7090 H   0  0  0  0  0  0  0  0  0  0  0  0
  149.6785  141.9741  154.5719 H   0  0  0  0  0  0  0  0  0  0  0  0
  147.8604  140.7124  153.5025 H   0  0  0  0  0  0  0  0  0  0  0  0
  147.2220  141.8953  154.6388 H   0  0  0  0  0  0  0  0  0  0  0  0
  147.2633  140.1904  155.0760 H   0  0  0  0  0  0  0  0  0  0  0  0
  153.2434  139.1388  154.9518 H   0  0  0  0  0  0  0  0  0  0  0  0
  152.2342  136.8599  154.5114 H   0  0  0  0  0  0  0  0  0  0  0  0
  149.2679  136.2436  153.3974 H   0  0  0  0  0  0  0  0  0  0  0  0
  148.8900  136.4106  156.3061 H   0  0  0  0  0  0  0  0  0  0  0  0
  147.8334  135.6311  155.1437 H   0  0  0  0  0  0  0  0  0  0  0  0
  149.0469  133.4292  153.9546 H   0  0  0  0  0  0  0  0  0  0  0  0
  149.4874  130.1996  154.6799 H   0  0  0  0  0  0  0  0  0  0  0  0
  151.0208  130.7525  153.9978 H   0  0  0  0  0  0  0  0  0  0  0  0
  149.4988  131.3619  153.3608 H   0  0  0  0  0  0  0  0  0  0  0  0
  1  2  1  0  0  0  0
  1 21  1  0  0  0  0
  1 22  1  0  0  0  0
  1 23  1  0  0  0  0
  2  3  1  0  0  0  0
  2  4  1  0  0  0  0
  2 24  1  0  0  0  0
  3 25  1  0  0  0  0
  3 26  1  0  0  0  0
  3 27  1  0  0  0  0
  4 20  1  0  0  0  0
  4  5  2  0  0  0  0
  5  6  1  0  0  0  0
  6  7  2  0  0  0  0
  6 28  1  0  0  0  0
  7  8  1  0  0  0  0
  7 29  1  0  0  0  0
  8  9  1  0  0  0  0
  8 20  2  0  0  0  0
  9 10  1  0  0  0  0
  9 30  1  0  0  0  0
 10 11  1  0  0  0  0
 10 31  1  0  0  0  0
 10 32  1  0  0  0  0
 11 18  1  0  0  0  0
 11 12  2  0  0  0  0
 12 13  1  0  0  0  0
 12 33  1  0  0  0  0
 13 14  1  0  0  0  0
 13 15  1  0  0  0  0
 14 34  1  0  0  0  0
 14 35  1  0  0  0  0
 14 36  1  0  0  0  0
 15 16  2  0  0  0  0
 15 17  1  0  0  0  0
 17 18  1  0  0  0  0
 18 19  2  0  0  0  0
M  CHG  1  17  -1
M  END
> <s_m_source_file>
AV-unprocessed.smi

> <i_m_source_file_index>
6

> <i_lp_mmshare_version>
43012

> <i_f3d_flags>
0

> <s_epik_input>
W0NIM11bQ0hdKFtDSDNdKWMxbltjSF1bY0hdYyhuMSlbTkhdW0NIMl1jMltjSF1uKFtDSDNdKWMoPU8pW25IXWMyPU8=

> <s_epik_cmdline>
J2VwaWtfcHl0aG9uJywgJy1waCcsICc3LjAnLCAnLXRuJywgJzgnLCAnLW1hJywgJzIwMCcsICctbWV0YWxfYmluZGluZycsICctaW1hZScsICc8aW5maWxlLm1hZT4nLCAnLW9tYWUnLCAnPG91dGZpbGUubWFlPic=

> <r_lp_tautomer_probability>
0.999537

> <r_epik_Ionization_Penalty>
4.10508

> <r_epik_Ionization_Penalty_Charging>
6.01221e-07

> <r_epik_Ionization_Penalty_Neutral>
4.10508

> <r_epik_State_Penalty>
4.24889

> <r_epik_Charging_Adjusted_Penalty>
4.24889

> <i_epik_Tot_Q>
-1

> <i_epik_Tot_abs_Q>
1

> <r_epik_Metal_State_Penalty>
1.04429

> <b_epik_Metal_Only>
1

> <s_lp_Force_Field>
OPLS_2005

> <r_lp_Energy>
13.2658

> <b_lp_Chiralities_Consistent>
1

> <s_lp_Variant>
AV-unprocessed.smi:6-3

> <Gold.Version>
5.8.1

> <Gold.Id.Protein>
6NUR|6NUR_protein|mol2

> <Gold.PLP.Fitness>
40.6936

> <Gold.PLP.PLP>
-30.3587

> <Gold.PLP.part.hbond>
-4.1467

> <Gold.PLP.part.metal>
0.0000

> <Gold.PLP.part.buried>
-2.0383

> <Gold.PLP.part.nonpolar>
-25.6832

> <Gold.PLP.part.repulsive>
0.2206

> <Gold.PLP.ligand.clash>
0.0000

> <Gold.PLP.ligand.torsion>
1.1328

> <Gold.PLP.Chemscore.Hbond>
4.1723

> <Gold.PLP.Chemscore.CHOScore>
0.0000

> <Gold.PLP.Chemscore.Metal>
0.0000

> <Gold.Chemscore.Hbonds>
donor molecule, donor type, donor heavy atom, donor atom, acceptor molecule, acceptor atom, score
      L1  H     9    30       P1  7948  1.00
      P1  H  6896  6907       L1    17  1.69
      P1  H  6896  6908       L1    19  0.28
      P1  H  7989  7998       L1     5  0.90

> <Gold.PLP.Chemscore.Internal.Correction>
0.0835

> <Gold.Rescore>
     Score         DG    S(hbond)    S(metal)    S(lipo)     H(rot)  DE(clash)    DE(int)     intcor
     12.85     -13.98       1.97        0.00      51.89       1.62       0.07       1.06       ----

> <Gold.Chemscore.Fitness>
12.8467

> <Gold.Chemscore.DG>
-13.9835

> <Gold.Chemscore.ZeroCoef>
-5.4800

> <Gold.Chemscore.Hbond>
1.9697

> <Gold.Chemscore.Metal>
0.0000

> <Gold.Chemscore.Lipo>
51.8880

> <Gold.Chemscore.Internal_Hbond>
0.0000

> <Gold.Chemscore.DEClash>
0.0731

> <Gold.Chemscore.DEInternal>
1.0637

> <Gold.Chemscore.Rot>
1.6196

> <Gold.Chemscore.Internal.Correction>
   9.000000E+99

> <Gold.Chemscore.Hbonds>
donor molecule, donor type, donor heavy atom, donor atom, acceptor molecule, acceptor atom, score
      L1  H     9    30       P1  7948  0.81
      P1  H  6896  6907       L1    17  0.14
      P1  H  6896  6908       L1    19  0.27
      P1  H  7989  7998       L1     5  0.04

> <Gold.Chemscore.Hbond.Weighted>
-6.5789

> <Gold.Chemscore.Metal.Weighted>
-0.0000

> <Gold.Chemscore.Lipo.Weighted>
-6.0709

> <Gold.Chemscore.Internal_Hbond.Weighted>
0.0000

> <Gold.Chemscore.DEClash.Weighted>
0.0731

> <Gold.Chemscore.DEInternal.Weighted>
1.0637

> <Gold.Chemscore.Rot.Weighted>
4.1463

> <Gold.Chemscore.Internal.Correction.Weighted>
   9.000000E+99

> <Gold.Protein.RotatedTorsions>
[ 6907 6896 6895 6894 ] final -155.52 input  -60.11 | X-H torsion
[ 7974 7965 7964 7962 ] final    6.09 input  175.53 | X-H torsion
[ 8008 7997 7996 7995 ] final  -22.73 input   59.86 | X-H torsion
[ 10167 10162 10161 10158 ] final  158.17 input  -65.29 | X-H torsion
[ 10718 10713 10712 10709 ] final    1.93 input   66.30 | X-H torsion
[ 10763 10752 10751 10750 ] final  -95.92 input  -60.55 | X-H torsion
[ 11005 11000 10999 10996 ] final  177.61 input  -57.11 | X-H torsion

> <Gold.Protein.ActiveResidues>
 VAL166  LYS551  ARG553  GLY616  TRP617  ASP618  TYR619  PRO620  LYS621  CYS622 
 ASP623  PHE694  ASN695  SER759  ASP760  ASP761  ALA762  ILE779  LEU786  VAL792 
 PHE793  MET794  SER795  GLU796  ALA797  LYS798  CYS799  TRP800  GLU811  SER814 

> <Gold.Protein.RotatedAtoms>
  151.2738  133.4242  159.2622 H   0  0  0  0  0  0  0  0  0  0  0  0  # atno 6907 bound_to 6896
  151.0421  134.9615  159.8177 H   0  0  0  0  0  0  0  0  0  0  0  0  # atno 6908 bound_to 6896
  152.5367  134.2696  159.9019 H   0  0  0  0  0  0  0  0  0  0  0  0  # atno 6909 bound_to 6896
  146.2437  140.0286  142.8391 H   0  0  0  0  0  0  0  0  0  0  0  0  # atno 7974 bound_to 7965
  154.4626  140.2000  156.0202 H   0  0  0  0  0  0  0  0  0  0  0  0  # atno 8008 bound_to 7997
  156.0869  140.3263  155.7737 H   0  0  0  0  0  0  0  0  0  0  0  0  # atno 8009 bound_to 7997
  155.5020  140.0554  157.2928 H   0  0  0  0  0  0  0  0  0  0  0  0  # atno 8010 bound_to 7997
  139.4825  144.4850  151.8391 H   0  0  0  0  0  0  0  0  0  0  0  0  # atno 10167 bound_to 10162
  156.8554  130.5568  149.5666 H   0  0  0  0  0  0  0  0  0  0  0  0  # atno 10718 bound_to 10713
  154.7193  135.5102  153.8786 H   0  0  0  0  0  0  0  0  0  0  0  0  # atno 10763 bound_to 10752
  153.0848  135.6642  153.9981 H   0  0  0  0  0  0  0  0  0  0  0  0  # atno 10764 bound_to 10752
  153.9807  135.3029  155.3400 H   0  0  0  0  0  0  0  0  0  0  0  0  # atno 10765 bound_to 10752
  140.3860  134.6904  157.4479 H   0  0  0  0  0  0  0  0  0  0  0  0  # atno 11005 bound_to 11000
  145.1175  140.9442  143.4620 LP  0  0  0  0  0  0  0  0  0  0  0  0  # atno 17320 bound_to 7965
  145.0514  139.3178  143.5926 LP  0  0  0  0  0  0  0  0  0  0  0  0  # atno 17321 bound_to 7965
  140.4329  144.2092  150.5888 LP  0  0  0  0  0  0  0  0  0  0  0  0  # atno 17342 bound_to 10162
  140.4761  143.2395  151.9020 LP  0  0  0  0  0  0  0  0  0  0  0  0  # atno 17343 bound_to 10162
  156.0805  130.5817  150.9554 LP  0  0  0  0  0  0  0  0  0  0  0  0  # atno 17370 bound_to 10713
  157.6280  131.0924  150.8497 LP  0  0  0  0  0  0  0  0  0  0  0  0  # atno 17371 bound_to 10713
  140.0442  134.6223  155.8942 LP  0  0  0  0  0  0  0  0  0  0  0  0  # atno 17394 bound_to 11000
  141.1907  133.6569  156.5424 LP  0  0  0  0  0  0  0  0  0  0  0  0  # atno 17395 bound_to 11000

$$$$
