AV-unprocessed.smi:1530|AV-procd|sdf|6155|dock1
  -GOLD-   22720 6303D 1   1.00000     0.00000
 Structure written by MMmdl.
 42 43  0  0  0  0  0  0  0  0  1 V2000
  146.0532  133.0548  151.2692 C   0  0  0  0  0  0  0  0  0  0  0  0
  146.8382  133.6474  152.2983 O   0  0  0  0  0  0  0  0  0  0  0  0
  147.3885  132.8265  153.2647 C   0  0  0  0  0  0  0  0  0  0  0  0
  146.9998  131.5272  153.3029 N   0  0  0  0  0  0  0  0  0  0  0  0
  147.5382  130.7221  154.2409 C   0  0  0  0  0  0  0  0  0  0  0  0
  148.4885  131.1630  155.1792 C   0  0  0  0  0  0  0  0  0  0  0  0
  148.8943  132.5099  155.1417 C   0  0  0  0  0  0  0  0  0  0  0  0
  148.3293  133.3725  154.1697 C   0  0  0  0  0  0  0  0  0  0  0  0
  148.6636  134.7494  154.0259 N   0  0  0  0  0  0  0  0  0  0  0  0
  148.9428  135.6659  154.9685 C   0  0  0  0  0  0  0  0  0  0  0  0
  148.9649  135.4628  156.1817 O   0  0  0  0  0  0  0  0  0  0  0  0
  149.1983  136.8592  154.4138 N   0  0  0  0  0  0  0  0  0  0  0  0
  149.5673  138.0784  155.1359 C   0  0  0  0  0  0  0  0  0  0  0  0
  150.2893  139.1454  154.2568 C   0  0  0  0  0  0  0  0  0  0  0  0
  149.3350  139.5755  153.1085 C   0  0  0  0  0  0  0  0  0  0  0  0
  148.9655  138.6599  152.2064 N   0  0  0  0  0  0  0  0  0  0  0  0
  148.9386  140.7374  153.0251 O   0  0  0  0  0  0  0  0  0  0  0  0
  150.6893  140.3717  155.1266 C   0  0  0  0  0  0  0  0  0  0  0  0
  151.8633  140.0806  156.0800 C   0  0  0  0  0  0  0  0  0  0  0  0
  152.9834  139.6049  155.3471 O   0  0  0  0  0  0  0  0  0  0  0  0
  152.7155  138.3828  154.6738 C   0  0  0  0  0  0  0  0  0  0  0  0
  151.6024  138.5940  153.6333 C   0  0  0  0  0  0  0  0  0  0  0  0
  145.7003  133.8331  150.5928 H   0  0  0  0  0  0  0  0  0  0  0  0
  145.1770  132.5482  151.6760 H   0  0  0  0  0  0  0  0  0  0  0  0
  146.6369  132.3453  150.6807 H   0  0  0  0  0  0  0  0  0  0  0  0
  147.2056  129.6948  154.2404 H   0  0  0  0  0  0  0  0  0  0  0  0
  148.9000  130.4824  155.9097 H   0  0  0  0  0  0  0  0  0  0  0  0
  149.6342  132.8401  155.8525 H   0  0  0  0  0  0  0  0  0  0  0  0
  148.6509  135.0903  153.0755 H   0  0  0  0  0  0  0  0  0  0  0  0
  149.1570  136.9285  153.4074 H   0  0  0  0  0  0  0  0  0  0  0  0
  148.6450  138.5022  155.5351 H   0  0  0  0  0  0  0  0  0  0  0  0
  150.1622  137.8271  156.0135 H   0  0  0  0  0  0  0  0  0  0  0  0
  148.3507  138.9179  151.4482 H   0  0  0  0  0  0  0  0  0  0  0  0
  149.3082  137.7133  152.2840 H   0  0  0  0  0  0  0  0  0  0  0  0
  150.9824  141.2040  154.4841 H   0  0  0  0  0  0  0  0  0  0  0  0
  149.8378  140.7220  155.7119 H   0  0  0  0  0  0  0  0  0  0  0  0
  152.1523  140.9949  156.5981 H   0  0  0  0  0  0  0  0  0  0  0  0
  151.5867  139.3632  156.8528 H   0  0  0  0  0  0  0  0  0  0  0  0
  153.6281  138.0534  154.1771 H   0  0  0  0  0  0  0  0  0  0  0  0
  152.4523  137.6047  155.3910 H   0  0  0  0  0  0  0  0  0  0  0  0
  151.4269  137.6588  153.1007 H   0  0  0  0  0  0  0  0  0  0  0  0
  151.9742  139.2941  152.8831 H   0  0  0  0  0  0  0  0  0  0  0  0
  1  2  1  0  0  0  0
  1 23  1  0  0  0  0
  1 24  1  0  0  0  0
  1 25  1  0  0  0  0
  2  3  1  0  0  0  0
  3  8  1  0  0  0  0
  3  4  2  0  0  0  0
  4  5  1  0  0  0  0
  5  6  2  0  0  0  0
  5 26  1  0  0  0  0
  6  7  1  0  0  0  0
  6 27  1  0  0  0  0
  7  8  2  0  0  0  0
  7 28  1  0  0  0  0
  8  9  1  0  0  0  0
  9 10  1  0  0  0  0
  9 29  1  0  0  0  0
 10 11  2  0  0  0  0
 10 12  1  0  0  0  0
 12 13  1  0  0  0  0
 12 30  1  0  0  0  0
 13 14  1  0  0  0  0
 13 31  1  0  0  0  0
 13 32  1  0  0  0  0
 14 22  1  0  0  0  0
 14 15  1  0  0  0  0
 14 18  1  0  0  0  0
 15 16  1  0  0  0  0
 15 17  2  0  0  0  0
 16 33  1  0  0  0  0
 16 34  1  0  0  0  0
 18 19  1  0  0  0  0
 18 35  1  0  0  0  0
 18 36  1  0  0  0  0
 19 20  1  0  0  0  0
 19 37  1  0  0  0  0
 19 38  1  0  0  0  0
 20 21  1  0  0  0  0
 21 22  1  0  0  0  0
 21 39  1  0  0  0  0
 21 40  1  0  0  0  0
 22 41  1  0  0  0  0
 22 42  1  0  0  0  0
M  END
> <s_m_source_file>
AV-unprocessed.smi

> <i_m_source_file_index>
1530

> <i_lp_mmshare_version>
43012

> <i_f3d_flags>
0

> <s_epik_input>
W0NIM11PYzFuW2NIXVtjSF1bY0hdYzFbTkhdQyg9TylbTkhdW0NIMl1DMihDKD1PKVtOSDJdKVtDSDJdW0NIMl1PW0NIMl1bQ0gyXTI=

> <s_epik_cmdline>
J2VwaWtfcHl0aG9uJywgJy1waCcsICc3LjAnLCAnLXRuJywgJzgnLCAnLW1hJywgJzIwMCcsICctbWV0YWxfYmluZGluZycsICctaW1hZScsICc8aW5maWxlLm1hZT4nLCAnLW9tYWUnLCAnPG91dGZpbGUubWFlPic=

> <r_lp_tautomer_probability>
1

> <r_epik_Ionization_Penalty>
8.83779e-05

> <r_epik_Ionization_Penalty_Charging>
0

> <r_epik_Ionization_Penalty_Neutral>
8.83779e-05

> <r_epik_State_Penalty>
-0

> <r_epik_Charging_Adjusted_Penalty>
0

> <i_epik_Tot_Q>
0

> <i_epik_Tot_abs_Q>
0

> <r_epik_Metal_State_Penalty>
-0

> <b_epik_Metal_Only>
0

> <s_lp_Force_Field>
OPLS_2005

> <r_lp_Energy>
14.5365

> <b_lp_Chiralities_Consistent>
1

> <s_lp_Variant>
AV-unprocessed.smi:1530-1

> <Gold.Version>
5.8.1

> <Gold.Id.Protein>
6NUR|6NUR_protein|mol2

> <Gold.PLP.Fitness>
45.8471

> <Gold.PLP.PLP>
-34.9621

> <Gold.PLP.part.hbond>
-5.0000

> <Gold.PLP.part.metal>
0.0000

> <Gold.PLP.part.buried>
-5.0251

> <Gold.PLP.part.nonpolar>
-26.1077

> <Gold.PLP.part.repulsive>
1.4296

> <Gold.PLP.ligand.clash>
0.0000

> <Gold.PLP.ligand.torsion>
0.5276

> <Gold.PLP.Chemscore.Hbond>
3.9680

> <Gold.PLP.Chemscore.CHOScore>
0.0000

> <Gold.PLP.Chemscore.Metal>
0.0000

> <Gold.Chemscore.Hbonds>
donor molecule, donor type, donor heavy atom, donor atom, acceptor molecule, acceptor atom, score
      L1  H     9    29       P1  7948  1.00
      L1  H    12    30       P1  7948  1.00
      L1  H    16    34       P1  7948  0.83
      P1  H  7997  8010       L1    20  1.00
      P1  H  8011  8017       L1    17  1.00

> <Gold.PLP.Chemscore.Internal.Correction>
0.0363

> <Gold.Rescore>
     Score         DG    S(hbond)    S(metal)    S(lipo)     H(rot)  DE(clash)    DE(int)     intcor
     16.81     -18.65       3.48        0.00      61.96       2.23       0.15       1.69       ----

> <Gold.Chemscore.Fitness>
16.8148

> <Gold.Chemscore.DG>
-18.6523

> <Gold.Chemscore.ZeroCoef>
-5.4800

> <Gold.Chemscore.Hbond>
3.4822

> <Gold.Chemscore.Metal>
0.0000

> <Gold.Chemscore.Lipo>
61.9583

> <Gold.Chemscore.Internal_Hbond>
0.0000

> <Gold.Chemscore.DEClash>
0.1494

> <Gold.Chemscore.DEInternal>
1.6881

> <Gold.Chemscore.Rot>
2.2294

> <Gold.Chemscore.Internal.Correction>
   9.000000E+99

> <Gold.Chemscore.Hbonds>
donor molecule, donor type, donor heavy atom, donor atom, acceptor molecule, acceptor atom, score
      L1  H     9    29       P1  7948  0.59
      L1  H    12    30       P1  7948  0.95
      L1  H    16    34       P1  7948  0.58
      P1  H  7997  8010       L1    20  0.74
      P1  H  8011  8017       L1    17  0.96

> <Gold.Chemscore.Hbond.Weighted>
-11.6305

> <Gold.Chemscore.Metal.Weighted>
-0.0000

> <Gold.Chemscore.Lipo.Weighted>
-7.2491

> <Gold.Chemscore.Internal_Hbond.Weighted>
0.0000

> <Gold.Chemscore.DEClash.Weighted>
0.1494

> <Gold.Chemscore.DEInternal.Weighted>
1.6881

> <Gold.Chemscore.Rot.Weighted>
5.7073

> <Gold.Chemscore.Internal.Correction.Weighted>
   9.000000E+99

> <Gold.Protein.RotatedTorsions>
[ 6907 6896 6895 6894 ] final -151.41 input  -60.11 | X-H torsion
[ 7974 7965 7964 7962 ] final    8.54 input  175.53 | X-H torsion
[ 8008 7997 7996 7995 ] final   93.80 input   59.86 | X-H torsion
[ 10167 10162 10161 10158 ] final   15.84 input  -65.29 | X-H torsion
[ 10718 10713 10712 10709 ] final -153.36 input   66.30 | X-H torsion
[ 10763 10752 10751 10750 ] final  175.55 input  -60.55 | X-H torsion
[ 11005 11000 10999 10996 ] final  113.03 input  -57.11 | X-H torsion

> <Gold.Protein.ActiveResidues>
 VAL166  LYS551  ARG553  GLY616  TRP617  ASP618  TYR619  PRO620  LYS621  CYS622 
 ASP623  PHE694  ASN695  SER759  ASP760  ASP761  ALA762  ILE779  LEU786  VAL792 
 PHE793  MET794  SER795  GLU796  ALA797  LYS798  CYS799  TRP800  GLU811  SER814 

> <Gold.Protein.RotatedAtoms>
  151.2126  133.4547  159.2598 H   0  0  0  0  0  0  0  0  0  0  0  0  # atno 6907 bound_to 6896
  151.0961  134.9945  159.8436 H   0  0  0  0  0  0  0  0  0  0  0  0  # atno 6908 bound_to 6896
  152.5439  134.2056  159.8782 H   0  0  0  0  0  0  0  0  0  0  0  0  # atno 6909 bound_to 6896
  146.2415  139.9917  142.8425 H   0  0  0  0  0  0  0  0  0  0  0  0  # atno 7974 bound_to 7965
  156.0508  140.3308  155.7349 H   0  0  0  0  0  0  0  0  0  0  0  0  # atno 8008 bound_to 7997
  155.5604  140.0618  157.2847 H   0  0  0  0  0  0  0  0  0  0  0  0  # atno 8009 bound_to 7997
  154.4435  140.1878  156.0765 H   0  0  0  0  0  0  0  0  0  0  0  0  # atno 8010 bound_to 7997
  140.5839  143.8928  150.6813 H   0  0  0  0  0  0  0  0  0  0  0  0  # atno 10167 bound_to 10162
  156.4848  130.8320  151.2545 H   0  0  0  0  0  0  0  0  0  0  0  0  # atno 10718 bound_to 10713
  154.4692  135.2770  155.1656 H   0  0  0  0  0  0  0  0  0  0  0  0  # atno 10763 bound_to 10752
  154.3412  135.6170  153.5601 H   0  0  0  0  0  0  0  0  0  0  0  0  # atno 10764 bound_to 10752
  152.9862  135.5789  154.5069 H   0  0  0  0  0  0  0  0  0  0  0  0  # atno 10765 bound_to 10752
  139.8942  134.9542  156.6676 H   0  0  0  0  0  0  0  0  0  0  0  0  # atno 11005 bound_to 11000
  145.1497  140.9616  143.4440 LP  0  0  0  0  0  0  0  0  0  0  0  0  # atno 17320 bound_to 7965
  145.0217  139.3418  143.6069 LP  0  0  0  0  0  0  0  0  0  0  0  0  # atno 17321 bound_to 7965
  140.2434  143.3647  152.1467 LP  0  0  0  0  0  0  0  0  0  0  0  0  # atno 17342 bound_to 10162
  139.5186  144.7008  151.5500 LP  0  0  0  0  0  0  0  0  0  0  0  0  # atno 17343 bound_to 10162
  157.7480  131.0033  150.3032 LP  0  0  0  0  0  0  0  0  0  0  0  0  # atno 17370 bound_to 10713
  156.3485  130.3827  149.7349 LP  0  0  0  0  0  0  0  0  0  0  0  0  # atno 17371 bound_to 10713
  140.7398  133.8987  155.8270 LP  0  0  0  0  0  0  0  0  0  0  0  0  # atno 17394 bound_to 11000
  141.0087  134.1051  157.4244 LP  0  0  0  0  0  0  0  0  0  0  0  0  # atno 17395 bound_to 11000

$$$$
