AV-unprocessed.smi:3254|AV-procd|sdf|12453|dock4
  -GOLD-   2272018343D 1   1.00000     0.00000
 Structure written by MMmdl.
 37 38  0  0  0  0  0  0  0  0  2 V2000
  155.1399  139.7774  161.3321 C   0  0  0  0  0  0  0  0  0  0  0  0
  154.3892  140.7121  162.2903 C   0  0  0  0  0  0  0  0  0  0  0  0
  153.6993  141.7771  161.5680 N   0  0  0  0  0  0  0  0  0  0  0  0
  153.7991  141.8773  160.1217 C   0  0  0  0  0  0  0  0  0  0  0  0
  152.8025  142.9833  159.7116 C   0  0  1  0  0  0  0  0  0  0  0  0
  151.5777  142.4223  158.9719 C   0  0  0  0  0  0  0  0  0  0  0  0
  150.4482  142.8262  159.2493 O   0  0  0  0  0  0  0  0  0  0  0  0
  151.8202  141.4908  158.0376 N   0  0  0  0  0  0  0  0  0  0  0  0
  150.8090  140.8242  157.2224 C   0  0  0  0  0  0  0  0  0  0  0  0
  151.2885  140.6472  155.7726 C   0  0  0  0  0  0  0  0  0  0  0  0
  151.0910  139.2819  155.2751 N   0  0  0  0  0  0  0  0  0  0  0  0
  151.6107  138.1249  155.7965 C   0  0  0  0  0  0  0  0  0  0  0  0
  151.1550  137.1009  155.0066 C   0  0  0  0  0  0  0  0  0  0  0  0
  150.3736  137.6751  154.0400 N   0  3  0  0  0  0  0  0  0  0  0  0
  150.3337  139.0011  154.2064 C   0  0  0  0  0  0  0  0  0  0  0  0
  152.3998  143.6691  161.0326 C   0  0  0  0  0  0  0  0  0  0  0  0
  152.9756  142.7634  162.1085 C   0  0  0  0  0  0  0  0  0  0  0  0
  152.7718  142.9409  163.3084 O   0  0  0  0  0  0  0  0  0  0  0  0
  155.6695  139.0005  161.8836 H   0  0  0  0  0  0  0  0  0  0  0  0
  155.8748  140.3270  160.7432 H   0  0  0  0  0  0  0  0  0  0  0  0
  154.4569  139.2843  160.6397 H   0  0  0  0  0  0  0  0  0  0  0  0
  153.6685  140.1432  162.8796 H   0  0  0  0  0  0  0  0  0  0  0  0
  155.0902  141.1500  163.0020 H   0  0  0  0  0  0  0  0  0  0  0  0
  154.8181  142.1543  159.8484 H   0  0  0  0  0  0  0  0  0  0  0  0
  153.5851  140.9129  159.6571 H   0  0  0  0  0  0  0  0  0  0  0  0
  153.3082  143.7029  159.0652 H   0  0  0  0  0  0  0  0  0  0  0  0
  152.7801  141.2173  157.8869 H   0  0  0  0  0  0  0  0  0  0  0  0
  150.5782  139.8566  157.6693 H   0  0  0  0  0  0  0  0  0  0  0  0
  149.8776  141.3925  157.2151 H   0  0  0  0  0  0  0  0  0  0  0  0
  150.7357  141.3159  155.1120 H   0  0  0  0  0  0  0  0  0  0  0  0
  152.3436  140.9094  155.6777 H   0  0  0  0  0  0  0  0  0  0  0  0
  152.2502  138.1166  156.6674 H   0  0  0  0  0  0  0  0  0  0  0  0
  151.3226  136.0350  155.0596 H   0  0  0  0  0  0  0  0  0  0  0  0
  149.7964  139.7051  153.5962 H   0  0  0  0  0  0  0  0  0  0  0  0
  152.8480  144.6599  161.1145 H   0  0  0  0  0  0  0  0  0  0  0  0
  151.3213  143.7756  161.1615 H   0  0  0  0  0  0  0  0  0  0  0  0
  149.8915  137.1705  153.3065 H   0  0  0  0  0  0  0  0  0  0  0  0
  1  2  1  0  0  0  0
  1 19  1  0  0  0  0
  1 20  1  0  0  0  0
  1 21  1  0  0  0  0
  2  3  1  0  0  0  0
  2 22  1  0  0  0  0
  2 23  1  0  0  0  0
  3 17  1  0  0  0  0
  3  4  1  0  0  0  0
  4  5  1  0  0  0  0
  4 24  1  0  0  0  0
  4 25  1  0  0  0  0
  5  6  1  0  0  0  0
  5 16  1  0  0  0  0
  5 26  1  0  0  0  0
  6  7  2  0  0  0  0
  6  8  1  0  0  0  0
  8  9  1  0  0  0  0
  8 27  1  0  0  0  0
  9 10  1  0  0  0  0
  9 28  1  0  0  0  0
  9 29  1  0  0  0  0
 10 11  1  0  0  0  0
 10 30  1  0  0  0  0
 10 31  1  0  0  0  0
 11 15  1  0  0  0  0
 11 12  1  0  0  0  0
 12 13  2  0  0  0  0
 12 32  1  0  0  0  0
 13 14  1  0  0  0  0
 13 33  1  0  0  0  0
 14 15  2  0  0  0  0
 14 37  1  0  0  0  0
 15 34  1  0  0  0  0
 16 17  1  0  0  0  0
 16 35  1  0  0  0  0
 16 36  1  0  0  0  0
 17 18  2  0  0  0  0
M  CHG  1  14   1
M  END
> <s_m_source_file>
AV-unprocessed.smi

> <i_m_source_file_index>
3254

> <i_lp_mmshare_version>
43012

> <i_f3d_flags>
0

> <s_epik_input>
W0NIM11bQ0gyXU4xW0NIMl1bQ0BIXShbQ0gyXUMxPU8pQyg9TylbTkhdW0NIMl1bQ0gyXW4yW2NIXVtjSF1uW2NIXTI=

> <s_epik_cmdline>
J2VwaWtfcHl0aG9uJywgJy1waCcsICc3LjAnLCAnLXRuJywgJzgnLCAnLW1hJywgJzIwMCcsICctbWV0YWxfYmluZGluZycsICctaW1hZScsICc8aW5maWxlLm1hZT4nLCAnLW9tYWUnLCAnPG91dGZpbGUubWFlPic=

> <r_lp_tautomer_probability>
1

> <r_epik_Ionization_Penalty>
0.274742

> <r_epik_Ionization_Penalty_Charging>
0

> <r_epik_Ionization_Penalty_Neutral>
0.274742

> <r_epik_State_Penalty>
0.267046

> <r_epik_Charging_Adjusted_Penalty>
0.267046

> <i_epik_Tot_Q>
1

> <i_epik_Tot_abs_Q>
1

> <r_epik_Metal_State_Penalty>
0.550456

> <b_epik_Metal_Only>
0

> <s_lp_Force_Field>
OPLS_2005

> <r_lp_Energy>
18.3055

> <b_lp_Chiralities_Consistent>
1

> <s_lp_Variant>
AV-unprocessed.smi:3254-1

> <Gold.Version>
5.8.1

> <Gold.Id.Protein>
6NUR|6NUR_protein|mol2

> <Gold.PLP.Fitness>
48.7080

> <Gold.PLP.PLP>
-41.6073

> <Gold.PLP.part.hbond>
-2.6116

> <Gold.PLP.part.metal>
0.0000

> <Gold.PLP.part.buried>
-3.1388

> <Gold.PLP.part.nonpolar>
-35.9597

> <Gold.PLP.part.repulsive>
1.1656

> <Gold.PLP.ligand.clash>
0.0000

> <Gold.PLP.ligand.torsion>
0.9524

> <Gold.PLP.Chemscore.Hbond>
2.0000

> <Gold.PLP.Chemscore.CHOScore>
0.9952

> <Gold.PLP.Chemscore.Metal>
0.0000

> <Gold.Chemscore.Hbonds>
donor molecule, donor type, donor heavy atom, donor atom, acceptor molecule, acceptor atom, score
      L1  H    14    37       P1  7948  2.00
      L1  C    15    34       P1  7957  1.00

> <Gold.PLP.Chemscore.Internal.Correction>
0.0199

> <Gold.Rescore>
     Score         DG    S(hbond)    S(metal)    S(lipo)     H(rot)  DE(clash)    DE(int)     intcor
     10.59     -11.62       0.95        0.00      75.11       2.28       0.08       0.95       ----

> <Gold.Chemscore.Fitness>
10.5948

> <Gold.Chemscore.DG>
-11.6189

> <Gold.Chemscore.ZeroCoef>
-5.4800

> <Gold.Chemscore.Hbond>
0.9525

> <Gold.Chemscore.Metal>
0.0000

> <Gold.Chemscore.Lipo>
75.1121

> <Gold.Chemscore.Internal_Hbond>
0.0000

> <Gold.Chemscore.DEClash>
0.0763

> <Gold.Chemscore.DEInternal>
0.9478

> <Gold.Chemscore.Rot>
2.2776

> <Gold.Chemscore.Internal.Correction>
   9.000000E+99

> <Gold.Chemscore.Hbonds>
donor molecule, donor type, donor heavy atom, donor atom, acceptor molecule, acceptor atom, score
      L1  H    14    37       P1  7948  0.40

> <Gold.Chemscore.Hbond.Weighted>
-3.1815

> <Gold.Chemscore.Metal.Weighted>
-0.0000

> <Gold.Chemscore.Lipo.Weighted>
-8.7881

> <Gold.Chemscore.Internal_Hbond.Weighted>
0.0000

> <Gold.Chemscore.DEClash.Weighted>
0.0763

> <Gold.Chemscore.DEInternal.Weighted>
0.9478

> <Gold.Chemscore.Rot.Weighted>
5.8307

> <Gold.Chemscore.Internal.Correction.Weighted>
   9.000000E+99

> <Gold.Protein.RotatedTorsions>
[ 6907 6896 6895 6894 ] final   48.81 input  -60.11 | X-H torsion
[ 7974 7965 7964 7962 ] final  135.58 input  175.53 | X-H torsion
[ 8008 7997 7996 7995 ] final    4.63 input   59.86 | X-H torsion
[ 10167 10162 10161 10158 ] final  -54.33 input  -65.29 | X-H torsion
[ 10718 10713 10712 10709 ] final   36.24 input   66.30 | X-H torsion
[ 10763 10752 10751 10750 ] final  102.82 input  -60.55 | X-H torsion
[ 11005 11000 10999 10996 ] final  143.91 input  -57.11 | X-H torsion

> <Gold.Protein.ActiveResidues>
 VAL166  LYS551  ARG553  GLY616  TRP617  ASP618  TYR619  PRO620  LYS621  CYS622 
 ASP623  PHE694  ASN695  SER759  ASP760  ASP761  ALA762  ILE779  LEU786  VAL792 
 PHE793  MET794  SER795  GLU796  ALA797  LYS798  CYS799  TRP800  GLU811  SER814 

> <Gold.Protein.RotatedAtoms>
  152.2837  134.7800  160.0391 H   0  0  0  0  0  0  0  0  0  0  0  0  # atno 6907 bound_to 6896
  151.8370  133.3412  159.3639 H   0  0  0  0  0  0  0  0  0  0  0  0  # atno 6908 bound_to 6896
  150.7200  134.5356  159.5766 H   0  0  0  0  0  0  0  0  0  0  0  0  # atno 6909 bound_to 6896
  144.9649  139.4669  143.5461 H   0  0  0  0  0  0  0  0  0  0  0  0  # atno 7974 bound_to 7965
  154.7183  140.2706  155.6564 H   0  0  0  0  0  0  0  0  0  0  0  0  # atno 8008 bound_to 7997
  156.2816  140.2739  156.1772 H   0  0  0  0  0  0  0  0  0  0  0  0  # atno 8009 bound_to 7997
  155.0541  140.0371  157.2544 H   0  0  0  0  0  0  0  0  0  0  0  0  # atno 8010 bound_to 7997
  140.6437  143.2522  151.4920 H   0  0  0  0  0  0  0  0  0  0  0  0  # atno 10167 bound_to 10162
  157.3324  130.7505  149.6856 H   0  0  0  0  0  0  0  0  0  0  0  0  # atno 10718 bound_to 10713
  153.3445  135.3997  155.1598 H   0  0  0  0  0  0  0  0  0  0  0  0  # atno 10763 bound_to 10752
  154.8650  135.3641  154.5302 H   0  0  0  0  0  0  0  0  0  0  0  0  # atno 10764 bound_to 10752
  153.5749  135.7078  153.5548 H   0  0  0  0  0  0  0  0  0  0  0  0  # atno 10765 bound_to 10752
  140.0591  134.9214  157.1152 H   0  0  0  0  0  0  0  0  0  0  0  0  # atno 11005 bound_to 11000
  146.3365  139.8824  142.8822 LP  0  0  0  0  0  0  0  0  0  0  0  0  # atno 17320 bound_to 7965
  145.2644  141.0088  143.3808 LP  0  0  0  0  0  0  0  0  0  0  0  0  # atno 17321 bound_to 7965
  139.5646  144.2073  152.1745 LP  0  0  0  0  0  0  0  0  0  0  0  0  # atno 17342 bound_to 10162
  140.1351  144.5253  150.6778 LP  0  0  0  0  0  0  0  0  0  0  0  0  # atno 17343 bound_to 10162
  155.9697  130.4191  150.4360 LP  0  0  0  0  0  0  0  0  0  0  0  0  # atno 17370 bound_to 10713
  157.2394  131.0522  151.2445 LP  0  0  0  0  0  0  0  0  0  0  0  0  # atno 17371 bound_to 10713
  140.3798  134.2299  155.7172 LP  0  0  0  0  0  0  0  0  0  0  0  0  # atno 17394 bound_to 11000
  141.1965  133.8081  157.0668 LP  0  0  0  0  0  0  0  0  0  0  0  0  # atno 17395 bound_to 11000

$$$$
