AV-unprocessed.smi:2032|AV-procd|sdf|8234|dock6
  -GOLD-   2272010503D 1   1.00000     0.00000
 Structure written by MMmdl.
 42 43  0  0  0  0  0  0  0  0  1 V2000
  142.9999  141.2894  157.1378 C   0  0  0  0  0  0  0  0  0  0  0  0
  144.2833  141.9195  156.5861 C   0  0  1  0  0  0  0  0  0  0  0  0
  145.2565  140.8628  156.0295 C   0  0  0  0  0  0  0  0  0  0  0  0
  146.4584  141.4500  155.4268 N   0  0  0  0  0  0  0  0  0  0  0  0
  147.3728  140.4288  154.8636 C   0  0  1  0  0  0  0  0  0  0  0  0
  146.7052  139.5715  153.7584 C   0  0  0  0  0  0  0  0  0  0  0  0
  148.6955  141.0256  154.3005 C   0  0  0  0  0  0  0  0  0  0  0  0
  149.3075  142.0163  155.1820 N   0  0  0  0  0  0  0  0  0  0  0  0
  150.3388  141.7788  156.0057 C   0  0  0  0  0  0  0  0  0  0  0  0
  150.8931  140.6832  156.1000 O   0  0  0  0  0  0  0  0  0  0  0  0
  150.6730  142.8817  156.6983 N   0  0  0  0  0  0  0  0  0  0  0  0
  151.6915  143.0289  157.6764 C   0  0  0  0  0  0  0  0  0  0  0  0
  152.2708  142.0104  158.3230 N   0  0  0  0  0  0  0  0  0  0  0  0
  153.2376  142.4482  159.2318 C   0  0  0  0  0  0  0  0  0  0  0  0
  153.3823  143.8128  159.2647 C   0  0  0  0  0  0  0  0  0  0  0  0
  152.3052  144.6070  158.1472 S   0  0  0  0  0  0  0  0  0  0  0  0
  146.0254  142.4265  154.4210 C   0  0  0  0  0  0  0  0  0  0  0  0
  145.0511  143.4797  154.9817 C   0  0  1  0  0  0  0  0  0  0  0  0
  144.5500  144.4383  153.8963 C   0  0  0  0  0  0  0  0  0  0  0  0
  143.9254  142.8198  155.5458 O   0  0  0  0  0  0  0  0  0  0  0  0
  143.2201  140.6010  157.9541 H   0  0  0  0  0  0  0  0  0  0  0  0
  142.4693  140.7334  156.3644 H   0  0  0  0  0  0  0  0  0  0  0  0
  142.3244  142.0544  157.5215 H   0  0  0  0  0  0  0  0  0  0  0  0
  144.7701  142.4782  157.3873 H   0  0  0  0  0  0  0  0  0  0  0  0
  145.5220  140.2145  156.8616 H   0  0  0  0  0  0  0  0  0  0  0  0
  144.7415  140.2423  155.2942 H   0  0  0  0  0  0  0  0  0  0  0  0
  147.6460  139.7477  155.6710 H   0  0  0  0  0  0  0  0  0  0  0  0
  147.3968  138.8606  153.3079 H   0  0  0  0  0  0  0  0  0  0  0  0
  146.3127  140.1983  152.9571 H   0  0  0  0  0  0  0  0  0  0  0  0
  145.8870  138.9644  154.1432 H   0  0  0  0  0  0  0  0  0  0  0  0
  149.4196  140.2282  154.1306 H   0  0  0  0  0  0  0  0  0  0  0  0
  148.5493  141.5161  153.3394 H   0  0  0  0  0  0  0  0  0  0  0  0
  148.9132  142.9454  155.1650 H   0  0  0  0  0  0  0  0  0  0  0  0
  150.1271  143.7101  156.5136 H   0  0  0  0  0  0  0  0  0  0  0  0
  153.7766  141.7182  159.8174 H   0  0  0  0  0  0  0  0  0  0  0  0
  154.0544  144.3964  159.8759 H   0  0  0  0  0  0  0  0  0  0  0  0
  146.8817  142.9666  154.0211 H   0  0  0  0  0  0  0  0  0  0  0  0
  145.5577  141.9079  153.5826 H   0  0  0  0  0  0  0  0  0  0  0  0
  145.5488  144.0616  155.7594 H   0  0  0  0  0  0  0  0  0  0  0  0
  145.3786  144.9769  153.4358 H   0  0  0  0  0  0  0  0  0  0  0  0
  143.8653  145.1763  154.3141 H   0  0  0  0  0  0  0  0  0  0  0  0
  144.0206  143.9010  153.1089 H   0  0  0  0  0  0  0  0  0  0  0  0
  1  2  1  0  0  0  0
  1 21  1  0  0  0  0
  1 22  1  0  0  0  0
  1 23  1  0  0  0  0
  2 20  1  0  0  0  0
  2  3  1  0  0  0  0
  2 24  1  0  0  0  0
  3  4  1  0  0  0  0
  3 25  1  0  0  0  0
  3 26  1  0  0  0  0
  4  5  1  0  0  0  0
  4 17  1  0  0  0  0
  5  6  1  0  0  0  0
  5  7  1  0  0  0  0
  5 27  1  0  0  0  0
  6 28  1  0  0  0  0
  6 29  1  0  0  0  0
  6 30  1  0  0  0  0
  7  8  1  0  0  0  0
  7 31  1  0  0  0  0
  7 32  1  0  0  0  0
  8  9  1  0  0  0  0
  8 33  1  0  0  0  0
  9 10  2  0  0  0  0
  9 11  1  0  0  0  0
 11 12  1  0  0  0  0
 11 34  1  0  0  0  0
 12 16  1  0  0  0  0
 12 13  2  0  0  0  0
 13 14  1  0  0  0  0
 14 15  2  0  0  0  0
 14 35  1  0  0  0  0
 15 16  1  0  0  0  0
 15 36  1  0  0  0  0
 17 18  1  0  0  0  0
 17 37  1  0  0  0  0
 17 38  1  0  0  0  0
 18 19  1  0  0  0  0
 18 20  1  0  0  0  0
 18 39  1  0  0  0  0
 19 40  1  0  0  0  0
 19 41  1  0  0  0  0
 19 42  1  0  0  0  0
M  END
> <s_m_source_file>
AV-unprocessed.smi

> <i_m_source_file_index>
2032

> <i_lp_mmshare_version>
43012

> <i_f3d_flags>
0

> <s_epik_input>
W0NIM11bQ0BASF0xW0NIMl1OKFtDSDJdW0NASF0oTzEpW0NIM10pW0NASF0oW0NIM10pW0NIMl1bTkhdQyg9TylbTkhdYzJuW2NIXVtjSF1zMg==

> <s_epik_cmdline>
J2VwaWtfcHl0aG9uJywgJy1waCcsICc3LjAnLCAnLXRuJywgJzgnLCAnLW1hJywgJzIwMCcsICctbWV0YWxfYmluZGluZycsICctaW1hZScsICc8aW5maWxlLm1hZT4nLCAnLW9tYWUnLCAnPG91dGZpbGUubWFlPic=

> <r_lp_tautomer_probability>
0.999

> <r_epik_Ionization_Penalty>
0.219202

> <r_epik_Ionization_Penalty_Charging>
0

> <r_epik_Ionization_Penalty_Neutral>
0.219202

> <r_epik_State_Penalty>
0.209349

> <r_epik_Charging_Adjusted_Penalty>
0.209349

> <i_epik_Tot_Q>
0

> <i_epik_Tot_abs_Q>
0

> <r_epik_Metal_State_Penalty>
0.247737

> <b_epik_Metal_Only>
0

> <s_lp_Force_Field>
OPLS_2005

> <r_lp_Energy>
24.906

> <b_lp_Chiralities_Consistent>
1

> <s_lp_Variant>
AV-unprocessed.smi:2032-4

> <Gold.Version>
5.8.1

> <Gold.Id.Protein>
6NUR|6NUR_protein|mol2

> <Gold.PLP.Fitness>
45.4378

> <Gold.PLP.PLP>
-39.9945

> <Gold.PLP.part.hbond>
-2.0000

> <Gold.PLP.part.metal>
0.0000

> <Gold.PLP.part.buried>
-6.7446

> <Gold.PLP.part.nonpolar>
-32.6087

> <Gold.PLP.part.repulsive>
0.9965

> <Gold.PLP.ligand.clash>
0.0000

> <Gold.PLP.ligand.torsion>
0.2921

> <Gold.PLP.Chemscore.Hbond>
2.0000

> <Gold.PLP.Chemscore.CHOScore>
0.0000

> <Gold.PLP.Chemscore.Metal>
0.0000

> <Gold.Chemscore.Hbonds>
donor molecule, donor type, donor heavy atom, donor atom, acceptor molecule, acceptor atom, score
      L1  H     8    33       P1  8028  1.00
      L1  H    11    34       P1  8028  1.00

> <Gold.PLP.Chemscore.Internal.Correction>
0.0275

> <Gold.Rescore>
     Score         DG    S(hbond)    S(metal)    S(lipo)     H(rot)  DE(clash)    DE(int)     intcor
     16.09     -17.85       1.96        0.00      84.20       1.57       0.33       1.42       ----

> <Gold.Chemscore.Fitness>
16.0922

> <Gold.Chemscore.DG>
-17.8475

> <Gold.Chemscore.ZeroCoef>
-5.4800

> <Gold.Chemscore.Hbond>
1.9606

> <Gold.Chemscore.Metal>
0.0000

> <Gold.Chemscore.Lipo>
84.1967

> <Gold.Chemscore.Internal_Hbond>
0.0000

> <Gold.Chemscore.DEClash>
0.3331

> <Gold.Chemscore.DEInternal>
1.4222

> <Gold.Chemscore.Rot>
1.5750

> <Gold.Chemscore.Internal.Correction>
   9.000000E+99

> <Gold.Chemscore.Hbonds>
donor molecule, donor type, donor heavy atom, donor atom, acceptor molecule, acceptor atom, score
      L1  H     8    33       P1  8028  0.98
      L1  H    11    34       P1  8028  0.99

> <Gold.Chemscore.Hbond.Weighted>
-6.5484

> <Gold.Chemscore.Metal.Weighted>
-0.0000

> <Gold.Chemscore.Lipo.Weighted>
-9.8510

> <Gold.Chemscore.Internal_Hbond.Weighted>
0.0000

> <Gold.Chemscore.DEClash.Weighted>
0.3331

> <Gold.Chemscore.DEInternal.Weighted>
1.4222

> <Gold.Chemscore.Rot.Weighted>
4.0319

> <Gold.Chemscore.Internal.Correction.Weighted>
   9.000000E+99

> <Gold.Protein.RotatedTorsions>
[ 6907 6896 6895 6894 ] final  101.72 input  -60.11 | X-H torsion
[ 7974 7965 7964 7962 ] final   48.13 input  175.53 | X-H torsion
[ 8008 7997 7996 7995 ] final  151.63 input   59.86 | X-H torsion
[ 10167 10162 10161 10158 ] final -161.20 input  -65.29 | X-H torsion
[ 10718 10713 10712 10709 ] final   38.57 input   66.30 | X-H torsion
[ 10763 10752 10751 10750 ] final -130.75 input  -60.55 | X-H torsion
[ 11005 11000 10999 10996 ] final  -75.78 input  -57.11 | X-H torsion

> <Gold.Protein.ActiveResidues>
 VAL166  LYS551  ARG553  GLY616  TRP617  ASP618  TYR619  PRO620  LYS621  CYS622 
 ASP623  PHE694  ASN695  SER759  ASP760  ASP761  ALA762  ILE779  LEU786  VAL792 
 PHE793  MET794  SER795  GLU796  ALA797  LYS798  CYS799  TRP800  GLU811  SER814 

> <Gold.Protein.RotatedAtoms>
  152.5342  134.0083  159.7926 H   0  0  0  0  0  0  0  0  0  0  0  0  # atno 6907 bound_to 6896
  151.0290  133.5800  159.2670 H   0  0  0  0  0  0  0  0  0  0  0  0  # atno 6908 bound_to 6896
  151.2811  135.0721  159.9223 H   0  0  0  0  0  0  0  0  0  0  0  0  # atno 6909 bound_to 6896
  146.0233  139.4677  142.9883 H   0  0  0  0  0  0  0  0  0  0  0  0  # atno 7974 bound_to 7965
  156.2665  140.2042  156.6206 H   0  0  0  0  0  0  0  0  0  0  0  0  # atno 8008 bound_to 7997
  154.6760  140.0545  157.0240 H   0  0  0  0  0  0  0  0  0  0  0  0  # atno 8009 bound_to 7997
  155.1068  140.3211  155.4535 H   0  0  0  0  0  0  0  0  0  0  0  0  # atno 8010 bound_to 7997
  139.6483  144.0132  152.2143 H   0  0  0  0  0  0  0  0  0  0  0  0  # atno 10167 bound_to 10162
  157.3604  130.7646  149.7043 H   0  0  0  0  0  0  0  0  0  0  0  0  # atno 10718 bound_to 10713
  154.8754  135.3852  154.4134 H   0  0  0  0  0  0  0  0  0  0  0  0  # atno 10763 bound_to 10752
  153.4845  135.7030  153.5924 H   0  0  0  0  0  0  0  0  0  0  0  0  # atno 10764 bound_to 10752
  153.4325  135.3875  155.2146 H   0  0  0  0  0  0  0  0  0  0  0  0  # atno 10765 bound_to 10752
  141.1648  133.6959  156.7569 H   0  0  0  0  0  0  0  0  0  0  0  0  # atno 11005 bound_to 11000
  145.7158  141.0091  143.1429 LP  0  0  0  0  0  0  0  0  0  0  0  0  # atno 17320 bound_to 7965
  144.6999  139.8811  143.7447 LP  0  0  0  0  0  0  0  0  0  0  0  0  # atno 17321 bound_to 7965
  139.9839  144.6409  150.7875 LP  0  0  0  0  0  0  0  0  0  0  0  0  # atno 17342 bound_to 10162
  140.7525  143.2992  151.3126 LP  0  0  0  0  0  0  0  0  0  0  0  0  # atno 17343 bound_to 10162
  155.9736  130.4115  150.3986 LP  0  0  0  0  0  0  0  0  0  0  0  0  # atno 17370 bound_to 10713
  157.2063  131.0450  151.2623 LP  0  0  0  0  0  0  0  0  0  0  0  0  # atno 17371 bound_to 10713
  140.2562  134.8502  157.3715 LP  0  0  0  0  0  0  0  0  0  0  0  0  # atno 17394 bound_to 11000
  140.1655  134.4675  155.7866 LP  0  0  0  0  0  0  0  0  0  0  0  0  # atno 17395 bound_to 11000

$$$$
