#       Name:                AV-unprocessed.smi:1896
#       Creating user name   scv26
#       Creation time:       Fri Mar 27 09:42:33 2020


#       File generated by GOLD software.
#

@<TRIPOS>MOLECULE
AV-unprocessed.smi:1896
    50    51     1
SMALL
NO_CHARGES


@<TRIPOS>ATOM
      1 ****        -2.6444   1.3634  -1.6278 C.3            1 S1                 0.0000
      2 ****        -2.7800   2.1550  -0.3588 C.2            1 S1                 0.0000
      3 ****        -2.9550   3.4634  -0.4349 N.2            1 S1                 0.0000
      4 ****        -3.0270   3.8767   0.8460 N.pl3          1 S1                 0.0000
      5 ****        -3.2201   5.2855   1.1293 C.3            1 S1                 0.0000
      6 ****        -2.8928   2.8274   1.7340 C.2            1 S1                 0.0000
      7 ****        -2.9283   3.0310   3.2145 C.3            1 S1                 0.0000
      8 ****        -2.7312   1.6893   0.9890 C.2            1 S1                 0.0000
      9 ****        -2.5363   0.2727   1.4675 C.3            1 S1                 0.0000
     10 ****        -1.0414  -0.0270   1.5721 C.2            1 S1                 0.0000
     11 ****        -0.4162   0.2959   2.5819 O.2            1 S1                 0.0000
     12 ****        -0.4758  -0.6311   0.5171 N.am           1 S1                 0.0000
     13 ****         0.9443  -0.9427   0.4116 C.3            1 S1                 0.0000
     14 ****         1.2767  -1.7211  -0.8850 C.3            1 S1                 0.0000
     15 ****         0.8004  -0.9440  -2.1330 C.3            1 S1                 0.0000
     16 ****         2.7348  -2.0239  -0.9802 N.4            1 S1                 1.0000
     17 ****         3.3369  -2.6802   0.2014 C.3            1 S1                 0.0000
     18 ****         4.6278  -3.3089  -0.3099 C.3            1 S1                 0.0000
     19 ****         4.2469  -3.7876  -1.7056 C.3            1 S1                 0.0000
     20 ****         3.1389  -2.8285  -2.1618 C.3            1 S1                 0.0000
     21 ****        -1.5970   1.2664  -1.9123 H              1 S1                 0.0000
     22 ****        -3.1696   1.8411  -2.4557 H              1 S1                 0.0000
     23 ****        -3.0545   0.3599  -1.5159 H              1 S1                 0.0000
     24 ****        -4.1111   5.4173   1.7433 H              1 S1                 0.0000
     25 ****        -3.3430   5.8519   0.2050 H              1 S1                 0.0000
     26 ****        -2.3547   5.6726   1.6678 H              1 S1                 0.0000
     27 ****        -2.7323   2.1017   3.7488 H              1 S1                 0.0000
     28 ****        -3.9040   3.4004   3.5308 H              1 S1                 0.0000
     29 ****        -2.1750   3.7554   3.5242 H              1 S1                 0.0000
     30 ****        -2.9960   0.1119   2.4430 H              1 S1                 0.0000
     31 ****        -3.0091  -0.4452   0.7963 H              1 S1                 0.0000
     32 ****        -1.0618  -0.8617  -0.2724 H              1 S1                 0.0000
     33 ****         1.5141  -0.0124   0.4472 H              1 S1                 0.0000
     34 ****         1.2222  -1.5221   1.2929 H              1 S1                 0.0000
     35 ****         0.7436  -2.6730  -0.8527 H              1 S1                 0.0000
     36 ****        -0.2753  -0.7720  -2.1124 H              1 S1                 0.0000
     37 ****         1.0022  -1.4828  -3.0583 H              1 S1                 0.0000
     38 ****         1.2895   0.0280  -2.2029 H              1 S1                 0.0000
     39 ****         3.5229  -1.9747   1.0118 H              1 S1                 0.0000
     40 ****         2.6690  -3.4602   0.5711 H              1 S1                 0.0000
     41 ****         5.4088  -2.5500  -0.3773 H              1 S1                 0.0000
     42 ****         4.9924  -4.1126   0.3307 H              1 S1                 0.0000
     43 ****         5.0983  -3.7999  -2.3869 H              1 S1                 0.0000
     44 ****         3.8529  -4.8033  -1.6503 H              1 S1                 0.0000
     45 ****         2.3031  -3.4024  -2.5649 H              1 S1                 0.0000
     46 ****         3.4922  -2.1595  -2.9473 H              1 S1                 0.0000
     47 ****         3.2134  -1.1390  -1.0716 H              1 S1                 0.0000
     48 ****        -3.0197   4.0231  -1.2610 LP             1 S1                 0.0000
     49 ****        -0.8864   0.7551   3.3356 LP             1 S1                 0.0000
     50 ****         0.5620   0.0990   2.6487 LP             1 S1                 0.0000
@<TRIPOS>BOND
    1    1    2 1     
    2    1   21 1     
    3    1   22 1     
    4    1   23 1     
    5    2    8 1     
    6    2    3 2     
    7    3    4 1     
    8    4    5 1     
    9    4    6 1     
   10    5   24 1     
   11    5   25 1     
   12    5   26 1     
   13    6    7 1     
   14    6    8 2     
   15    7   27 1     
   16    7   28 1     
   17    7   29 1     
   18    8    9 1     
   19    9   10 1     
   20    9   30 1     
   21    9   31 1     
   22   10   11 2     
   23   10   12 am    
   24   12   13 1     
   25   12   32 1     
   26   13   14 1     
   27   13   33 1     
   28   13   34 1     
   29   14   15 1     
   30   14   16 1     
   31   14   35 1     
   32   15   36 1     
   33   15   37 1     
   34   15   38 1     
   35   16   20 1     
   36   16   17 1     
   37   16   47 1     
   38   17   18 1     
   39   17   39 1     
   40   17   40 1     
   41   18   19 1     
   42   18   41 1     
   43   18   42 1     
   44   19   20 1     
   45   19   43 1     
   46   19   44 1     
   47   20   45 1     
   48   20   46 1     
   49    3   48 1     
   50   11   49 1     
   51   11   50 1     
@<TRIPOS>SUBSTRUCTURE
      1 S1             1
@<TRIPOS>SET
LONE_PAIRS      STATIC     ATOMS    <user>   **** ""
3 48 49 50
DONOR_HYDROGENS      STATIC     ATOMS    <user>   **** ""
2 32 47
ATOM$BLUE        STATIC     ATOMS    COLORGROUP SYSTEM
3 48 49 50
ATOM$RED        STATIC     ATOMS    COLORGROUP SYSTEM
2 32 47
