#       Name:                AV-unprocessed.smi:1823
#       Creating user name   scv26
#       Creation time:       Fri Mar 27 09:06:09 2020


#       File generated by GOLD software.
#

@<TRIPOS>MOLECULE
AV-unprocessed.smi:1823
    51    52     1
SMALL
NO_CHARGES


@<TRIPOS>ATOM
      1 ****        -3.1287   1.7474  -2.9179 C.3            1 S1                 0.0000
      2 ****        -3.0345   0.3943  -2.3009 C.2            1 S1                 0.0000
      3 ****        -1.9877  -0.3895  -2.5276 N.2            1 S1                 0.0000
      4 ****        -2.2736  -1.5358  -1.7727 O.3            1 S1                 0.0000
      5 ****        -3.4744  -1.3042  -1.1883 C.2            1 S1                 0.0000
      6 ****        -4.0292  -2.3249  -0.2467 C.3            1 S1                 0.0000
      7 ****        -3.6374  -2.1019   1.2274 C.3            1 S1                 0.0000
      8 ****        -2.1897  -2.0658   1.4235 N.am           1 S1                 0.0000
      9 ****        -1.4396  -0.9531   1.4695 C.2            1 S1                 0.0000
     10 ****        -1.9102   0.1828   1.3956 O.2            1 S1                 0.0000
     11 ****         0.0789  -1.1538   1.5846 C.3            1 S1                 0.0000
     12 ****         0.6701  -0.3816   2.7805 C.3            1 S1                 0.0000
     13 ****         1.5000   0.7151   2.1344 C.2            1 S1                 0.0000
     14 ****         2.0235   1.6212   2.7812 O.2            1 S1                 0.0000
     15 ****         1.5568   0.5573   0.8067 N.am           1 S1                 0.0000
     16 ****         2.1855   1.4625  -0.1556 C.3            1 S1                 0.0000
     17 ****         3.6219   1.0400  -0.5367 C.3            1 S1                 0.0000
     18 ****         4.5871   1.0098   0.6611 C.3            1 S1                 0.0000
     19 ****         4.1720   1.9507  -1.6443 C.3            1 S1                 0.0000
     20 ****         0.8257  -0.6118   0.3469 C.3            1 S1                 0.0000
     21 ****        -3.9934  -0.1140  -1.4789 N.2            1 S1                 0.0000
     22 ****        -3.1161   1.6686  -4.0052 H              1 S1                 0.0000
     23 ****        -2.2871   2.3651  -2.6035 H              1 S1                 0.0000
     24 ****        -4.0517   2.2450  -2.6187 H              1 S1                 0.0000
     25 ****        -5.1154  -2.3275  -0.3405 H              1 S1                 0.0000
     26 ****        -3.6919  -3.3100  -0.5710 H              1 S1                 0.0000
     27 ****        -4.0972  -1.1846   1.5993 H              1 S1                 0.0000
     28 ****        -4.0421  -2.9099   1.8369 H              1 S1                 0.0000
     29 ****        -1.7178  -2.9559   1.4917 H              1 S1                 0.0000
     30 ****         0.2887  -2.2188   1.6980 H              1 S1                 0.0000
     31 ****        -0.0829   0.0481   3.4435 H              1 S1                 0.0000
     32 ****         1.3190  -1.0215   3.3791 H              1 S1                 0.0000
     33 ****         1.5636   1.4987  -1.0512 H              1 S1                 0.0000
     34 ****         2.1889   2.4794   0.2411 H              1 S1                 0.0000
     35 ****         3.5754   0.0294  -0.9452 H              1 S1                 0.0000
     36 ****         4.6291   1.9785   1.1601 H              1 S1                 0.0000
     37 ****         5.5985   0.7555   0.3427 H              1 S1                 0.0000
     38 ****         4.2892   0.2651   1.3990 H              1 S1                 0.0000
     39 ****         4.2430   2.9853  -1.3070 H              1 S1                 0.0000
     40 ****         3.5297   1.9313  -2.5253 H              1 S1                 0.0000
     41 ****         5.1671   1.6337  -1.9577 H              1 S1                 0.0000
     42 ****         1.5319  -1.3513  -0.0327 H              1 S1                 0.0000
     43 ****         0.1558  -0.3484  -0.4736 H              1 S1                 0.0000
     44 ****        -1.1878  -0.2065  -3.0992 LP             1 S1                 0.0000
     45 ****        -1.5697  -1.6789  -1.0770 LP             1 S1                 0.0000
     46 ****        -2.3243  -2.3394  -2.3658 LP             1 S1                 0.0000
     47 ****        -2.8971   0.3096   1.2960 LP             1 S1                 0.0000
     48 ****        -1.3054   0.9781   1.4352 LP             1 S1                 0.0000
     49 ****         1.9108   1.6563   3.7742 LP             1 S1                 0.0000
     50 ****         2.5617   2.3226   2.3139 LP             1 S1                 0.0000
     51 ****        -4.8538   0.2957  -1.1760 LP             1 S1                 0.0000
@<TRIPOS>BOND
    1    1    2 1     
    2    1   22 1     
    3    1   23 1     
    4    1   24 1     
    5    2   21 1     
    6    2    3 2     
    7    3    4 1     
    8    4    5 1     
    9    5    6 1     
   10    5   21 2     
   11    6    7 1     
   12    6   25 1     
   13    6   26 1     
   14    7    8 1     
   15    7   27 1     
   16    7   28 1     
   17    8    9 am    
   18    8   29 1     
   19    9   10 2     
   20    9   11 1     
   21   11   20 1     
   22   11   12 1     
   23   11   30 1     
   24   12   13 1     
   25   12   31 1     
   26   12   32 1     
   27   13   14 2     
   28   13   15 am    
   29   15   16 1     
   30   15   20 1     
   31   16   17 1     
   32   16   33 1     
   33   16   34 1     
   34   17   18 1     
   35   17   19 1     
   36   17   35 1     
   37   18   36 1     
   38   18   37 1     
   39   18   38 1     
   40   19   39 1     
   41   19   40 1     
   42   19   41 1     
   43   20   42 1     
   44   20   43 1     
   45    3   44 1     
   46    4   45 1     
   47    4   46 1     
   48   10   47 1     
   49   10   48 1     
   50   14   49 1     
   51   14   50 1     
   52   21   51 1     
@<TRIPOS>SUBSTRUCTURE
      1 S1             1
@<TRIPOS>SET
LONE_PAIRS      STATIC     ATOMS    <user>   **** ""
8 44 45 46 47 48 49 50 51
DONOR_HYDROGENS      STATIC     ATOMS    <user>   **** ""
1 29
ATOM$BLUE        STATIC     ATOMS    COLORGROUP SYSTEM
8 44 45 46 47 48 49 50 51
ATOM$RED        STATIC     ATOMS    COLORGROUP SYSTEM
1 29
