AV-unprocessed.smi:712|AV-procd|sdf|3470|dock3
  -GOLD-   22720 0463D 1   1.00000     0.00000
 Structure written by MMmdl.
 51 52  0  0  0  0  0  0  0  0  2 V2000
  151.6508  144.7190  159.6743 C   0  0  0  0  0  0  0  0  0  0  0  0
  152.3170  143.4022  160.0165 C   0  0  0  0  0  0  0  0  0  0  0  0
  152.8856  143.1792  161.3298 C   0  0  0  0  0  0  0  0  0  0  0  0
  153.4661  141.9996  161.5990 C   0  0  0  0  0  0  0  0  0  0  0  0
  153.5403  140.9718  160.6414 N   0  0  0  0  0  0  0  0  0  0  0  0
  154.2024  139.7201  161.0449 C   0  0  0  0  0  0  0  0  0  0  0  0
  155.6154  139.9441  161.6007 C   0  0  0  0  0  0  0  0  0  0  0  0
  156.5139  140.3729  160.8755 O   0  0  0  0  0  0  0  0  0  0  0  0
  155.7930  139.6551  162.8985 N   0  0  0  0  0  0  0  0  0  0  0  0
  157.0624  139.7465  163.6122 C   0  0  0  0  0  0  0  0  0  0  0  0
  157.0118  140.8160  164.7186 C   0  0  2  0  0  0  0  0  0  0  0  0
  155.8082  140.6043  165.6638 C   0  0  0  0  0  0  0  0  0  0  0  0
  155.6962  141.6930  166.6695 N   0  3  1  0  0  0  0  0  0  0  0  0
  156.6484  141.5964  167.8097 C   0  0  0  0  0  0  0  0  0  0  0  0
  156.2551  142.4900  169.0062 C   0  0  0  0  0  0  0  0  0  0  0  0
  156.5558  143.9744  168.7385 C   0  0  0  0  0  0  0  0  0  0  0  0
  156.9662  142.0221  170.2848 C   0  0  0  0  0  0  0  0  0  0  0  0
  155.7037  143.0175  166.0020 C   0  0  0  0  0  0  0  0  0  0  0  0
  156.9138  143.1580  165.0620 C   0  0  0  0  0  0  0  0  0  0  0  0
  156.8918  142.1000  164.1135 O   0  0  0  0  0  0  0  0  0  0  0  0
  153.0309  141.1210  159.3811 C   0  0  0  0  0  0  0  0  0  0  0  0
  153.1031  140.2284  158.5351 O   0  0  0  0  0  0  0  0  0  0  0  0
  152.3950  142.4132  159.0990 C   0  0  0  0  0  0  0  0  0  0  0  0
  151.5837  145.3662  160.5491 H   0  0  0  0  0  0  0  0  0  0  0  0
  150.6411  144.5491  159.2992 H   0  0  0  0  0  0  0  0  0  0  0  0
  152.2201  145.2424  158.9058 H   0  0  0  0  0  0  0  0  0  0  0  0
  152.8485  143.9509  162.0847 H   0  0  0  0  0  0  0  0  0  0  0  0
  153.9144  141.7728  162.5554 H   0  0  0  0  0  0  0  0  0  0  0  0
  153.6183  139.1995  161.8050 H   0  0  0  0  0  0  0  0  0  0  0  0
  154.2439  139.0351  160.1956 H   0  0  0  0  0  0  0  0  0  0  0  0
  154.9970  139.3206  163.4222 H   0  0  0  0  0  0  0  0  0  0  0  0
  157.3506  138.7770  164.0223 H   0  0  0  0  0  0  0  0  0  0  0  0
  157.8278  140.0105  162.8819 H   0  0  0  0  0  0  0  0  0  0  0  0
  157.9438  140.7688  165.2841 H   0  0  0  0  0  0  0  0  0  0  0  0
  154.8884  140.5965  165.0769 H   0  0  0  0  0  0  0  0  0  0  0  0
  155.8643  139.6290  166.1454 H   0  0  0  0  0  0  0  0  0  0  0  0
  156.7470  140.5585  168.1271 H   0  0  0  0  0  0  0  0  0  0  0  0
  157.6415  141.9006  167.4756 H   0  0  0  0  0  0  0  0  0  0  0  0
  155.1858  142.3935  169.1915 H   0  0  0  0  0  0  0  0  0  0  0  0
  157.6172  144.1361  168.5474 H   0  0  0  0  0  0  0  0  0  0  0  0
  156.2753  144.5909  169.5931 H   0  0  0  0  0  0  0  0  0  0  0  0
  156.0015  144.3463  167.8764 H   0  0  0  0  0  0  0  0  0  0  0  0
  158.0500  142.0973  170.1877 H   0  0  0  0  0  0  0  0  0  0  0  0
  156.7237  140.9837  170.5129 H   0  0  0  0  0  0  0  0  0  0  0  0
  156.6672  142.6238  171.1439 H   0  0  0  0  0  0  0  0  0  0  0  0
  154.7854  143.1135  165.4213 H   0  0  0  0  0  0  0  0  0  0  0  0
  155.6849  143.8231  166.7368 H   0  0  0  0  0  0  0  0  0  0  0  0
  156.8658  144.1075  164.5289 H   0  0  0  0  0  0  0  0  0  0  0  0
  157.8535  143.1528  165.6160 H   0  0  0  0  0  0  0  0  0  0  0  0
  151.9743  142.5740  158.1169 H   0  0  0  0  0  0  0  0  0  0  0  0
  154.7811  141.6045  167.0887 H   0  0  0  0  0  0  0  0  0  0  0  0
  1  2  1  0  0  0  0
  1 24  1  0  0  0  0
  1 25  1  0  0  0  0
  1 26  1  0  0  0  0
  2 23  2  0  0  0  0
  2  3  1  0  0  0  0
  3  4  2  0  0  0  0
  3 27  1  0  0  0  0
  4  5  1  0  0  0  0
  4 28  1  0  0  0  0
  5  6  1  0  0  0  0
  5 21  1  0  0  0  0
  6  7  1  0  0  0  0
  6 29  1  0  0  0  0
  6 30  1  0  0  0  0
  7  8  2  0  0  0  0
  7  9  1  0  0  0  0
  9 10  1  0  0  0  0
  9 31  1  0  0  0  0
 10 11  1  0  0  0  0
 10 32  1  0  0  0  0
 10 33  1  0  0  0  0
 11 20  1  0  0  0  0
 11 12  1  0  0  0  0
 11 34  1  0  0  0  0
 12 13  1  0  0  0  0
 12 35  1  0  0  0  0
 12 36  1  0  0  0  0
 13 14  1  0  0  0  0
 13 18  1  0  0  0  0
 13 51  1  0  0  0  0
 14 15  1  0  0  0  0
 14 37  1  0  0  0  0
 14 38  1  0  0  0  0
 15 16  1  0  0  0  0
 15 17  1  0  0  0  0
 15 39  1  0  0  0  0
 16 40  1  0  0  0  0
 16 41  1  0  0  0  0
 16 42  1  0  0  0  0
 17 43  1  0  0  0  0
 17 44  1  0  0  0  0
 17 45  1  0  0  0  0
 18 19  1  0  0  0  0
 18 46  1  0  0  0  0
 18 47  1  0  0  0  0
 19 20  1  0  0  0  0
 19 48  1  0  0  0  0
 19 49  1  0  0  0  0
 21 22  2  0  0  0  0
 21 23  1  0  0  0  0
 23 50  1  0  0  0  0
M  CHG  1  13   1
M  END
> <s_m_source_file>
AV-unprocessed.smi

> <i_m_source_file_index>
712

> <i_lp_mmshare_version>
43012

> <i_f3d_flags>
0

> <s_epik_input>
W0NIM11jMVtjSF1bY0hdbihjKD1PKVtjSF0xKVtDSDJdQyg9TylbTkhdW0NIMl1bQ0BASF0yW0NIMl1OKFtDSDJdW0NIMl1PMilbQ0gyXVtDSF0oW0NIM10pW0NIM10=

> <s_epik_cmdline>
J2VwaWtfcHl0aG9uJywgJy1waCcsICc3LjAnLCAnLXRuJywgJzgnLCAnLW1hJywgJzIwMCcsICctbWV0YWxfYmluZGluZycsICctaW1hZScsICc8aW5maWxlLm1hZT4nLCAnLW9tYWUnLCAnPG91dGZpbGUubWFlPic=

> <r_lp_tautomer_probability>
1

> <r_epik_Ionization_Penalty>
0.0975935

> <r_epik_Ionization_Penalty_Charging>
0.0975934

> <r_epik_Ionization_Penalty_Neutral>
6.27044e-08

> <r_epik_State_Penalty>
0.0877056

> <r_epik_Charging_Adjusted_Penalty>
0.185299

> <i_epik_Tot_Q>
1

> <i_epik_Tot_abs_Q>
1

> <r_epik_Metal_State_Penalty>
0.0877109

> <b_epik_Metal_Only>
0

> <s_lp_Force_Field>
OPLS_2005

> <r_lp_Energy>
30.0943

> <b_lp_Chiralities_Consistent>
1

> <s_lp_Variant>
AV-unprocessed.smi:712-3

> <Gold.Version>
5.8.1

> <Gold.Id.Protein>
6NUR|6NUR_protein|mol2

> <Gold.PLP.Fitness>
48.1834

> <Gold.PLP.PLP>
-45.8917

> <Gold.PLP.part.hbond>
-2.7832

> <Gold.PLP.part.metal>
0.0000

> <Gold.PLP.part.buried>
-5.6163

> <Gold.PLP.part.nonpolar>
-37.1841

> <Gold.PLP.part.repulsive>
0.1061

> <Gold.PLP.ligand.clash>
0.0000

> <Gold.PLP.ligand.torsion>
0.3196

> <Gold.PLP.Chemscore.Hbond>
0.9440

> <Gold.PLP.Chemscore.CHOScore>
0.0000

> <Gold.PLP.Chemscore.Metal>
0.0000

> <Gold.Chemscore.Hbonds>
donor molecule, donor type, donor heavy atom, donor atom, acceptor molecule, acceptor atom, score
      P1  H  7997  8010       L1    22  0.68

> <Gold.PLP.Chemscore.Internal.Correction>
0.0989

> <Gold.Rescore>
     Score         DG    S(hbond)    S(metal)    S(lipo)     H(rot)  DE(clash)    DE(int)     intcor
     15.05     -17.94       0.95        0.00     120.78       1.89       2.47       0.42       ----

> <Gold.Chemscore.Fitness>
15.0459

> <Gold.Chemscore.DG>
-17.9433

> <Gold.Chemscore.ZeroCoef>
-5.4800

> <Gold.Chemscore.Hbond>
0.9471

> <Gold.Chemscore.Metal>
0.0000

> <Gold.Chemscore.Lipo>
120.7761

> <Gold.Chemscore.Internal_Hbond>
0.0000

> <Gold.Chemscore.DEClash>
2.4734

> <Gold.Chemscore.DEInternal>
0.4240

> <Gold.Chemscore.Rot>
1.8871

> <Gold.Chemscore.Internal.Correction>
   9.000000E+99

> <Gold.Chemscore.Hbonds>
donor molecule, donor type, donor heavy atom, donor atom, acceptor molecule, acceptor atom, score
      P1  H  7997  8010       L1    22  0.67

> <Gold.Chemscore.Hbond.Weighted>
-3.1634

> <Gold.Chemscore.Metal.Weighted>
-0.0000

> <Gold.Chemscore.Lipo.Weighted>
-14.1308

> <Gold.Chemscore.Internal_Hbond.Weighted>
0.0000

> <Gold.Chemscore.DEClash.Weighted>
2.4734

> <Gold.Chemscore.DEInternal.Weighted>
0.4240

> <Gold.Chemscore.Rot.Weighted>
4.8309

> <Gold.Chemscore.Internal.Correction.Weighted>
   9.000000E+99

> <Gold.Protein.RotatedTorsions>
[ 6907 6896 6895 6894 ] final  151.57 input  -60.11 | X-H torsion
[ 7974 7965 7964 7962 ] final   87.70 input  175.53 | X-H torsion
[ 8008 7997 7996 7995 ] final   24.89 input   59.86 | X-H torsion
[ 10167 10162 10161 10158 ] final  -59.99 input  -65.29 | X-H torsion
[ 10718 10713 10712 10709 ] final  140.86 input   66.30 | X-H torsion
[ 10763 10752 10751 10750 ] final   94.24 input  -60.55 | X-H torsion
[ 11005 11000 10999 10996 ] final  -78.02 input  -57.11 | X-H torsion

> <Gold.Protein.ActiveResidues>
 VAL166  LYS551  ARG553  GLY616  TRP617  ASP618  TYR619  PRO620  LYS621  CYS622 
 ASP623  PHE694  ASN695  SER759  ASP760  ASP761  ALA762  ILE779  LEU786  VAL792 
 PHE793  MET794  SER795  GLU796  ALA797  LYS798  CYS799  TRP800  GLU811  SER814 

> <Gold.Protein.RotatedAtoms>
  152.0988  133.4238  159.4577 H   0  0  0  0  0  0  0  0  0  0  0  0  # atno 6907 bound_to 6896
  150.6863  134.2785  159.4627 H   0  0  0  0  0  0  0  0  0  0  0  0  # atno 6908 bound_to 6896
  152.0644  134.9573  160.0625 H   0  0  0  0  0  0  0  0  0  0  0  0  # atno 6909 bound_to 6896
  145.5555  139.2299  143.2489 H   0  0  0  0  0  0  0  0  0  0  0  0  # atno 7974 bound_to 7965
  155.0033  140.3128  155.4859 H   0  0  0  0  0  0  0  0  0  0  0  0  # atno 8008 bound_to 7997
  156.2921  140.2228  156.5084 H   0  0  0  0  0  0  0  0  0  0  0  0  # atno 8009 bound_to 7997
  154.7599  140.0460  157.0953 H   0  0  0  0  0  0  0  0  0  0  0  0  # atno 8010 bound_to 7997
  140.6100  143.2384  151.5732 H   0  0  0  0  0  0  0  0  0  0  0  0  # atno 10167 bound_to 10162
  157.3986  131.1014  151.0575 H   0  0  0  0  0  0  0  0  0  0  0  0  # atno 10718 bound_to 10713
  153.2394  135.4296  155.0682 H   0  0  0  0  0  0  0  0  0  0  0  0  # atno 10763 bound_to 10752
  154.8334  135.3399  154.6671 H   0  0  0  0  0  0  0  0  0  0  0  0  # atno 10764 bound_to 10752
  153.7095  135.7023  153.5098 H   0  0  0  0  0  0  0  0  0  0  0  0  # atno 10765 bound_to 10752
  141.1663  133.7046  156.7909 H   0  0  0  0  0  0  0  0  0  0  0  0  # atno 11005 bound_to 11000
  146.1887  140.6379  142.9155 LP  0  0  0  0  0  0  0  0  0  0  0  0  # atno 17320 bound_to 7965
  144.7508  140.5186  143.6803 LP  0  0  0  0  0  0  0  0  0  0  0  0  # atno 17321 bound_to 7965
  139.5354  144.2797  152.1239 LP  0  0  0  0  0  0  0  0  0  0  0  0  # atno 17342 bound_to 10162
  140.1994  144.4672  150.6439 LP  0  0  0  0  0  0  0  0  0  0  0  0  # atno 17343 bound_to 10162
  157.1582  130.6214  149.5603 LP  0  0  0  0  0  0  0  0  0  0  0  0  # atno 17370 bound_to 10713
  155.9817  130.4826  150.6841 LP  0  0  0  0  0  0  0  0  0  0  0  0  # atno 17371 bound_to 10713
  140.2326  134.8674  157.3492 LP  0  0  0  0  0  0  0  0  0  0  0  0  # atno 17394 bound_to 11000
  140.1876  134.4412  155.7735 LP  0  0  0  0  0  0  0  0  0  0  0  0  # atno 17395 bound_to 11000

$$$$
