#       Name:                AV-unprocessed.smi:3163
#       Creating user name   scv26
#       Creation time:       Fri Mar 27 17:50:21 2020


#       File generated by GOLD software.
#

@<TRIPOS>MOLECULE
AV-unprocessed.smi:3163
    39    40     1
SMALL
NO_CHARGES


@<TRIPOS>ATOM
      1 ****        -3.5399  -2.0935  -3.2775 C.3            1 S1                 0.0000
      2 ****        -3.0948  -0.9977  -2.3914 N.4            1 S1                 1.0000
      3 ****        -2.8865  -1.3946  -0.9791 C.3            1 S1                 0.0000
      4 ****        -1.5227  -0.8328  -0.5615 C.3            1 S1                 0.0000
      5 ****        -1.2383   0.2695  -1.5833 C.3            1 S1                 0.0000
      6 ****         0.2460   0.6459  -1.7514 C.3            1 S1                 0.0000
      7 ****         0.8004   1.2360  -0.5367 N.am           1 S1                 0.0000
      8 ****         1.4888   0.5745   0.4051 C.2            1 S1                 0.0000
      9 ****         1.7226  -0.6327   0.3502 O.2            1 S1                 0.0000
     10 ****         1.8554   1.3960   1.4042 N.am           1 S1                 0.0000
     11 ****         2.5987   1.0955   2.5782 C.ar           1 S1                 0.0000
     12 ****         2.5160   2.0021   3.6553 C.ar           1 S1                 0.0000
     13 ****         3.2554   1.7372   4.8253 C.ar           1 S1                 0.0000
     14 ****         4.0533   0.6585   4.9699 N.ar           1 S1                 0.0000
     15 ****         4.1426  -0.2011   3.9331 C.ar           1 S1                 0.0000
     16 ****         3.4450  -0.0308   2.7203 C.ar           1 S1                 0.0000
     17 ****        -1.8731  -0.3044  -2.8498 C.3            1 S1                 0.0000
     18 ****        -2.7964  -2.8903  -3.3225 H              1 S1                 0.0000
     19 ****        -3.7063  -1.7213  -4.2888 H              1 S1                 0.0000
     20 ****        -4.4769  -2.5181  -2.9160 H              1 S1                 0.0000
     21 ****        -3.6848  -0.9587  -0.3779 H              1 S1                 0.0000
     22 ****        -2.9214  -2.4761  -0.8392 H              1 S1                 0.0000
     23 ****        -1.5161  -0.4697   0.4666 H              1 S1                 0.0000
     24 ****        -0.7688  -1.6174  -0.6415 H              1 S1                 0.0000
     25 ****        -1.8005   1.1593  -1.2942 H              1 S1                 0.0000
     26 ****         0.8308  -0.2208  -2.0645 H              1 S1                 0.0000
     27 ****         0.3453   1.3820  -2.5496 H              1 S1                 0.0000
     28 ****         0.6523   2.2263  -0.4059 H              1 S1                 0.0000
     29 ****         1.5196   2.3457   1.3410 H              1 S1                 0.0000
     30 ****         1.8953   2.8841   3.5937 H              1 S1                 0.0000
     31 ****         3.2060   2.4124   5.6668 H              1 S1                 0.0000
     32 ****         4.7963  -1.0496   4.0717 H              1 S1                 0.0000
     33 ****         3.5835  -0.7532   1.9311 H              1 S1                 0.0000
     34 ****        -1.1934  -1.0227  -3.3125 H              1 S1                 0.0000
     35 ****        -2.1036   0.4640  -3.5884 H              1 S1                 0.0000
     36 ****        -3.8288  -0.3038  -2.3808 H              1 S1                 0.0000
     37 ****         1.3936  -1.1709  -0.4257 LP             1 S1                 0.0000
     38 ****         2.2415  -1.0752   1.0815 LP             1 S1                 0.0000
     39 ****         4.5613   0.5013   5.8168 LP             1 S1                 0.0000
@<TRIPOS>BOND
    1    1    2 1     
    2    1   18 1     
    3    1   19 1     
    4    1   20 1     
    5    2   17 1     
    6    2    3 1     
    7    2   36 1     
    8    3    4 1     
    9    3   21 1     
   10    3   22 1     
   11    4    5 1     
   12    4   23 1     
   13    4   24 1     
   14    5    6 1     
   15    5   17 1     
   16    5   25 1     
   17    6    7 1     
   18    6   26 1     
   19    6   27 1     
   20    7    8 am    
   21    7   28 1     
   22    8    9 2     
   23    8   10 am    
   24   10   11 1     
   25   10   29 1     
   26   11   16 ar    
   27   11   12 ar    
   28   12   13 ar    
   29   12   30 1     
   30   13   14 ar    
   31   13   31 1     
   32   14   15 ar    
   33   15   16 ar    
   34   15   32 1     
   35   16   33 1     
   36   17   34 1     
   37   17   35 1     
   38    9   37 1     
   39    9   38 1     
   40   14   39 1     
@<TRIPOS>SUBSTRUCTURE
      1 S1             1
@<TRIPOS>SET
LONE_PAIRS      STATIC     ATOMS    <user>   **** ""
3 37 38 39
DONOR_HYDROGENS      STATIC     ATOMS    <user>   **** ""
3 36 28 29
ATOM$BLUE        STATIC     ATOMS    COLORGROUP SYSTEM
3 37 38 39
ATOM$RED        STATIC     ATOMS    COLORGROUP SYSTEM
3 36 28 29
