AV-unprocessed.smi:229|AV-procd|sdf|1748|dock3
  -GOLD-   2262020263D 1   1.00000     0.00000
 Structure written by MMmdl.
 58 62  0  0  0  0  0  0  0  0  1 V2000
  154.8971  140.3323  161.3480 C   0  0  0  0  0  0  0  0  0  0  0  0
  153.7362  141.3336  161.3926 C   0  0  0  0  0  0  0  0  0  0  0  0
  153.2049  141.6939  159.9973 C   0  0  1  0  0  0  0  0  0  0  0  0
  152.7039  140.4545  159.2373 C   0  0  0  0  0  0  0  0  0  0  0  0
  152.1013  140.8571  157.9712 N   0  0  0  0  0  0  0  0  0  0  0  0
  151.8663  139.8979  157.0411 C   0  0  0  0  0  0  0  0  0  0  0  0
  152.5184  139.9312  155.8477 N   0  0  0  0  0  0  0  0  0  0  0  0
  152.2996  138.9830  154.9318 C   0  0  0  0  0  0  0  0  0  0  0  0
  151.4818  137.9309  154.9992 N   0  0  0  0  0  0  0  0  0  0  0  0
  150.8182  137.8964  156.1898 C   0  0  0  0  0  0  0  0  0  0  0  0
  150.9504  138.8297  157.2567 C   0  0  0  0  0  0  0  0  0  0  0  0
  150.1097  138.4712  158.3045 N   0  0  0  0  0  0  0  0  0  0  0  0
  149.5222  137.3837  157.8851 C   0  0  0  0  0  0  0  0  0  0  0  0
  149.8902  136.9677  156.6260 N   0  0  0  0  0  0  0  0  0  0  0  0
  149.3970  135.7973  155.9213 C   0  0  0  0  0  0  0  0  0  0  0  0
  149.5257  134.5114  156.7608 C   0  0  2  0  0  0  0  0  0  0  0  0
  150.8125  134.4205  157.3439 O   0  0  0  0  0  0  0  0  0  0  0  0
  149.2053  133.2343  155.9569 C   0  0  2  0  0  0  0  0  0  0  0  0
  150.1368  132.9374  154.7688 C   0  0  0  0  0  0  0  0  0  0  0  0
  149.1982  132.9044  153.5762 C   0  0  0  0  0  0  0  0  0  0  0  0
  147.8603  132.5537  154.2141 C   0  0  0  0  0  0  0  0  0  0  0  0
  147.8828  133.2856  155.4281 O   0  0  0  0  0  0  0  0  0  0  0  0
  151.0185  141.8185  158.1422 C   0  0  0  0  0  0  0  0  0  0  0  0
  151.4983  143.0490  158.9401 C   0  0  1  0  0  0  0  0  0  0  0  0
  152.3709  144.0125  158.1412 C   0  0  0  0  0  0  0  0  0  0  0  0
  152.1750  145.3182  158.8958 C   0  0  0  0  0  0  0  0  0  0  0  0
  150.7947  145.3133  159.2257 O   0  0  0  0  0  0  0  0  0  0  0  0
  150.3372  143.9686  159.3527 C   0  0  0  0  0  0  0  0  0  0  0  0
  152.1277  142.6193  160.1534 O   0  0  0  0  0  0  0  0  0  0  0  0
  155.2377  140.0885  162.3544 H   0  0  0  0  0  0  0  0  0  0  0  0
  155.7478  140.7364  160.7986 H   0  0  0  0  0  0  0  0  0  0  0  0
  154.5971  139.4026  160.8640 H   0  0  0  0  0  0  0  0  0  0  0  0
  152.9278  140.9056  161.9868 H   0  0  0  0  0  0  0  0  0  0  0  0
  154.0536  142.2383  161.9123 H   0  0  0  0  0  0  0  0  0  0  0  0
  154.0167  142.1530  159.4338 H   0  0  0  0  0  0  0  0  0  0  0  0
  153.5364  139.7725  159.0575 H   0  0  0  0  0  0  0  0  0  0  0  0
  151.9656  139.9180  159.8353 H   0  0  0  0  0  0  0  0  0  0  0  0
  152.8606  139.0808  154.0141 H   0  0  0  0  0  0  0  0  0  0  0  0
  148.7999  136.8510  158.4864 H   0  0  0  0  0  0  0  0  0  0  0  0
  148.3530  135.9721  155.6588 H   0  0  0  0  0  0  0  0  0  0  0  0
  149.9412  135.7005  154.9810 H   0  0  0  0  0  0  0  0  0  0  0  0
  148.8168  134.5698  157.5877 H   0  0  0  0  0  0  0  0  0  0  0  0
  151.2789  135.2233  157.1678 H   0  0  0  0  0  0  0  0  0  0  0  0
  149.2386  132.3807  156.6358 H   0  0  0  0  0  0  0  0  0  0  0  0
  150.9327  133.6711  154.6396 H   0  0  0  0  0  0  0  0  0  0  0  0
  150.6092  131.9636  154.9033 H   0  0  0  0  0  0  0  0  0  0  0  0
  149.1418  133.8944  153.1218 H   0  0  0  0  0  0  0  0  0  0  0  0
  149.5049  132.1937  152.8084 H   0  0  0  0  0  0  0  0  0  0  0  0
  147.0095  132.8315  153.5919 H   0  0  0  0  0  0  0  0  0  0  0  0
  147.7980  131.4861  154.4311 H   0  0  0  0  0  0  0  0  0  0  0  0
  150.6044  142.1350  157.1852 H   0  0  0  0  0  0  0  0  0  0  0  0
  150.2084  141.3246  158.6812 H   0  0  0  0  0  0  0  0  0  0  0  0
  153.4172  143.7251  158.0550 H   0  0  0  0  0  0  0  0  0  0  0  0
  151.9797  144.1198  157.1284 H   0  0  0  0  0  0  0  0  0  0  0  0
  152.7658  145.3264  159.8130 H   0  0  0  0  0  0  0  0  0  0  0  0
  152.4437  146.1938  158.3049 H   0  0  0  0  0  0  0  0  0  0  0  0
  149.4812  143.8472  158.6879 H   0  0  0  0  0  0  0  0  0  0  0  0
  149.9936  143.7682  160.3683 H   0  0  0  0  0  0  0  0  0  0  0  0
  1  2  1  0  0  0  0
  1 30  1  0  0  0  0
  1 31  1  0  0  0  0
  1 32  1  0  0  0  0
  2  3  1  0  0  0  0
  2 33  1  0  0  0  0
  2 34  1  0  0  0  0
  3 29  1  0  0  0  0
  3  4  1  0  0  0  0
  3 35  1  0  0  0  0
  4  5  1  0  0  0  0
  4 36  1  0  0  0  0
  4 37  1  0  0  0  0
  5  6  1  0  0  0  0
  5 23  1  0  0  0  0
  6 11  1  0  0  0  0
  6  7  2  0  0  0  0
  7  8  1  0  0  0  0
  8  9  2  0  0  0  0
  8 38  1  0  0  0  0
  9 10  1  0  0  0  0
 10 14  1  0  0  0  0
 10 11  2  0  0  0  0
 11 12  1  0  0  0  0
 12 13  2  0  0  0  0
 13 14  1  0  0  0  0
 13 39  1  0  0  0  0
 14 15  1  0  0  0  0
 15 16  1  0  0  0  0
 15 40  1  0  0  0  0
 15 41  1  0  0  0  0
 16 17  1  0  0  0  0
 16 18  1  0  0  0  0
 16 42  1  0  0  0  0
 17 43  1  0  0  0  0
 18 22  1  0  0  0  0
 18 19  1  0  0  0  0
 18 44  1  0  0  0  0
 19 20  1  0  0  0  0
 19 45  1  0  0  0  0
 19 46  1  0  0  0  0
 20 21  1  0  0  0  0
 20 47  1  0  0  0  0
 20 48  1  0  0  0  0
 21 22  1  0  0  0  0
 21 49  1  0  0  0  0
 21 50  1  0  0  0  0
 23 24  1  0  0  0  0
 23 51  1  0  0  0  0
 23 52  1  0  0  0  0
 24 28  1  0  0  0  0
 24 25  1  0  0  0  0
 24 29  1  0  0  0  0
 25 26  1  0  0  0  0
 25 53  1  0  0  0  0
 25 54  1  0  0  0  0
 26 27  1  0  0  0  0
 26 55  1  0  0  0  0
 26 56  1  0  0  0  0
 27 28  1  0  0  0  0
 28 57  1  0  0  0  0
 28 58  1  0  0  0  0
M  END
> <s_m_source_file>
AV-unprocessed.smi

> <i_m_source_file_index>
229

> <i_lp_mmshare_version>
43012

> <i_f3d_flags>
0

> <s_epik_input>
W0NIMl0xT1tDSDJdW0NIMl1bQ0BdMTJbQ0gyXU4oW0NIMl1bQ0BIXShPMilbQ0gyXVtDSDNdKWMobltjSF1uMyljKGMzNCluW2NIXW40W0NIMl1bQ0BIXShbT0hdKVtDQEBIXTVbQ0gyXVtDSDJdW0NIMl1PNQ==

> <s_epik_cmdline>
J2VwaWtfcHl0aG9uJywgJy1waCcsICc3LjAnLCAnLXRuJywgJzgnLCAnLW1hJywgJzIwMCcsICctbWV0YWxfYmluZGluZycsICctaW1hZScsICc8aW5maWxlLm1hZT4nLCAnLW9tYWUnLCAnPG91dGZpbGUubWFlPic=

> <r_lp_tautomer_probability>
1

> <r_epik_Ionization_Penalty>
0.00318402

> <r_epik_Ionization_Penalty_Charging>
0

> <r_epik_Ionization_Penalty_Neutral>
0.00318402

> <r_epik_State_Penalty>
0.00215642

> <r_epik_Charging_Adjusted_Penalty>
0.00215642

> <i_epik_Tot_Q>
0

> <i_epik_Tot_abs_Q>
0

> <r_epik_Metal_State_Penalty>
-0

> <b_epik_Metal_Only>
0

> <s_lp_Force_Field>
OPLS_2005

> <r_lp_Energy>
56.2374

> <b_lp_Chiralities_Consistent>
1

> <s_lp_Variant>
AV-unprocessed.smi:229-2

> <Gold.Version>
5.8.1

> <Gold.Id.Protein>
6NUR|6NUR_protein|mol2

> <Gold.PLP.Fitness>
50.7762

> <Gold.PLP.PLP>
-46.5922

> <Gold.PLP.part.hbond>
-2.0711

> <Gold.PLP.part.metal>
0.0000

> <Gold.PLP.part.buried>
-8.3647

> <Gold.PLP.part.nonpolar>
-36.3310

> <Gold.PLP.part.repulsive>
0.2893

> <Gold.PLP.ligand.clash>
0.0000

> <Gold.PLP.ligand.torsion>
0.2787

> <Gold.PLP.Chemscore.Hbond>
1.4800

> <Gold.PLP.Chemscore.CHOScore>
0.0000

> <Gold.PLP.Chemscore.Metal>
0.0000

> <Gold.Chemscore.Hbonds>
donor molecule, donor type, donor heavy atom, donor atom, acceptor molecule, acceptor atom, score
      P1  H  6896  6908       L1    17  0.45
      P1  H  7997  8009       L1     7  1.00

> <Gold.PLP.Chemscore.Internal.Correction>
0.3014

> <Gold.Rescore>
     Score         DG    S(hbond)    S(metal)    S(lipo)     H(rot)  DE(clash)    DE(int)     intcor
     16.86     -17.19       1.24        0.00     118.41       2.46       0.05       0.28       ----

> <Gold.Chemscore.Fitness>
16.8598

> <Gold.Chemscore.DG>
-17.1903

> <Gold.Chemscore.ZeroCoef>
-5.4800

> <Gold.Chemscore.Hbond>
1.2429

> <Gold.Chemscore.Metal>
0.0000

> <Gold.Chemscore.Lipo>
118.4120

> <Gold.Chemscore.Internal_Hbond>
0.0000

> <Gold.Chemscore.DEClash>
0.0462

> <Gold.Chemscore.DEInternal>
0.2843

> <Gold.Chemscore.Rot>
2.4591

> <Gold.Chemscore.Internal.Correction>
   9.000000E+99

> <Gold.Chemscore.Hbonds>
donor molecule, donor type, donor heavy atom, donor atom, acceptor molecule, acceptor atom, score
      P1  H  6896  6908       L1    17  0.37
      P1  H  7997  8009       L1     7  0.54

> <Gold.Chemscore.Hbond.Weighted>
-4.1514

> <Gold.Chemscore.Metal.Weighted>
-0.0000

> <Gold.Chemscore.Lipo.Weighted>
-13.8542

> <Gold.Chemscore.Internal_Hbond.Weighted>
0.0000

> <Gold.Chemscore.DEClash.Weighted>
0.0462

> <Gold.Chemscore.DEInternal.Weighted>
0.2843

> <Gold.Chemscore.Rot.Weighted>
6.2953

> <Gold.Chemscore.Internal.Correction.Weighted>
   9.000000E+99

> <Gold.Protein.RotatedTorsions>
[ 6907 6896 6895 6894 ] final  115.35 input  -60.11 | X-H torsion
[ 7974 7965 7964 7962 ] final  -82.48 input  175.53 | X-H torsion
[ 8008 7997 7996 7995 ] final -154.67 input   59.86 | X-H torsion
[ 10167 10162 10161 10158 ] final  147.44 input  -65.29 | X-H torsion
[ 10718 10713 10712 10709 ] final -158.94 input   66.30 | X-H torsion
[ 10763 10752 10751 10750 ] final  -82.06 input  -60.55 | X-H torsion
[ 11005 11000 10999 10996 ] final  -11.30 input  -57.11 | X-H torsion

> <Gold.Protein.ActiveResidues>
 VAL166  LYS551  ARG553  GLY616  TRP617  ASP618  TYR619  PRO620  LYS621  CYS622 
 ASP623  PHE694  ASN695  SER759  ASP760  ASP761  ALA762  ILE779  LEU786  VAL792 
 PHE793  MET794  SER795  GLU796  ALA797  LYS798  CYS799  TRP800  GLU811  SER814 

> <Gold.Protein.RotatedAtoms>
  152.4747  133.8110  159.7002 H   0  0  0  0  0  0  0  0  0  0  0  0  # atno 6907 bound_to 6896
  150.8756  133.7434  159.2954 H   0  0  0  0  0  0  0  0  0  0  0  0  # atno 6908 bound_to 6896
  151.4955  135.1063  159.9867 H   0  0  0  0  0  0  0  0  0  0  0  0  # atno 6909 bound_to 6896
  145.5327  140.9519  143.1594 H   0  0  0  0  0  0  0  0  0  0  0  0  # atno 7974 bound_to 7965
  155.6899  140.0754  157.2452 H   0  0  0  0  0  0  0  0  0  0  0  0  # atno 8008 bound_to 7997
  154.4090  140.1666  156.2127 H   0  0  0  0  0  0  0  0  0  0  0  0  # atno 8009 bound_to 7997
  155.9461  140.3381  155.6371 H   0  0  0  0  0  0  0  0  0  0  0  0  # atno 8010 bound_to 7997
  139.4890  144.5755  151.6973 H   0  0  0  0  0  0  0  0  0  0  0  0  # atno 10167 bound_to 10162
  156.5612  130.8648  151.2810 H   0  0  0  0  0  0  0  0  0  0  0  0  # atno 10718 bound_to 10713
  154.5712  135.5604  153.7096 H   0  0  0  0  0  0  0  0  0  0  0  0  # atno 10763 bound_to 10752
  153.0049  135.6297  154.2112 H   0  0  0  0  0  0  0  0  0  0  0  0  # atno 10764 bound_to 10752
  154.2052  135.2876  155.2957 H   0  0  0  0  0  0  0  0  0  0  0  0  # atno 10765 bound_to 10752
  140.7539  133.8570  155.9067 H   0  0  0  0  0  0  0  0  0  0  0  0  # atno 11005 bound_to 11000
  144.7617  139.6940  143.7231 LP  0  0  0  0  0  0  0  0  0  0  0  0  # atno 17320 bound_to 7965
  146.2033  139.5342  142.9729 LP  0  0  0  0  0  0  0  0  0  0  0  0  # atno 17321 bound_to 7965
  140.5351  144.0669  150.6067 LP  0  0  0  0  0  0  0  0  0  0  0  0  # atno 17342 bound_to 10162
  140.3672  143.2875  152.0318 LP  0  0  0  0  0  0  0  0  0  0  0  0  # atno 17343 bound_to 10162
  157.7368  130.9785  150.2157 LP  0  0  0  0  0  0  0  0  0  0  0  0  # atno 17370 bound_to 10713
  156.2797  130.3732  149.7947 LP  0  0  0  0  0  0  0  0  0  0  0  0  # atno 17371 bound_to 10713
  140.9726  134.1511  157.4563 LP  0  0  0  0  0  0  0  0  0  0  0  0  # atno 17394 bound_to 11000
  139.8782  134.9983  156.5896 LP  0  0  0  0  0  0  0  0  0  0  0  0  # atno 17395 bound_to 11000

$$$$
