AV-unprocessed.smi:2928|AV-procd|sdf|11237|dock2
  -GOLD-   2272016133D 1   1.00000     0.00000
 Structure written by MMmdl.
 56 59  0  0  0  0  0  0  0  0  3 V2000
  146.7637  138.6029  154.3953 C   0  0  0  0  0  0  0  0  0  0  0  0
  147.7665  139.4638  155.0669 N   0  3  2  0  0  0  0  0  0  0  0  0
  147.2388  140.2718  156.1932 C   0  0  2  0  0  0  0  0  0  0  0  0
  146.3040  141.4004  155.6874 C   0  0  0  0  0  0  0  0  0  0  0  0
  146.9158  142.2733  154.5747 C   0  0  0  0  0  0  0  0  0  0  0  0
  147.6983  141.4453  153.5379 C   0  0  0  0  0  0  0  0  0  0  0  0
  148.5653  140.3194  154.1559 C   0  0  1  0  0  0  0  0  0  0  0  0
  149.8258  140.8111  154.9057 C   0  0  0  0  0  0  0  0  0  0  0  0
  149.5395  141.4819  156.2741 C   0  0  2  0  0  0  0  0  0  0  0  0
  150.7551  141.5152  157.0847 N   0  0  0  0  0  0  0  0  0  0  0  0
  150.8300  141.9608  158.3474 C   0  0  0  0  0  0  0  0  0  0  0  0
  149.8696  142.4173  158.9672 O   0  0  0  0  0  0  0  0  0  0  0  0
  152.0809  141.8618  158.8274 N   0  0  0  0  0  0  0  0  0  0  0  0
  152.5556  142.2557  160.1107 C   0  0  0  0  0  0  0  0  0  0  0  0
  151.9552  143.3316  160.8142 C   0  0  0  0  0  0  0  0  0  0  0  0
  152.3922  143.6530  162.1131 C   0  0  0  0  0  0  0  0  0  0  0  0
  153.4125  142.8833  162.6971 C   0  0  0  0  0  0  0  0  0  0  0  0
  153.9557  141.8593  162.0073 N   0  3  0  0  0  0  0  0  0  0  0  0
  153.5897  141.5102  160.7483 C   0  0  0  0  0  0  0  0  0  0  0  0
  154.2594  140.4221  160.1434 N   0  0  0  0  0  0  0  0  0  0  0  0
  153.5023  139.3175  159.5655 C   0  0  0  0  0  0  0  0  0  0  0  0
  154.5244  138.2039  159.3551 C   0  0  0  0  0  0  0  0  0  0  0  0
  155.4591  138.3871  160.5470 C   0  0  0  0  0  0  0  0  0  0  0  0
  155.4715  139.9031  160.7698 C   0  0  0  0  0  0  0  0  0  0  0  0
  148.4255  140.7513  157.0611 C   0  0  0  0  0  0  0  0  0  0  0  0
  145.9799  139.1815  153.9075 H   0  0  0  0  0  0  0  0  0  0  0  0
  146.2907  137.9377  155.1181 H   0  0  0  0  0  0  0  0  0  0  0  0
  147.2427  137.9795  153.6397 H   0  0  0  0  0  0  0  0  0  0  0  0
  146.6400  139.6135  156.8245 H   0  0  0  0  0  0  0  0  0  0  0  0
  145.3868  140.9512  155.3056 H   0  0  0  0  0  0  0  0  0  0  0  0
  145.9908  142.0307  156.5203 H   0  0  0  0  0  0  0  0  0  0  0  0
  146.1228  142.8279  154.0722 H   0  0  0  0  0  0  0  0  0  0  0  0
  147.5525  143.0430  155.0024 H   0  0  0  0  0  0  0  0  0  0  0  0
  146.9850  140.9993  152.8443 H   0  0  0  0  0  0  0  0  0  0  0  0
  148.3175  142.1055  152.9296 H   0  0  0  0  0  0  0  0  0  0  0  0
  148.9178  139.6938  153.3343 H   0  0  0  0  0  0  0  0  0  0  0  0
  150.4670  139.9438  155.0725 H   0  0  0  0  0  0  0  0  0  0  0  0
  150.4019  141.4848  154.2702 H   0  0  0  0  0  0  0  0  0  0  0  0
  149.2309  142.5125  156.1168 H   0  0  0  0  0  0  0  0  0  0  0  0
  151.5974  141.1604  156.6556 H   0  0  0  0  0  0  0  0  0  0  0  0
  152.7896  141.5635  158.1730 H   0  0  0  0  0  0  0  0  0  0  0  0
  151.1463  143.9033  160.3848 H   0  0  0  0  0  0  0  0  0  0  0  0
  151.9408  144.4699  162.6570 H   0  0  0  0  0  0  0  0  0  0  0  0
  153.8059  143.0506  163.6894 H   0  0  0  0  0  0  0  0  0  0  0  0
  152.7310  138.9791  160.2585 H   0  0  0  0  0  0  0  0  0  0  0  0
  153.0224  139.6084  158.6305 H   0  0  0  0  0  0  0  0  0  0  0  0
  154.0717  137.2129  159.3143 H   0  0  0  0  0  0  0  0  0  0  0  0
  155.0706  138.3672  158.4249 H   0  0  0  0  0  0  0  0  0  0  0  0
  155.0377  137.8904  161.4222 H   0  0  0  0  0  0  0  0  0  0  0  0
  156.4545  137.9765  160.3750 H   0  0  0  0  0  0  0  0  0  0  0  0
  156.3376  140.3440  160.2757 H   0  0  0  0  0  0  0  0  0  0  0  0
  155.5243  140.1471  161.8319 H   0  0  0  0  0  0  0  0  0  0  0  0
  148.0674  141.3823  157.8755 H   0  0  0  0  0  0  0  0  0  0  0  0
  148.8573  139.8699  157.5385 H   0  0  0  0  0  0  0  0  0  0  0  0
  148.4226  138.8158  155.4789 H   0  0  0  0  0  0  0  0  0  0  0  0
  154.6940  141.3192  162.4587 H   0  0  0  0  0  0  0  0  0  0  0  0
  1  2  1  0  0  0  0
  1 26  1  0  0  0  0
  1 27  1  0  0  0  0
  1 28  1  0  0  0  0
  2  7  1  0  0  0  0
  2  3  1  0  0  0  0
  2 55  1  0  0  0  0
  3 25  1  0  0  0  0
  3  4  1  0  0  0  0
  3 29  1  0  0  0  0
  4  5  1  0  0  0  0
  4 30  1  0  0  0  0
  4 31  1  0  0  0  0
  5  6  1  0  0  0  0
  5 32  1  0  0  0  0
  5 33  1  0  0  0  0
  6  7  1  0  0  0  0
  6 34  1  0  0  0  0
  6 35  1  0  0  0  0
  7  8  1  0  0  0  0
  7 36  1  0  0  0  0
  8  9  1  0  0  0  0
  8 37  1  0  0  0  0
  8 38  1  0  0  0  0
  9 10  1  0  0  0  0
  9 25  1  0  0  0  0
  9 39  1  0  0  0  0
 10 11  1  0  0  0  0
 10 40  1  0  0  0  0
 11 12  2  0  0  0  0
 11 13  1  0  0  0  0
 13 14  1  0  0  0  0
 13 41  1  0  0  0  0
 14 19  1  0  0  0  0
 14 15  2  0  0  0  0
 15 16  1  0  0  0  0
 15 42  1  0  0  0  0
 16 17  2  0  0  0  0
 16 43  1  0  0  0  0
 17 18  1  0  0  0  0
 17 44  1  0  0  0  0
 18 19  2  0  0  0  0
 18 56  1  0  0  0  0
 19 20  1  0  0  0  0
 20 24  1  0  0  0  0
 20 21  1  0  0  0  0
 21 22  1  0  0  0  0
 21 45  1  0  0  0  0
 21 46  1  0  0  0  0
 22 23  1  0  0  0  0
 22 47  1  0  0  0  0
 22 48  1  0  0  0  0
 23 24  1  0  0  0  0
 23 49  1  0  0  0  0
 23 50  1  0  0  0  0
 24 51  1  0  0  0  0
 24 52  1  0  0  0  0
 25 53  1  0  0  0  0
 25 54  1  0  0  0  0
M  CHG  1   2   1
M  CHG  1  18   1
M  END
> <s_m_source_file>
AV-unprocessed.smi

> <i_m_source_file_index>
2928

> <i_lp_mmshare_version>
43012

> <i_f3d_flags>
0

> <s_epik_input>
W0NIMl0xW0NIMl1bQ0gyXVtDQEhdKE4oW0NIM10pW0NIXTEyKVtDSDJdW0NASF0oW0NIMl0yKVtOSF1DKD1PKVtOSF1jM1tjSF1bY0hdW2NIXW5jM040W0NIMl1bQ0gyXVtDSDJdW0NIMl00

> <s_epik_cmdline>
J2VwaWtfcHl0aG9uJywgJy1waCcsICc3LjAnLCAnLXRuJywgJzgnLCAnLW1hJywgJzIwMCcsICctbWV0YWxfYmluZGluZycsICctaW1hZScsICc8aW5maWxlLm1hZT4nLCAnLW9tYWUnLCAnPG91dGZpbGUubWFlPic=

> <r_lp_tautomer_probability>
0.999994

> <r_epik_Ionization_Penalty>
1.2404

> <r_epik_Ionization_Penalty_Charging>
1.24038

> <r_epik_Ionization_Penalty_Neutral>
1.86539e-05

> <r_epik_State_Penalty>
1.30821

> <r_epik_Charging_Adjusted_Penalty>
2.54859

> <i_epik_Tot_Q>
2

> <i_epik_Tot_abs_Q>
2

> <r_epik_Metal_State_Penalty>
1.3782

> <b_epik_Metal_Only>
0

> <s_lp_Force_Field>
OPLS_2005

> <r_lp_Energy>
72.5254

> <b_lp_Chiralities_Consistent>
1

> <s_lp_Variant>
AV-unprocessed.smi:2928-7

> <Gold.Version>
5.8.1

> <Gold.Id.Protein>
6NUR|6NUR_protein|mol2

> <Gold.PLP.Fitness>
42.7373

> <Gold.PLP.PLP>
-43.2292

> <Gold.PLP.part.hbond>
-1.1279

> <Gold.PLP.part.metal>
0.0000

> <Gold.PLP.part.buried>
-6.7487

> <Gold.PLP.part.nonpolar>
-34.7416

> <Gold.PLP.part.repulsive>
0.2487

> <Gold.PLP.ligand.clash>
0.0000

> <Gold.PLP.ligand.torsion>
0.4363

> <Gold.PLP.Chemscore.Hbond>
0.0000

> <Gold.PLP.Chemscore.CHOScore>
0.0000

> <Gold.PLP.Chemscore.Metal>
0.0000

> <Gold.PLP.Chemscore.Internal.Correction>
0.3806

> <Gold.Rescore>
     Score         DG    S(hbond)    S(metal)    S(lipo)     H(rot)  DE(clash)    DE(int)     intcor
     11.19     -15.13       0.00        0.00     108.47       1.19       0.03       3.91       ----

> <Gold.Chemscore.Fitness>
11.1873

> <Gold.Chemscore.DG>
-15.1304

> <Gold.Chemscore.ZeroCoef>
-5.4800

> <Gold.Chemscore.Hbond>
0.0000

> <Gold.Chemscore.Metal>
0.0000

> <Gold.Chemscore.Lipo>
108.4739

> <Gold.Chemscore.Internal_Hbond>
0.0000

> <Gold.Chemscore.DEClash>
0.0348

> <Gold.Chemscore.DEInternal>
3.9083

> <Gold.Chemscore.Rot>
1.1879

> <Gold.Chemscore.Internal.Correction>
   9.000000E+99

> <Gold.Chemscore.Hbond.Weighted>
-0.0000

> <Gold.Chemscore.Metal.Weighted>
-0.0000

> <Gold.Chemscore.Lipo.Weighted>
-12.6914

> <Gold.Chemscore.Internal_Hbond.Weighted>
0.0000

> <Gold.Chemscore.DEClash.Weighted>
0.0348

> <Gold.Chemscore.DEInternal.Weighted>
3.9083

> <Gold.Chemscore.Rot.Weighted>
3.0410

> <Gold.Chemscore.Internal.Correction.Weighted>
   9.000000E+99

> <Gold.Protein.RotatedTorsions>
[ 6907 6896 6895 6894 ] final   22.71 input  -60.11 | X-H torsion
[ 7974 7965 7964 7962 ] final  -36.96 input  175.53 | X-H torsion
[ 8008 7997 7996 7995 ] final -116.18 input   59.86 | X-H torsion
[ 10167 10162 10161 10158 ] final  -71.95 input  -65.29 | X-H torsion
[ 10718 10713 10712 10709 ] final   -4.41 input   66.30 | X-H torsion
[ 10763 10752 10751 10750 ] final  -18.70 input  -60.55 | X-H torsion
[ 11005 11000 10999 10996 ] final  -14.25 input  -57.11 | X-H torsion

> <Gold.Protein.ActiveResidues>
 VAL166  LYS551  ARG553  GLY616  TRP617  ASP618  TYR619  PRO620  LYS621  CYS622 
 ASP623  PHE694  ASN695  SER759  ASP760  ASP761  ALA762  ILE779  LEU786  VAL792 
 PHE793  MET794  SER795  GLU796  ALA797  LYS798  CYS799  TRP800  GLU811  SER814 

> <Gold.Protein.RotatedAtoms>
  151.9312  135.0255  160.0529 H   0  0  0  0  0  0  0  0  0  0  0  0  # atno 6907 bound_to 6896
  152.2116  133.4911  159.5122 H   0  0  0  0  0  0  0  0  0  0  0  0  # atno 6908 bound_to 6896
  150.6977  134.1376  159.4135 H   0  0  0  0  0  0  0  0  0  0  0  0  # atno 6909 bound_to 6896
  146.0616  140.6340  142.8994 H   0  0  0  0  0  0  0  0  0  0  0  0  # atno 7974 bound_to 7965
  155.0637  140.0393  157.2585 H   0  0  0  0  0  0  0  0  0  0  0  0  # atno 8008 bound_to 7997
  154.7039  140.2679  155.6669 H   0  0  0  0  0  0  0  0  0  0  0  0  # atno 8009 bound_to 7997
  156.2769  140.2735  156.1658 H   0  0  0  0  0  0  0  0  0  0  0  0  # atno 8010 bound_to 7997
  140.5232  143.2329  151.7393 H   0  0  0  0  0  0  0  0  0  0  0  0  # atno 10167 bound_to 10162
  156.7617  130.5271  149.5784 H   0  0  0  0  0  0  0  0  0  0  0  0  # atno 10718 bound_to 10713
  153.5934  135.7001  153.5414 H   0  0  0  0  0  0  0  0  0  0  0  0  # atno 10763 bound_to 10752
  153.3159  135.4088  155.1375 H   0  0  0  0  0  0  0  0  0  0  0  0  # atno 10764 bound_to 10752
  154.8596  135.3683  154.5466 H   0  0  0  0  0  0  0  0  0  0  0  0  # atno 10765 bound_to 10752
  140.7845  133.8336  155.9322 H   0  0  0  0  0  0  0  0  0  0  0  0  # atno 11005 bound_to 11000
  144.7178  140.4271  143.7031 LP  0  0  0  0  0  0  0  0  0  0  0  0  # atno 17320 bound_to 7965
  145.6550  139.1571  143.2840 LP  0  0  0  0  0  0  0  0  0  0  0  0  # atno 17321 bound_to 7965
  139.4930  144.4224  151.9963 LP  0  0  0  0  0  0  0  0  0  0  0  0  # atno 17342 bound_to 10162
  140.3322  144.3303  150.5985 LP  0  0  0  0  0  0  0  0  0  0  0  0  # atno 17343 bound_to 10162
  156.1335  130.6194  151.0367 LP  0  0  0  0  0  0  0  0  0  0  0  0  # atno 17370 bound_to 10713
  157.6731  131.0856  150.7562 LP  0  0  0  0  0  0  0  0  0  0  0  0  # atno 17371 bound_to 10713
  140.9450  134.1852  157.4770 LP  0  0  0  0  0  0  0  0  0  0  0  0  # atno 17394 bound_to 11000
  139.8738  134.9887  156.5423 LP  0  0  0  0  0  0  0  0  0  0  0  0  # atno 17395 bound_to 11000

$$$$
