AV-unprocessed.smi:3342|AV-procd|sdf|12887|dock1
  -GOLD-   2272019293D 1   1.00000     0.00000
 Structure written by MMmdl.
 42 43  0  0  0  0  0  0  0  0  2 V2000
  146.3755  131.5337  153.7991 C   0  0  0  0  0  0  0  0  0  0  0  0
  146.2992  132.9715  153.2608 C   0  0  2  0  0  0  0  0  0  0  0  0
  146.7700  133.0958  151.7951 C   0  0  0  0  0  0  0  0  0  0  0  0
  145.6874  132.8952  150.8277 N   0  0  0  0  0  0  0  0  0  0  0  0
  145.6347  131.9573  149.8291 C   0  0  0  0  0  0  0  0  0  0  0  0
  144.4365  132.1365  149.1873 C   0  0  0  0  0  0  0  0  0  0  0  0
  143.8075  133.1732  149.8235 N   0  3  0  0  0  0  0  0  0  0  0  0
  144.5684  133.6314  150.8227 C   0  0  0  0  0  0  0  0  0  0  0  0
  147.0951  133.8474  154.1153 N   0  0  0  0  0  0  0  0  0  0  0  0
  148.4365  133.8399  154.2072 C   0  0  0  0  0  0  0  0  0  0  0  0
  149.1332  133.0900  153.5213 O   0  0  0  0  0  0  0  0  0  0  0  0
  148.9498  134.7170  155.1064 N   0  0  0  0  0  0  0  0  0  0  0  0
  150.3754  134.9088  155.4199 C   0  0  0  0  0  0  0  0  0  0  0  0
  150.8590  136.1974  154.7305 C   0  0  0  0  0  0  0  0  0  0  0  0
  150.0108  137.4159  155.1687 C   0  0  0  0  0  0  0  0  0  0  0  0
  150.3959  138.6702  154.3728 C   0  0  0  0  0  0  0  0  0  0  0  0
  149.9887  138.7345  153.1029 N   0  0  0  0  0  0  0  0  0  0  0  0
  151.0507  139.5703  154.8954 O   0  0  0  0  0  0  0  0  0  0  0  0
  148.4986  137.1165  155.0329 C   0  0  0  0  0  0  0  0  0  0  0  0
  148.1331  135.7796  155.7042 C   0  0  0  0  0  0  0  0  0  0  0  0
  145.7236  130.8620  153.2404 H   0  0  0  0  0  0  0  0  0  0  0  0
  146.0640  131.4899  154.8435 H   0  0  0  0  0  0  0  0  0  0  0  0
  147.3909  131.1408  153.7386 H   0  0  0  0  0  0  0  0  0  0  0  0
  145.2557  133.2863  153.3212 H   0  0  0  0  0  0  0  0  0  0  0  0
  147.1879  134.0855  151.6062 H   0  0  0  0  0  0  0  0  0  0  0  0
  147.5615  132.3750  151.5833 H   0  0  0  0  0  0  0  0  0  0  0  0
  146.4341  131.2510  149.6550 H   0  0  0  0  0  0  0  0  0  0  0  0
  143.9951  131.6169  148.3492 H   0  0  0  0  0  0  0  0  0  0  0  0
  144.3265  134.4383  151.4916 H   0  0  0  0  0  0  0  0  0  0  0  0
  146.5892  134.4957  154.7013 H   0  0  0  0  0  0  0  0  0  0  0  0
  150.4967  134.9987  156.5004 H   0  0  0  0  0  0  0  0  0  0  0  0
  151.0090  134.0702  155.1311 H   0  0  0  0  0  0  0  0  0  0  0  0
  151.9097  136.3688  154.9682 H   0  0  0  0  0  0  0  0  0  0  0  0
  150.8054  136.0635  153.6488 H   0  0  0  0  0  0  0  0  0  0  0  0
  150.2177  137.5993  156.2247 H   0  0  0  0  0  0  0  0  0  0  0  0
  150.2163  139.5406  152.5394 H   0  0  0  0  0  0  0  0  0  0  0  0
  149.4518  137.9747  152.7109 H   0  0  0  0  0  0  0  0  0  0  0  0
  147.9157  137.9227  155.4799 H   0  0  0  0  0  0  0  0  0  0  0  0
  148.2120  137.0765  153.9805 H   0  0  0  0  0  0  0  0  0  0  0  0
  147.0624  135.5934  155.6086 H   0  0  0  0  0  0  0  0  0  0  0  0
  148.3277  135.8311  156.7764 H   0  0  0  0  0  0  0  0  0  0  0  0
  142.8968  133.5402  149.5766 H   0  0  0  0  0  0  0  0  0  0  0  0
  1  2  1  0  0  0  0
  1 21  1  0  0  0  0
  1 22  1  0  0  0  0
  1 23  1  0  0  0  0
  2  3  1  0  0  0  0
  2  9  1  0  0  0  0
  2 24  1  0  0  0  0
  3  4  1  0  0  0  0
  3 25  1  0  0  0  0
  3 26  1  0  0  0  0
  4  8  1  0  0  0  0
  4  5  1  0  0  0  0
  5  6  2  0  0  0  0
  5 27  1  0  0  0  0
  6  7  1  0  0  0  0
  6 28  1  0  0  0  0
  7  8  2  0  0  0  0
  7 42  1  0  0  0  0
  8 29  1  0  0  0  0
  9 10  1  0  0  0  0
  9 30  1  0  0  0  0
 10 11  2  0  0  0  0
 10 12  1  0  0  0  0
 12 20  1  0  0  0  0
 12 13  1  0  0  0  0
 13 14  1  0  0  0  0
 13 31  1  0  0  0  0
 13 32  1  0  0  0  0
 14 15  1  0  0  0  0
 14 33  1  0  0  0  0
 14 34  1  0  0  0  0
 15 16  1  0  0  0  0
 15 19  1  0  0  0  0
 15 35  1  0  0  0  0
 16 17  1  0  0  0  0
 16 18  2  0  0  0  0
 17 36  1  0  0  0  0
 17 37  1  0  0  0  0
 19 20  1  0  0  0  0
 19 38  1  0  0  0  0
 19 39  1  0  0  0  0
 20 40  1  0  0  0  0
 20 41  1  0  0  0  0
M  CHG  1   7   1
M  END
> <s_m_source_file>
AV-unprocessed.smi

> <i_m_source_file_index>
3342

> <i_lp_mmshare_version>
43012

> <i_f3d_flags>
0

> <s_epik_input>
W2NIXTFuW2NIXVtjSF1uMVtDSDJdW0NAQEhdKFtDSDNdKVtOSF1DKD1PKU4yW0NIMl1bQ0gyXVtDSF0oQyg9TylbTkgyXSlbQ0gyXVtDSDJdMg==

> <s_epik_cmdline>
J2VwaWtfcHl0aG9uJywgJy1waCcsICc3LjAnLCAnLXRuJywgJzgnLCAnLW1hJywgJzIwMCcsICctbWV0YWxfYmluZGluZycsICctaW1hZScsICc8aW5maWxlLm1hZT4nLCAnLW9tYWUnLCAnPG91dGZpbGUubWFlPic=

> <r_lp_tautomer_probability>
1

> <r_epik_Ionization_Penalty>
0.254015

> <r_epik_Ionization_Penalty_Charging>
0

> <r_epik_Ionization_Penalty_Neutral>
0.254015

> <r_epik_State_Penalty>
0.245417

> <r_epik_Charging_Adjusted_Penalty>
0.245417

> <i_epik_Tot_Q>
1

> <i_epik_Tot_abs_Q>
1

> <r_epik_Metal_State_Penalty>
0.535589

> <b_epik_Metal_Only>
0

> <s_lp_Force_Field>
OPLS_2005

> <r_lp_Energy>
30.9276

> <b_lp_Chiralities_Consistent>
1

> <s_lp_Variant>
AV-unprocessed.smi:3342-1

> <Gold.Version>
5.8.1

> <Gold.Id.Protein>
6NUR|6NUR_protein|mol2

> <Gold.PLP.Fitness>
43.8300

> <Gold.PLP.PLP>
-31.0271

> <Gold.PLP.part.hbond>
-3.3131

> <Gold.PLP.part.metal>
0.0000

> <Gold.PLP.part.buried>
-3.2712

> <Gold.PLP.part.nonpolar>
-24.7701

> <Gold.PLP.part.repulsive>
0.4467

> <Gold.PLP.ligand.clash>
1.5011

> <Gold.PLP.ligand.torsion>
0.7374

> <Gold.PLP.Chemscore.Hbond>
4.5253

> <Gold.PLP.Chemscore.CHOScore>
0.6741

> <Gold.PLP.Chemscore.Metal>
0.0000

> <Gold.Chemscore.Hbonds>
donor molecule, donor type, donor heavy atom, donor atom, acceptor molecule, acceptor atom, score
      L1  H     7    42       P1 10186  1.72
      L1  H    17    36       P1  7957  0.62
      L1  H    17    37       P1  7948  1.00
      P1  H  7989  7998       L1    18  1.00
      L1  C     5    27       P1 10747  0.76

> <Gold.PLP.Chemscore.Internal.Correction>
0.1806

> <Gold.Rescore>
     Score         DG    S(hbond)    S(metal)    S(lipo)     H(rot)  DE(clash)    DE(int)     intcor
     15.44     -17.35       3.43        0.00      54.81       2.34       0.12       1.79       ----

> <Gold.Chemscore.Fitness>
15.4358

> <Gold.Chemscore.DG>
-17.3506

> <Gold.Chemscore.ZeroCoef>
-5.4800

> <Gold.Chemscore.Hbond>
3.4274

> <Gold.Chemscore.Metal>
0.0000

> <Gold.Chemscore.Lipo>
54.8143

> <Gold.Chemscore.Internal_Hbond>
0.0000

> <Gold.Chemscore.DEClash>
0.1216

> <Gold.Chemscore.DEInternal>
1.7932

> <Gold.Chemscore.Rot>
2.3400

> <Gold.Chemscore.Internal.Correction>
   9.000000E+99

> <Gold.Chemscore.Hbonds>
donor molecule, donor type, donor heavy atom, donor atom, acceptor molecule, acceptor atom, score
      L1  H     7    42       P1 10186  0.84
      L1  H    17    36       P1  7957  0.52
      L1  H    17    37       P1  7948  0.81
      P1  H  7989  7998       L1    18  0.68

> <Gold.Chemscore.Hbond.Weighted>
-11.4476

> <Gold.Chemscore.Metal.Weighted>
-0.0000

> <Gold.Chemscore.Lipo.Weighted>
-6.4133

> <Gold.Chemscore.Internal_Hbond.Weighted>
0.0000

> <Gold.Chemscore.DEClash.Weighted>
0.1216

> <Gold.Chemscore.DEInternal.Weighted>
1.7932

> <Gold.Chemscore.Rot.Weighted>
5.9904

> <Gold.Chemscore.Internal.Correction.Weighted>
   9.000000E+99

> <Gold.Protein.RotatedTorsions>
[ 6907 6896 6895 6894 ] final   67.50 input  -60.11 | X-H torsion
[ 7974 7965 7964 7962 ] final  157.61 input  175.53 | X-H torsion
[ 8008 7997 7996 7995 ] final  154.60 input   59.86 | X-H torsion
[ 10167 10162 10161 10158 ] final -132.27 input  -65.29 | X-H torsion
[ 10718 10713 10712 10709 ] final   95.58 input   66.30 | X-H torsion
[ 10763 10752 10751 10750 ] final  170.71 input  -60.55 | X-H torsion
[ 11005 11000 10999 10996 ] final  -89.41 input  -57.11 | X-H torsion

> <Gold.Protein.ActiveResidues>
 VAL166  LYS551  ARG553  GLY616  TRP617  ASP618  TYR619  PRO620  LYS621  CYS622 
 ASP623  PHE694  ASN695  SER759  ASP760  ASP761  ALA762  ILE779  LEU786  VAL792 
 PHE793  MET794  SER795  GLU796  ALA797  LYS798  CYS799  TRP800  GLU811  SER814 

> <Gold.Protein.RotatedAtoms>
  152.4556  134.5298  159.9807 H   0  0  0  0  0  0  0  0  0  0  0  0  # atno 6907 bound_to 6896
  151.5360  133.3435  159.2934 H   0  0  0  0  0  0  0  0  0  0  0  0  # atno 6908 bound_to 6896
  150.8499  134.7852  159.7063 H   0  0  0  0  0  0  0  0  0  0  0  0  # atno 6909 bound_to 6896
  144.7893  139.7364  143.6228 H   0  0  0  0  0  0  0  0  0  0  0  0  # atno 7974 bound_to 7965
  156.2523  140.1962  156.6671 H   0  0  0  0  0  0  0  0  0  0  0  0  # atno 8008 bound_to 7997
  154.6421  140.0582  156.9883 H   0  0  0  0  0  0  0  0  0  0  0  0  # atno 8009 bound_to 7997
  155.1547  140.3254  155.4426 H   0  0  0  0  0  0  0  0  0  0  0  0  # atno 8010 bound_to 7997
  139.9103  143.6502  152.2577 H   0  0  0  0  0  0  0  0  0  0  0  0  # atno 10167 bound_to 10162
  157.6937  131.0550  150.4361 H   0  0  0  0  0  0  0  0  0  0  0  0  # atno 10718 bound_to 10713
  154.4015  135.2755  155.2093 H   0  0  0  0  0  0  0  0  0  0  0  0  # atno 10763 bound_to 10752
  154.4117  135.6021  153.5960 H   0  0  0  0  0  0  0  0  0  0  0  0  # atno 10764 bound_to 10752
  152.9831  135.5951  154.4284 H   0  0  0  0  0  0  0  0  0  0  0  0  # atno 10765 bound_to 10752
  141.1585  133.7628  156.9591 H   0  0  0  0  0  0  0  0  0  0  0  0  # atno 11005 bound_to 11000
  146.2139  139.5514  142.9663 LP  0  0  0  0  0  0  0  0  0  0  0  0  # atno 17320 bound_to 7965
  145.5836  141.0379  143.2108 LP  0  0  0  0  0  0  0  0  0  0  0  0  # atno 17321 bound_to 7965
  139.6948  144.7642  151.1375 LP  0  0  0  0  0  0  0  0  0  0  0  0  # atno 17342 bound_to 10162
  140.7687  143.5538  150.9174 LP  0  0  0  0  0  0  0  0  0  0  0  0  # atno 17343 bound_to 10162
  156.4723  130.4055  149.6510 LP  0  0  0  0  0  0  0  0  0  0  0  0  # atno 17370 bound_to 10713
  156.3586  130.7470  151.2439 LP  0  0  0  0  0  0  0  0  0  0  0  0  # atno 17371 bound_to 10713
  140.1205  134.9420  157.2197 LP  0  0  0  0  0  0  0  0  0  0  0  0  # atno 17394 bound_to 11000
  140.3078  134.3058  155.7274 LP  0  0  0  0  0  0  0  0  0  0  0  0  # atno 17395 bound_to 11000

$$$$
