AV-unprocessed.smi:2872|AV-procd|sdf|11035|dock6
  -GOLD-   2272015503D 1   1.00000     0.00000
 Structure written by MMmdl.
 40 42  0  0  0  0  0  0  0  0  2 V2000
  153.4670  138.4319  156.5324 O   0  0  0  0  0  0  0  0  0  0  0  0
  152.6382  137.5528  156.7623 C   0  0  0  0  0  0  0  0  0  0  0  0
  151.7046  137.1486  155.8891 N   0  0  0  0  0  0  0  0  0  0  0  0
  151.5647  137.6483  154.5243 C   0  0  0  0  0  0  0  0  0  0  0  0
  150.4278  138.6070  154.3283 C   0  0  0  0  0  0  0  0  0  0  0  0
  149.3401  138.4407  153.5202 N   0  3  0  0  0  0  0  0  0  0  0  0
  148.5079  139.5571  153.6064 C   0  0  0  0  0  0  0  0  0  0  0  0
  147.3018  139.8473  152.9761 C   0  0  0  0  0  0  0  0  0  0  0  0
  146.7091  141.0895  153.2852 C   0  0  0  0  0  0  0  0  0  0  0  0
  147.3150  141.9876  154.1882 C   0  0  0  0  0  0  0  0  0  0  0  0
  148.5369  141.6810  154.8227 C   0  0  0  0  0  0  0  0  0  0  0  0
  149.1144  140.4502  154.5124 C   0  0  0  0  0  0  0  0  0  0  0  0
  150.2892  139.8201  154.9362 N   0  0  0  0  0  0  0  0  0  0  0  0
  151.1573  140.4999  155.9056 C   0  0  0  0  0  0  0  0  0  0  0  0
  150.8277  140.1014  157.3489 C   0  0  0  0  0  0  0  0  0  0  0  0
  151.9279  140.4564  158.1736 O   0  0  0  0  0  0  0  0  0  0  0  0
  152.1007  141.7858  158.4936 C   0  0  0  0  0  0  0  0  0  0  0  0
  152.8655  142.0722  159.6434 C   0  0  0  0  0  0  0  0  0  0  0  0
  153.0939  143.4024  160.0450 C   0  0  0  0  0  0  0  0  0  0  0  0
  152.5560  144.4652  159.2960 C   0  0  0  0  0  0  0  0  0  0  0  0
  151.7902  144.1945  158.1469 C   0  0  0  0  0  0  0  0  0  0  0  0
  151.5621  142.8635  157.7451 C   0  0  0  0  0  0  0  0  0  0  0  0
  152.5599  136.9960  157.7087 H   0  0  0  0  0  0  0  0  0  0  0  0
  151.0669  136.4205  156.1776 H   0  0  0  0  0  0  0  0  0  0  0  0
  152.4916  138.1239  154.1993 H   0  0  0  0  0  0  0  0  0  0  0  0
  151.4120  136.7904  153.8690 H   0  0  0  0  0  0  0  0  0  0  0  0
  146.8367  139.1611  152.2835 H   0  0  0  0  0  0  0  0  0  0  0  0
  145.7721  141.3593  152.8198 H   0  0  0  0  0  0  0  0  0  0  0  0
  146.8329  142.9313  154.3991 H   0  0  0  0  0  0  0  0  0  0  0  0
  148.9937  142.3758  155.5121 H   0  0  0  0  0  0  0  0  0  0  0  0
  152.1978  140.2802  155.6636 H   0  0  0  0  0  0  0  0  0  0  0  0
  151.0294  141.5748  155.7735 H   0  0  0  0  0  0  0  0  0  0  0  0
  149.9261  140.6205  157.6782 H   0  0  0  0  0  0  0  0  0  0  0  0
  150.6447  139.0274  157.4062 H   0  0  0  0  0  0  0  0  0  0  0  0
  153.2818  141.2623  160.2244 H   0  0  0  0  0  0  0  0  0  0  0  0
  153.6819  143.6067  160.9276 H   0  0  0  0  0  0  0  0  0  0  0  0
  152.7302  145.4860  159.6024 H   0  0  0  0  0  0  0  0  0  0  0  0
  151.3765  145.0095  157.5714 H   0  0  0  0  0  0  0  0  0  0  0  0
  150.9699  142.6967  156.8584 H   0  0  0  0  0  0  0  0  0  0  0  0
  149.1813  137.6167  152.9547 H   0  0  0  0  0  0  0  0  0  0  0  0
  1  2  2  0  0  0  0
  2  3  1  0  0  0  0
  2 23  1  0  0  0  0
  3  4  1  0  0  0  0
  3 24  1  0  0  0  0
  4  5  1  0  0  0  0
  4 25  1  0  0  0  0
  4 26  1  0  0  0  0
  5 13  1  0  0  0  0
  5  6  2  0  0  0  0
  6  7  1  0  0  0  0
  6 40  1  0  0  0  0
  7 12  2  0  0  0  0
  7  8  1  0  0  0  0
  8  9  2  0  0  0  0
  8 27  1  0  0  0  0
  9 10  1  0  0  0  0
  9 28  1  0  0  0  0
 10 11  2  0  0  0  0
 10 29  1  0  0  0  0
 11 12  1  0  0  0  0
 11 30  1  0  0  0  0
 12 13  1  0  0  0  0
 13 14  1  0  0  0  0
 14 15  1  0  0  0  0
 14 31  1  0  0  0  0
 14 32  1  0  0  0  0
 15 16  1  0  0  0  0
 15 33  1  0  0  0  0
 15 34  1  0  0  0  0
 16 17  1  0  0  0  0
 17 22  1  0  0  0  0
 17 18  2  0  0  0  0
 18 19  1  0  0  0  0
 18 35  1  0  0  0  0
 19 20  2  0  0  0  0
 19 36  1  0  0  0  0
 20 21  1  0  0  0  0
 20 37  1  0  0  0  0
 21 22  2  0  0  0  0
 21 38  1  0  0  0  0
 22 39  1  0  0  0  0
M  CHG  1   6   1
M  END
> <s_m_source_file>
AV-unprocessed.smi

> <i_m_source_file_index>
2872

> <i_lp_mmshare_version>
43012

> <i_f3d_flags>
0

> <s_epik_input>
Tz1bQ0hdW05IXVtDSDJdYyhuMSluKGMoYzEyKVtjSF1bY0hdW2NIXVtjSF0yKVtDSDJdW0NIMl1PYzNbY0hdW2NIXVtjSF1bY0hdW2NIXTM=

> <s_epik_cmdline>
J2VwaWtfcHl0aG9uJywgJy1waCcsICc3LjAnLCAnLXRuJywgJzgnLCAnLW1hJywgJzIwMCcsICctbWV0YWxfYmluZGluZycsICctaW1hZScsICc8aW5maWxlLm1hZT4nLCAnLW9tYWUnLCAnPG91dGZpbGUubWFlPic=

> <r_lp_tautomer_probability>
1

> <r_epik_Ionization_Penalty>
1.33318

> <r_epik_Ionization_Penalty_Charging>
1.33318

> <r_epik_Ionization_Penalty_Neutral>
7.38905e-08

> <r_epik_State_Penalty>
1.40978

> <r_epik_Charging_Adjusted_Penalty>
2.74296

> <i_epik_Tot_Q>
1

> <i_epik_Tot_abs_Q>
1

> <r_epik_Metal_State_Penalty>
1.46995

> <b_epik_Metal_Only>
0

> <s_lp_Force_Field>
OPLS_2005

> <r_lp_Energy>
15.6009

> <b_lp_Chiralities_Consistent>
1

> <s_lp_Variant>
AV-unprocessed.smi:2872-2

> <Gold.Version>
5.8.1

> <Gold.Id.Protein>
6NUR|6NUR_protein|mol2

> <Gold.PLP.Fitness>
57.2994

> <Gold.PLP.PLP>
-50.0246

> <Gold.PLP.part.hbond>
-3.0000

> <Gold.PLP.part.metal>
0.0000

> <Gold.PLP.part.buried>
0.9860

> <Gold.PLP.part.nonpolar>
-48.9829

> <Gold.PLP.part.repulsive>
0.1658

> <Gold.PLP.ligand.clash>
0.0000

> <Gold.PLP.ligand.torsion>
0.9161

> <Gold.PLP.Chemscore.Hbond>
2.9920

> <Gold.PLP.Chemscore.CHOScore>
0.0000

> <Gold.PLP.Chemscore.Metal>
0.0000

> <Gold.Chemscore.Hbonds>
donor molecule, donor type, donor heavy atom, donor atom, acceptor molecule, acceptor atom, score
      L1  H     6    40       P1  7948  2.00
      P1  H  7997  8008       L1     1  0.86

> <Gold.PLP.Chemscore.Internal.Correction>
0.1311

> <Gold.Rescore>
     Score         DG    S(hbond)    S(metal)    S(lipo)     H(rot)  DE(clash)    DE(int)     intcor
     18.32     -20.88       1.93        0.00     130.97       2.49       1.62       0.95       ----

> <Gold.Chemscore.Fitness>
18.3161

> <Gold.Chemscore.DG>
-20.8774

> <Gold.Chemscore.ZeroCoef>
-5.4800

> <Gold.Chemscore.Hbond>
1.9272

> <Gold.Chemscore.Metal>
0.0000

> <Gold.Chemscore.Lipo>
130.9688

> <Gold.Chemscore.Internal_Hbond>
0.0000

> <Gold.Chemscore.DEClash>
1.6152

> <Gold.Chemscore.DEInternal>
0.9461

> <Gold.Chemscore.Rot>
2.4854

> <Gold.Chemscore.Internal.Correction>
   9.000000E+99

> <Gold.Chemscore.Hbonds>
donor molecule, donor type, donor heavy atom, donor atom, acceptor molecule, acceptor atom, score
      L1  H     6    40       P1  7948  0.99
      P1  H  7997  8008       L1     1  0.85

> <Gold.Chemscore.Hbond.Weighted>
-6.4367

> <Gold.Chemscore.Metal.Weighted>
-0.0000

> <Gold.Chemscore.Lipo.Weighted>
-15.3233

> <Gold.Chemscore.Internal_Hbond.Weighted>
0.0000

> <Gold.Chemscore.DEClash.Weighted>
1.6152

> <Gold.Chemscore.DEInternal.Weighted>
0.9461

> <Gold.Chemscore.Rot.Weighted>
6.3627

> <Gold.Chemscore.Internal.Correction.Weighted>
   9.000000E+99

> <Gold.Protein.RotatedTorsions>
[ 6907 6896 6895 6894 ] final  -55.92 input  -60.11 | X-H torsion
[ 7974 7965 7964 7962 ] final  160.25 input  175.53 | X-H torsion
[ 8008 7997 7996 7995 ] final  -56.56 input   59.86 | X-H torsion
[ 10167 10162 10161 10158 ] final -141.62 input  -65.29 | X-H torsion
[ 10718 10713 10712 10709 ] final  132.12 input   66.30 | X-H torsion
[ 10763 10752 10751 10750 ] final -174.88 input  -60.55 | X-H torsion
[ 11005 11000 10999 10996 ] final   67.84 input  -57.11 | X-H torsion

> <Gold.Protein.ActiveResidues>
 VAL166  LYS551  ARG553  GLY616  TRP617  ASP618  TYR619  PRO620  LYS621  CYS622 
 ASP623  PHE694  ASN695  SER759  ASP760  ASP761  ALA762  ILE779  LEU786  VAL792 
 PHE793  MET794  SER795  GLU796  ALA797  LYS798  CYS799  TRP800  GLU811  SER814 

> <Gold.Protein.RotatedAtoms>
  150.8210  134.7418  159.6772 H   0  0  0  0  0  0  0  0  0  0  0  0  # atno 6907 bound_to 6896
  152.4326  134.5745  159.9940 H   0  0  0  0  0  0  0  0  0  0  0  0  # atno 6908 bound_to 6896
  151.5929  133.3327  159.3067 H   0  0  0  0  0  0  0  0  0  0  0  0  # atno 6909 bound_to 6896
  144.7747  139.7730  143.6283 H   0  0  0  0  0  0  0  0  0  0  0  0  # atno 7974 bound_to 7965
  154.4235  140.1127  156.5657 H   0  0  0  0  0  0  0  0  0  0  0  0  # atno 8008 bound_to 7997
  155.6264  140.3495  155.4649 H   0  0  0  0  0  0  0  0  0  0  0  0  # atno 8009 bound_to 7997
  155.9983  140.1193  157.0562 H   0  0  0  0  0  0  0  0  0  0  0  0  # atno 8010 bound_to 7997
  139.8167  143.7628  152.2665 H   0  0  0  0  0  0  0  0  0  0  0  0  # atno 10167 bound_to 10162
  157.4902  131.1090  150.9567 H   0  0  0  0  0  0  0  0  0  0  0  0  # atno 10718 bound_to 10713
  154.5910  135.2845  155.0635 H   0  0  0  0  0  0  0  0  0  0  0  0  # atno 10763 bound_to 10752
  154.1935  135.6436  153.5070 H   0  0  0  0  0  0  0  0  0  0  0  0  # atno 10764 bound_to 10752
  153.0121  135.5452  154.6596 H   0  0  0  0  0  0  0  0  0  0  0  0  # atno 10765 bound_to 10752
  139.9747  134.6843  156.0378 H   0  0  0  0  0  0  0  0  0  0  0  0  # atno 11005 bound_to 11000
  146.1918  139.5163  142.9800 LP  0  0  0  0  0  0  0  0  0  0  0  0  # atno 17320 bound_to 7965
  145.6221  141.0320  143.1909 LP  0  0  0  0  0  0  0  0  0  0  0  0  # atno 17321 bound_to 7965
  139.7794  144.7449  151.0110 LP  0  0  0  0  0  0  0  0  0  0  0  0  # atno 17342 bound_to 10162
  140.7815  143.4558  151.0347 LP  0  0  0  0  0  0  0  0  0  0  0  0  # atno 17343 bound_to 10162
  157.0271  130.5696  149.5338 LP  0  0  0  0  0  0  0  0  0  0  0  0  # atno 17370 bound_to 10713
  156.0169  130.5263  150.8161 LP  0  0  0  0  0  0  0  0  0  0  0  0  # atno 17371 bound_to 10713
  141.1424  133.6562  156.3769 LP  0  0  0  0  0  0  0  0  0  0  0  0  # atno 17394 bound_to 11000
  140.5220  134.6295  157.5321 LP  0  0  0  0  0  0  0  0  0  0  0  0  # atno 17395 bound_to 11000

$$$$
