AV-unprocessed.smi:249|AV-procd|sdf|1923|dock6
  -GOLD-   2262021 33D 1   1.00000     0.00000
 Structure written by MMmdl.
 64 67  0  0  0  0  0  0  0  0  2 V2000
  143.9383  132.7395  151.3577 C   0  0  0  0  0  0  0  0  0  0  0  0
  144.9921  133.3588  152.2906 C   0  0  0  0  0  0  0  0  0  0  0  0
  145.4066  132.4611  153.4080 N   0  3  1  0  0  0  0  0  0  0  0  0
  146.0446  131.2087  152.9078 C   0  0  0  0  0  0  0  0  0  0  0  0
  146.4002  130.2412  154.0479 C   0  0  0  0  0  0  0  0  0  0  0  0
  147.3467  130.8950  155.0686 C   0  0  1  0  0  0  0  0  0  0  0  0
  148.6821  131.1599  154.5080 N   0  0  0  0  0  0  0  0  0  0  0  0
  149.4280  130.0177  153.9893 C   0  0  0  0  0  0  0  0  0  0  0  0
  149.4832  131.9371  155.2706 C   0  0  0  0  0  0  0  0  0  0  0  0
  150.2150  131.3223  156.2319 N   0  0  0  0  0  0  0  0  0  0  0  0
  151.0344  132.0402  157.0067 C   0  0  0  0  0  0  0  0  0  0  0  0
  151.2633  133.3556  156.9875 N   0  0  0  0  0  0  0  0  0  0  0  0
  150.5205  133.9750  156.0254 C   0  0  0  0  0  0  0  0  0  0  0  0
  149.6106  133.3474  155.1300 C   0  0  0  0  0  0  0  0  0  0  0  0
  149.0367  134.2955  154.2917 N   0  0  0  0  0  0  0  0  0  0  0  0
  149.5786  135.4214  154.6694 C   0  0  0  0  0  0  0  0  0  0  0  0
  150.4786  135.3202  155.7064 N   0  0  0  0  0  0  0  0  0  0  0  0
  151.2242  136.4041  156.3208 C   0  0  0  0  0  0  0  0  0  0  0  0
  151.0587  137.7489  155.5658 C   0  0  2  0  0  0  0  0  0  0  0  0
  152.2115  138.0385  154.5762 C   0  0  0  0  0  0  0  0  0  0  0  0
  152.3618  137.0076  153.6218 O   0  0  0  0  0  0  0  0  0  0  0  0
  150.7420  138.9638  156.4790 C   0  0  1  0  0  0  0  0  0  0  0  0
  151.6902  139.1529  157.6651 C   0  0  0  0  0  0  0  0  0  0  0  0
  152.0477  140.6395  157.6304 C   0  0  0  0  0  0  0  0  0  0  0  0
  150.9986  141.2316  156.8826 O   0  0  0  0  0  0  0  0  0  0  0  0
  150.7179  140.3461  155.8118 C   0  0  0  0  0  0  0  0  0  0  0  0
  146.6265  132.1611  155.5805 C   0  0  0  0  0  0  0  0  0  0  0  0
  146.2534  133.1406  154.4428 C   0  0  2  0  0  0  0  0  0  0  0  0
  145.5772  134.3798  155.0643 C   0  0  0  0  0  0  0  0  0  0  0  0
  143.5527  133.4914  150.6687 H   0  0  0  0  0  0  0  0  0  0  0  0
  143.0918  132.3457  151.9211 H   0  0  0  0  0  0  0  0  0  0  0  0
  144.3468  131.9360  150.7459 H   0  0  0  0  0  0  0  0  0  0  0  0
  145.8680  133.6696  151.7193 H   0  0  0  0  0  0  0  0  0  0  0  0
  144.5405  134.2659  152.6860 H   0  0  0  0  0  0  0  0  0  0  0  0
  145.3731  130.6813  152.2325 H   0  0  0  0  0  0  0  0  0  0  0  0
  146.9366  131.4584  152.3313 H   0  0  0  0  0  0  0  0  0  0  0  0
  145.4826  129.9352  154.5528 H   0  0  0  0  0  0  0  0  0  0  0  0
  146.8269  129.3229  153.6447 H   0  0  0  0  0  0  0  0  0  0  0  0
  147.4715  130.2048  155.9035 H   0  0  0  0  0  0  0  0  0  0  0  0
  150.4867  130.2465  153.8535 H   0  0  0  0  0  0  0  0  0  0  0  0
  149.0350  129.7220  153.0166 H   0  0  0  0  0  0  0  0  0  0  0  0
  149.3492  129.1652  154.6647 H   0  0  0  0  0  0  0  0  0  0  0  0
  151.5861  131.4809  157.7480 H   0  0  0  0  0  0  0  0  0  0  0  0
  149.3317  136.3642  154.2029 H   0  0  0  0  0  0  0  0  0  0  0  0
  150.8913  136.4896  157.3548 H   0  0  0  0  0  0  0  0  0  0  0  0
  152.2716  136.1069  156.3616 H   0  0  0  0  0  0  0  0  0  0  0  0
  150.1744  137.6351  154.9370 H   0  0  0  0  0  0  0  0  0  0  0  0
  152.0390  138.9755  154.0464 H   0  0  0  0  0  0  0  0  0  0  0  0
  153.1530  138.1604  155.1124 H   0  0  0  0  0  0  0  0  0  0  0  0
  151.6013  137.0044  153.0607 H   0  0  0  0  0  0  0  0  0  0  0  0
  149.7516  138.8051  156.9087 H   0  0  0  0  0  0  0  0  0  0  0  0
  151.1740  138.9070  158.5939 H   0  0  0  0  0  0  0  0  0  0  0  0
  152.5839  138.5308  157.6211 H   0  0  0  0  0  0  0  0  0  0  0  0
  152.1307  141.0771  158.6254 H   0  0  0  0  0  0  0  0  0  0  0  0
  152.9933  140.7955  157.1088 H   0  0  0  0  0  0  0  0  0  0  0  0
  151.4924  140.4591  155.0536 H   0  0  0  0  0  0  0  0  0  0  0  0
  149.7560  140.5738  155.3522 H   0  0  0  0  0  0  0  0  0  0  0  0
  145.7154  131.8597  156.0998 H   0  0  0  0  0  0  0  0  0  0  0  0
  147.2265  132.6682  156.3369 H   0  0  0  0  0  0  0  0  0  0  0  0
  147.1716  133.4732  153.9561 H   0  0  0  0  0  0  0  0  0  0  0  0
  146.1589  134.7573  155.9061 H   0  0  0  0  0  0  0  0  0  0  0  0
  144.5784  134.1461  155.4346 H   0  0  0  0  0  0  0  0  0  0  0  0
  145.4984  135.2086  154.3619 H   0  0  0  0  0  0  0  0  0  0  0  0
  144.5580  132.1821  153.8795 H   0  0  0  0  0  0  0  0  0  0  0  0
  1  2  1  0  0  0  0
  1 30  1  0  0  0  0
  1 31  1  0  0  0  0
  1 32  1  0  0  0  0
  2  3  1  0  0  0  0
  2 33  1  0  0  0  0
  2 34  1  0  0  0  0
  3 28  1  0  0  0  0
  3  4  1  0  0  0  0
  3 64  1  0  0  0  0
  4  5  1  0  0  0  0
  4 35  1  0  0  0  0
  4 36  1  0  0  0  0
  5  6  1  0  0  0  0
  5 37  1  0  0  0  0
  5 38  1  0  0  0  0
  6  7  1  0  0  0  0
  6 27  1  0  0  0  0
  6 39  1  0  0  0  0
  7  8  1  0  0  0  0
  7  9  1  0  0  0  0
  8 40  1  0  0  0  0
  8 41  1  0  0  0  0
  8 42  1  0  0  0  0
  9 14  1  0  0  0  0
  9 10  2  0  0  0  0
 10 11  1  0  0  0  0
 11 12  2  0  0  0  0
 11 43  1  0  0  0  0
 12 13  1  0  0  0  0
 13 17  1  0  0  0  0
 13 14  2  0  0  0  0
 14 15  1  0  0  0  0
 15 16  2  0  0  0  0
 16 17  1  0  0  0  0
 16 44  1  0  0  0  0
 17 18  1  0  0  0  0
 18 19  1  0  0  0  0
 18 45  1  0  0  0  0
 18 46  1  0  0  0  0
 19 20  1  0  0  0  0
 19 22  1  0  0  0  0
 19 47  1  0  0  0  0
 20 21  1  0  0  0  0
 20 48  1  0  0  0  0
 20 49  1  0  0  0  0
 21 50  1  0  0  0  0
 22 26  1  0  0  0  0
 22 23  1  0  0  0  0
 22 51  1  0  0  0  0
 23 24  1  0  0  0  0
 23 52  1  0  0  0  0
 23 53  1  0  0  0  0
 24 25  1  0  0  0  0
 24 54  1  0  0  0  0
 24 55  1  0  0  0  0
 25 26  1  0  0  0  0
 26 56  1  0  0  0  0
 26 57  1  0  0  0  0
 27 28  1  0  0  0  0
 27 58  1  0  0  0  0
 27 59  1  0  0  0  0
 28 29  1  0  0  0  0
 28 60  1  0  0  0  0
 29 61  1  0  0  0  0
 29 62  1  0  0  0  0
 29 63  1  0  0  0  0
M  CHG  1   3   1
M  END
> <s_m_source_file>
AV-unprocessed.smi

> <i_m_source_file_index>
249

> <i_lp_mmshare_version>
43012

> <i_f3d_flags>
0

> <s_epik_input>
W0NIM11bQ0gyXU4xW0NIMl1bQ0gyXVtDQEhdKFtDSDJdW0NASF0xW0NIM10pTihbQ0gzXSljKG5bY0hdbjIpYyhjMjMpbltjSF1uM1tDSDJdW0NASF0oW0NIMl1bT0hdKVtDQEBIXTRbQ0gyXVtDSDJdT1tDSDJdNA==

> <s_epik_cmdline>
J2VwaWtfcHl0aG9uJywgJy1waCcsICc3LjAnLCAnLXRuJywgJzgnLCAnLW1hJywgJzIwMCcsICctbWV0YWxfYmluZGluZycsICctaW1hZScsICc8aW5maWxlLm1hZT4nLCAnLW9tYWUnLCAnPG91dGZpbGUubWFlPic=

> <r_lp_tautomer_probability>
1

> <r_epik_Ionization_Penalty>
0.00294688

> <r_epik_Ionization_Penalty_Charging>
0.00169971

> <r_epik_Ionization_Penalty_Neutral>
0.00124717

> <r_epik_State_Penalty>
-0

> <r_epik_Charging_Adjusted_Penalty>
0.00169971

> <i_epik_Tot_Q>
1

> <i_epik_Tot_abs_Q>
1

> <r_epik_Metal_State_Penalty>
-0

> <b_epik_Metal_Only>
0

> <s_lp_Force_Field>
OPLS_2005

> <r_lp_Energy>
58.1803

> <b_lp_Chiralities_Consistent>
1

> <s_lp_Variant>
AV-unprocessed.smi:249-26

> <Gold.Version>
5.8.1

> <Gold.Id.Protein>
6NUR|6NUR_protein|mol2

> <Gold.PLP.Fitness>
44.8114

> <Gold.PLP.PLP>
-34.5639

> <Gold.PLP.part.hbond>
-3.7221

> <Gold.PLP.part.metal>
0.0000

> <Gold.PLP.part.buried>
-5.4081

> <Gold.PLP.part.nonpolar>
-27.5588

> <Gold.PLP.part.repulsive>
0.7778

> <Gold.PLP.ligand.clash>
0.0000

> <Gold.PLP.ligand.torsion>
1.4089

> <Gold.PLP.Chemscore.Hbond>
3.5525

> <Gold.PLP.Chemscore.CHOScore>
0.6021

> <Gold.PLP.Chemscore.Metal>
0.0000

> <Gold.Chemscore.Hbonds>
donor molecule, donor type, donor heavy atom, donor atom, acceptor molecule, acceptor atom, score
      L1  H     3    64       P1 10957  1.33
      L1  H    21    50       P1  7949  0.64
      P1  H  6896  6908       L1    12  0.22
      P1  H 10752 10764       L1    21  0.93
      L1  C    16    44       P1  7948  0.68

> <Gold.PLP.Chemscore.Internal.Correction>
0.6013

> <Gold.Rescore>
     Score         DG    S(hbond)    S(metal)    S(lipo)     H(rot)  DE(clash)    DE(int)     intcor
     10.87     -12.35       1.48        0.00      79.94       2.90       0.19       1.29       ----

> <Gold.Chemscore.Fitness>
10.8749

> <Gold.Chemscore.DG>
-12.3517

> <Gold.Chemscore.ZeroCoef>
-5.4800

> <Gold.Chemscore.Hbond>
1.4802

> <Gold.Chemscore.Metal>
0.0000

> <Gold.Chemscore.Lipo>
79.9441

> <Gold.Chemscore.Internal_Hbond>
0.0000

> <Gold.Chemscore.DEClash>
0.1904

> <Gold.Chemscore.DEInternal>
1.2865

> <Gold.Chemscore.Rot>
2.9006

> <Gold.Chemscore.Internal.Correction>
   9.000000E+99

> <Gold.Chemscore.Hbonds>
donor molecule, donor type, donor heavy atom, donor atom, acceptor molecule, acceptor atom, score
      L1  H     3    64       P1 10957  0.12
      L1  H    21    50       P1  7949  0.61
      P1  H  6896  6908       L1    12  0.01
      P1  H 10752 10764       L1    21  0.83

> <Gold.Chemscore.Hbond.Weighted>
-4.9439

> <Gold.Chemscore.Metal.Weighted>
-0.0000

> <Gold.Chemscore.Lipo.Weighted>
-9.3535

> <Gold.Chemscore.Internal_Hbond.Weighted>
0.0000

> <Gold.Chemscore.DEClash.Weighted>
0.1904

> <Gold.Chemscore.DEInternal.Weighted>
1.2865

> <Gold.Chemscore.Rot.Weighted>
7.4256

> <Gold.Chemscore.Internal.Correction.Weighted>
   9.000000E+99

> <Gold.Protein.RotatedTorsions>
[ 6907 6896 6895 6894 ] final   83.61 input  -60.11 | X-H torsion
[ 7974 7965 7964 7962 ] final  -47.87 input  175.53 | X-H torsion
[ 8008 7997 7996 7995 ] final   21.06 input   59.86 | X-H torsion
[ 10167 10162 10161 10158 ] final  140.56 input  -65.29 | X-H torsion
[ 10718 10713 10712 10709 ] final -171.58 input   66.30 | X-H torsion
[ 10763 10752 10751 10750 ] final -107.97 input  -60.55 | X-H torsion
[ 11005 11000 10999 10996 ] final   -3.21 input  -57.11 | X-H torsion

> <Gold.Protein.ActiveResidues>
 VAL166  LYS551  ARG553  GLY616  TRP617  ASP618  TYR619  PRO620  LYS621  CYS622 
 ASP623  PHE694  ASN695  SER759  ASP760  ASP761  ALA762  ILE779  LEU786  VAL792 
 PHE793  MET794  SER795  GLU796  ALA797  LYS798  CYS799  TRP800  GLU811  SER814 

> <Gold.Protein.RotatedAtoms>
  152.5332  134.2868  159.9027 H   0  0  0  0  0  0  0  0  0  0  0  0  # atno 6907 bound_to 6896
  151.2821  133.4198  159.2635 H   0  0  0  0  0  0  0  0  0  0  0  0  # atno 6908 bound_to 6896
  151.0274  134.9530  159.8149 H   0  0  0  0  0  0  0  0  0  0  0  0  # atno 6909 bound_to 6896
  145.9571  140.7515  142.9476 H   0  0  0  0  0  0  0  0  0  0  0  0  # atno 7974 bound_to 7965
  154.9449  140.3058  155.5103 H   0  0  0  0  0  0  0  0  0  0  0  0  # atno 8008 bound_to 7997
  156.2992  140.2329  156.4459 H   0  0  0  0  0  0  0  0  0  0  0  0  # atno 8009 bound_to 7997
  154.8110  140.0428  157.1331 H   0  0  0  0  0  0  0  0  0  0  0  0  # atno 8010 bound_to 7997
  139.5045  144.6226  151.6014 H   0  0  0  0  0  0  0  0  0  0  0  0  # atno 10167 bound_to 10162
  156.7430  130.9349  151.3111 H   0  0  0  0  0  0  0  0  0  0  0  0  # atno 10718 bound_to 10713
  154.8107  135.4655  154.0510 H   0  0  0  0  0  0  0  0  0  0  0  0  # atno 10763 bound_to 10752
  153.1943  135.6859  153.8319 H   0  0  0  0  0  0  0  0  0  0  0  0  # atno 10764 bound_to 10752
  153.7826  135.3254  155.3345 H   0  0  0  0  0  0  0  0  0  0  0  0  # atno 10765 bound_to 10752
  140.6668  133.9271  155.8470 H   0  0  0  0  0  0  0  0  0  0  0  0  # atno 11005 bound_to 11000
  144.6807  140.2530  143.7329 LP  0  0  0  0  0  0  0  0  0  0  0  0  # atno 17320 bound_to 7965
  145.8091  139.1995  143.2003 LP  0  0  0  0  0  0  0  0  0  0  0  0  # atno 17321 bound_to 7965
  140.5933  143.9740  150.6338 LP  0  0  0  0  0  0  0  0  0  0  0  0  # atno 17342 bound_to 10162
  140.2928  143.3313  152.1046 LP  0  0  0  0  0  0  0  0  0  0  0  0  # atno 17343 bound_to 10162
  157.6810  130.9140  150.0267 LP  0  0  0  0  0  0  0  0  0  0  0  0  # atno 17370 bound_to 10713
  156.1452  130.3642  149.9522 LP  0  0  0  0  0  0  0  0  0  0  0  0  # atno 17371 bound_to 10713
  141.0423  134.0604  157.3887 LP  0  0  0  0  0  0  0  0  0  0  0  0  # atno 17394 bound_to 11000
  139.8994  135.0158  156.7196 LP  0  0  0  0  0  0  0  0  0  0  0  0  # atno 17395 bound_to 11000

$$$$
