AV-unprocessed.smi:743|AV-procd|sdf|3561|dock1
  -GOLD-   22720 0563D 1   1.00000     0.00000
 Structure written by MMmdl.
 29 30  0  0  0  0  0  0  0  0  2 V2000
  145.8512  143.0835  153.9103 C   0  0  0  0  0  0  0  0  0  0  0  0
  146.9261  142.2762  154.4461 N   0  0  0  0  0  0  0  0  0  0  0  0
  147.9641  141.6705  153.7723 C   0  0  0  0  0  0  0  0  0  0  0  0
  148.7284  141.0120  154.6967 C   0  0  0  0  0  0  0  0  0  0  0  0
  149.9837  140.1972  154.4949 C   0  0  1  0  0  0  0  0  0  0  0  0
  150.9427  140.4498  155.5736 N   0  0  0  0  0  0  0  0  0  0  0  0
  151.8026  139.5668  156.1124 C   0  0  0  0  0  0  0  0  0  0  0  0
  152.6119  139.9046  156.9723 O   0  0  0  0  0  0  0  0  0  0  0  0
  151.7438  138.0970  155.6684 C   0  0  0  0  0  0  0  0  0  0  0  0
  150.9558  137.8743  154.3668 C   0  0  0  0  0  0  0  0  0  0  0  0
  149.6583  138.6908  154.3648 C   0  0  2  0  0  0  0  0  0  0  0  0
  148.8526  138.4075  153.1630 N   0  3  0  0  0  0  0  0  0  0  0  0
  148.0561  141.2805  155.9242 C   0  0  0  0  0  0  0  0  0  0  0  0
  146.9831  142.0376  155.7719 N   0  0  0  0  0  0  0  0  0  0  0  0
  149.0605  138.3814  155.2241 H   0  0  0  0  0  0  0  0  0  0  0  0
  146.1080  143.4293  152.9085 H   0  0  0  0  0  0  0  0  0  0  0  0
  145.6799  143.9506  154.5495 H   0  0  0  0  0  0  0  0  0  0  0  0
  144.9379  142.4901  153.8591 H   0  0  0  0  0  0  0  0  0  0  0  0
  148.0733  141.7585  152.7010 H   0  0  0  0  0  0  0  0  0  0  0  0
  150.4834  140.5180  153.5793 H   0  0  0  0  0  0  0  0  0  0  0  0
  150.9940  141.4010  155.9099 H   0  0  0  0  0  0  0  0  0  0  0  0
  152.7572  137.7077  155.5634 H   0  0  0  0  0  0  0  0  0  0  0  0
  151.2762  137.5316  156.4751 H   0  0  0  0  0  0  0  0  0  0  0  0
  151.5736  138.1515  153.5111 H   0  0  0  0  0  0  0  0  0  0  0  0
  150.7341  136.8121  154.2560 H   0  0  0  0  0  0  0  0  0  0  0  0
  147.8846  138.2866  153.4249 H   0  0  0  0  0  0  0  0  0  0  0  0
  149.1914  137.5632  152.7241 H   0  0  0  0  0  0  0  0  0  0  0  0
  148.3183  140.9508  156.9187 H   0  0  0  0  0  0  0  0  0  0  0  0
  148.9321  139.1780  152.5147 H   0  0  0  0  0  0  0  0  0  0  0  0
  1  2  1  0  0  0  0
  1 16  1  0  0  0  0
  1 17  1  0  0  0  0
  1 18  1  0  0  0  0
  2 14  1  0  0  0  0
  2  3  1  0  0  0  0
  3  4  2  0  0  0  0
  3 19  1  0  0  0  0
  4  5  1  0  0  0  0
  4 13  1  0  0  0  0
  5 11  1  0  0  0  0
  5  6  1  0  0  0  0
  5 20  1  0  0  0  0
  6  7  1  0  0  0  0
  6 21  1  0  0  0  0
  7  8  2  0  0  0  0
  7  9  1  0  0  0  0
  9 10  1  0  0  0  0
  9 22  1  0  0  0  0
  9 23  1  0  0  0  0
 10 11  1  0  0  0  0
 10 24  1  0  0  0  0
 10 25  1  0  0  0  0
 11 15  1  0  0  0  0
 11 12  1  0  0  0  0
 12 26  1  0  0  0  0
 12 27  1  0  0  0  0
 12 29  1  0  0  0  0
 13 14  2  0  0  0  0
 13 28  1  0  0  0  0
M  CHG  1  12   1
M  END
> <s_m_source_file>
AV-unprocessed.smi

> <i_m_source_file_index>
743

> <i_lp_mmshare_version>
43012

> <i_f3d_flags>
0

> <s_epik_input>
W0NIM11uMVtjSF1jKFtjSF1uMSlbQ0BASF0yW05IXUMoPU8pW0NIMl1bQ0gyXVtDQEBIXTJbTkgyXQ==

> <s_epik_cmdline>
J2VwaWtfcHl0aG9uJywgJy1waCcsICc3LjAnLCAnLXRuJywgJzgnLCAnLW1hJywgJzIwMCcsICctbWV0YWxfYmluZGluZycsICctaW1hZScsICc8aW5maWxlLm1hZT4nLCAnLW9tYWUnLCAnPG91dGZpbGUubWFlPic=

> <r_lp_tautomer_probability>
1

> <r_epik_Ionization_Penalty>
0.00878543

> <r_epik_Ionization_Penalty_Charging>
0.00874185

> <r_epik_Ionization_Penalty_Neutral>
4.35793e-05

> <r_epik_State_Penalty>
0.00660351

> <r_epik_Charging_Adjusted_Penalty>
0.0153454

> <i_epik_Tot_Q>
1

> <i_epik_Tot_abs_Q>
1

> <r_epik_Metal_State_Penalty>
0.00660727

> <b_epik_Metal_Only>
0

> <s_lp_Force_Field>
OPLS_2005

> <r_lp_Energy>
10.7235

> <b_lp_Chiralities_Consistent>
1

> <s_lp_Variant>
AV-unprocessed.smi:743-2

> <Gold.Version>
5.8.1

> <Gold.Id.Protein>
6NUR|6NUR_protein|mol2

> <Gold.PLP.Fitness>
41.2662

> <Gold.PLP.PLP>
-28.5392

> <Gold.PLP.part.hbond>
-2.8570

> <Gold.PLP.part.metal>
0.0000

> <Gold.PLP.part.buried>
-1.8459

> <Gold.PLP.part.nonpolar>
-23.8641

> <Gold.PLP.part.repulsive>
0.5822

> <Gold.PLP.ligand.clash>
0.0000

> <Gold.PLP.ligand.torsion>
0.6366

> <Gold.PLP.Chemscore.Hbond>
4.0000

> <Gold.PLP.Chemscore.CHOScore>
0.6595

> <Gold.PLP.Chemscore.Metal>
0.0000

> <Gold.Chemscore.Hbonds>
donor molecule, donor type, donor heavy atom, donor atom, acceptor molecule, acceptor atom, score
      L1  H    12    27       P1  7948  2.00
      L1  H    12    29       P1  7957  1.00
      P1  H  7997  8009       L1     8  1.00
      L1  C     3    19       P1  7957  0.41

> <Gold.PLP.Chemscore.Internal.Correction>
0.0216

> <Gold.Rescore>
     Score         DG    S(hbond)    S(metal)    S(lipo)     H(rot)  DE(clash)    DE(int)     intcor
     18.47     -19.06       2.98        0.00      52.86       1.00       0.21       0.38       ----

> <Gold.Chemscore.Fitness>
18.4738

> <Gold.Chemscore.DG>
-19.0610

> <Gold.Chemscore.ZeroCoef>
-5.4800

> <Gold.Chemscore.Hbond>
2.9810

> <Gold.Chemscore.Metal>
0.0000

> <Gold.Chemscore.Lipo>
52.8576

> <Gold.Chemscore.Internal_Hbond>
0.0000

> <Gold.Chemscore.DEClash>
0.2102

> <Gold.Chemscore.DEInternal>
0.3770

> <Gold.Chemscore.Rot>
1.0000

> <Gold.Chemscore.Internal.Correction>
   9.000000E+99

> <Gold.Chemscore.Hbonds>
donor molecule, donor type, donor heavy atom, donor atom, acceptor molecule, acceptor atom, score
      L1  H    12    27       P1  7948  0.92
      L1  H    12    29       P1  7957  0.98
      P1  H  7997  8009       L1     8  0.94

> <Gold.Chemscore.Hbond.Weighted>
-9.9566

> <Gold.Chemscore.Metal.Weighted>
-0.0000

> <Gold.Chemscore.Lipo.Weighted>
-6.1843

> <Gold.Chemscore.Internal_Hbond.Weighted>
0.0000

> <Gold.Chemscore.DEClash.Weighted>
0.2102

> <Gold.Chemscore.DEInternal.Weighted>
0.3770

> <Gold.Chemscore.Rot.Weighted>
2.5600

> <Gold.Chemscore.Internal.Correction.Weighted>
   9.000000E+99

> <Gold.Protein.RotatedTorsions>
[ 6907 6896 6895 6894 ] final  152.24 input  -60.11 | X-H torsion
[ 7974 7965 7964 7962 ] final  -81.96 input  175.53 | X-H torsion
[ 8008 7997 7996 7995 ] final -168.01 input   59.86 | X-H torsion
[ 10167 10162 10161 10158 ] final -138.18 input  -65.29 | X-H torsion
[ 10718 10713 10712 10709 ] final   91.06 input   66.30 | X-H torsion
[ 10763 10752 10751 10750 ] final -123.50 input  -60.55 | X-H torsion
[ 11005 11000 10999 10996 ] final  112.16 input  -57.11 | X-H torsion

> <Gold.Protein.ActiveResidues>
 VAL166  LYS551  ARG553  GLY616  TRP617  ASP618  TYR619  PRO620  LYS621  CYS622 
 ASP623  PHE694  ASN695  SER759  ASP760  ASP761  ALA762  ILE779  LEU786  VAL792 
 PHE793  MET794  SER795  GLU796  ALA797  LYS798  CYS799  TRP800  GLU811  SER814 

> <Gold.Protein.RotatedAtoms>
  152.0894  133.4193  159.4536 H   0  0  0  0  0  0  0  0  0  0  0  0  # atno 6907 bound_to 6896
  150.6862  134.2889  159.4667 H   0  0  0  0  0  0  0  0  0  0  0  0  # atno 6908 bound_to 6896
  152.0739  134.9515  160.0625 H   0  0  0  0  0  0  0  0  0  0  0  0  # atno 6909 bound_to 6896
  145.5397  140.9511  143.1558 H   0  0  0  0  0  0  0  0  0  0  0  0  # atno 7974 bound_to 7965
  155.8856  140.1016  157.1455 H   0  0  0  0  0  0  0  0  0  0  0  0  # atno 8008 bound_to 7997
  154.4009  140.1320  156.4315 H   0  0  0  0  0  0  0  0  0  0  0  0  # atno 8009 bound_to 7997
  155.7593  140.3463  155.5192 H   0  0  0  0  0  0  0  0  0  0  0  0  # atno 8010 bound_to 7997
  139.8504  143.7206  152.2658 H   0  0  0  0  0  0  0  0  0  0  0  0  # atno 10167 bound_to 10162
  157.6960  131.0393  150.3672 H   0  0  0  0  0  0  0  0  0  0  0  0  # atno 10718 bound_to 10713
  154.8709  135.4096  154.2954 H   0  0  0  0  0  0  0  0  0  0  0  0  # atno 10763 bound_to 10752
  153.3823  135.7012  153.6562 H   0  0  0  0  0  0  0  0  0  0  0  0  # atno 10764 bound_to 10752
  153.5379  135.3654  155.2677 H   0  0  0  0  0  0  0  0  0  0  0  0  # atno 10765 bound_to 10752
  139.8920  134.9524  156.6543 H   0  0  0  0  0  0  0  0  0  0  0  0  # atno 11005 bound_to 11000
  144.7583  139.7019  143.7245 LP  0  0  0  0  0  0  0  0  0  0  0  0  # atno 17320 bound_to 7965
  146.1989  139.5272  142.9756 LP  0  0  0  0  0  0  0  0  0  0  0  0  # atno 17321 bound_to 7965
  139.7471  144.7544  151.0563 LP  0  0  0  0  0  0  0  0  0  0  0  0  # atno 17342 bound_to 10162
  140.7788  143.4904  150.9901 LP  0  0  0  0  0  0  0  0  0  0  0  0  # atno 17343 bound_to 10162
  156.4101  130.3932  149.6897 LP  0  0  0  0  0  0  0  0  0  0  0  0  # atno 17370 bound_to 10713
  156.4184  130.7757  151.2773 LP  0  0  0  0  0  0  0  0  0  0  0  0  # atno 17371 bound_to 10713
  140.7496  133.8908  155.8337 LP  0  0  0  0  0  0  0  0  0  0  0  0  # atno 17394 bound_to 11000
  141.0011  134.1149  157.4316 LP  0  0  0  0  0  0  0  0  0  0  0  0  # atno 17395 bound_to 11000

$$$$
