AV-unprocessed.smi:1974|AV-procd|sdf|7981|dock9
  -GOLD-   2272010163D 1   1.00000     0.00000
 Structure written by MMmdl.
 34 35  0  0  0  0  0  0  0  0  1 V2000
  151.5973  144.3110  157.8727 C   0  0  0  0  0  0  0  0  0  0  0  0
  151.5186  142.8005  157.6017 C   0  0  1  0  0  0  0  0  0  0  0  0
  151.0406  142.0287  158.8468 C   0  0  0  0  0  0  0  0  0  0  0  0
  151.9923  142.1038  159.9415 N   0  0  0  0  0  0  0  0  0  0  0  0
  153.2839  141.6232  159.9856 C   0  0  0  0  0  0  0  0  0  0  0  0
  153.7852  141.9188  161.2208 C   0  0  0  0  0  0  0  0  0  0  0  0
  152.7114  142.5903  161.8697 C   0  0  0  0  0  0  0  0  0  0  0  0
  151.6396  142.7000  161.1012 N   0  0  0  0  0  0  0  0  0  0  0  0
  150.6217  142.5444  156.4767 N   0  0  0  0  0  0  0  0  0  0  0  0
  150.4990  141.3772  155.8273 C   0  0  0  0  0  0  0  0  0  0  0  0
  151.1398  140.3677  156.1235 O   0  0  0  0  0  0  0  0  0  0  0  0
  149.4776  141.3501  154.6834 C   0  0  0  0  0  0  0  0  0  0  0  0
  148.1252  141.7098  155.1141 N   0  0  0  0  0  0  0  0  0  0  0  0
  147.2421  142.4043  154.1854 C   0  0  0  0  0  0  0  0  0  0  0  0
  145.8210  142.3392  154.7488 C   0  0  0  0  0  0  0  0  0  0  0  0
  145.9487  142.0756  156.5286 S   0  0  0  0  0  0  0  0  0  0  0  0
  147.6441  141.4984  156.4000 C   0  0  0  0  0  0  0  0  0  0  0  0
  148.2415  140.9985  157.3519 O   0  0  0  0  0  0  0  0  0  0  0  0
  152.2748  144.5260  158.6995 H   0  0  0  0  0  0  0  0  0  0  0  0
  150.6194  144.7202  158.1288 H   0  0  0  0  0  0  0  0  0  0  0  0
  151.9659  144.8507  156.9995 H   0  0  0  0  0  0  0  0  0  0  0  0
  152.5213  142.4483  157.3515 H   0  0  0  0  0  0  0  0  0  0  0  0
  150.0945  142.4402  159.2008 H   0  0  0  0  0  0  0  0  0  0  0  0
  150.8518  140.9813  158.6048 H   0  0  0  0  0  0  0  0  0  0  0  0
  153.7322  141.1147  159.1445 H   0  0  0  0  0  0  0  0  0  0  0  0
  154.7689  141.6897  161.6030 H   0  0  0  0  0  0  0  0  0  0  0  0
  152.6791  142.9984  162.8692 H   0  0  0  0  0  0  0  0  0  0  0  0
  150.0445  143.3158  156.1740 H   0  0  0  0  0  0  0  0  0  0  0  0
  149.8156  142.0349  153.9050 H   0  0  0  0  0  0  0  0  0  0  0  0
  149.4569  140.3570  154.2307 H   0  0  0  0  0  0  0  0  0  0  0  0
  147.5711  143.4415  154.1090 H   0  0  0  0  0  0  0  0  0  0  0  0
  147.2873  141.9688  153.1864 H   0  0  0  0  0  0  0  0  0  0  0  0
  145.2461  143.2375  154.5231 H   0  0  0  0  0  0  0  0  0  0  0  0
  145.2902  141.4880  154.3213 H   0  0  0  0  0  0  0  0  0  0  0  0
  1  2  1  0  0  0  0
  1 19  1  0  0  0  0
  1 20  1  0  0  0  0
  1 21  1  0  0  0  0
  2  3  1  0  0  0  0
  2  9  1  0  0  0  0
  2 22  1  0  0  0  0
  3  4  1  0  0  0  0
  3 23  1  0  0  0  0
  3 24  1  0  0  0  0
  4  8  1  0  0  0  0
  4  5  1  0  0  0  0
  5  6  2  0  0  0  0
  5 25  1  0  0  0  0
  6  7  1  0  0  0  0
  6 26  1  0  0  0  0
  7  8  2  0  0  0  0
  7 27  1  0  0  0  0
  9 10  1  0  0  0  0
  9 28  1  0  0  0  0
 10 11  2  0  0  0  0
 10 12  1  0  0  0  0
 12 13  1  0  0  0  0
 12 29  1  0  0  0  0
 12 30  1  0  0  0  0
 13 17  1  0  0  0  0
 13 14  1  0  0  0  0
 14 15  1  0  0  0  0
 14 31  1  0  0  0  0
 14 32  1  0  0  0  0
 15 16  1  0  0  0  0
 15 33  1  0  0  0  0
 15 34  1  0  0  0  0
 16 17  1  0  0  0  0
 17 18  2  0  0  0  0
M  END
> <s_m_source_file>
AV-unprocessed.smi

> <i_m_source_file_index>
1974

> <i_lp_mmshare_version>
43012

> <i_f3d_flags>
0

> <s_epik_input>
bjFbY0hdW2NIXVtjSF1uMVtDSDJdW0NAQEhdKFtDSDNdKVtOSF1DKD1PKVtDSDJdTjJbQ0gyXVtDSDJdU0MyPU8=

> <s_epik_cmdline>
J2VwaWtfcHl0aG9uJywgJy1waCcsICc3LjAnLCAnLXRuJywgJzgnLCAnLW1hJywgJzIwMCcsICctbWV0YWxfYmluZGluZycsICctaW1hZScsICc8aW5maWxlLm1hZT4nLCAnLW9tYWUnLCAnPG91dGZpbGUubWFlPic=

> <r_lp_tautomer_probability>
1

> <r_epik_Ionization_Penalty>
0.000283364

> <r_epik_Ionization_Penalty_Charging>
0

> <r_epik_Ionization_Penalty_Neutral>
0.000283364

> <r_epik_State_Penalty>
-0

> <r_epik_Charging_Adjusted_Penalty>
0

> <i_epik_Tot_Q>
0

> <i_epik_Tot_abs_Q>
0

> <r_epik_Metal_State_Penalty>
-0

> <b_epik_Metal_Only>
0

> <s_lp_Force_Field>
OPLS_2005

> <r_lp_Energy>
3.37474

> <b_lp_Chiralities_Consistent>
1

> <s_lp_Variant>
AV-unprocessed.smi:1974-2

> <Gold.Version>
5.8.1

> <Gold.Id.Protein>
6NUR|6NUR_protein|mol2

> <Gold.PLP.Fitness>
43.6802

> <Gold.PLP.PLP>
-40.8201

> <Gold.PLP.part.hbond>
-2.0000

> <Gold.PLP.part.metal>
0.0000

> <Gold.PLP.part.buried>
-4.2889

> <Gold.PLP.part.nonpolar>
-35.2364

> <Gold.PLP.part.repulsive>
0.2240

> <Gold.PLP.ligand.clash>
0.0000

> <Gold.PLP.ligand.torsion>
0.5129

> <Gold.PLP.Chemscore.Hbond>
1.2808

> <Gold.PLP.Chemscore.CHOScore>
0.0000

> <Gold.PLP.Chemscore.Metal>
0.0000

> <Gold.Chemscore.Hbonds>
donor molecule, donor type, donor heavy atom, donor atom, acceptor molecule, acceptor atom, score
      L1  H     9    28       P1  8028  1.00
      P1  H  6933  6945       L1     8  0.27

> <Gold.PLP.Chemscore.Internal.Correction>
0.0435

> <Gold.Rescore>
     Score         DG    S(hbond)    S(metal)    S(lipo)     H(rot)  DE(clash)    DE(int)     intcor
     12.83     -14.85       1.38        0.00      85.31       2.04       0.18       1.84       ----

> <Gold.Chemscore.Fitness>
12.8302

> <Gold.Chemscore.DG>
-14.8510

> <Gold.Chemscore.ZeroCoef>
-5.4800

> <Gold.Chemscore.Hbond>
1.3814

> <Gold.Chemscore.Metal>
0.0000

> <Gold.Chemscore.Lipo>
85.3061

> <Gold.Chemscore.Internal_Hbond>
0.0000

> <Gold.Chemscore.DEClash>
0.1848

> <Gold.Chemscore.DEInternal>
1.8360

> <Gold.Chemscore.Rot>
2.0405

> <Gold.Chemscore.Internal.Correction>
   9.000000E+99

> <Gold.Chemscore.Hbonds>
donor molecule, donor type, donor heavy atom, donor atom, acceptor molecule, acceptor atom, score
      L1  H     9    28       P1  8028  1.00
      P1  H  6933  6945       L1     8  0.12

> <Gold.Chemscore.Hbond.Weighted>
-4.6139

> <Gold.Chemscore.Metal.Weighted>
-0.0000

> <Gold.Chemscore.Lipo.Weighted>
-9.9808

> <Gold.Chemscore.Internal_Hbond.Weighted>
0.0000

> <Gold.Chemscore.DEClash.Weighted>
0.1848

> <Gold.Chemscore.DEInternal.Weighted>
1.8360

> <Gold.Chemscore.Rot.Weighted>
5.2237

> <Gold.Chemscore.Internal.Correction.Weighted>
   9.000000E+99

> <Gold.Protein.RotatedTorsions>
[ 6907 6896 6895 6894 ] final   74.99 input  -60.11 | X-H torsion
[ 7974 7965 7964 7962 ] final  142.29 input  175.53 | X-H torsion
[ 8008 7997 7996 7995 ] final -101.48 input   59.86 | X-H torsion
[ 10167 10162 10161 10158 ] final  123.59 input  -65.29 | X-H torsion
[ 10718 10713 10712 10709 ] final   99.91 input   66.30 | X-H torsion
[ 10763 10752 10751 10750 ] final -147.51 input  -60.55 | X-H torsion
[ 11005 11000 10999 10996 ] final   46.54 input  -57.11 | X-H torsion

> <Gold.Protein.ActiveResidues>
 VAL166  LYS551  ARG553  GLY616  TRP617  ASP618  TYR619  PRO620  LYS621  CYS622 
 ASP623  PHE694  ASN695  SER759  ASP760  ASP761  ALA762  ILE779  LEU786  VAL792 
 PHE793  MET794  SER795  GLU796  ALA797  LYS798  CYS799  TRP800  GLU811  SER814 

> <Gold.Protein.RotatedAtoms>
  152.5004  134.4188  159.9473 H   0  0  0  0  0  0  0  0  0  0  0  0  # atno 6907 bound_to 6896
  151.4160  133.3706  159.2758 H   0  0  0  0  0  0  0  0  0  0  0  0  # atno 6908 bound_to 6896
  150.9257  134.8696  159.7578 H   0  0  0  0  0  0  0  0  0  0  0  0  # atno 6909 bound_to 6896
  144.9021  139.5409  143.5749 H   0  0  0  0  0  0  0  0  0  0  0  0  # atno 7974 bound_to 7965
  154.8431  140.0434  157.1555 H   0  0  0  0  0  0  0  0  0  0  0  0  # atno 8008 bound_to 7997
  154.9025  140.3002  155.5290 H   0  0  0  0  0  0  0  0  0  0  0  0  # atno 8009 bound_to 7997
  156.2993  140.2373  156.4054 H   0  0  0  0  0  0  0  0  0  0  0  0  # atno 8010 bound_to 7997
  139.5791  144.6977  151.3576 H   0  0  0  0  0  0  0  0  0  0  0  0  # atno 10167 bound_to 10162
  157.6866  131.0683  150.5021 H   0  0  0  0  0  0  0  0  0  0  0  0  # atno 10718 bound_to 10713
  154.8282  135.3358  154.6829 H   0  0  0  0  0  0  0  0  0  0  0  0  # atno 10763 bound_to 10752
  153.7452  135.6943  153.4962 H   0  0  0  0  0  0  0  0  0  0  0  0  # atno 10764 bound_to 10752
  153.2215  135.4447  155.0445 H   0  0  0  0  0  0  0  0  0  0  0  0  # atno 10765 bound_to 10752
  140.1359  134.4645  155.8486 H   0  0  0  0  0  0  0  0  0  0  0  0  # atno 11005 bound_to 11000
  146.3114  139.7759  142.9017 LP  0  0  0  0  0  0  0  0  0  0  0  0  # atno 17320 bound_to 7965
  145.3599  141.0324  143.3291 LP  0  0  0  0  0  0  0  0  0  0  0  0  # atno 17321 bound_to 7965
  140.7071  143.7487  150.7500 LP  0  0  0  0  0  0  0  0  0  0  0  0  # atno 17342 bound_to 10162
  140.1014  143.4784  152.2423 LP  0  0  0  0  0  0  0  0  0  0  0  0  # atno 17343 bound_to 10162
  156.5342  130.4192  149.6186 LP  0  0  0  0  0  0  0  0  0  0  0  0  # atno 17370 bound_to 10713
  156.3042  130.7194  151.2072 LP  0  0  0  0  0  0  0  0  0  0  0  0  # atno 17371 bound_to 10713
  141.2178  133.6814  156.7157 LP  0  0  0  0  0  0  0  0  0  0  0  0  # atno 17394 bound_to 11000
  140.2783  134.8337  157.3910 LP  0  0  0  0  0  0  0  0  0  0  0  0  # atno 17395 bound_to 11000

$$$$
