AV-unprocessed.smi:208|AV-procd|sdf|1605|dock6
  -GOLD-   2262019523D 1   1.00000     0.00000
 Structure written by MMmdl.
 50 53  0  0  0  0  0  0  0  0  1 V2000
  147.8761  136.6207  163.0076 C   0  0  0  0  0  0  0  0  0  0  0  0
  147.5555  136.5585  161.5051 C   0  0  0  0  0  0  0  0  0  0  0  0
  146.4474  135.5629  161.0818 C   0  0  2  0  0  0  0  0  0  0  0  0
  145.0480  135.9593  161.6132 C   0  0  0  0  0  0  0  0  0  0  0  0
  144.6303  137.0920  161.3680 O   0  0  0  0  0  0  0  0  0  0  0  0
  144.3190  135.0587  162.3156 N   0  0  0  0  0  0  0  0  0  0  0  0
  142.9813  135.3952  162.8043 C   0  0  0  0  0  0  0  0  0  0  0  0
  144.7761  133.6975  162.6211 C   0  0  0  0  0  0  0  0  0  0  0  0
  146.3050  133.5738  162.6105 C   0  0  0  0  0  0  0  0  0  0  0  0
  146.8504  134.1875  161.4060 N   0  0  0  0  0  0  0  0  0  0  0  0
  147.0361  133.3264  160.3788 C   0  0  0  0  0  0  0  0  0  0  0  0
  147.1006  132.0064  160.6819 N   0  0  0  0  0  0  0  0  0  0  0  0
  147.2718  131.1050  159.7102 C   0  0  0  0  0  0  0  0  0  0  0  0
  147.3917  131.3062  158.3962 N   0  0  0  0  0  0  0  0  0  0  0  0
  147.3162  132.6322  158.0867 C   0  0  0  0  0  0  0  0  0  0  0  0
  147.1356  133.7016  159.0086 C   0  0  0  0  0  0  0  0  0  0  0  0
  147.0848  134.9112  158.3262 N   0  0  0  0  0  0  0  0  0  0  0  0
  147.2333  134.5769  157.0741 C   0  0  0  0  0  0  0  0  0  0  0  0
  147.3916  133.2292  156.8399 N   0  0  0  0  0  0  0  0  0  0  0  0
  147.5758  132.5907  155.5454 C   0  0  0  0  0  0  0  0  0  0  0  0
  148.8984  132.9595  154.8410 C   0  0  0  0  0  0  0  0  0  0  0  0
  149.0993  132.1125  153.5716 C   0  0  0  0  0  0  0  0  0  0  0  0
  148.0792  132.3511  152.6227 O   0  0  0  0  0  0  0  0  0  0  0  0
  149.1614  134.4596  154.6452 C   0  0  0  0  0  0  0  0  0  0  0  0
  150.4819  134.3580  155.2181 O   0  0  0  0  0  0  0  0  0  0  0  0
  150.1330  133.0615  155.7476 C   0  0  0  0  0  0  0  0  0  0  0  0
  148.5986  137.4116  163.2098 H   0  0  0  0  0  0  0  0  0  0  0  0
  148.3159  135.6888  163.3610 H   0  0  0  0  0  0  0  0  0  0  0  0
  146.9886  136.8288  163.6053 H   0  0  0  0  0  0  0  0  0  0  0  0
  147.2735  137.5595  161.1759 H   0  0  0  0  0  0  0  0  0  0  0  0
  148.4710  136.3255  160.9597 H   0  0  0  0  0  0  0  0  0  0  0  0
  146.3732  135.6625  159.9978 H   0  0  0  0  0  0  0  0  0  0  0  0
  143.0452  136.1311  163.6068 H   0  0  0  0  0  0  0  0  0  0  0  0
  142.4551  134.5220  163.1920 H   0  0  0  0  0  0  0  0  0  0  0  0
  142.3656  135.8115  162.0055 H   0  0  0  0  0  0  0  0  0  0  0  0
  144.4006  133.3783  163.5941 H   0  0  0  0  0  0  0  0  0  0  0  0
  144.3440  133.0212  161.8827 H   0  0  0  0  0  0  0  0  0  0  0  0
  146.7175  134.0739  163.4855 H   0  0  0  0  0  0  0  0  0  0  0  0
  146.5987  132.5260  162.6965 H   0  0  0  0  0  0  0  0  0  0  0  0
  147.3188  130.0750  160.0317 H   0  0  0  0  0  0  0  0  0  0  0  0
  147.2388  135.3106  156.2809 H   0  0  0  0  0  0  0  0  0  0  0  0
  147.5094  131.5124  155.6940 H   0  0  0  0  0  0  0  0  0  0  0  0
  146.7238  132.8487  154.9154 H   0  0  0  0  0  0  0  0  0  0  0  0
  150.0691  132.2992  153.1103 H   0  0  0  0  0  0  0  0  0  0  0  0
  149.0834  131.0495  153.8149 H   0  0  0  0  0  0  0  0  0  0  0  0
  148.4238  132.1749  151.7604 H   0  0  0  0  0  0  0  0  0  0  0  0
  149.1756  134.7779  153.6023 H   0  0  0  0  0  0  0  0  0  0  0  0
  148.5199  135.1091  155.2419 H   0  0  0  0  0  0  0  0  0  0  0  0
  149.8989  133.1092  156.8126 H   0  0  0  0  0  0  0  0  0  0  0  0
  150.8959  132.3075  155.5505 H   0  0  0  0  0  0  0  0  0  0  0  0
  1  2  1  0  0  0  0
  1 27  1  0  0  0  0
  1 28  1  0  0  0  0
  1 29  1  0  0  0  0
  2  3  1  0  0  0  0
  2 30  1  0  0  0  0
  2 31  1  0  0  0  0
  3 10  1  0  0  0  0
  3  4  1  0  0  0  0
  3 32  1  0  0  0  0
  4  5  2  0  0  0  0
  4  6  1  0  0  0  0
  6  7  1  0  0  0  0
  6  8  1  0  0  0  0
  7 33  1  0  0  0  0
  7 34  1  0  0  0  0
  7 35  1  0  0  0  0
  8  9  1  0  0  0  0
  8 36  1  0  0  0  0
  8 37  1  0  0  0  0
  9 10  1  0  0  0  0
  9 38  1  0  0  0  0
  9 39  1  0  0  0  0
 10 11  1  0  0  0  0
 11 16  1  0  0  0  0
 11 12  2  0  0  0  0
 12 13  1  0  0  0  0
 13 14  2  0  0  0  0
 13 40  1  0  0  0  0
 14 15  1  0  0  0  0
 15 19  1  0  0  0  0
 15 16  2  0  0  0  0
 16 17  1  0  0  0  0
 17 18  2  0  0  0  0
 18 19  1  0  0  0  0
 18 41  1  0  0  0  0
 19 20  1  0  0  0  0
 20 21  1  0  0  0  0
 20 42  1  0  0  0  0
 20 43  1  0  0  0  0
 21 26  1  0  0  0  0
 21 22  1  0  0  0  0
 21 24  1  0  0  0  0
 22 23  1  0  0  0  0
 22 44  1  0  0  0  0
 22 45  1  0  0  0  0
 23 46  1  0  0  0  0
 24 25  1  0  0  0  0
 24 47  1  0  0  0  0
 24 48  1  0  0  0  0
 25 26  1  0  0  0  0
 26 49  1  0  0  0  0
 26 50  1  0  0  0  0
M  END
> <s_m_source_file>
AV-unprocessed.smi

> <i_m_source_file_index>
208

> <i_lp_mmshare_version>
43012

> <i_f3d_flags>
0

> <s_epik_input>
W0NIM11bQ0gyXVtDQEBIXTFDKD1PKU4oW0NIM10pW0NIMl1bQ0gyXU4xYyhuW2NIXW4yKWMoYzIzKW5bY0hdbjNbQ0gyXUM0KFtDSDJdW09IXSlbQ0gyXU9bQ0gyXTQ=

> <s_epik_cmdline>
J2VwaWtfcHl0aG9uJywgJy1waCcsICc3LjAnLCAnLXRuJywgJzgnLCAnLW1hJywgJzIwMCcsICctbWV0YWxfYmluZGluZycsICctaW1hZScsICc8aW5maWxlLm1hZT4nLCAnLW9tYWUnLCAnPG91dGZpbGUubWFlPic=

> <r_lp_tautomer_probability>
1

> <r_epik_Ionization_Penalty>
0.000581289

> <r_epik_Ionization_Penalty_Charging>
0

> <r_epik_Ionization_Penalty_Neutral>
0.000581289

> <r_epik_State_Penalty>
0.000280365

> <r_epik_Charging_Adjusted_Penalty>
0.000280365

> <i_epik_Tot_Q>
0

> <i_epik_Tot_abs_Q>
0

> <r_epik_Metal_State_Penalty>
-0

> <b_epik_Metal_Only>
0

> <s_lp_Force_Field>
OPLS_2005

> <r_lp_Energy>
41.1811

> <b_lp_Chiralities_Consistent>
1

> <s_lp_Variant>
AV-unprocessed.smi:208-1

> <Gold.Version>
5.8.1

> <Gold.Id.Protein>
6NUR|6NUR_protein|mol2

> <Gold.PLP.Fitness>
36.3649

> <Gold.PLP.PLP>
-33.4835

> <Gold.PLP.part.hbond>
-1.0000

> <Gold.PLP.part.metal>
0.0000

> <Gold.PLP.part.buried>
-3.1661

> <Gold.PLP.part.nonpolar>
-28.9906

> <Gold.PLP.part.repulsive>
0.0806

> <Gold.PLP.ligand.clash>
0.0000

> <Gold.PLP.ligand.torsion>
0.3847

> <Gold.PLP.Chemscore.Hbond>
1.0000

> <Gold.PLP.Chemscore.CHOScore>
0.0000

> <Gold.PLP.Chemscore.Metal>
0.0000

> <Gold.Chemscore.Hbonds>
donor molecule, donor type, donor heavy atom, donor atom, acceptor molecule, acceptor atom, score
      L1  H    23    46       P1 10747  0.96

> <Gold.PLP.Chemscore.Internal.Correction>
0.6508

> <Gold.Rescore>
     Score         DG    S(hbond)    S(metal)    S(lipo)     H(rot)  DE(clash)    DE(int)     intcor
     10.98     -12.80       1.86        0.00      63.29       2.46       0.16       1.66       ----

> <Gold.Chemscore.Fitness>
10.9847

> <Gold.Chemscore.DG>
-12.7988

> <Gold.Chemscore.ZeroCoef>
-5.4800

> <Gold.Chemscore.Hbond>
1.8595

> <Gold.Chemscore.Metal>
0.0000

> <Gold.Chemscore.Lipo>
63.2918

> <Gold.Chemscore.Internal_Hbond>
0.0000

> <Gold.Chemscore.DEClash>
0.1590

> <Gold.Chemscore.DEInternal>
1.6551

> <Gold.Chemscore.Rot>
2.4598

> <Gold.Chemscore.Internal.Correction>
   9.000000E+99

> <Gold.Chemscore.Hbonds>
donor molecule, donor type, donor heavy atom, donor atom, acceptor molecule, acceptor atom, score
      L1  H    23    46       P1 10747  0.86

> <Gold.Chemscore.Hbond.Weighted>
-6.2108

> <Gold.Chemscore.Metal.Weighted>
-0.0000

> <Gold.Chemscore.Lipo.Weighted>
-7.4051

> <Gold.Chemscore.Internal_Hbond.Weighted>
0.0000

> <Gold.Chemscore.DEClash.Weighted>
0.1590

> <Gold.Chemscore.DEInternal.Weighted>
1.6551

> <Gold.Chemscore.Rot.Weighted>
6.2972

> <Gold.Chemscore.Internal.Correction.Weighted>
   9.000000E+99

> <Gold.Protein.RotatedTorsions>
[ 6907 6896 6895 6894 ] final  165.59 input  -60.11 | X-H torsion
[ 7974 7965 7964 7962 ] final  -38.75 input  175.53 | X-H torsion
[ 8008 7997 7996 7995 ] final   31.37 input   59.86 | X-H torsion
[ 10167 10162 10161 10158 ] final  -88.51 input  -65.29 | X-H torsion
[ 10718 10713 10712 10709 ] final   43.91 input   66.30 | X-H torsion
[ 10763 10752 10751 10750 ] final   41.83 input  -60.55 | X-H torsion
[ 11005 11000 10999 10996 ] final  -12.91 input  -57.11 | X-H torsion

> <Gold.Protein.ActiveResidues>
 VAL166  LYS551  ARG553  GLY616  TRP617  ASP618  TYR619  PRO620  LYS621  CYS622 
 ASP623  PHE694  ASN695  SER759  ASP760  ASP761  ALA762  ILE779  LEU786  VAL792 
 PHE793  MET794  SER795  GLU796  ALA797  LYS798  CYS799  TRP800  GLU811  SER814 

> <Gold.Protein.RotatedAtoms>
  151.8920  133.3518  159.3801 H   0  0  0  0  0  0  0  0  0  0  0  0  # atno 6907 bound_to 6896
  150.7101  134.4914  159.5527 H   0  0  0  0  0  0  0  0  0  0  0  0  # atno 6908 bound_to 6896
  152.2486  134.8156  160.0500 H   0  0  0  0  0  0  0  0  0  0  0  0  # atno 6909 bound_to 6896
  146.0458  140.6547  142.9065 H   0  0  0  0  0  0  0  0  0  0  0  0  # atno 7974 bound_to 7965
  155.1054  140.3233  155.4536 H   0  0  0  0  0  0  0  0  0  0  0  0  # atno 8008 bound_to 7997
  156.2705  140.2053  156.6126 H   0  0  0  0  0  0  0  0  0  0  0  0  # atno 8009 bound_to 7997
  154.6797  140.0527  157.0240 H   0  0  0  0  0  0  0  0  0  0  0  0  # atno 8010 bound_to 7997
  140.3739  143.2781  151.9466 H   0  0  0  0  0  0  0  0  0  0  0  0  # atno 10167 bound_to 10162
  157.4210  130.7969  149.7515 H   0  0  0  0  0  0  0  0  0  0  0  0  # atno 10718 bound_to 10713
  152.9898  135.6150  154.2851 H   0  0  0  0  0  0  0  0  0  0  0  0  # atno 10763 bound_to 10752
  154.2579  135.2783  155.2792 H   0  0  0  0  0  0  0  0  0  0  0  0  # atno 10764 bound_to 10752
  154.5231  135.5809  153.6754 H   0  0  0  0  0  0  0  0  0  0  0  0  # atno 10765 bound_to 10752
  140.7706  133.8441  155.9204 H   0  0  0  0  0  0  0  0  0  0  0  0  # atno 11005 bound_to 11000
  144.7097  140.3992  143.7090 LP  0  0  0  0  0  0  0  0  0  0  0  0  # atno 17320 bound_to 7965
  145.6807  139.1618  143.2702 LP  0  0  0  0  0  0  0  0  0  0  0  0  # atno 17321 bound_to 7965
  139.4801  144.5881  151.7819 LP  0  0  0  0  0  0  0  0  0  0  0  0  # atno 17342 bound_to 10162
  140.5005  144.1176  150.5970 LP  0  0  0  0  0  0  0  0  0  0  0  0  # atno 17343 bound_to 10162
  155.9881  130.3962  150.3135 LP  0  0  0  0  0  0  0  0  0  0  0  0  # atno 17370 bound_to 10713
  157.1283  131.0265  151.2980 LP  0  0  0  0  0  0  0  0  0  0  0  0  # atno 17371 bound_to 10713
  140.9577  134.1696  157.4679 LP  0  0  0  0  0  0  0  0  0  0  0  0  # atno 17394 bound_to 11000
  139.8756  134.9933  156.5638 LP  0  0  0  0  0  0  0  0  0  0  0  0  # atno 17395 bound_to 11000

$$$$
