AV-unprocessed.smi:2804|AV-procd|sdf|10809|dock1
  -GOLD-   2272015243D 1   1.00000     0.00000
 Structure written by MMmdl.
 35 36  0  0  0  0  0  0  0  0  1 V2000
  156.3402  139.8894  160.7919 C   0  0  0  0  0  0  0  0  0  0  0  0
  155.3021  140.7190  160.0299 C   0  0  0  0  0  0  0  0  0  0  0  0
  153.8650  140.2364  160.2809 C   0  0  0  0  0  0  0  0  0  0  0  0
  152.9019  141.0357  159.5283 N   0  0  0  0  0  0  0  0  0  0  0  0
  152.3132  140.6981  158.3572 C   0  0  0  0  0  0  0  0  0  0  0  0
  152.4815  139.6473  157.7385 O   0  0  0  0  0  0  0  0  0  0  0  0
  151.5199  141.7260  157.9734 N   0  0  0  0  0  0  0  0  0  0  0  0
  150.7147  141.7920  156.7545 C   0  0  0  0  0  0  0  0  0  0  0  0
  150.2647  140.3905  156.2907 C   0  0  2  0  0  0  0  0  0  0  0  0
  151.1642  139.9379  155.2972 O   0  0  0  0  0  0  0  0  0  0  0  0
  148.8474  140.3916  155.6851 C   0  0  0  0  0  0  0  0  0  0  0  0
  148.7524  141.3265  154.7392 F   0  0  0  0  0  0  0  0  0  0  0  0
  148.6019  139.2099  155.1193 F   0  0  0  0  0  0  0  0  0  0  0  0
  147.9286  140.6132  156.6259 F   0  0  0  0  0  0  0  0  0  0  0  0
  151.6174  142.7587  158.9176 C   0  0  0  0  0  0  0  0  0  0  0  0
  151.0159  144.0286  158.9688 C   0  0  0  0  0  0  0  0  0  0  0  0
  151.3388  144.8533  160.0720 C   0  0  0  0  0  0  0  0  0  0  0  0
  152.2358  144.4060  161.0767 C   0  0  0  0  0  0  0  0  0  0  0  0
  152.8283  143.1238  161.0000 C   0  0  0  0  0  0  0  0  0  0  0  0
  152.4885  142.3242  159.8949 C   0  0  0  0  0  0  0  0  0  0  0  0
  157.3483  140.2566  160.5987 H   0  0  0  0  0  0  0  0  0  0  0  0
  156.3038  138.8419  160.4915 H   0  0  0  0  0  0  0  0  0  0  0  0
  156.1688  139.9372  161.8677 H   0  0  0  0  0  0  0  0  0  0  0  0
  155.3952  141.7652  160.3235 H   0  0  0  0  0  0  0  0  0  0  0  0
  155.5235  140.6772  158.9628 H   0  0  0  0  0  0  0  0  0  0  0  0
  153.7695  139.1853  160.0036 H   0  0  0  0  0  0  0  0  0  0  0  0
  153.6283  140.2906  161.3440 H   0  0  0  0  0  0  0  0  0  0  0  0
  149.8394  142.4056  156.9719 H   0  0  0  0  0  0  0  0  0  0  0  0
  151.2474  142.3166  155.9607 H   0  0  0  0  0  0  0  0  0  0  0  0
  150.2865  139.6887  157.1255 H   0  0  0  0  0  0  0  0  0  0  0  0
  152.0270  139.8815  155.6787 H   0  0  0  0  0  0  0  0  0  0  0  0
  150.3383  144.3681  158.1997 H   0  0  0  0  0  0  0  0  0  0  0  0
  150.8994  145.8368  160.1489 H   0  0  0  0  0  0  0  0  0  0  0  0
  152.4708  145.0530  161.9089 H   0  0  0  0  0  0  0  0  0  0  0  0
  153.5148  142.7795  161.7593 H   0  0  0  0  0  0  0  0  0  0  0  0
  1  2  1  0  0  0  0
  1 21  1  0  0  0  0
  1 22  1  0  0  0  0
  1 23  1  0  0  0  0
  2  3  1  0  0  0  0
  2 24  1  0  0  0  0
  2 25  1  0  0  0  0
  3  4  1  0  0  0  0
  3 26  1  0  0  0  0
  3 27  1  0  0  0  0
  4 20  1  0  0  0  0
  4  5  1  0  0  0  0
  5  6  2  0  0  0  0
  5  7  1  0  0  0  0
  7  8  1  0  0  0  0
  7 15  1  0  0  0  0
  8  9  1  0  0  0  0
  8 28  1  0  0  0  0
  8 29  1  0  0  0  0
  9 10  1  0  0  0  0
  9 11  1  0  0  0  0
  9 30  1  0  0  0  0
 10 31  1  0  0  0  0
 11 12  1  0  0  0  0
 11 13  1  0  0  0  0
 11 14  1  0  0  0  0
 15 20  2  0  0  0  0
 15 16  1  0  0  0  0
 16 17  2  0  0  0  0
 16 32  1  0  0  0  0
 17 18  1  0  0  0  0
 17 33  1  0  0  0  0
 18 19  2  0  0  0  0
 18 34  1  0  0  0  0
 19 20  1  0  0  0  0
 19 35  1  0  0  0  0
M  END
> <s_m_source_file>
AV-unprocessed.smi

> <i_m_source_file_index>
2804

> <i_lp_mmshare_version>
43012

> <i_f3d_flags>
0

> <s_epik_input>
W2NIXTFbY0hdW2NIXVtjSF1jKGMxMiluKFtDSDJdW0NIMl1bQ0gzXSljKD1PKW4yW0NIMl1bQ0BIXShbT0hdKUMoRikoRilG

> <s_epik_cmdline>
J2VwaWtfcHl0aG9uJywgJy1waCcsICc3LjAnLCAnLXRuJywgJzgnLCAnLW1hJywgJzIwMCcsICctbWV0YWxfYmluZGluZycsICctaW1hZScsICc8aW5maWxlLm1hZT4nLCAnLW9tYWUnLCAnPG91dGZpbGUubWFlPic=

> <r_epik_Ionization_Penalty>
0.0117937

> <r_epik_Ionization_Penalty_Charging>
3.30828e-09

> <r_epik_Ionization_Penalty_Neutral>
0.0117937

> <r_epik_State_Penalty>
0.00909547

> <r_epik_Charging_Adjusted_Penalty>
0.00909547

> <i_epik_Tot_Q>
0

> <i_epik_Tot_abs_Q>
0

> <r_epik_Metal_State_Penalty>
0.00909547

> <b_epik_Metal_Only>
0

> <s_lp_Force_Field>
OPLS_2005

> <r_lp_Energy>
41.5992

> <b_lp_Chiralities_Consistent>
1

> <s_lp_Variant>
AV-unprocessed.smi:2804-1

> <Gold.Version>
5.8.1

> <Gold.Id.Protein>
6NUR|6NUR_protein|mol2

> <Gold.PLP.Fitness>
49.6013

> <Gold.PLP.PLP>
-46.0311

> <Gold.PLP.part.hbond>
-2.0000

> <Gold.PLP.part.metal>
0.0000

> <Gold.PLP.part.buried>
-4.7004

> <Gold.PLP.part.nonpolar>
-38.1369

> <Gold.PLP.part.repulsive>
0.0000

> <Gold.PLP.ligand.clash>
0.0000

> <Gold.PLP.ligand.torsion>
1.2493

> <Gold.PLP.Chemscore.Hbond>
2.0000

> <Gold.PLP.Chemscore.CHOScore>
0.0000

> <Gold.PLP.Chemscore.Metal>
0.0000

> <Gold.Chemscore.Hbonds>
donor molecule, donor type, donor heavy atom, donor atom, acceptor molecule, acceptor atom, score
      P1  H  7989  7998       L1    10  0.83
      P1  H  7997  8009       L1     6  0.42

> <Gold.PLP.Chemscore.Internal.Correction>
0.0687

> <Gold.Rescore>
     Score         DG    S(hbond)    S(metal)    S(lipo)     H(rot)  DE(clash)    DE(int)     intcor
     15.35     -18.06       1.80        0.00     106.92       2.32       0.72       1.99       ----

> <Gold.Chemscore.Fitness>
15.3548

> <Gold.Chemscore.DG>
-18.0605

> <Gold.Chemscore.ZeroCoef>
-5.4800

> <Gold.Chemscore.Hbond>
1.7956

> <Gold.Chemscore.Metal>
0.0000

> <Gold.Chemscore.Lipo>
106.9236

> <Gold.Chemscore.Internal_Hbond>
0.0000

> <Gold.Chemscore.DEClash>
0.7195

> <Gold.Chemscore.DEInternal>
1.9863

> <Gold.Chemscore.Rot>
2.3152

> <Gold.Chemscore.Internal.Correction>
   9.000000E+99

> <Gold.Chemscore.Hbonds>
donor molecule, donor type, donor heavy atom, donor atom, acceptor molecule, acceptor atom, score
      P1  H  7989  7998       L1    10  0.18
      P1  H  7997  8009       L1     6  0.15

> <Gold.Chemscore.Hbond.Weighted>
-5.9973

> <Gold.Chemscore.Metal.Weighted>
-0.0000

> <Gold.Chemscore.Lipo.Weighted>
-12.5101

> <Gold.Chemscore.Internal_Hbond.Weighted>
0.0000

> <Gold.Chemscore.DEClash.Weighted>
0.7195

> <Gold.Chemscore.DEInternal.Weighted>
1.9863

> <Gold.Chemscore.Rot.Weighted>
5.9268

> <Gold.Chemscore.Internal.Correction.Weighted>
   9.000000E+99

> <Gold.Protein.RotatedTorsions>
[ 6907 6896 6895 6894 ] final -167.07 input  -60.11 | X-H torsion
[ 7974 7965 7964 7962 ] final -153.74 input  175.53 | X-H torsion
[ 8008 7997 7996 7995 ] final -173.98 input   59.86 | X-H torsion
[ 10167 10162 10161 10158 ] final    3.62 input  -65.29 | X-H torsion
[ 10718 10713 10712 10709 ] final -116.91 input   66.30 | X-H torsion
[ 10763 10752 10751 10750 ] final   42.71 input  -60.55 | X-H torsion
[ 11005 11000 10999 10996 ] final -170.25 input  -57.11 | X-H torsion

> <Gold.Protein.ActiveResidues>
 VAL166  LYS551  ARG553  GLY616  TRP617  ASP618  TYR619  PRO620  LYS621  CYS622 
 ASP623  PHE694  ASN695  SER759  ASP760  ASP761  ALA762  ILE779  LEU786  VAL792 
 PHE793  MET794  SER795  GLU796  ALA797  LYS798  CYS799  TRP800  GLU811  SER814 

> <Gold.Protein.RotatedAtoms>
  151.4537  133.3610  159.2798 H   0  0  0  0  0  0  0  0  0  0  0  0  # atno 6907 bound_to 6896
  150.9073  134.8490  159.7412 H   0  0  0  0  0  0  0  0  0  0  0  0  # atno 6908 bound_to 6896
  152.4913  134.4463  159.9612 H   0  0  0  0  0  0  0  0  0  0  0  0  # atno 6909 bound_to 6896
  144.7725  140.4484  143.5897 H   0  0  0  0  0  0  0  0  0  0  0  0  # atno 7974 bound_to 7965
  155.9643  140.1150  157.0868 H   0  0  0  0  0  0  0  0  0  0  0  0  # atno 8008 bound_to 7997
  154.4140  140.1176  156.5288 H   0  0  0  0  0  0  0  0  0  0  0  0  # atno 8009 bound_to 7997
  155.6680  140.3473  155.4810 H   0  0  0  0  0  0  0  0  0  0  0  0  # atno 8010 bound_to 7997
  140.6576  143.7387  150.7681 H   0  0  0  0  0  0  0  0  0  0  0  0  # atno 10167 bound_to 10162
  156.0997  130.6161  150.9097 H   0  0  0  0  0  0  0  0  0  0  0  0  # atno 10718 bound_to 10713
  152.9877  135.6123  154.2993 H   0  0  0  0  0  0  0  0  0  0  0  0  # atno 10763 bound_to 10752
  154.2714  135.2779  155.2738 H   0  0  0  0  0  0  0  0  0  0  0  0  # atno 10764 bound_to 10752
  154.5119  135.5839  153.6668 H   0  0  0  0  0  0  0  0  0  0  0  0  # atno 10765 bound_to 10752
  140.5216  134.5703  157.5049 H   0  0  0  0  0  0  0  0  0  0  0  0  # atno 11005 bound_to 11000
  145.6283  139.1533  143.2984 LP  0  0  0  0  0  0  0  0  0  0  0  0  # atno 17320 bound_to 7965
  146.1881  140.6388  142.9158 LP  0  0  0  0  0  0  0  0  0  0  0  0  # atno 17321 bound_to 7965
  140.1049  143.4753  152.2404 LP  0  0  0  0  0  0  0  0  0  0  0  0  # atno 17342 bound_to 10162
  139.5802  144.7507  151.3659 LP  0  0  0  0  0  0  0  0  0  0  0  0  # atno 17343 bound_to 10162
  157.6165  131.0933  150.8702 LP  0  0  0  0  0  0  0  0  0  0  0  0  # atno 17370 bound_to 10713
  156.8832  130.5187  149.5290 LP  0  0  0  0  0  0  0  0  0  0  0  0  # atno 17371 bound_to 10713
  139.9603  134.7465  156.0252 LP  0  0  0  0  0  0  0  0  0  0  0  0  # atno 17394 bound_to 11000
  141.1331  133.6581  156.3518 LP  0  0  0  0  0  0  0  0  0  0  0  0  # atno 17395 bound_to 11000

$$$$
