#       Name:                AV-unprocessed.smi:1974
#       Creating user name   scv26
#       Creation time:       Fri Mar 27 10:16:00 2020


#       File generated by GOLD software.
#

@<TRIPOS>MOLECULE
AV-unprocessed.smi:1974
    39    40     1
SMALL
NO_CHARGES


@<TRIPOS>ATOM
      1 ****        -2.8206  -1.0616   1.0050 C.3            1 S1                 0.0000
      2 ****        -2.0962  -0.3231  -0.1314 C.3            1 S1                 0.0000
      3 ****        -2.6489  -0.7330  -1.5103 C.3            1 S1                 0.0000
      4 ****        -2.0970   0.0655  -2.5904 N.pl3          1 S1                 0.0000
      5 ****        -1.1279  -0.2844  -3.5072 C.2            1 S1                 0.0000
      6 ****        -0.9371   0.7910  -4.3268 C.2            1 S1                 0.0000
      7 ****        -1.8487   1.7626  -3.8270 C.2            1 S1                 0.0000
      8 ****        -2.5421   1.3251  -2.7884 N.2            1 S1                 0.0000
      9 ****        -0.6616  -0.5956  -0.0653 N.am           1 S1                 0.0000
     10 ****         0.2219   0.0661   0.6971 C.2            1 S1                 0.0000
     11 ****        -0.0864   1.0087   1.4274 O.2            1 S1                 0.0000
     12 ****         1.6788  -0.4015   0.5989 C.3            1 S1                 0.0000
     13 ****         2.4197  -0.1980   1.8441 N.am           1 S1                 0.0000
     14 ****         3.3779   0.8960   1.9317 C.3            1 S1                 0.0000
     15 ****         3.6956   1.1214   3.4112 C.3            1 S1                 0.0000
     16 ****         3.3455  -0.4173   4.2852 S.3            1 S1                 0.0000
     17 ****         2.3103  -1.0287   2.9515 C.2            1 S1                 0.0000
     18 ****         1.6238  -2.0429   3.0638 O.2            1 S1                 0.0000
     19 ****        -3.8918  -0.8601   0.9820 H              1 S1                 0.0000
     20 ****        -2.4507  -0.7470   1.9815 H              1 S1                 0.0000
     21 ****        -2.6830  -2.1407   0.9285 H              1 S1                 0.0000
     22 ****        -2.2668   0.7475  -0.0010 H              1 S1                 0.0000
     23 ****        -2.4413  -1.7852  -1.7103 H              1 S1                 0.0000
     24 ****        -3.7341  -0.6221  -1.5292 H              1 S1                 0.0000
     25 ****        -0.6591  -1.2574  -3.4985 H              1 S1                 0.0000
     26 ****        -0.2515   0.8717  -5.1574 H              1 S1                 0.0000
     27 ****        -2.0263   2.7657  -4.1858 H              1 S1                 0.0000
     28 ****        -0.3164  -1.3514  -0.6389 H              1 S1                 0.0000
     29 ****         1.7131  -1.4582   0.3269 H              1 S1                 0.0000
     30 ****         2.1629   0.1413  -0.2139 H              1 S1                 0.0000
     31 ****         4.2798   0.6082   1.3898 H              1 S1                 0.0000
     32 ****         2.9884   1.8040   1.4696 H              1 S1                 0.0000
     33 ****         4.7265   1.4393   3.5687 H              1 S1                 0.0000
     34 ****         3.0427   1.8943   3.8181 H              1 S1                 0.0000
     35 ****        -3.2394   1.8169  -2.2670 LP             1 S1                 0.0000
     36 ****        -1.0369   1.3161   1.4726 LP             1 S1                 0.0000
     37 ****         0.6138   1.4666   1.9752 LP             1 S1                 0.0000
     38 ****         1.0586  -2.3513   2.2987 LP             1 S1                 0.0000
     39 ****         1.6309  -2.5591   3.9202 LP             1 S1                 0.0000
@<TRIPOS>BOND
    1    1    2 1     
    2    1   19 1     
    3    1   20 1     
    4    1   21 1     
    5    2    3 1     
    6    2    9 1     
    7    2   22 1     
    8    3    4 1     
    9    3   23 1     
   10    3   24 1     
   11    4    8 1     
   12    4    5 1     
   13    5    6 2     
   14    5   25 1     
   15    6    7 1     
   16    6   26 1     
   17    7    8 2     
   18    7   27 1     
   19    9   10 am    
   20    9   28 1     
   21   10   11 2     
   22   10   12 1     
   23   12   13 1     
   24   12   29 1     
   25   12   30 1     
   26   13   17 am    
   27   13   14 1     
   28   14   15 1     
   29   14   31 1     
   30   14   32 1     
   31   15   16 1     
   32   15   33 1     
   33   15   34 1     
   34   16   17 1     
   35   17   18 2     
   36    8   35 1     
   37   11   36 1     
   38   11   37 1     
   39   18   38 1     
   40   18   39 1     
@<TRIPOS>SUBSTRUCTURE
      1 S1             1
@<TRIPOS>SET
LONE_PAIRS      STATIC     ATOMS    <user>   **** ""
5 35 36 37 38 39
DONOR_HYDROGENS      STATIC     ATOMS    <user>   **** ""
1 28
ATOM$BLUE        STATIC     ATOMS    COLORGROUP SYSTEM
5 35 36 37 38 39
ATOM$RED        STATIC     ATOMS    COLORGROUP SYSTEM
1 28
