AV-unprocessed.smi:2807|AV-procd|sdf|10823|dock1
  -GOLD-   2272015263D 1   1.00000     0.00000
 Structure written by MMmdl.
 31 32  0  0  0  0  0  0  0  0  2 V2000
  151.3083  140.3155  155.1760 O   0  0  0  0  0  0  0  0  0  0  0  0
  150.7051  140.9302  156.0638 C   0  0  0  0  0  0  0  0  0  0  0  0
  149.5883  141.7089  155.9814 N   0  5  0  0  0  0  0  0  0  0  0  0
  148.3079  141.2498  155.4463 C   0  0  1  0  0  0  0  0  0  0  0  0
  147.2170  142.3190  155.5916 C   0  0  0  0  0  0  0  0  0  0  0  0
  146.1940  142.0162  154.4855 C   0  0  0  0  0  0  0  0  0  0  0  0
  146.9054  141.1049  153.4713 C   0  0  0  0  0  0  0  0  0  0  0  0
  148.3696  141.0355  153.9288 C   0  0  2  0  0  0  0  0  0  0  0  0
  148.9633  139.7991  153.5889 O   0  0  0  0  0  0  0  0  0  0  0  0
  151.2229  140.8247  157.5139 C   0  0  0  0  0  0  0  0  0  0  0  0
  150.2404  140.3650  158.2929 F   0  0  0  0  0  0  0  0  0  0  0  0
  152.2246  139.9404  157.5677 F   0  0  0  0  0  0  0  0  0  0  0  0
  151.6572  142.1940  158.0361 C   0  0  0  0  0  0  0  0  0  0  0  0
  152.1564  142.3348  159.3513 C   0  0  0  0  0  0  0  0  0  0  0  0
  152.5217  143.6171  159.8028 C   0  0  0  0  0  0  0  0  0  0  0  0
  152.3797  144.7104  158.9276 C   0  0  0  0  0  0  0  0  0  0  0  0
  151.8773  144.4700  157.6336 C   0  0  0  0  0  0  0  0  0  0  0  0
  151.5251  143.2447  157.1909 N   0  0  0  0  0  0  0  0  0  0  0  0
  147.9591  140.3282  155.9175 H   0  0  0  0  0  0  0  0  0  0  0  0
  146.7669  142.3187  156.5848 H   0  0  0  0  0  0  0  0  0  0  0  0
  147.6368  143.3129  155.4243 H   0  0  0  0  0  0  0  0  0  0  0  0
  145.3164  141.5121  154.8934 H   0  0  0  0  0  0  0  0  0  0  0  0
  145.8466  142.9387  154.0185 H   0  0  0  0  0  0  0  0  0  0  0  0
  146.4415  140.1160  153.4851 H   0  0  0  0  0  0  0  0  0  0  0  0
  146.8219  141.4823  152.4513 H   0  0  0  0  0  0  0  0  0  0  0  0
  148.9288  141.8441  153.4543 H   0  0  0  0  0  0  0  0  0  0  0  0
  149.1096  139.7918  152.6556 H   0  0  0  0  0  0  0  0  0  0  0  0
  152.2445  141.4778  160.0028 H   0  0  0  0  0  0  0  0  0  0  0  0
  152.9008  143.7596  160.8038 H   0  0  0  0  0  0  0  0  0  0  0  0
  152.6472  145.7087  159.2402 H   0  0  0  0  0  0  0  0  0  0  0  0
  151.7553  145.2843  156.9350 H   0  0  0  0  0  0  0  0  0  0  0  0
  1  2  2  0  0  0  0
  2  3  1  0  0  0  0
  2 10  1  0  0  0  0
  3  4  1  0  0  0  0
  4  8  1  0  0  0  0
  4  5  1  0  0  0  0
  4 19  1  0  0  0  0
  5  6  1  0  0  0  0
  5 20  1  0  0  0  0
  5 21  1  0  0  0  0
  6  7  1  0  0  0  0
  6 22  1  0  0  0  0
  6 23  1  0  0  0  0
  7  8  1  0  0  0  0
  7 24  1  0  0  0  0
  7 25  1  0  0  0  0
  8  9  1  0  0  0  0
  8 26  1  0  0  0  0
  9 27  1  0  0  0  0
 10 11  1  0  0  0  0
 10 12  1  0  0  0  0
 10 13  1  0  0  0  0
 13 18  1  0  0  0  0
 13 14  2  0  0  0  0
 14 15  1  0  0  0  0
 14 28  1  0  0  0  0
 15 16  2  0  0  0  0
 15 29  1  0  0  0  0
 16 17  1  0  0  0  0
 16 30  1  0  0  0  0
 17 18  2  0  0  0  0
 17 31  1  0  0  0  0
M  CHG  1   3  -1
M  END
> <s_m_source_file>
AV-unprocessed.smi

> <i_m_source_file_index>
2807

> <i_lp_mmshare_version>
43012

> <i_f3d_flags>
0

> <s_epik_input>
bjFbY0hdW2NIXVtjSF1bY0hdYzFDKEYpKEYpQyg9TylbTkhdW0NAQEhdMltDSDJdW0NIMl1bQ0gyXVtDQEhdMltPSF0=

> <s_epik_cmdline>
J2VwaWtfcHl0aG9uJywgJy1waCcsICc3LjAnLCAnLXRuJywgJzgnLCAnLW1hJywgJzIwMCcsICctbWV0YWxfYmluZGluZycsICctaW1hZScsICc8aW5maWxlLm1hZT4nLCAnLW9tYWUnLCAnPG91dGZpbGUubWFlPic=

> <r_lp_tautomer_probability>
1

> <r_epik_Ionization_Penalty>
5.72231

> <r_epik_Ionization_Penalty_Charging>
5.72231

> <r_epik_Ionization_Penalty_Neutral>
5.49816e-06

> <r_epik_State_Penalty>
5.72227

> <r_epik_Charging_Adjusted_Penalty>
11.4446

> <i_epik_Tot_Q>
-1

> <i_epik_Tot_abs_Q>
1

> <r_epik_Metal_State_Penalty>
1.70075

> <b_epik_Metal_Only>
1

> <s_lp_Force_Field>
OPLS_2005

> <r_lp_Energy>
34.2298

> <b_lp_Chiralities_Consistent>
1

> <s_lp_Variant>
AV-unprocessed.smi:2807-8

> <Gold.Version>
5.8.1

> <Gold.Id.Protein>
6NUR|6NUR_protein|mol2

> <Gold.PLP.Fitness>
42.6068

> <Gold.PLP.PLP>
-37.8170

> <Gold.PLP.part.hbond>
-1.7947

> <Gold.PLP.part.metal>
0.0000

> <Gold.PLP.part.buried>
-2.8114

> <Gold.PLP.part.nonpolar>
-33.8005

> <Gold.PLP.part.repulsive>
0.3060

> <Gold.PLP.ligand.clash>
0.0000

> <Gold.PLP.ligand.torsion>
0.6564

> <Gold.PLP.Chemscore.Hbond>
2.0000

> <Gold.PLP.Chemscore.CHOScore>
0.0000

> <Gold.PLP.Chemscore.Metal>
0.0000

> <Gold.Chemscore.Hbonds>
donor molecule, donor type, donor heavy atom, donor atom, acceptor molecule, acceptor atom, score
      L1  H     9    27       P1  7957  1.00
      P1  H  7989  7998       L1     1  1.00

> <Gold.PLP.Chemscore.Internal.Correction>
0.1026

> <Gold.Rescore>
     Score         DG    S(hbond)    S(metal)    S(lipo)     H(rot)  DE(clash)    DE(int)     intcor
     15.36     -17.61       1.94        0.00      91.86       2.00       0.04       2.20       ----

> <Gold.Chemscore.Fitness>
15.3620

> <Gold.Chemscore.DG>
-17.6097

> <Gold.Chemscore.ZeroCoef>
-5.4800

> <Gold.Chemscore.Hbond>
1.9442

> <Gold.Chemscore.Metal>
0.0000

> <Gold.Chemscore.Lipo>
91.8552

> <Gold.Chemscore.Internal_Hbond>
0.0000

> <Gold.Chemscore.DEClash>
0.0440

> <Gold.Chemscore.DEInternal>
2.2037

> <Gold.Chemscore.Rot>
1.9964

> <Gold.Chemscore.Internal.Correction>
   9.000000E+99

> <Gold.Chemscore.Hbonds>
donor molecule, donor type, donor heavy atom, donor atom, acceptor molecule, acceptor atom, score
      L1  H     9    27       P1  7957  0.98
      P1  H  7989  7998       L1     1  0.95

> <Gold.Chemscore.Hbond.Weighted>
-6.4935

> <Gold.Chemscore.Metal.Weighted>
-0.0000

> <Gold.Chemscore.Lipo.Weighted>
-10.7471

> <Gold.Chemscore.Internal_Hbond.Weighted>
0.0000

> <Gold.Chemscore.DEClash.Weighted>
0.0440

> <Gold.Chemscore.DEInternal.Weighted>
2.2037

> <Gold.Chemscore.Rot.Weighted>
5.1108

> <Gold.Chemscore.Internal.Correction.Weighted>
   9.000000E+99

> <Gold.Protein.RotatedTorsions>
[ 6907 6896 6895 6894 ] final  -51.33 input  -60.11 | X-H torsion
[ 7974 7965 7964 7962 ] final   51.48 input  175.53 | X-H torsion
[ 8008 7997 7996 7995 ] final  -15.33 input   59.86 | X-H torsion
[ 10167 10162 10161 10158 ] final  -35.08 input  -65.29 | X-H torsion
[ 10718 10713 10712 10709 ] final    7.60 input   66.30 | X-H torsion
[ 10763 10752 10751 10750 ] final -140.40 input  -60.55 | X-H torsion
[ 11005 11000 10999 10996 ] final   14.54 input  -57.11 | X-H torsion

> <Gold.Protein.ActiveResidues>
 VAL166  LYS551  ARG553  GLY616  TRP617  ASP618  TYR619  PRO620  LYS621  CYS622 
 ASP623  PHE694  ASN695  SER759  ASP760  ASP761  ALA762  ILE779  LEU786  VAL792 
 PHE793  MET794  SER795  GLU796  ALA797  LYS798  CYS799  TRP800  GLU811  SER814 

> <Gold.Protein.RotatedAtoms>
  150.8622  134.7977  159.7091 H   0  0  0  0  0  0  0  0  0  0  0  0  # atno 6907 bound_to 6896
  152.4655  134.5081  159.9755 H   0  0  0  0  0  0  0  0  0  0  0  0  # atno 6908 bound_to 6896
  151.5183  133.3433  159.2932 H   0  0  0  0  0  0  0  0  0  0  0  0  # atno 6909 bound_to 6896
  145.9909  139.4338  143.0074 H   0  0  0  0  0  0  0  0  0  0  0  0  # atno 7974 bound_to 7965
  154.5139  140.2199  155.9103 H   0  0  0  0  0  0  0  0  0  0  0  0  # atno 8008 bound_to 7997
  156.1584  140.3147  155.8732 H   0  0  0  0  0  0  0  0  0  0  0  0  # atno 8009 bound_to 7997
  155.3800  140.0472  157.3034 H   0  0  0  0  0  0  0  0  0  0  0  0  # atno 8010 bound_to 7997
  140.7172  143.3502  151.2171 H   0  0  0  0  0  0  0  0  0  0  0  0  # atno 10167 bound_to 10162
  156.9393  130.5855  149.5652 H   0  0  0  0  0  0  0  0  0  0  0  0  # atno 10718 bound_to 10713
  154.8580  135.3554  154.5701 H   0  0  0  0  0  0  0  0  0  0  0  0  # atno 10763 bound_to 10752
  153.6314  135.7002  153.5279 H   0  0  0  0  0  0  0  0  0  0  0  0  # atno 10764 bound_to 10752
  153.3046  135.4196  155.1242 H   0  0  0  0  0  0  0  0  0  0  0  0  # atno 10765 bound_to 10752
  140.4683  134.1056  155.7728 H   0  0  0  0  0  0  0  0  0  0  0  0  # atno 11005 bound_to 11000
  145.7632  140.9927  143.1189 LP  0  0  0  0  0  0  0  0  0  0  0  0  # atno 17320 bound_to 7965
  144.6888  139.9355  143.7473 LP  0  0  0  0  0  0  0  0  0  0  0  0  # atno 17321 bound_to 7965
  139.7031  143.9499  152.2915 LP  0  0  0  0  0  0  0  0  0  0  0  0  # atno 17342 bound_to 10162
  139.9199  144.6806  150.8472 LP  0  0  0  0  0  0  0  0  0  0  0  0  # atno 17343 bound_to 10162
  156.0412  130.5494  150.8774 LP  0  0  0  0  0  0  0  0  0  0  0  0  # atno 17370 bound_to 10713
  157.5796  131.0946  150.9292 LP  0  0  0  0  0  0  0  0  0  0  0  0  # atno 17371 bound_to 10713
  141.1589  133.8831  157.1903 LP  0  0  0  0  0  0  0  0  0  0  0  0  # atno 17394 bound_to 11000
  139.9901  135.0068  156.9955 LP  0  0  0  0  0  0  0  0  0  0  0  0  # atno 17395 bound_to 11000

$$$$
