#       Name:                AV-unprocessed.smi:1978
#       Creating user name   scv26
#       Creation time:       Fri Mar 27 10:20:07 2020


#       File generated by GOLD software.
#

@<TRIPOS>MOLECULE
AV-unprocessed.smi:1978
    50    51     1
SMALL
NO_CHARGES


@<TRIPOS>ATOM
      1 ****        -5.6758   6.0602   0.8817 C.3            1 S1                 0.0000
      2 ****        -4.9107   4.7916   0.7226 C.2            1 S1                 0.0000
      3 ****        -3.8588   4.4344  -0.0729 C.2            1 S1                 0.0000
      4 ****        -3.6277   3.0805   0.2889 C.2            1 S1                 0.0000
      5 ****        -2.5890   2.3346  -0.3278 N.am           1 S1                 0.0000
      6 ****        -2.1986   1.0708  -0.0814 C.2            1 S1                 0.0000
      7 ****        -2.7707   0.3971   0.7838 O.2            1 S1                 0.0000
      8 ****        -1.1522   0.6932  -0.8667 N.pl3          1 S1                -1.0000
      9 ****        -0.5091  -0.6217  -0.8326 C.3            1 S1                 0.0000
     10 ****         0.8458  -0.5619  -0.0703 C.3            1 S1                 0.0000
     11 ****         0.7219  -0.2423   1.4416 C.3            1 S1                 0.0000
     12 ****         1.6613  -1.7978  -0.3366 N.4            1 S1                 1.0000
     13 ****         1.3220  -2.9592   0.5477 C.3            1 S1                 0.0000
     14 ****         1.9696  -4.2580   0.0531 C.3            1 S1                 0.0000
     15 ****         3.4888  -4.0996  -0.0008 C.3            1 S1                 0.0000
     16 ****         3.8446  -2.8996  -0.8822 C.3            1 S1                 0.0000
     17 ****         3.1490  -1.5962  -0.4237 C.3            1 S1                 0.0000
     18 ****         3.5744  -0.4681  -1.3893 C.3            1 S1                 0.0000
     19 ****        -4.4665   2.6499   1.2199 N.2            1 S1                 0.0000
     20 ****        -5.2932   3.7440   1.5019 O.3            1 S1                 0.0000
     21 ****        -5.1778   6.8815   0.3660 H              1 S1                 0.0000
     22 ****        -5.7663   6.3283   1.9344 H              1 S1                 0.0000
     23 ****        -6.6795   5.9593   0.4692 H              1 S1                 0.0000
     24 ****        -3.3376   5.0450  -0.7948 H              1 S1                 0.0000
     25 ****        -2.0688   2.8217  -1.0422 H              1 S1                 0.0000
     26 ****        -1.1402  -1.3935  -0.3903 H              1 S1                 0.0000
     27 ****        -0.3128  -0.9677  -1.8482 H              1 S1                 0.0000
     28 ****         1.3520   0.2922  -0.5086 H              1 S1                 0.0000
     29 ****         0.2902   0.7452   1.6131 H              1 S1                 0.0000
     30 ****         1.7026  -0.2347   1.9174 H              1 S1                 0.0000
     31 ****         0.1009  -0.9614   1.9783 H              1 S1                 0.0000
     32 ****         1.6563  -2.7604   1.5668 H              1 S1                 0.0000
     33 ****         0.2440  -3.1119   0.5984 H              1 S1                 0.0000
     34 ****         1.7049  -5.0829   0.7153 H              1 S1                 0.0000
     35 ****         1.5833  -4.5142  -0.9344 H              1 S1                 0.0000
     36 ****         3.8856  -3.9542   1.0048 H              1 S1                 0.0000
     37 ****         3.9498  -5.0062  -0.3936 H              1 S1                 0.0000
     38 ****         4.9271  -2.7669  -0.8799 H              1 S1                 0.0000
     39 ****         3.5663  -3.1188  -1.9143 H              1 S1                 0.0000
     40 ****         3.5144  -1.3447   0.5732 H              1 S1                 0.0000
     41 ****         4.6453  -0.5089  -1.5903 H              1 S1                 0.0000
     42 ****         3.3914   0.5247  -0.9799 H              1 S1                 0.0000
     43 ****         3.0594  -0.5476  -2.3474 H              1 S1                 0.0000
     44 ****         1.3865  -2.0742  -1.2685 H              1 S1                 0.0000
     45 ****        -3.5280   0.7911   1.3047 LP             1 S1                 0.0000
     46 ****        -2.4761  -0.5417   0.9624 LP             1 S1                 0.0000
     47 ****        -0.7959   1.3650  -1.5161 LP             1 S1                 0.0000
     48 ****        -4.5015   1.7395   1.6322 LP             1 S1                 0.0000
     49 ****        -6.2444   3.5069   1.3040 LP             1 S1                 0.0000
     50 ****        -5.2054   3.9924   2.4665 LP             1 S1                 0.0000
@<TRIPOS>BOND
    1    1    2 1     
    2    1   21 1     
    3    1   22 1     
    4    1   23 1     
    5    2   20 1     
    6    2    3 2     
    7    3    4 1     
    8    3   24 1     
    9    4    5 1     
   10    4   19 2     
   11    5    6 am    
   12    5   25 1     
   13    6    7 2     
   14    6    8 1     
   15    8    9 1     
   16    9   10 1     
   17    9   26 1     
   18    9   27 1     
   19   10   11 1     
   20   10   12 1     
   21   10   28 1     
   22   11   29 1     
   23   11   30 1     
   24   11   31 1     
   25   12   17 1     
   26   12   13 1     
   27   12   44 1     
   28   13   14 1     
   29   13   32 1     
   30   13   33 1     
   31   14   15 1     
   32   14   34 1     
   33   14   35 1     
   34   15   16 1     
   35   15   36 1     
   36   15   37 1     
   37   16   17 1     
   38   16   38 1     
   39   16   39 1     
   40   17   18 1     
   41   17   40 1     
   42   18   41 1     
   43   18   42 1     
   44   18   43 1     
   45   19   20 1     
   46    7   45 1     
   47    7   46 1     
   48    8   47 1     
   49   19   48 1     
   50   20   49 1     
   51   20   50 1     
@<TRIPOS>SUBSTRUCTURE
      1 S1             1
@<TRIPOS>SET
LONE_PAIRS      STATIC     ATOMS    <user>   **** ""
6 45 46 47 48 49 50
DONOR_HYDROGENS      STATIC     ATOMS    <user>   **** ""
2 25 44
ATOM$BLUE        STATIC     ATOMS    COLORGROUP SYSTEM
6 45 46 47 48 49 50
ATOM$RED        STATIC     ATOMS    COLORGROUP SYSTEM
2 25 44
