AV-unprocessed.smi:264|AV-procd|sdf|2010|dock3
  -GOLD-   2262021203D 1   1.00000     0.00000
 Structure written by MMmdl.
 52 56  0  0  0  0  0  0  0  0  1 V2000
  147.4584  129.5994  153.8083 C   0  0  0  0  0  0  0  0  0  0  0  0
  147.0877  130.7546  152.8656 C   0  0  1  0  0  0  0  0  0  0  0  0
  145.6662  130.8067  152.7780 O   0  0  0  0  0  0  0  0  0  0  0  0
  145.2733  132.1438  152.5257 C   0  0  0  0  0  0  0  0  0  0  0  0
  146.2117  132.9328  153.4256 C   0  0  0  0  0  0  0  0  0  0  0  0
  147.5347  132.1820  153.2916 C   0  0  2  0  0  0  0  0  0  0  0  0
  148.2466  132.7517  152.2060 O   0  0  0  0  0  0  0  0  0  0  0  0
  148.4283  132.2757  154.5568 C   0  0  0  0  0  0  0  0  0  0  0  0
  149.0939  133.5617  154.6989 N   0  0  0  0  0  0  0  0  0  0  0  0
  150.4507  133.7878  154.7555 C   0  0  0  0  0  0  0  0  0  0  0  0
  150.8013  135.0368  154.8959 N   0  0  0  0  0  0  0  0  0  0  0  0
  149.5947  135.7262  154.9342 C   0  0  0  0  0  0  0  0  0  0  0  0
  149.2413  137.0988  155.0675 C   0  0  0  0  0  0  0  0  0  0  0  0
  150.1660  138.0790  155.2258 N   0  0  0  0  0  0  0  0  0  0  0  0
  151.3016  138.1117  154.3108 C   0  0  0  0  0  0  0  0  0  0  0  0
  152.3813  139.0588  154.8533 C   0  0  0  0  0  0  0  0  0  0  0  0
  151.8263  140.3472  155.1159 O   0  0  0  0  0  0  0  0  0  0  0  0
  150.7069  140.3588  156.0114 C   0  0  1  0  0  0  0  0  0  0  0  0
  151.1188  140.0987  157.4574 C   0  0  0  0  0  0  0  0  0  0  0  0
  151.6539  141.4563  157.8859 C   0  0  0  0  0  0  0  0  0  0  0  0
  150.7505  142.3752  157.2920 O   0  0  0  0  0  0  0  0  0  0  0  0
  150.2196  141.8153  156.0927 C   0  0  0  0  0  0  0  0  0  0  0  0
  149.6145  139.4038  155.4858 C   0  0  0  0  0  0  0  0  0  0  0  0
  147.9175  137.4095  155.0344 N   0  0  0  0  0  0  0  0  0  0  0  0
  147.0013  136.4471  154.8934 C   0  0  0  0  0  0  0  0  0  0  0  0
  147.1857  135.1315  154.7697 N   0  0  0  0  0  0  0  0  0  0  0  0
  148.5114  134.8133  154.7953 C   0  0  0  0  0  0  0  0  0  0  0  0
  148.5390  129.4978  153.9092 H   0  0  0  0  0  0  0  0  0  0  0  0
  147.0782  128.6534  153.4224 H   0  0  0  0  0  0  0  0  0  0  0  0
  147.0325  129.7398  154.8019 H   0  0  0  0  0  0  0  0  0  0  0  0
  147.4678  130.5193  151.8695 H   0  0  0  0  0  0  0  0  0  0  0  0
  145.4356  132.3868  151.4744 H   0  0  0  0  0  0  0  0  0  0  0  0
  144.2220  132.3073  152.7635 H   0  0  0  0  0  0  0  0  0  0  0  0
  146.2735  133.9898  153.1616 H   0  0  0  0  0  0  0  0  0  0  0  0
  145.8457  132.8681  154.4510 H   0  0  0  0  0  0  0  0  0  0  0  0
  148.6011  132.0523  151.6791 H   0  0  0  0  0  0  0  0  0  0  0  0
  147.8352  132.1118  155.4569 H   0  0  0  0  0  0  0  0  0  0  0  0
  149.1919  131.4970  154.5432 H   0  0  0  0  0  0  0  0  0  0  0  0
  151.1781  132.9914  154.6940 H   0  0  0  0  0  0  0  0  0  0  0  0
  151.7195  137.1117  154.1872 H   0  0  0  0  0  0  0  0  0  0  0  0
  150.9675  138.4507  153.3291 H   0  0  0  0  0  0  0  0  0  0  0  0
  152.8418  138.6443  155.7493 H   0  0  0  0  0  0  0  0  0  0  0  0
  153.1812  139.1673  154.1208 H   0  0  0  0  0  0  0  0  0  0  0  0
  150.2419  139.8522  158.0580 H   0  0  0  0  0  0  0  0  0  0  0  0
  151.8404  139.2948  157.5924 H   0  0  0  0  0  0  0  0  0  0  0  0
  151.6926  141.5740  158.9688 H   0  0  0  0  0  0  0  0  0  0  0  0
  152.6548  141.6218  157.4843 H   0  0  0  0  0  0  0  0  0  0  0  0
  150.5230  142.3993  155.2232 H   0  0  0  0  0  0  0  0  0  0  0  0
  149.1321  141.8668  156.1573 H   0  0  0  0  0  0  0  0  0  0  0  0
  149.2075  139.7914  154.5508 H   0  0  0  0  0  0  0  0  0  0  0  0
  148.7843  139.3666  156.1904 H   0  0  0  0  0  0  0  0  0  0  0  0
  145.9735  136.7781  154.8790 H   0  0  0  0  0  0  0  0  0  0  0  0
  1  2  1  0  0  0  0
  1 28  1  0  0  0  0
  1 29  1  0  0  0  0
  1 30  1  0  0  0  0
  2  6  1  0  0  0  0
  2  3  1  0  0  0  0
  2 31  1  0  0  0  0
  3  4  1  0  0  0  0
  4  5  1  0  0  0  0
  4 32  1  0  0  0  0
  4 33  1  0  0  0  0
  5  6  1  0  0  0  0
  5 34  1  0  0  0  0
  5 35  1  0  0  0  0
  6  7  1  0  0  0  0
  6  8  1  0  0  0  0
  7 36  1  0  0  0  0
  8  9  1  0  0  0  0
  8 37  1  0  0  0  0
  8 38  1  0  0  0  0
  9 27  1  0  0  0  0
  9 10  1  0  0  0  0
 10 11  2  0  0  0  0
 10 39  1  0  0  0  0
 11 12  1  0  0  0  0
 12 27  2  0  0  0  0
 12 13  1  0  0  0  0
 13 14  1  0  0  0  0
 13 24  2  0  0  0  0
 14 23  1  0  0  0  0
 14 15  1  0  0  0  0
 15 16  1  0  0  0  0
 15 40  1  0  0  0  0
 15 41  1  0  0  0  0
 16 17  1  0  0  0  0
 16 42  1  0  0  0  0
 16 43  1  0  0  0  0
 17 18  1  0  0  0  0
 18 22  1  0  0  0  0
 18 19  1  0  0  0  0
 18 23  1  0  0  0  0
 19 20  1  0  0  0  0
 19 44  1  0  0  0  0
 19 45  1  0  0  0  0
 20 21  1  0  0  0  0
 20 46  1  0  0  0  0
 20 47  1  0  0  0  0
 21 22  1  0  0  0  0
 22 48  1  0  0  0  0
 22 49  1  0  0  0  0
 23 50  1  0  0  0  0
 23 51  1  0  0  0  0
 24 25  1  0  0  0  0
 25 26  2  0  0  0  0
 25 52  1  0  0  0  0
 26 27  1  0  0  0  0
M  END
> <s_m_source_file>
AV-unprocessed.smi

> <i_m_source_file_index>
264

> <i_lp_mmshare_version>
43012

> <i_f3d_flags>
0

> <s_epik_input>
W0NIMl0xW0NIMl1PW0NAQEhdKFtDSDNdKVtDQEBdMShbT0hdKVtDSDJdbihbY0hdbjIpYyhjMjMpbltjSF1uYzNOKFtDSDJdNClbQ0gyXVtDSDJdT1tDQF00NVtDSDJdW0NIMl1PW0NIMl01

> <s_epik_cmdline>
J2VwaWtfcHl0aG9uJywgJy1waCcsICc3LjAnLCAnLXRuJywgJzgnLCAnLW1hJywgJzIwMCcsICctbWV0YWxfYmluZGluZycsICctaW1hZScsICc8aW5maWxlLm1hZT4nLCAnLW9tYWUnLCAnPG91dGZpbGUubWFlPic=

> <r_lp_tautomer_probability>
1

> <r_epik_Ionization_Penalty>
0.00539389

> <r_epik_Ionization_Penalty_Charging>
0

> <r_epik_Ionization_Penalty_Neutral>
0.00539389

> <r_epik_State_Penalty>
0.00375441

> <r_epik_Charging_Adjusted_Penalty>
0.00375441

> <i_epik_Tot_Q>
0

> <i_epik_Tot_abs_Q>
0

> <r_epik_Metal_State_Penalty>
-0

> <b_epik_Metal_Only>
0

> <s_lp_Force_Field>
OPLS_2005

> <r_lp_Energy>
53.4902

> <b_lp_Chiralities_Consistent>
1

> <s_lp_Variant>
AV-unprocessed.smi:264-4

> <Gold.Version>
5.8.1

> <Gold.Id.Protein>
6NUR|6NUR_protein|mol2

> <Gold.PLP.Fitness>
40.7270

> <Gold.PLP.PLP>
-34.8188

> <Gold.PLP.part.hbond>
-2.6654

> <Gold.PLP.part.metal>
0.0000

> <Gold.PLP.part.buried>
-4.0988

> <Gold.PLP.part.nonpolar>
-27.8642

> <Gold.PLP.part.repulsive>
0.7436

> <Gold.PLP.ligand.clash>
0.0000

> <Gold.PLP.ligand.torsion>
0.3300

> <Gold.PLP.Chemscore.Hbond>
2.0965

> <Gold.PLP.Chemscore.CHOScore>
0.0000

> <Gold.PLP.Chemscore.Metal>
0.0000

> <Gold.Chemscore.Hbonds>
donor molecule, donor type, donor heavy atom, donor atom, acceptor molecule, acceptor atom, score
      L1  H     7    36       P1 10747  1.00
      P1  H  7989  7998       L1    17  0.72
      P1  H 10752 10763       L1    11  0.49

> <Gold.PLP.Chemscore.Internal.Correction>
0.2787

> <Gold.Rescore>
     Score         DG    S(hbond)    S(metal)    S(lipo)     H(rot)  DE(clash)    DE(int)     intcor
     14.24     -16.09       1.91        0.00      82.37       2.11       0.11       1.75       ----

> <Gold.Chemscore.Fitness>
14.2374

> <Gold.Chemscore.DG>
-16.0916

> <Gold.Chemscore.ZeroCoef>
-5.4800

> <Gold.Chemscore.Hbond>
1.9063

> <Gold.Chemscore.Metal>
0.0000

> <Gold.Chemscore.Lipo>
82.3653

> <Gold.Chemscore.Internal_Hbond>
0.0000

> <Gold.Chemscore.DEClash>
0.1055

> <Gold.Chemscore.DEInternal>
1.7487

> <Gold.Chemscore.Rot>
2.1063

> <Gold.Chemscore.Internal.Correction>
   9.000000E+99

> <Gold.Chemscore.Hbonds>
donor molecule, donor type, donor heavy atom, donor atom, acceptor molecule, acceptor atom, score
      L1  H     7    36       P1 10747  1.00
      P1  H  7989  7998       L1    17  0.14
      P1  H 10752 10763       L1    11  0.45

> <Gold.Chemscore.Hbond.Weighted>
-6.3670

> <Gold.Chemscore.Metal.Weighted>
-0.0000

> <Gold.Chemscore.Lipo.Weighted>
-9.6367

> <Gold.Chemscore.Internal_Hbond.Weighted>
0.0000

> <Gold.Chemscore.DEClash.Weighted>
0.1055

> <Gold.Chemscore.DEInternal.Weighted>
1.7487

> <Gold.Chemscore.Rot.Weighted>
5.3921

> <Gold.Chemscore.Internal.Correction.Weighted>
   9.000000E+99

> <Gold.Protein.RotatedTorsions>
[ 6907 6896 6895 6894 ] final  147.69 input  -60.11 | X-H torsion
[ 7974 7965 7964 7962 ] final  -78.69 input  175.53 | X-H torsion
[ 8008 7997 7996 7995 ] final  -40.40 input   59.86 | X-H torsion
[ 10167 10162 10161 10158 ] final  -58.91 input  -65.29 | X-H torsion
[ 10718 10713 10712 10709 ] final -177.81 input   66.30 | X-H torsion
[ 10763 10752 10751 10750 ] final   62.34 input  -60.55 | X-H torsion
[ 11005 11000 10999 10996 ] final  160.45 input  -57.11 | X-H torsion

> <Gold.Protein.ActiveResidues>
 VAL166  LYS551  ARG553  GLY616  TRP617  ASP618  TYR619  PRO620  LYS621  CYS622 
 ASP623  PHE694  ASN695  SER759  ASP760  ASP761  ALA762  ILE779  LEU786  VAL792 
 PHE793  MET794  SER795  GLU796  ALA797  LYS798  CYS799  TRP800  GLU811  SER814 

> <Gold.Protein.RotatedAtoms>
  152.1515  133.4525  159.4815 H   0  0  0  0  0  0  0  0  0  0  0  0  # atno 6907 bound_to 6896
  150.6896  134.2183  159.4396 H   0  0  0  0  0  0  0  0  0  0  0  0  # atno 6908 bound_to 6896
  152.0080  134.9891  160.0618 H   0  0  0  0  0  0  0  0  0  0  0  0  # atno 6909 bound_to 6896
  145.5832  140.9444  143.1332 H   0  0  0  0  0  0  0  0  0  0  0  0  # atno 7974 bound_to 7965
  154.4012  140.1526  156.3020 H   0  0  0  0  0  0  0  0  0  0  0  0  # atno 8008 bound_to 7997
  155.8692  140.3449  155.5788 H   0  0  0  0  0  0  0  0  0  0  0  0  # atno 8009 bound_to 7997
  155.7793  140.0841  157.2058 H   0  0  0  0  0  0  0  0  0  0  0  0  # atno 8010 bound_to 7997
  140.6168  143.2405  151.5578 H   0  0  0  0  0  0  0  0  0  0  0  0  # atno 10167 bound_to 10162
  156.8350  130.9666  151.3104 H   0  0  0  0  0  0  0  0  0  0  0  0  # atno 10718 bound_to 10713
  152.9979  135.5468  154.6177 H   0  0  0  0  0  0  0  0  0  0  0  0  # atno 10763 bound_to 10752
  154.5484  135.2825  155.1034 H   0  0  0  0  0  0  0  0  0  0  0  0  # atno 10764 bound_to 10752
  154.2284  135.6438  153.5220 H   0  0  0  0  0  0  0  0  0  0  0  0  # atno 10765 bound_to 10752
  140.2061  134.8302  157.3070 H   0  0  0  0  0  0  0  0  0  0  0  0  # atno 11005 bound_to 11000
  144.7384  139.7518  143.7320 LP  0  0  0  0  0  0  0  0  0  0  0  0  # atno 17320 bound_to 7965
  146.1701  139.4848  142.9933 LP  0  0  0  0  0  0  0  0  0  0  0  0  # atno 17321 bound_to 7965
  139.5405  144.2660  152.1341 LP  0  0  0  0  0  0  0  0  0  0  0  0  # atno 17342 bound_to 10162
  140.1872  144.4787  150.6498 LP  0  0  0  0  0  0  0  0  0  0  0  0  # atno 17343 bound_to 10162
  157.6386  130.8787  149.9406 LP  0  0  0  0  0  0  0  0  0  0  0  0  # atno 17370 bound_to 10713
  156.0913  130.3663  150.0390 LP  0  0  0  0  0  0  0  0  0  0  0  0  # atno 17371 bound_to 10713
  140.2001  134.4265  155.7667 LP  0  0  0  0  0  0  0  0  0  0  0  0  # atno 17394 bound_to 11000
  141.2227  133.7068  156.8170 LP  0  0  0  0  0  0  0  0  0  0  0  0  # atno 17395 bound_to 11000

$$$$
