AV-unprocessed.smi:1836|AV-procd|sdf|7477|dock1
  -GOLD-   22720 9173D 1   1.00000     0.00000
 Structure written by MMmdl.
 33 34  0  0  0  0  0  0  0  0  1 V2000
  147.7332  140.7733  153.6267 C   0  0  0  0  0  0  0  0  0  0  0  0
  148.2757  139.4924  154.2760 C   0  0  2  0  0  0  0  0  0  0  0  0
  149.8152  139.5383  154.3955 C   0  0  0  0  0  0  0  0  0  0  0  0
  150.2582  140.3948  155.4946 N   0  0  0  0  0  0  0  0  0  0  0  0
  149.3297  141.3054  156.1432 C   0  0  0  0  0  0  0  0  0  0  0  0
  150.0946  141.8554  157.3551 C   0  0  0  0  0  0  0  0  0  0  0  0
  151.5666  141.5063  157.1102 C   0  0  0  0  0  0  0  0  0  0  0  0
  151.5048  140.5039  155.9704 C   0  0  0  0  0  0  0  0  0  0  0  0
  152.4923  139.8909  155.5677 O   0  0  0  0  0  0  0  0  0  0  0  0
  147.8562  138.3563  153.4576 N   0  0  0  0  0  0  0  0  0  0  0  0
  146.5951  137.9238  153.3105 C   0  0  0  0  0  0  0  0  0  0  0  0
  145.6254  138.4562  153.8506 O   0  0  0  0  0  0  0  0  0  0  0  0
  146.5439  136.8444  152.5139 N   0  0  0  0  0  0  0  0  0  0  0  0
  145.4076  136.0740  152.1627 C   0  0  0  0  0  0  0  0  0  0  0  0
  144.2974  136.2219  152.8952 N   0  0  0  0  0  0  0  0  0  0  0  0
  143.2635  135.4113  152.4429 N   0  0  0  0  0  0  0  0  0  0  0  0
  143.6340  134.6854  151.3836 C   0  0  0  0  0  0  0  0  0  0  0  0
  145.2828  134.9203  150.8312 S   0  0  0  0  0  0  0  0  0  0  0  0
  147.9924  141.6526  154.2173 H   0  0  0  0  0  0  0  0  0  0  0  0
  146.6460  140.7435  153.5460 H   0  0  0  0  0  0  0  0  0  0  0  0
  148.1384  140.9147  152.6240 H   0  0  0  0  0  0  0  0  0  0  0  0
  147.8392  139.4302  155.2746 H   0  0  0  0  0  0  0  0  0  0  0  0
  150.2290  138.5332  154.4963 H   0  0  0  0  0  0  0  0  0  0  0  0
  150.2408  139.9423  153.4758 H   0  0  0  0  0  0  0  0  0  0  0  0
  149.0670  142.1057  155.4500 H   0  0  0  0  0  0  0  0  0  0  0  0
  148.4129  140.7952  156.4408 H   0  0  0  0  0  0  0  0  0  0  0  0
  149.9422  142.9284  157.4758 H   0  0  0  0  0  0  0  0  0  0  0  0
  149.7471  141.3698  158.2680 H   0  0  0  0  0  0  0  0  0  0  0  0
  152.1373  142.3805  156.7958 H   0  0  0  0  0  0  0  0  0  0  0  0
  152.0396  141.0757  157.9933 H   0  0  0  0  0  0  0  0  0  0  0  0
  148.5873  137.8509  152.9788 H   0  0  0  0  0  0  0  0  0  0  0  0
  147.4195  136.5274  152.1248 H   0  0  0  0  0  0  0  0  0  0  0  0
  142.9300  134.0076  150.9239 H   0  0  0  0  0  0  0  0  0  0  0  0
  1  2  1  0  0  0  0
  1 19  1  0  0  0  0
  1 20  1  0  0  0  0
  1 21  1  0  0  0  0
  2  3  1  0  0  0  0
  2 10  1  0  0  0  0
  2 22  1  0  0  0  0
  3  4  1  0  0  0  0
  3 23  1  0  0  0  0
  3 24  1  0  0  0  0
  4  8  1  0  0  0  0
  4  5  1  0  0  0  0
  5  6  1  0  0  0  0
  5 25  1  0  0  0  0
  5 26  1  0  0  0  0
  6  7  1  0  0  0  0
  6 27  1  0  0  0  0
  6 28  1  0  0  0  0
  7  8  1  0  0  0  0
  7 29  1  0  0  0  0
  7 30  1  0  0  0  0
  8  9  2  0  0  0  0
 10 11  1  0  0  0  0
 10 31  1  0  0  0  0
 11 12  2  0  0  0  0
 11 13  1  0  0  0  0
 13 14  1  0  0  0  0
 13 32  1  0  0  0  0
 14 18  1  0  0  0  0
 14 15  2  0  0  0  0
 15 16  1  0  0  0  0
 16 17  2  0  0  0  0
 17 18  1  0  0  0  0
 17 33  1  0  0  0  0
M  END
> <s_m_source_file>
AV-unprocessed.smi

> <i_m_source_file_index>
1836

> <i_lp_mmshare_version>
43012

> <i_f3d_flags>
0

> <s_epik_input>
Tz1DMVtDSDJdW0NIMl1bQ0gyXU4xW0NIMl1bQ0BASF0oW0NIM10pW05IXUMoPU8pW05IXWMybm5bY0hdczI=

> <s_epik_cmdline>
J2VwaWtfcHl0aG9uJywgJy1waCcsICc3LjAnLCAnLXRuJywgJzgnLCAnLW1hJywgJzIwMCcsICctbWV0YWxfYmluZGluZycsICctaW1hZScsICc8aW5maWxlLm1hZT4nLCAnLW9tYWUnLCAnPG91dGZpbGUubWFlPic=

> <r_lp_tautomer_probability>
1

> <r_epik_Ionization_Penalty>
0.00192022

> <r_epik_Ionization_Penalty_Charging>
0

> <r_epik_Ionization_Penalty_Neutral>
0.00192022

> <r_epik_State_Penalty>
-0

> <r_epik_Charging_Adjusted_Penalty>
0

> <i_epik_Tot_Q>
0

> <i_epik_Tot_abs_Q>
0

> <r_epik_Metal_State_Penalty>
0.336618

> <b_epik_Metal_Only>
0

> <s_lp_Force_Field>
OPLS_2005

> <r_lp_Energy>
16.7835

> <b_lp_Chiralities_Consistent>
1

> <s_lp_Variant>
AV-unprocessed.smi:1836-1

> <Gold.Version>
5.8.1

> <Gold.Id.Protein>
6NUR|6NUR_protein|mol2

> <Gold.PLP.Fitness>
37.7077

> <Gold.PLP.PLP>
-26.7286

> <Gold.PLP.part.hbond>
-3.5471

> <Gold.PLP.part.metal>
0.0000

> <Gold.PLP.part.buried>
-2.9745

> <Gold.PLP.part.nonpolar>
-21.0970

> <Gold.PLP.part.repulsive>
0.4912

> <Gold.PLP.ligand.clash>
0.0000

> <Gold.PLP.ligand.torsion>
0.3889

> <Gold.PLP.Chemscore.Hbond>
2.8960

> <Gold.PLP.Chemscore.CHOScore>
1.0000

> <Gold.PLP.Chemscore.Metal>
0.0000

> <Gold.Chemscore.Hbonds>
donor molecule, donor type, donor heavy atom, donor atom, acceptor molecule, acceptor atom, score
      L1  H    10    31       P1  7948  0.90
      L1  H    13    32       P1  7948  1.00
      P1  H  7997  8008       L1     9  1.00
      L1  C    17    33       P1 10186  1.00

> <Gold.PLP.Chemscore.Internal.Correction>
0.0689

> <Gold.Rescore>
     Score         DG    S(hbond)    S(metal)    S(lipo)     H(rot)  DE(clash)    DE(int)     intcor
     14.13     -16.08       2.85        0.00      47.65       1.76       0.14       1.81       ----

> <Gold.Chemscore.Fitness>
14.1281

> <Gold.Chemscore.DG>
-16.0777

> <Gold.Chemscore.ZeroCoef>
-5.4800

> <Gold.Chemscore.Hbond>
2.8504

> <Gold.Chemscore.Metal>
0.0000

> <Gold.Chemscore.Lipo>
47.6541

> <Gold.Chemscore.Internal_Hbond>
0.0000

> <Gold.Chemscore.DEClash>
0.1400

> <Gold.Chemscore.DEInternal>
1.8095

> <Gold.Chemscore.Rot>
1.7571

> <Gold.Chemscore.Internal.Correction>
   9.000000E+99

> <Gold.Chemscore.Hbonds>
donor molecule, donor type, donor heavy atom, donor atom, acceptor molecule, acceptor atom, score
      L1  H    10    31       P1  7948  0.84
      L1  H    13    32       P1  7948  0.97
      P1  H  7997  8008       L1     9  0.90

> <Gold.Chemscore.Hbond.Weighted>
-9.5204

> <Gold.Chemscore.Metal.Weighted>
-0.0000

> <Gold.Chemscore.Lipo.Weighted>
-5.5755

> <Gold.Chemscore.Internal_Hbond.Weighted>
0.0000

> <Gold.Chemscore.DEClash.Weighted>
0.1400

> <Gold.Chemscore.DEInternal.Weighted>
1.8095

> <Gold.Chemscore.Rot.Weighted>
4.4983

> <Gold.Chemscore.Internal.Correction.Weighted>
   9.000000E+99

> <Gold.Protein.RotatedTorsions>
[ 6907 6896 6895 6894 ] final  164.10 input  -60.11 | X-H torsion
[ 7974 7965 7964 7962 ] final -145.50 input  175.53 | X-H torsion
[ 8008 7997 7996 7995 ] final  -46.62 input   59.86 | X-H torsion
[ 10167 10162 10161 10158 ] final  -80.84 input  -65.29 | X-H torsion
[ 10718 10713 10712 10709 ] final   64.02 input   66.30 | X-H torsion
[ 10763 10752 10751 10750 ] final  -86.84 input  -60.55 | X-H torsion
[ 11005 11000 10999 10996 ] final   18.75 input  -57.11 | X-H torsion

> <Gold.Protein.ActiveResidues>
 VAL166  LYS551  ARG553  GLY616  TRP617  ASP618  TYR619  PRO620  LYS621  CYS622 
 ASP623  PHE694  ASN695  SER759  ASP760  ASP761  ALA762  ILE779  LEU786  VAL792 
 PHE793  MET794  SER795  GLU796  ALA797  LYS798  CYS799  TRP800  GLU811  SER814 

> <Gold.Protein.RotatedAtoms>
  151.9151  133.3571  159.3876 H   0  0  0  0  0  0  0  0  0  0  0  0  # atno 6907 bound_to 6896
  150.7049  134.4693  159.5427 H   0  0  0  0  0  0  0  0  0  0  0  0  # atno 6908 bound_to 6896
  152.2306  134.8326  160.0525 H   0  0  0  0  0  0  0  0  0  0  0  0  # atno 6909 bound_to 6896
  144.8223  140.5576  143.5570 H   0  0  0  0  0  0  0  0  0  0  0  0  # atno 7974 bound_to 7965
  154.4009  140.1367  156.4042 H   0  0  0  0  0  0  0  0  0  0  0  0  # atno 8008 bound_to 7997
  155.7796  140.3482  155.5270 H   0  0  0  0  0  0  0  0  0  0  0  0  # atno 8009 bound_to 7997
  155.8687  140.0968  157.1555 H   0  0  0  0  0  0  0  0  0  0  0  0  # atno 8010 bound_to 7997
  140.4467  143.2496  151.8549 H   0  0  0  0  0  0  0  0  0  0  0  0  # atno 10167 bound_to 10162
  157.6011  130.9137  149.9791 H   0  0  0  0  0  0  0  0  0  0  0  0  # atno 10718 bound_to 10713
  154.6269  135.5435  153.7637 H   0  0  0  0  0  0  0  0  0  0  0  0  # atno 10763 bound_to 10752
  153.0265  135.6426  154.1358 H   0  0  0  0  0  0  0  0  0  0  0  0  # atno 10764 bound_to 10752
  154.1290  135.2915  155.3170 H   0  0  0  0  0  0  0  0  0  0  0  0  # atno 10765 bound_to 10752
  140.4213  134.1516  155.7673 H   0  0  0  0  0  0  0  0  0  0  0  0  # atno 11005 bound_to 11000
  145.5077  139.1480  143.3622 LP  0  0  0  0  0  0  0  0  0  0  0  0  # atno 17320 bound_to 7965
  146.2529  140.5217  142.8886 LP  0  0  0  0  0  0  0  0  0  0  0  0  # atno 17321 bound_to 7965
  139.4793  144.5168  151.8857 LP  0  0  0  0  0  0  0  0  0  0  0  0  # atno 17342 bound_to 10162
  140.4256  144.2185  150.5887 LP  0  0  0  0  0  0  0  0  0  0  0  0  # atno 17343 bound_to 10162
  156.1084  130.3651  150.0092 LP  0  0  0  0  0  0  0  0  0  0  0  0  # atno 17370 bound_to 10713
  156.8195  130.9353  151.3641 LP  0  0  0  0  0  0  0  0  0  0  0  0  # atno 17371 bound_to 10713
  141.1783  133.8468  157.1347 LP  0  0  0  0  0  0  0  0  0  0  0  0  # atno 17394 bound_to 11000
  140.0198  134.9951  157.0569 LP  0  0  0  0  0  0  0  0  0  0  0  0  # atno 17395 bound_to 11000

$$$$
