#       Name:                AV-unprocessed.smi:1793
#       Creating user name   scv26
#       Creation time:       Fri Mar 27 08:47:03 2020


#       File generated by GOLD software.
#

@<TRIPOS>MOLECULE
AV-unprocessed.smi:1793
    52    54     1
SMALL
NO_CHARGES


@<TRIPOS>ATOM
      1 ****        -3.5291  -1.2516  -2.0917 C.3            1 S1                 0.0000
      2 ****        -2.9743  -0.3520  -0.9778 C.3            1 S1                 0.0000
      3 ****        -1.5366  -0.1841  -1.1831 N.am           1 S1                 0.0000
      4 ****        -0.8506   0.9595  -1.0420 C.2            1 S1                 0.0000
      5 ****        -1.3641   2.0298  -0.7169 O.2            1 S1                 0.0000
      6 ****         0.4578   0.7692  -1.2780 N.am           1 S1                 0.0000
      7 ****         1.5204   1.7021  -1.1172 C.ar           1 S1                 0.0000
      8 ****         1.3441   3.0783  -1.4020 C.ar           1 S1                 0.0000
      9 ****         2.4393   3.9520  -1.2916 C.ar           1 S1                 0.0000
     10 ****         3.6814   3.4150  -0.9157 C.ar           1 S1                 0.0000
     11 ****         3.8697   2.1057  -0.6566 N.ar           1 S1                 0.0000
     12 ****         2.8197   1.2520  -0.7435 C.ar           1 S1                 0.0000
     13 ****         3.0773  -0.1066  -0.4457 N.3            1 S1                 0.0000
     14 ****         4.4485  -0.5945  -0.3429 C.3            1 S1                 0.0000
     15 ****         4.3341  -1.9533   0.3417 C.3            1 S1                 0.0000
     16 ****         3.1813  -1.7302   1.3155 C.3            1 S1                 0.0000
     17 ****         2.2569  -0.7632   0.5682 C.3            1 S1                 0.0000
     18 ****        -3.2594  -0.9360   0.4218 C.3            1 S1                 0.0000
     19 ****        -2.7755  -0.0850   1.5964 C.3            1 S1                 0.0000
     20 ****        -3.6487  -0.5521   2.7476 C.3            1 S1                 0.0000
     21 ****        -4.8535  -1.2004   2.0593 C.3            1 S1                 0.0000
     22 ****        -4.6562  -0.9941   0.6662 O.3            1 S1                 0.0000
     23 ****        -4.6080  -1.3766  -1.9969 H              1 S1                 0.0000
     24 ****        -3.0765  -2.2435  -2.0648 H              1 S1                 0.0000
     25 ****        -3.3351  -0.8233  -3.0756 H              1 S1                 0.0000
     26 ****        -3.4721   0.6161  -1.0592 H              1 S1                 0.0000
     27 ****        -1.0224  -1.0112  -1.4485 H              1 S1                 0.0000
     28 ****         0.7429  -0.1826  -1.4576 H              1 S1                 0.0000
     29 ****         0.3932   3.4740  -1.7245 H              1 S1                 0.0000
     30 ****         2.3315   5.0057  -1.5024 H              1 S1                 0.0000
     31 ****         4.5490   4.0518  -0.8268 H              1 S1                 0.0000
     32 ****         4.9180  -0.6725  -1.3237 H              1 S1                 0.0000
     33 ****         5.0508   0.0729   0.2749 H              1 S1                 0.0000
     34 ****         4.0642  -2.7184  -0.3876 H              1 S1                 0.0000
     35 ****         5.2575  -2.2612   0.8330 H              1 S1                 0.0000
     36 ****         2.6820  -2.6552   1.6054 H              1 S1                 0.0000
     37 ****         3.5563  -1.2527   2.2218 H              1 S1                 0.0000
     38 ****         1.7934  -0.0479   1.2492 H              1 S1                 0.0000
     39 ****         1.4630  -1.3210   0.0710 H              1 S1                 0.0000
     40 ****        -2.8463  -1.9435   0.5038 H              1 S1                 0.0000
     41 ****        -1.7101  -0.2024   1.7975 H              1 S1                 0.0000
     42 ****        -2.9679   0.9706   1.3993 H              1 S1                 0.0000
     43 ****        -3.1245  -1.2849   3.3620 H              1 S1                 0.0000
     44 ****        -3.9389   0.2800   3.3900 H              1 S1                 0.0000
     45 ****        -4.8836  -2.2709   2.2662 H              1 S1                 0.0000
     46 ****        -5.8000  -0.7656   2.3811 H              1 S1                 0.0000
     47 ****        -2.3473   2.0798  -0.5415 LP             1 S1                 0.0000
     48 ****        -0.7981   2.8494  -0.6282 LP             1 S1                 0.0000
     49 ****         4.7756   1.7670  -0.4026 LP             1 S1                 0.0000
     50 ****         2.7582  -0.3940  -1.3488 LP             1 S1                 0.0000
     51 ****        -5.0591  -1.7507   0.1512 LP             1 S1                 0.0000
     52 ****        -5.0851  -0.1350   0.3868 LP             1 S1                 0.0000
@<TRIPOS>BOND
    1    1    2 1     
    2    1   23 1     
    3    1   24 1     
    4    1   25 1     
    5    2    3 1     
    6    2   18 1     
    7    2   26 1     
    8    3    4 am    
    9    3   27 1     
   10    4    5 2     
   11    4    6 am    
   12    6    7 1     
   13    6   28 1     
   14    7   12 ar    
   15    7    8 ar    
   16    8    9 ar    
   17    8   29 1     
   18    9   10 ar    
   19    9   30 1     
   20   10   11 ar    
   21   10   31 1     
   22   11   12 ar    
   23   12   13 1     
   24   13   17 1     
   25   13   14 1     
   26   14   15 1     
   27   14   32 1     
   28   14   33 1     
   29   15   16 1     
   30   15   34 1     
   31   15   35 1     
   32   16   17 1     
   33   16   36 1     
   34   16   37 1     
   35   17   38 1     
   36   17   39 1     
   37   18   22 1     
   38   18   19 1     
   39   18   40 1     
   40   19   20 1     
   41   19   41 1     
   42   19   42 1     
   43   20   21 1     
   44   20   43 1     
   45   20   44 1     
   46   21   22 1     
   47   21   45 1     
   48   21   46 1     
   49    5   47 1     
   50    5   48 1     
   51   11   49 1     
   52   13   50 1     
   53   22   51 1     
   54   22   52 1     
@<TRIPOS>SUBSTRUCTURE
      1 S1             1
@<TRIPOS>SET
LONE_PAIRS      STATIC     ATOMS    <user>   **** ""
6 47 48 49 50 51 52
DONOR_HYDROGENS      STATIC     ATOMS    <user>   **** ""
2 27 28
ATOM$BLUE        STATIC     ATOMS    COLORGROUP SYSTEM
6 47 48 49 50 51 52
ATOM$RED        STATIC     ATOMS    COLORGROUP SYSTEM
2 27 28
