AV-unprocessed.smi:715|AV-procd|sdf|3485|dock3
  -GOLD-   22720 0483D 1   1.00000     0.00000
 Structure written by MMmdl.
 39 40  0  0  0  0  0  0  0  0  1 V2000
  152.0612  138.1804  155.1381 C   0  0  0  0  0  0  0  0  0  0  0  0
  150.8133  138.7824  154.7207 N   0  0  0  0  0  0  0  0  0  0  0  0
  149.7365  138.1886  154.0983 C   0  0  0  0  0  0  0  0  0  0  0  0
  148.7896  139.1555  153.9023 C   0  0  0  0  0  0  0  0  0  0  0  0
  147.4259  139.0398  153.2741 C   0  0  1  0  0  0  0  0  0  0  0  0
  147.5198  139.0040  151.8640 O   0  0  0  0  0  0  0  0  0  0  0  0
  146.7208  137.7553  153.7438 C   0  0  0  0  0  0  0  0  0  0  0  0
  146.4517  136.8650  152.6220 N   0  0  0  0  0  0  0  0  0  0  0  0
  145.2296  136.6044  152.1370 C   0  0  0  0  0  0  0  0  0  0  0  0
  144.2031  137.1085  152.5927 O   0  0  0  0  0  0  0  0  0  0  0  0
  145.1603  135.6319  150.9542 C   0  0  0  0  0  0  0  0  0  0  0  0
  144.9273  134.1650  151.3723 C   0  0  0  0  0  0  0  0  0  0  0  0
  146.2051  133.3628  151.6478 C   0  0  0  0  0  0  0  0  0  0  0  0
  145.7963  131.8914  151.5109 C   0  0  0  0  0  0  0  0  0  0  0  0
  144.5005  131.8763  150.6855 C   0  0  0  0  0  0  0  0  0  0  0  0
  144.2235  133.3323  150.2986 C   0  0  0  0  0  0  0  0  0  0  0  0
  149.3941  140.3220  154.4526 C   0  0  0  0  0  0  0  0  0  0  0  0
  150.6040  140.0967  154.9382 N   0  0  0  0  0  0  0  0  0  0  0  0
  152.0456  137.1087  154.9370 H   0  0  0  0  0  0  0  0  0  0  0  0
  152.2083  138.3381  156.2070 H   0  0  0  0  0  0  0  0  0  0  0  0
  152.8895  138.6321  154.5911 H   0  0  0  0  0  0  0  0  0  0  0  0
  149.7302  137.1376  153.8491 H   0  0  0  0  0  0  0  0  0  0  0  0
  146.8182  139.9046  153.5443 H   0  0  0  0  0  0  0  0  0  0  0  0
  148.2330  139.5637  151.5970 H   0  0  0  0  0  0  0  0  0  0  0  0
  147.3045  137.2432  154.5109 H   0  0  0  0  0  0  0  0  0  0  0  0
  145.7621  138.0155  154.1961 H   0  0  0  0  0  0  0  0  0  0  0  0
  147.2457  136.4084  152.1972 H   0  0  0  0  0  0  0  0  0  0  0  0
  144.3502  135.9577  150.3011 H   0  0  0  0  0  0  0  0  0  0  0  0
  146.0772  135.7059  150.3672 H   0  0  0  0  0  0  0  0  0  0  0  0
  144.3065  134.1393  152.2699 H   0  0  0  0  0  0  0  0  0  0  0  0
  146.9597  133.5993  150.8960 H   0  0  0  0  0  0  0  0  0  0  0  0
  146.6358  133.5822  152.6254 H   0  0  0  0  0  0  0  0  0  0  0  0
  146.5860  131.3072  151.0374 H   0  0  0  0  0  0  0  0  0  0  0  0
  145.6138  131.4554  152.4941 H   0  0  0  0  0  0  0  0  0  0  0  0
  144.5805  131.2358  149.8068 H   0  0  0  0  0  0  0  0  0  0  0  0
  143.6821  131.4920  151.2959 H   0  0  0  0  0  0  0  0  0  0  0  0
  143.1569  133.5496  150.2328 H   0  0  0  0  0  0  0  0  0  0  0  0
  144.6627  133.5367  149.3211 H   0  0  0  0  0  0  0  0  0  0  0  0
  148.9894  141.3214  154.5131 H   0  0  0  0  0  0  0  0  0  0  0  0
  1  2  1  0  0  0  0
  1 19  1  0  0  0  0
  1 20  1  0  0  0  0
  1 21  1  0  0  0  0
  2 18  1  0  0  0  0
  2  3  1  0  0  0  0
  3  4  2  0  0  0  0
  3 22  1  0  0  0  0
  4  5  1  0  0  0  0
  4 17  1  0  0  0  0
  5  6  1  0  0  0  0
  5  7  1  0  0  0  0
  5 23  1  0  0  0  0
  6 24  1  0  0  0  0
  7  8  1  0  0  0  0
  7 25  1  0  0  0  0
  7 26  1  0  0  0  0
  8  9  1  0  0  0  0
  8 27  1  0  0  0  0
  9 10  2  0  0  0  0
  9 11  1  0  0  0  0
 11 12  1  0  0  0  0
 11 28  1  0  0  0  0
 11 29  1  0  0  0  0
 12 16  1  0  0  0  0
 12 13  1  0  0  0  0
 12 30  1  0  0  0  0
 13 14  1  0  0  0  0
 13 31  1  0  0  0  0
 13 32  1  0  0  0  0
 14 15  1  0  0  0  0
 14 33  1  0  0  0  0
 14 34  1  0  0  0  0
 15 16  1  0  0  0  0
 15 35  1  0  0  0  0
 15 36  1  0  0  0  0
 16 37  1  0  0  0  0
 16 38  1  0  0  0  0
 17 18  2  0  0  0  0
 17 39  1  0  0  0  0
M  END
> <s_m_source_file>
AV-unprocessed.smi

> <i_m_source_file_index>
715

> <i_lp_mmshare_version>
43012

> <i_f3d_flags>
0

> <s_epik_input>
W0NIM11uMVtjSF1jKFtjSF1uMSlbQ0BIXShbT0hdKVtDSDJdW05IXUMoPU8pW0NIMl1bQ0hdMltDSDJdW0NIMl1bQ0gyXVtDSDJdMg==

> <s_epik_cmdline>
J2VwaWtfcHl0aG9uJywgJy1waCcsICc3LjAnLCAnLXRuJywgJzgnLCAnLW1hJywgJzIwMCcsICctbWV0YWxfYmluZGluZycsICctaW1hZScsICc8aW5maWxlLm1hZT4nLCAnLW9tYWUnLCAnPG91dGZpbGUubWFlPic=

> <r_lp_tautomer_probability>
1

> <r_epik_Ionization_Penalty>
4.45533e-05

> <r_epik_Ionization_Penalty_Charging>
0

> <r_epik_Ionization_Penalty_Neutral>
4.45533e-05

> <r_epik_State_Penalty>
-0

> <r_epik_Charging_Adjusted_Penalty>
0

> <i_epik_Tot_Q>
0

> <i_epik_Tot_abs_Q>
0

> <r_epik_Metal_State_Penalty>
-0

> <b_epik_Metal_Only>
0

> <s_lp_Force_Field>
OPLS_2005

> <r_lp_Energy>
19.2831

> <b_lp_Chiralities_Consistent>
1

> <s_lp_Variant>
AV-unprocessed.smi:715-2

> <Gold.Version>
5.8.1

> <Gold.Id.Protein>
6NUR|6NUR_protein|mol2

> <Gold.PLP.Fitness>
44.2503

> <Gold.PLP.PLP>
-36.3409

> <Gold.PLP.part.hbond>
-3.5242

> <Gold.PLP.part.metal>
0.0000

> <Gold.PLP.part.buried>
-2.1448

> <Gold.PLP.part.nonpolar>
-30.8329

> <Gold.PLP.part.repulsive>
0.2707

> <Gold.PLP.ligand.clash>
0.0000

> <Gold.PLP.ligand.torsion>
1.9759

> <Gold.PLP.Chemscore.Hbond>
2.9500

> <Gold.PLP.Chemscore.CHOScore>
0.9904

> <Gold.PLP.Chemscore.Metal>
0.0000

> <Gold.Chemscore.Hbonds>
donor molecule, donor type, donor heavy atom, donor atom, acceptor molecule, acceptor atom, score
      L1  H     6    24       P1  7957  0.88
      L1  H     8    27       P1  7948  1.00
      P1  H  7989  7998       L1    18  0.90
      L1  C     3    22       P1  7948  0.91

> <Gold.PLP.Chemscore.Internal.Correction>
0.0398

> <Gold.Rescore>
     Score         DG    S(hbond)    S(metal)    S(lipo)     H(rot)  DE(clash)    DE(int)     intcor
     13.75     -15.73       1.99        0.00      80.92       2.29       0.09       1.89       ----

> <Gold.Chemscore.Fitness>
13.7537

> <Gold.Chemscore.DG>
-15.7288

> <Gold.Chemscore.ZeroCoef>
-5.4800

> <Gold.Chemscore.Hbond>
1.9864

> <Gold.Chemscore.Metal>
0.0000

> <Gold.Chemscore.Lipo>
80.9234

> <Gold.Chemscore.Internal_Hbond>
0.0000

> <Gold.Chemscore.DEClash>
0.0859

> <Gold.Chemscore.DEInternal>
1.8893

> <Gold.Chemscore.Rot>
2.2866

> <Gold.Chemscore.Internal.Correction>
   9.000000E+99

> <Gold.Chemscore.Hbonds>
donor molecule, donor type, donor heavy atom, donor atom, acceptor molecule, acceptor atom, score
      L1  H     6    24       P1  7957  0.85
      L1  H     8    27       P1  7948  0.98
      P1  H  7989  7998       L1    18  0.05

> <Gold.Chemscore.Hbond.Weighted>
-6.6346

> <Gold.Chemscore.Metal.Weighted>
-0.0000

> <Gold.Chemscore.Lipo.Weighted>
-9.4680

> <Gold.Chemscore.Internal_Hbond.Weighted>
0.0000

> <Gold.Chemscore.DEClash.Weighted>
0.0859

> <Gold.Chemscore.DEInternal.Weighted>
1.8893

> <Gold.Chemscore.Rot.Weighted>
5.8538

> <Gold.Chemscore.Internal.Correction.Weighted>
   9.000000E+99

> <Gold.Protein.RotatedTorsions>
[ 6907 6896 6895 6894 ] final   75.55 input  -60.11 | X-H torsion
[ 7974 7965 7964 7962 ] final  -87.25 input  175.53 | X-H torsion
[ 8008 7997 7996 7995 ] final -163.92 input   59.86 | X-H torsion
[ 10167 10162 10161 10158 ] final -107.09 input  -65.29 | X-H torsion
[ 10718 10713 10712 10709 ] final    3.63 input   66.30 | X-H torsion
[ 10763 10752 10751 10750 ] final -102.88 input  -60.55 | X-H torsion
[ 11005 11000 10999 10996 ] final -121.55 input  -57.11 | X-H torsion

> <Gold.Protein.ActiveResidues>
 VAL166  LYS551  ARG553  GLY616  TRP617  ASP618  TYR619  PRO620  LYS621  CYS622 
 ASP623  PHE694  ASN695  SER759  ASP760  ASP761  ALA762  ILE779  LEU786  VAL792 
 PHE793  MET794  SER795  GLU796  ALA797  LYS798  CYS799  TRP800  GLU811  SER814 

> <Gold.Protein.RotatedAtoms>
  152.5031  134.4104  159.9446 H   0  0  0  0  0  0  0  0  0  0  0  0  # atno 6907 bound_to 6896
  151.4072  133.3732  159.2747 H   0  0  0  0  0  0  0  0  0  0  0  0  # atno 6908 bound_to 6896
  150.9318  134.8754  159.7615 H   0  0  0  0  0  0  0  0  0  0  0  0  # atno 6909 bound_to 6896
  145.4690  140.9560  143.1927 H   0  0  0  0  0  0  0  0  0  0  0  0  # atno 7974 bound_to 7965
  155.8283  140.0930  157.1808 H   0  0  0  0  0  0  0  0  0  0  0  0  # atno 8008 bound_to 7997
  154.3979  140.1424  156.3643 H   0  0  0  0  0  0  0  0  0  0  0  0  # atno 8009 bound_to 7997
  155.8193  140.3447  155.5507 H   0  0  0  0  0  0  0  0  0  0  0  0  # atno 8010 bound_to 7997
  140.1807  143.3969  152.1283 H   0  0  0  0  0  0  0  0  0  0  0  0  # atno 10167 bound_to 10162
  156.8806  130.5652  149.5653 H   0  0  0  0  0  0  0  0  0  0  0  0  # atno 10718 bound_to 10713
  154.7767  135.4844  153.9758 H   0  0  0  0  0  0  0  0  0  0  0  0  # atno 10763 bound_to 10752
  153.1438  135.6778  153.8994 H   0  0  0  0  0  0  0  0  0  0  0  0  # atno 10764 bound_to 10752
  153.8660  135.3149  155.3418 H   0  0  0  0  0  0  0  0  0  0  0  0  # atno 10765 bound_to 10752
  141.0061  134.0332  157.3475 H   0  0  0  0  0  0  0  0  0  0  0  0  # atno 11005 bound_to 11000
  144.7957  139.6240  143.7094 LP  0  0  0  0  0  0  0  0  0  0  0  0  # atno 17320 bound_to 7965
  146.2408  139.5997  142.9493 LP  0  0  0  0  0  0  0  0  0  0  0  0  # atno 17321 bound_to 7965
  139.5297  144.7145  151.5099 LP  0  0  0  0  0  0  0  0  0  0  0  0  # atno 17342 bound_to 10162
  140.6521  143.8674  150.6797 LP  0  0  0  0  0  0  0  0  0  0  0  0  # atno 17343 bound_to 10162
  156.0679  130.5718  150.9325 LP  0  0  0  0  0  0  0  0  0  0  0  0  # atno 17370 bound_to 10713
  157.6142  131.0934  150.8740 LP  0  0  0  0  0  0  0  0  0  0  0  0  # atno 17371 bound_to 10713
  139.9064  135.0180  156.7505 LP  0  0  0  0  0  0  0  0  0  0  0  0  # atno 17394 bound_to 11000
  140.6810  133.9475  155.7910 LP  0  0  0  0  0  0  0  0  0  0  0  0  # atno 17395 bound_to 11000

$$$$
