AV-unprocessed.smi:2098|AV-procd|sdf|8566|dock4
  -GOLD-   2272011293D 1   1.00000     0.00000
 Structure written by MMmdl.
 36 38  0  0  0  0  0  0  0  0  1 V2000
  151.1520  139.7577  154.8458 O   0  0  0  0  0  0  0  0  0  0  0  0
  150.8001  140.9327  155.5501 C   0  0  1  0  0  0  0  0  0  0  0  0
  149.5747  141.5595  154.8666 C   0  0  0  0  0  0  0  0  0  0  0  0
  148.4404  141.3917  155.7071 O   0  0  0  0  0  0  0  0  0  0  0  0
  147.2816  142.0635  155.3810 C   0  0  0  0  0  0  0  0  0  0  0  0
  146.3105  142.1932  156.3957 C   0  0  0  0  0  0  0  0  0  0  0  0
  145.0983  142.8673  156.1521 C   0  0  0  0  0  0  0  0  0  0  0  0
  144.8446  143.4212  154.8840 C   0  0  0  0  0  0  0  0  0  0  0  0
  143.6808  144.0721  154.6484 F   0  0  0  0  0  0  0  0  0  0  0  0
  145.8030  143.2976  153.8614 C   0  0  0  0  0  0  0  0  0  0  0  0
  147.0150  142.6224  154.1048 C   0  0  0  0  0  0  0  0  0  0  0  0
  150.5114  140.5704  157.0199 C   0  0  0  0  0  0  0  0  0  0  0  0
  150.9167  141.6149  157.9445 N   0  0  0  0  0  0  0  0  0  0  0  0
  150.4889  142.8919  157.9609 C   0  0  0  0  0  0  0  0  0  0  0  0
  150.9856  143.6896  158.9020 N   0  0  0  0  0  0  0  0  0  0  0  0
  151.8357  142.8298  159.5764 C   0  0  0  0  0  0  0  0  0  0  0  0
  152.6708  143.0560  160.6941 C   0  0  0  0  0  0  0  0  0  0  0  0
  153.4620  142.0122  161.2178 C   0  0  0  0  0  0  0  0  0  0  0  0
  153.4310  140.7294  160.6332 C   0  0  0  0  0  0  0  0  0  0  0  0
  152.6062  140.4799  159.5197 C   0  0  0  0  0  0  0  0  0  0  0  0
  151.8169  141.5233  159.0010 C   0  0  0  0  0  0  0  0  0  0  0  0
  150.6490  139.0381  155.1960 H   0  0  0  0  0  0  0  0  0  0  0  0
  151.6379  141.6305  155.5149 H   0  0  0  0  0  0  0  0  0  0  0  0
  149.7582  142.6110  154.6385 H   0  0  0  0  0  0  0  0  0  0  0  0
  149.3810  141.0427  153.9249 H   0  0  0  0  0  0  0  0  0  0  0  0
  146.4973  141.7714  157.3725 H   0  0  0  0  0  0  0  0  0  0  0  0
  144.3642  142.9595  156.9388 H   0  0  0  0  0  0  0  0  0  0  0  0
  145.6092  143.7217  152.8871 H   0  0  0  0  0  0  0  0  0  0  0  0
  147.7240  142.5478  153.2945 H   0  0  0  0  0  0  0  0  0  0  0  0
  149.4447  140.3906  157.1601 H   0  0  0  0  0  0  0  0  0  0  0  0
  151.0197  139.6444  157.2918 H   0  0  0  0  0  0  0  0  0  0  0  0
  149.7710  143.2564  157.2407 H   0  0  0  0  0  0  0  0  0  0  0  0
  152.7024  144.0345  161.1494 H   0  0  0  0  0  0  0  0  0  0  0  0
  154.0961  142.1969  162.0725 H   0  0  0  0  0  0  0  0  0  0  0  0
  154.0410  139.9366  161.0408 H   0  0  0  0  0  0  0  0  0  0  0  0
  152.5820  139.4992  159.0683 H   0  0  0  0  0  0  0  0  0  0  0  0
  1  2  1  0  0  0  0
  1 22  1  0  0  0  0
  2  3  1  0  0  0  0
  2 12  1  0  0  0  0
  2 23  1  0  0  0  0
  3  4  1  0  0  0  0
  3 24  1  0  0  0  0
  3 25  1  0  0  0  0
  4  5  1  0  0  0  0
  5 11  1  0  0  0  0
  5  6  2  0  0  0  0
  6  7  1  0  0  0  0
  6 26  1  0  0  0  0
  7  8  2  0  0  0  0
  7 27  1  0  0  0  0
  8  9  1  0  0  0  0
  8 10  1  0  0  0  0
 10 11  2  0  0  0  0
 10 28  1  0  0  0  0
 11 29  1  0  0  0  0
 12 13  1  0  0  0  0
 12 30  1  0  0  0  0
 12 31  1  0  0  0  0
 13 21  1  0  0  0  0
 13 14  1  0  0  0  0
 14 15  2  0  0  0  0
 14 32  1  0  0  0  0
 15 16  1  0  0  0  0
 16 21  2  0  0  0  0
 16 17  1  0  0  0  0
 17 18  2  0  0  0  0
 17 33  1  0  0  0  0
 18 19  1  0  0  0  0
 18 34  1  0  0  0  0
 19 20  2  0  0  0  0
 19 35  1  0  0  0  0
 20 21  1  0  0  0  0
 20 36  1  0  0  0  0
M  END
> <s_m_source_file>
AV-unprocessed.smi

> <i_m_source_file_index>
2098

> <i_lp_mmshare_version>
43012

> <i_f3d_flags>
0

> <s_epik_input>
W2NIXTFbY0hdW2NIXVtjSF1jKGMxMiluKFtjSF1uMilbQ0gyXVtDQEhdKFtPSF0pW0NIMl1PYzNbY0hdW2NIXWMoRilbY0hdW2NIXTM=

> <s_epik_cmdline>
J2VwaWtfcHl0aG9uJywgJy1waCcsICc3LjAnLCAnLXRuJywgJzgnLCAnLW1hJywgJzIwMCcsICctbWV0YWxfYmluZGluZycsICctaW1hZScsICc8aW5maWxlLm1hZT4nLCAnLW9tYWUnLCAnPG91dGZpbGUubWFlPic=

> <r_lp_tautomer_probability>
1

> <r_epik_Ionization_Penalty>
0.0603575

> <r_epik_Ionization_Penalty_Charging>
0

> <r_epik_Ionization_Penalty_Neutral>
0.0603575

> <r_epik_State_Penalty>
0.0523204

> <r_epik_Charging_Adjusted_Penalty>
0.0523204

> <i_epik_Tot_Q>
0

> <i_epik_Tot_abs_Q>
0

> <r_epik_Metal_State_Penalty>
5.46976e-05

> <b_epik_Metal_Only>
0

> <s_lp_Force_Field>
OPLS_2005

> <r_lp_Energy>
15.3663

> <b_lp_Chiralities_Consistent>
1

> <s_lp_Variant>
AV-unprocessed.smi:2098-2

> <Gold.Version>
5.8.1

> <Gold.Id.Protein>
6NUR|6NUR_protein|mol2

> <Gold.PLP.Fitness>
44.9947

> <Gold.PLP.PLP>
-43.2926

> <Gold.PLP.part.hbond>
-1.0000

> <Gold.PLP.part.metal>
0.0000

> <Gold.PLP.part.buried>
-4.3526

> <Gold.PLP.part.nonpolar>
-37.9709

> <Gold.PLP.part.repulsive>
0.1846

> <Gold.PLP.ligand.clash>
0.0000

> <Gold.PLP.ligand.torsion>
1.4140

> <Gold.PLP.Chemscore.Hbond>
0.5000

> <Gold.PLP.Chemscore.CHOScore>
1.0000

> <Gold.PLP.Chemscore.Metal>
0.0000

> <Gold.Chemscore.Hbonds>
donor molecule, donor type, donor heavy atom, donor atom, acceptor molecule, acceptor atom, score
      P1  H  7989  7998       L1     1  0.30
      L1  C    14    32       P1  8028  1.00

> <Gold.PLP.Chemscore.Internal.Correction>
0.0301

> <Gold.Rescore>
     Score         DG    S(hbond)    S(metal)    S(lipo)     H(rot)  DE(clash)    DE(int)     intcor
     10.70     -12.14       0.15        0.00     104.67       2.37       0.14       1.30       ----

> <Gold.Chemscore.Fitness>
10.7010

> <Gold.Chemscore.DG>
-12.1357

> <Gold.Chemscore.ZeroCoef>
-5.4800

> <Gold.Chemscore.Hbond>
0.1455

> <Gold.Chemscore.Metal>
0.0000

> <Gold.Chemscore.Lipo>
104.6651

> <Gold.Chemscore.Internal_Hbond>
0.0000

> <Gold.Chemscore.DEClash>
0.1364

> <Gold.Chemscore.DEInternal>
1.2983

> <Gold.Chemscore.Rot>
2.3735

> <Gold.Chemscore.Internal.Correction>
   9.000000E+99

> <Gold.Chemscore.Hbond.Weighted>
-0.4861

> <Gold.Chemscore.Metal.Weighted>
-0.0000

> <Gold.Chemscore.Lipo.Weighted>
-12.2458

> <Gold.Chemscore.Internal_Hbond.Weighted>
0.0000

> <Gold.Chemscore.DEClash.Weighted>
0.1364

> <Gold.Chemscore.DEInternal.Weighted>
1.2983

> <Gold.Chemscore.Rot.Weighted>
6.0762

> <Gold.Chemscore.Internal.Correction.Weighted>
   9.000000E+99

> <Gold.Protein.RotatedTorsions>
[ 6907 6896 6895 6894 ] final   29.75 input  -60.11 | X-H torsion
[ 7974 7965 7964 7962 ] final  -33.68 input  175.53 | X-H torsion
[ 8008 7997 7996 7995 ] final -169.61 input   59.86 | X-H torsion
[ 10167 10162 10161 10158 ] final  166.98 input  -65.29 | X-H torsion
[ 10718 10713 10712 10709 ] final    1.80 input   66.30 | X-H torsion
[ 10763 10752 10751 10750 ] final -105.81 input  -60.55 | X-H torsion
[ 11005 11000 10999 10996 ] final  172.30 input  -57.11 | X-H torsion

> <Gold.Protein.ActiveResidues>
 VAL166  LYS551  ARG553  GLY616  TRP617  ASP618  TYR619  PRO620  LYS621  CYS622 
 ASP623  PHE694  ASN695  SER759  ASP760  ASP761  ALA762  ILE779  LEU786  VAL792 
 PHE793  MET794  SER795  GLU796  ALA797  LYS798  CYS799  TRP800  GLU811  SER814 

> <Gold.Protein.RotatedAtoms>
  152.0360  134.9740  160.0573 H   0  0  0  0  0  0  0  0  0  0  0  0  # atno 6907 bound_to 6896
  152.1197  133.4342  159.4678 H   0  0  0  0  0  0  0  0  0  0  0  0  # atno 6908 bound_to 6896
  150.6848  134.2468  159.4538 H   0  0  0  0  0  0  0  0  0  0  0  0  # atno 6909 bound_to 6896
  146.0891  140.5946  142.8873 H   0  0  0  0  0  0  0  0  0  0  0  0  # atno 7974 bound_to 7965
  155.9073  140.1051  157.1306 H   0  0  0  0  0  0  0  0  0  0  0  0  # atno 8008 bound_to 7997
  154.4034  140.1281  156.4577 H   0  0  0  0  0  0  0  0  0  0  0  0  # atno 8009 bound_to 7997
  155.7352  140.3468  155.5080 H   0  0  0  0  0  0  0  0  0  0  0  0  # atno 8010 bound_to 7997
  139.4936  144.3970  151.9453 H   0  0  0  0  0  0  0  0  0  0  0  0  # atno 10167 bound_to 10162
  156.8535  130.5562  149.5668 H   0  0  0  0  0  0  0  0  0  0  0  0  # atno 10718 bound_to 10713
  154.7971  135.4735  154.0187 H   0  0  0  0  0  0  0  0  0  0  0  0  # atno 10763 bound_to 10752
  153.1721  135.6827  153.8601 H   0  0  0  0  0  0  0  0  0  0  0  0  # atno 10764 bound_to 10752
  153.8180  135.3208  155.3385 H   0  0  0  0  0  0  0  0  0  0  0  0  # atno 10765 bound_to 10752
  140.3282  134.7379  157.4115 H   0  0  0  0  0  0  0  0  0  0  0  0  # atno 11005 bound_to 11000
  144.7347  140.4773  143.6912 LP  0  0  0  0  0  0  0  0  0  0  0  0  # atno 17320 bound_to 7965
  145.6074  139.1509  143.3095 LP  0  0  0  0  0  0  0  0  0  0  0  0  # atno 17321 bound_to 7965
  140.3408  144.3205  150.5967 LP  0  0  0  0  0  0  0  0  0  0  0  0  # atno 17342 bound_to 10162
  140.5567  143.2198  151.7835 LP  0  0  0  0  0  0  0  0  0  0  0  0  # atno 17343 bound_to 10162
  156.0815  130.5824  150.9572 LP  0  0  0  0  0  0  0  0  0  0  0  0  # atno 17370 bound_to 10713
  157.6290  131.0923  150.8478 LP  0  0  0  0  0  0  0  0  0  0  0  0  # atno 17371 bound_to 10713
  140.0883  134.5636  155.8470 LP  0  0  0  0  0  0  0  0  0  0  0  0  # atno 17394 bound_to 11000
  141.2070  133.6660  156.6277 LP  0  0  0  0  0  0  0  0  0  0  0  0  # atno 17395 bound_to 11000

$$$$
