AV-unprocessed.smi:3168|AV-procd|sdf|12100|dock8
  -GOLD-   2272017533D 1   1.00000     0.00000
 Structure written by MMmdl.
 33 34  0  0  0  0  0  0  0  0  1 V2000
  151.5757  137.7826  154.1747 C   0  0  0  0  0  0  0  0  0  0  0  0
  150.9101  138.5159  155.3574 C   0  0  1  0  0  0  0  0  0  0  0  0
  151.9359  139.1359  156.3171 C   0  0  0  0  0  0  0  0  0  0  0  0
  153.1435  138.9917  156.1230 O   0  0  0  0  0  0  0  0  0  0  0  0
  151.4338  139.8477  157.3385 N   0  0  0  0  0  0  0  0  0  0  0  0
  152.2158  140.6071  158.3075 C   0  0  0  0  0  0  0  0  0  0  0  0
  151.5886  141.9862  158.5709 C   0  0  2  0  0  0  0  0  0  0  0  0
  151.3549  142.8430  157.3275 C   0  0  0  0  0  0  0  0  0  0  0  0
  151.3212  144.2565  157.8829 C   0  0  0  0  0  0  0  0  0  0  0  0
  152.0048  144.1376  159.2496 C   0  0  0  0  0  0  0  0  0  0  0  0
  152.4686  142.7958  159.3324 O   0  0  0  0  0  0  0  0  0  0  0  0
  149.9596  139.5352  154.9253 N   0  0  0  0  0  0  0  0  0  0  0  0
  148.6924  139.3462  154.4111 C   0  0  0  0  0  0  0  0  0  0  0  0
  148.1459  140.5790  154.1979 C   0  0  0  0  0  0  0  0  0  0  0  0
  149.1597  141.4770  154.6319 C   0  0  0  0  0  0  0  0  0  0  0  0
  150.2369  140.8517  155.0766 N   0  0  0  0  0  0  0  0  0  0  0  0
  152.2453  136.9975  154.5278 H   0  0  0  0  0  0  0  0  0  0  0  0
  152.1618  138.4559  153.5475 H   0  0  0  0  0  0  0  0  0  0  0  0
  150.8255  137.3099  153.5404 H   0  0  0  0  0  0  0  0  0  0  0  0
  150.3434  137.7693  155.9164 H   0  0  0  0  0  0  0  0  0  0  0  0
  150.4296  139.9054  157.4236 H   0  0  0  0  0  0  0  0  0  0  0  0
  152.2421  140.0369  159.2361 H   0  0  0  0  0  0  0  0  0  0  0  0
  153.2531  140.7126  157.9852 H   0  0  0  0  0  0  0  0  0  0  0  0
  150.6543  141.8738  159.1246 H   0  0  0  0  0  0  0  0  0  0  0  0
  152.1940  142.7413  156.6379 H   0  0  0  0  0  0  0  0  0  0  0  0
  150.4442  142.5737  156.7911 H   0  0  0  0  0  0  0  0  0  0  0  0
  151.8407  144.9527  157.2237 H   0  0  0  0  0  0  0  0  0  0  0  0
  150.2952  144.6068  158.0011 H   0  0  0  0  0  0  0  0  0  0  0  0
  152.8319  144.8387  159.3643 H   0  0  0  0  0  0  0  0  0  0  0  0
  151.2899  144.3220  160.0525 H   0  0  0  0  0  0  0  0  0  0  0  0
  148.2883  138.3589  154.2429 H   0  0  0  0  0  0  0  0  0  0  0  0
  147.1683  140.8051  153.7991 H   0  0  0  0  0  0  0  0  0  0  0  0
  149.1430  142.5568  154.6425 H   0  0  0  0  0  0  0  0  0  0  0  0
  1  2  1  0  0  0  0
  1 17  1  0  0  0  0
  1 18  1  0  0  0  0
  1 19  1  0  0  0  0
  2  3  1  0  0  0  0
  2 12  1  0  0  0  0
  2 20  1  0  0  0  0
  3  4  2  0  0  0  0
  3  5  1  0  0  0  0
  5  6  1  0  0  0  0
  5 21  1  0  0  0  0
  6  7  1  0  0  0  0
  6 22  1  0  0  0  0
  6 23  1  0  0  0  0
  7 11  1  0  0  0  0
  7  8  1  0  0  0  0
  7 24  1  0  0  0  0
  8  9  1  0  0  0  0
  8 25  1  0  0  0  0
  8 26  1  0  0  0  0
  9 10  1  0  0  0  0
  9 27  1  0  0  0  0
  9 28  1  0  0  0  0
 10 11  1  0  0  0  0
 10 29  1  0  0  0  0
 10 30  1  0  0  0  0
 12 16  1  0  0  0  0
 12 13  1  0  0  0  0
 13 14  2  0  0  0  0
 13 31  1  0  0  0  0
 14 15  1  0  0  0  0
 14 32  1  0  0  0  0
 15 16  2  0  0  0  0
 15 33  1  0  0  0  0
M  END
> <s_m_source_file>
AV-unprocessed.smi

> <i_m_source_file_index>
3168

> <i_lp_mmshare_version>
43012

> <i_f3d_flags>
0

> <s_epik_input>
bjFbY0hdW2NIXVtjSF1uMVtDQEhdKFtDSDNdKUMoPU8pW05IXVtDSDJdW0NAQEhdMltDSDJdW0NIMl1bQ0gyXU8y

> <s_epik_cmdline>
J2VwaWtfcHl0aG9uJywgJy1waCcsICc3LjAnLCAnLXRuJywgJzgnLCAnLW1hJywgJzIwMCcsICctbWV0YWxfYmluZGluZycsICctaW1hZScsICc8aW5maWxlLm1hZT4nLCAnLW9tYWUnLCAnPG91dGZpbGUubWFlPic=

> <r_lp_tautomer_probability>
1

> <r_epik_Ionization_Penalty>
4.14877e-05

> <r_epik_Ionization_Penalty_Charging>
0

> <r_epik_Ionization_Penalty_Neutral>
4.14877e-05

> <r_epik_State_Penalty>
-0

> <r_epik_Charging_Adjusted_Penalty>
0

> <i_epik_Tot_Q>
0

> <i_epik_Tot_abs_Q>
0

> <r_epik_Metal_State_Penalty>
-0

> <b_epik_Metal_Only>
0

> <s_lp_Force_Field>
OPLS_2005

> <r_lp_Energy>
21.2446

> <b_lp_Chiralities_Consistent>
1

> <s_lp_Variant>
AV-unprocessed.smi:3168-2

> <Gold.Version>
5.8.1

> <Gold.Id.Protein>
6NUR|6NUR_protein|mol2

> <Gold.PLP.Fitness>
39.8875

> <Gold.PLP.PLP>
-33.2552

> <Gold.PLP.part.hbond>
-2.0000

> <Gold.PLP.part.metal>
0.0000

> <Gold.PLP.part.buried>
-3.7160

> <Gold.PLP.part.nonpolar>
-28.1693

> <Gold.PLP.part.repulsive>
0.1625

> <Gold.PLP.ligand.clash>
0.0000

> <Gold.PLP.ligand.torsion>
0.6210

> <Gold.PLP.Chemscore.Hbond>
1.5880

> <Gold.PLP.Chemscore.CHOScore>
1.0000

> <Gold.PLP.Chemscore.Metal>
0.0000

> <Gold.Chemscore.Hbonds>
donor molecule, donor type, donor heavy atom, donor atom, acceptor molecule, acceptor atom, score
      P1  H  7989  7998       L1    16  0.45
      P1  H  7997  8010       L1     4  1.00
      L1  C    15    33       P1  8028  1.00

> <Gold.PLP.Chemscore.Internal.Correction>
0.1104

> <Gold.Rescore>
     Score         DG    S(hbond)    S(metal)    S(lipo)     H(rot)  DE(clash)    DE(int)     intcor
     14.11     -16.51       1.56        0.00      84.85       1.61       0.25       2.15       ----

> <Gold.Chemscore.Fitness>
14.1052

> <Gold.Chemscore.DG>
-16.5057

> <Gold.Chemscore.ZeroCoef>
-5.4800

> <Gold.Chemscore.Hbond>
1.5625

> <Gold.Chemscore.Metal>
0.0000

> <Gold.Chemscore.Lipo>
84.8473

> <Gold.Chemscore.Internal_Hbond>
0.0000

> <Gold.Chemscore.DEClash>
0.2524

> <Gold.Chemscore.DEInternal>
2.1482

> <Gold.Chemscore.Rot>
1.6094

> <Gold.Chemscore.Internal.Correction>
   9.000000E+99

> <Gold.Chemscore.Hbonds>
donor molecule, donor type, donor heavy atom, donor atom, acceptor molecule, acceptor atom, score
      P1  H  7989  7998       L1    16  0.03
      P1  H  7997  8010       L1     4  0.99

> <Gold.Chemscore.Hbond.Weighted>
-5.2186

> <Gold.Chemscore.Metal.Weighted>
-0.0000

> <Gold.Chemscore.Lipo.Weighted>
-9.9271

> <Gold.Chemscore.Internal_Hbond.Weighted>
0.0000

> <Gold.Chemscore.DEClash.Weighted>
0.2524

> <Gold.Chemscore.DEInternal.Weighted>
2.1482

> <Gold.Chemscore.Rot.Weighted>
4.1201

> <Gold.Chemscore.Internal.Correction.Weighted>
   9.000000E+99

> <Gold.Protein.RotatedTorsions>
[ 6907 6896 6895 6894 ] final   85.59 input  -60.11 | X-H torsion
[ 7974 7965 7964 7962 ] final  136.31 input  175.53 | X-H torsion
[ 8008 7997 7996 7995 ] final   75.26 input   59.86 | X-H torsion
[ 10167 10162 10161 10158 ] final  158.85 input  -65.29 | X-H torsion
[ 10718 10713 10712 10709 ] final -156.37 input   66.30 | X-H torsion
[ 10763 10752 10751 10750 ] final  141.10 input  -60.55 | X-H torsion
[ 11005 11000 10999 10996 ] final -161.42 input  -57.11 | X-H torsion

> <Gold.Protein.ActiveResidues>
 VAL166  LYS551  ARG553  GLY616  TRP617  ASP618  TYR619  PRO620  LYS621  CYS622 
 ASP623  PHE694  ASN695  SER759  ASP760  ASP761  ALA762  ILE779  LEU786  VAL792 
 PHE793  MET794  SER795  GLU796  ALA797  LYS798  CYS799  TRP800  GLU811  SER814 

> <Gold.Protein.RotatedAtoms>
  152.5378  134.2563  159.8917 H   0  0  0  0  0  0  0  0  0  0  0  0  # atno 6907 bound_to 6896
  151.2524  133.4336  159.2619 H   0  0  0  0  0  0  0  0  0  0  0  0  # atno 6908 bound_to 6896
  151.0527  134.9698  159.8276 H   0  0  0  0  0  0  0  0  0  0  0  0  # atno 6909 bound_to 6896
  144.9577  139.4746  143.5495 H   0  0  0  0  0  0  0  0  0  0  0  0  # atno 7974 bound_to 7965
  155.8103  140.3473  155.5454 H   0  0  0  0  0  0  0  0  0  0  0  0  # atno 8008 bound_to 7997
  155.8448  140.0947  157.1732 H   0  0  0  0  0  0  0  0  0  0  0  0  # atno 8009 bound_to 7997
  154.4006  140.1387  156.3759 H   0  0  0  0  0  0  0  0  0  0  0  0  # atno 8010 bound_to 7997
  139.4829  144.4786  151.8476 H   0  0  0  0  0  0  0  0  0  0  0  0  # atno 10167 bound_to 10162
  156.5256  130.8497  151.2698 H   0  0  0  0  0  0  0  0  0  0  0  0  # atno 10718 bound_to 10713
  153.9336  135.2987  155.3445 H   0  0  0  0  0  0  0  0  0  0  0  0  # atno 10763 bound_to 10752
  154.7514  135.4978  153.9298 H   0  0  0  0  0  0  0  0  0  0  0  0  # atno 10764 bound_to 10752
  153.1079  135.6751  153.9659 H   0  0  0  0  0  0  0  0  0  0  0  0  # atno 10765 bound_to 10752
  140.6206  134.4755  157.5223 H   0  0  0  0  0  0  0  0  0  0  0  0  # atno 11005 bound_to 11000
  146.3343  139.8706  142.8841 LP  0  0  0  0  0  0  0  0  0  0  0  0  # atno 17320 bound_to 7965
  145.2747  141.0120  143.3751 LP  0  0  0  0  0  0  0  0  0  0  0  0  # atno 17321 bound_to 7965
  140.4260  144.2180  150.5887 LP  0  0  0  0  0  0  0  0  0  0  0  0  # atno 17342 bound_to 10162
  140.4827  143.2374  151.8933 LP  0  0  0  0  0  0  0  0  0  0  0  0  # atno 17343 bound_to 10162
  157.7430  130.9902  150.2558 LP  0  0  0  0  0  0  0  0  0  0  0  0  # atno 17370 bound_to 10713
  156.3108  130.3771  149.7663 LP  0  0  0  0  0  0  0  0  0  0  0  0  # atno 17371 bound_to 10713
  139.9155  134.8255  156.1381 LP  0  0  0  0  0  0  0  0  0  0  0  0  # atno 17394 bound_to 11000
  141.0745  133.6781  156.2208 LP  0  0  0  0  0  0  0  0  0  0  0  0  # atno 17395 bound_to 11000

$$$$
