AV-unprocessed.smi:1941|AV-procd|sdf|7846|dock9
  -GOLD-   22720 9593D 1   1.00000     0.00000
 Structure written by MMmdl.
 40 41  0  0  0  0  0  0  0  0  1 V2000
  146.4750  131.3522  152.3235 C   0  0  0  0  0  0  0  0  0  0  0  0
  145.7189  132.4532  151.6634 C   0  0  0  0  0  0  0  0  0  0  0  0
  146.1400  133.7196  151.6293 N   0  0  0  0  0  0  0  0  0  0  0  0
  145.2437  134.5667  150.9706 C   0  0  0  0  0  0  0  0  0  0  0  0
  145.5379  136.0355  150.8726 C   0  0  0  0  0  0  0  0  0  0  0  0
  145.6859  136.7304  152.2406 C   0  0  0  0  0  0  0  0  0  0  0  0
  146.7347  137.7481  152.2385 N   0  0  0  0  0  0  0  0  0  0  0  0
  146.8272  138.7707  153.1011 C   0  0  0  0  0  0  0  0  0  0  0  0
  146.0448  138.9628  154.0321 O   0  0  0  0  0  0  0  0  0  0  0  0
  147.8636  139.5701  152.8112 N   0  0  0  0  0  0  0  0  0  0  0  0
  148.1983  140.8094  153.5089 C   0  0  1  0  0  0  0  0  0  0  0  0
  146.8985  141.5768  153.7971 C   0  0  0  0  0  0  0  0  0  0  0  0
  148.9873  140.4868  154.7952 C   0  0  2  0  0  0  0  0  0  0  0  0
  149.7841  141.6614  155.3656 C   0  0  0  0  0  0  0  0  0  0  0  0
  150.8507  140.9497  156.1649 C   0  0  0  0  0  0  0  0  0  0  0  0
  151.1668  139.7588  155.2668 C   0  0  0  0  0  0  0  0  0  0  0  0
  149.9676  139.4790  154.5502 O   0  0  0  0  0  0  0  0  0  0  0  0
  144.1399  133.9125  150.4821 C   0  0  0  0  0  0  0  0  0  0  0  0
  144.1799  132.2102  150.8474 S   0  0  0  0  0  0  0  0  0  0  0  0
  147.2148  131.7573  153.0145 H   0  0  0  0  0  0  0  0  0  0  0  0
  146.9877  130.7507  151.5728 H   0  0  0  0  0  0  0  0  0  0  0  0
  145.7913  130.7120  152.8815 H   0  0  0  0  0  0  0  0  0  0  0  0
  146.4507  136.1902  150.2959 H   0  0  0  0  0  0  0  0  0  0  0  0
  144.7480  136.5314  150.3073 H   0  0  0  0  0  0  0  0  0  0  0  0
  144.7313  137.1623  152.5463 H   0  0  0  0  0  0  0  0  0  0  0  0
  145.9384  135.9893  152.9991 H   0  0  0  0  0  0  0  0  0  0  0  0
  147.4273  137.6825  151.5070 H   0  0  0  0  0  0  0  0  0  0  0  0
  148.4433  139.3254  152.0222 H   0  0  0  0  0  0  0  0  0  0  0  0
  148.8171  141.4384  152.8662 H   0  0  0  0  0  0  0  0  0  0  0  0
  147.1008  142.5411  154.2633 H   0  0  0  0  0  0  0  0  0  0  0  0
  146.2444  141.0148  154.4648 H   0  0  0  0  0  0  0  0  0  0  0  0
  146.3474  141.7727  152.8768 H   0  0  0  0  0  0  0  0  0  0  0  0
  148.3132  140.1081  155.5656 H   0  0  0  0  0  0  0  0  0  0  0  0
  150.2444  142.2413  154.5642 H   0  0  0  0  0  0  0  0  0  0  0  0
  149.1776  142.3345  155.9719 H   0  0  0  0  0  0  0  0  0  0  0  0
  151.7221  141.5715  156.3727 H   0  0  0  0  0  0  0  0  0  0  0  0
  150.4393  140.6061  157.1149 H   0  0  0  0  0  0  0  0  0  0  0  0
  151.9450  140.0163  154.5477 H   0  0  0  0  0  0  0  0  0  0  0  0
  151.5035  138.8909  155.8339 H   0  0  0  0  0  0  0  0  0  0  0  0
  143.3024  134.3297  149.9429 H   0  0  0  0  0  0  0  0  0  0  0  0
  1  2  1  0  0  0  0
  1 20  1  0  0  0  0
  1 21  1  0  0  0  0
  1 22  1  0  0  0  0
  2 19  1  0  0  0  0
  2  3  2  0  0  0  0
  3  4  1  0  0  0  0
  4  5  1  0  0  0  0
  4 18  2  0  0  0  0
  5  6  1  0  0  0  0
  5 23  1  0  0  0  0
  5 24  1  0  0  0  0
  6  7  1  0  0  0  0
  6 25  1  0  0  0  0
  6 26  1  0  0  0  0
  7  8  1  0  0  0  0
  7 27  1  0  0  0  0
  8  9  2  0  0  0  0
  8 10  1  0  0  0  0
 10 11  1  0  0  0  0
 10 28  1  0  0  0  0
 11 12  1  0  0  0  0
 11 13  1  0  0  0  0
 11 29  1  0  0  0  0
 12 30  1  0  0  0  0
 12 31  1  0  0  0  0
 12 32  1  0  0  0  0
 13 17  1  0  0  0  0
 13 14  1  0  0  0  0
 13 33  1  0  0  0  0
 14 15  1  0  0  0  0
 14 34  1  0  0  0  0
 14 35  1  0  0  0  0
 15 16  1  0  0  0  0
 15 36  1  0  0  0  0
 15 37  1  0  0  0  0
 16 17  1  0  0  0  0
 16 38  1  0  0  0  0
 16 39  1  0  0  0  0
 18 19  1  0  0  0  0
 18 40  1  0  0  0  0
M  END
> <s_m_source_file>
AV-unprocessed.smi

> <i_m_source_file_index>
1941

> <i_lp_mmshare_version>
43012

> <i_f3d_flags>
0

> <s_epik_input>
W0NIM11jMW5jKFtjSF1zMSlbQ0gyXVtDSDJdW05IXUMoPU8pW05IXVtDQEhdKFtDSDNdKVtDQEBIXTJbQ0gyXVtDSDJdW0NIMl1PMg==

> <s_epik_cmdline>
J2VwaWtfcHl0aG9uJywgJy1waCcsICc3LjAnLCAnLXRuJywgJzgnLCAnLW1hJywgJzIwMCcsICctbWV0YWxfYmluZGluZycsICctaW1hZScsICc8aW5maWxlLm1hZT4nLCAnLW9tYWUnLCAnPG91dGZpbGUubWFlPic=

> <r_epik_Ionization_Penalty>
0.00195486

> <r_epik_Ionization_Penalty_Charging>
0

> <r_epik_Ionization_Penalty_Neutral>
0.00195486

> <r_epik_State_Penalty>
0.00129472

> <r_epik_Charging_Adjusted_Penalty>
0.00129472

> <i_epik_Tot_Q>
0

> <i_epik_Tot_abs_Q>
0

> <r_epik_Metal_State_Penalty>
-0

> <b_epik_Metal_Only>
0

> <s_lp_Force_Field>
OPLS_2005

> <r_lp_Energy>
10.9889

> <b_lp_Chiralities_Consistent>
1

> <s_lp_Variant>
AV-unprocessed.smi:1941-2

> <Gold.Version>
5.8.1

> <Gold.Id.Protein>
6NUR|6NUR_protein|mol2

> <Gold.PLP.Fitness>
40.5616

> <Gold.PLP.PLP>
-36.4369

> <Gold.PLP.part.hbond>
-1.6935

> <Gold.PLP.part.metal>
0.0000

> <Gold.PLP.part.buried>
-2.9806

> <Gold.PLP.part.nonpolar>
-32.8859

> <Gold.PLP.part.repulsive>
0.5660

> <Gold.PLP.ligand.clash>
0.0000

> <Gold.PLP.ligand.torsion>
1.0032

> <Gold.PLP.Chemscore.Hbond>
1.0363

> <Gold.PLP.Chemscore.CHOScore>
1.0000

> <Gold.PLP.Chemscore.Metal>
0.0000

> <Gold.Chemscore.Hbonds>
donor molecule, donor type, donor heavy atom, donor atom, acceptor molecule, acceptor atom, score
      L1  H     7    27       P1  7948  0.27
      L1  H    10    28       P1  7957  0.75
      L1  C    18    40       P1 10186  1.00

> <Gold.PLP.Chemscore.Internal.Correction>
0.0221

> <Gold.Rescore>
     Score         DG    S(hbond)    S(metal)    S(lipo)     H(rot)  DE(clash)    DE(int)     intcor
     13.20     -15.45       1.26        0.00      86.23       1.69       0.05       2.20       ----

> <Gold.Chemscore.Fitness>
13.1976

> <Gold.Chemscore.DG>
-15.4501

> <Gold.Chemscore.ZeroCoef>
-5.4800

> <Gold.Chemscore.Hbond>
1.2615

> <Gold.Chemscore.Metal>
0.0000

> <Gold.Chemscore.Lipo>
86.2290

> <Gold.Chemscore.Internal_Hbond>
0.0000

> <Gold.Chemscore.DEClash>
0.0534

> <Gold.Chemscore.DEInternal>
2.1991

> <Gold.Chemscore.Rot>
1.6923

> <Gold.Chemscore.Internal.Correction>
   9.000000E+99

> <Gold.Chemscore.Hbonds>
donor molecule, donor type, donor heavy atom, donor atom, acceptor molecule, acceptor atom, score
      L1  H     7    27       P1  7948  0.26
      L1  H    10    28       P1  7957  0.74

> <Gold.Chemscore.Hbond.Weighted>
-4.2136

> <Gold.Chemscore.Metal.Weighted>
-0.0000

> <Gold.Chemscore.Lipo.Weighted>
-10.0888

> <Gold.Chemscore.Internal_Hbond.Weighted>
0.0000

> <Gold.Chemscore.DEClash.Weighted>
0.0534

> <Gold.Chemscore.DEInternal.Weighted>
2.1991

> <Gold.Chemscore.Rot.Weighted>
4.3323

> <Gold.Chemscore.Internal.Correction.Weighted>
   9.000000E+99

> <Gold.Protein.RotatedTorsions>
[ 6907 6896 6895 6894 ] final   63.91 input  -60.11 | X-H torsion
[ 7974 7965 7964 7962 ] final   64.51 input  175.53 | X-H torsion
[ 8008 7997 7996 7995 ] final  132.70 input   59.86 | X-H torsion
[ 10167 10162 10161 10158 ] final   77.25 input  -65.29 | X-H torsion
[ 10718 10713 10712 10709 ] final   34.12 input   66.30 | X-H torsion
[ 10763 10752 10751 10750 ] final  -18.16 input  -60.55 | X-H torsion
[ 11005 11000 10999 10996 ] final -104.48 input  -57.11 | X-H torsion

> <Gold.Protein.ActiveResidues>
 VAL166  LYS551  ARG553  GLY616  TRP617  ASP618  TYR619  PRO620  LYS621  CYS622 
 ASP623  PHE694  ASN695  SER759  ASP760  ASP761  ALA762  ILE779  LEU786  VAL792 
 PHE793  MET794  SER795  GLU796  ALA797  LYS798  CYS799  TRP800  GLU811  SER814 

> <Gold.Protein.RotatedAtoms>
  152.4290  134.5813  159.9948 H   0  0  0  0  0  0  0  0  0  0  0  0  # atno 6907 bound_to 6896
  151.5942  133.3357  159.3042 H   0  0  0  0  0  0  0  0  0  0  0  0  # atno 6908 bound_to 6896
  150.8182  134.7411  159.6813 H   0  0  0  0  0  0  0  0  0  0  0  0  # atno 6909 bound_to 6896
  145.8494  139.3244  143.0884 H   0  0  0  0  0  0  0  0  0  0  0  0  # atno 7974 bound_to 7965
  156.2985  140.2540  156.3133 H   0  0  0  0  0  0  0  0  0  0  0  0  # atno 8008 bound_to 7997
  154.9305  140.0398  157.2064 H   0  0  0  0  0  0  0  0  0  0  0  0  # atno 8009 bound_to 7997
  154.8222  140.2862  155.5783 H   0  0  0  0  0  0  0  0  0  0  0  0  # atno 8010 bound_to 7997
  139.9835  144.5809  150.7879 H   0  0  0  0  0  0  0  0  0  0  0  0  # atno 10167 bound_to 10162
  157.3064  130.7377  149.6698 H   0  0  0  0  0  0  0  0  0  0  0  0  # atno 10718 bound_to 10713
  153.5849  135.7004  153.5447 H   0  0  0  0  0  0  0  0  0  0  0  0  # atno 10763 bound_to 10752
  153.3228  135.4069  155.1431 H   0  0  0  0  0  0  0  0  0  0  0  0  # atno 10764 bound_to 10752
  154.8611  135.3700  154.5379 H   0  0  0  0  0  0  0  0  0  0  0  0  # atno 10765 bound_to 10752
  141.1099  133.8726  157.1615 H   0  0  0  0  0  0  0  0  0  0  0  0  # atno 11005 bound_to 11000
  145.9375  140.9004  143.0325 LP  0  0  0  0  0  0  0  0  0  0  0  0  # atno 17320 bound_to 7965
  144.6730  140.1503  143.7430 LP  0  0  0  0  0  0  0  0  0  0  0  0  # atno 17321 bound_to 7965
  140.7480  143.2916  151.3316 LP  0  0  0  0  0  0  0  0  0  0  0  0  # atno 17342 bound_to 10162
  139.6392  144.0572  152.2540 LP  0  0  0  0  0  0  0  0  0  0  0  0  # atno 17343 bound_to 10162
  155.9675  130.4264  150.4699 LP  0  0  0  0  0  0  0  0  0  0  0  0  # atno 17370 bound_to 10713
  157.2689  131.0583  151.2272 LP  0  0  0  0  0  0  0  0  0  0  0  0  # atno 17371 bound_to 10713
  139.9987  135.0036  157.0140 LP  0  0  0  0  0  0  0  0  0  0  0  0  # atno 17394 bound_to 11000
  140.4804  134.1295  155.7216 LP  0  0  0  0  0  0  0  0  0  0  0  0  # atno 17395 bound_to 11000

$$$$
