AV-unprocessed.smi:203|AV-procd|sdf|1585|dock3
  -GOLD-   2262019473D 1   1.00000     0.00000
 Structure written by MMmdl.
 57 61  0  0  0  0  0  0  0  0  1 V2000
  146.6081  131.1197  156.4121 O   0  0  0  0  0  0  0  0  0  0  0  0
  147.0638  132.1469  156.9089 C   0  0  0  0  0  0  0  0  0  0  0  0
  147.9598  132.1592  158.1353 C   0  0  0  0  0  0  0  0  0  0  0  0
  148.0670  133.6559  158.4919 C   0  0  2  0  0  0  0  0  0  0  0  0
  147.3537  134.0596  159.8222 C   0  0  1  0  0  0  0  0  0  0  0  0
  147.4596  132.9668  160.9183 C   0  0  0  0  0  0  0  0  0  0  0  0
  146.7409  133.3858  162.2077 C   0  0  0  0  0  0  0  0  0  0  0  0
  147.2904  134.7298  162.6983 C   0  0  0  0  0  0  0  0  0  0  0  0
  147.1719  135.7909  161.5962 C   0  0  0  0  0  0  0  0  0  0  0  0
  147.8202  135.3500  160.3618 N   0  0  0  0  0  0  0  0  0  0  0  0
  147.9055  136.3734  159.4833 C   0  0  0  0  0  0  0  0  0  0  0  0
  146.7634  136.7486  158.8569 N   0  0  0  0  0  0  0  0  0  0  0  0
  146.7780  137.7784  158.0051 C   0  0  0  0  0  0  0  0  0  0  0  0
  147.8046  138.5549  157.6511 N   0  0  0  0  0  0  0  0  0  0  0  0
  148.9555  138.1715  158.2746 C   0  0  0  0  0  0  0  0  0  0  0  0
  149.0986  137.0905  159.1879 C   0  0  0  0  0  0  0  0  0  0  0  0
  150.4204  136.9923  159.6060 N   0  0  0  0  0  0  0  0  0  0  0  0
  151.0207  137.9738  158.9908 C   0  0  0  0  0  0  0  0  0  0  0  0
  150.2096  138.7504  158.1942 N   0  0  0  0  0  0  0  0  0  0  0  0
  150.6043  139.9202  157.4299 C   0  0  0  0  0  0  0  0  0  0  0  0
  152.1157  140.2372  157.5275 C   0  0  2  0  0  0  0  0  0  0  0  0
  152.8354  139.1870  156.9151 O   0  0  0  0  0  0  0  0  0  0  0  0
  152.6974  140.4820  158.9414 C   0  0  2  0  0  0  0  0  0  0  0  0
  152.3868  141.8327  159.5904 C   0  0  0  0  0  0  0  0  0  0  0  0
  153.4898  141.9272  160.6211 C   0  0  0  0  0  0  0  0  0  0  0  0
  154.6729  141.3049  159.8829 C   0  0  0  0  0  0  0  0  0  0  0  0
  154.1181  140.3633  158.9677 O   0  0  0  0  0  0  0  0  0  0  0  0
  147.5210  134.4013  157.2553 C   0  0  0  0  0  0  0  0  0  0  0  0
  146.8553  133.3846  156.4650 N   0  0  0  0  0  0  0  0  0  0  0  0
  147.5446  131.5508  158.9389 H   0  0  0  0  0  0  0  0  0  0  0  0
  148.9350  131.7486  157.8712 H   0  0  0  0  0  0  0  0  0  0  0  0
  149.1235  133.9155  158.5611 H   0  0  0  0  0  0  0  0  0  0  0  0
  146.2931  134.1761  159.5972 H   0  0  0  0  0  0  0  0  0  0  0  0
  147.0379  132.0243  160.5711 H   0  0  0  0  0  0  0  0  0  0  0  0
  148.5049  132.7645  161.1518 H   0  0  0  0  0  0  0  0  0  0  0  0
  145.6689  133.4685  162.0244 H   0  0  0  0  0  0  0  0  0  0  0  0
  146.8707  132.6231  162.9759 H   0  0  0  0  0  0  0  0  0  0  0  0
  146.7520  135.0534  163.5894 H   0  0  0  0  0  0  0  0  0  0  0  0
  148.3358  134.6170  162.9884 H   0  0  0  0  0  0  0  0  0  0  0  0
  146.1197  135.9991  161.3971 H   0  0  0  0  0  0  0  0  0  0  0  0
  147.6204  136.7239  161.9410 H   0  0  0  0  0  0  0  0  0  0  0  0
  145.8297  138.0206  157.5487 H   0  0  0  0  0  0  0  0  0  0  0  0
  152.0750  138.1710  159.1202 H   0  0  0  0  0  0  0  0  0  0  0  0
  150.3150  139.7642  156.3898 H   0  0  0  0  0  0  0  0  0  0  0  0
  150.0200  140.7699  157.7857 H   0  0  0  0  0  0  0  0  0  0  0  0
  152.3179  141.1281  156.9322 H   0  0  0  0  0  0  0  0  0  0  0  0
  152.2255  138.6378  156.4469 H   0  0  0  0  0  0  0  0  0  0  0  0
  152.3322  139.6971  159.6065 H   0  0  0  0  0  0  0  0  0  0  0  0
  152.4800  142.6535  158.8807 H   0  0  0  0  0  0  0  0  0  0  0  0
  151.3891  141.8733  160.0286 H   0  0  0  0  0  0  0  0  0  0  0  0
  153.6831  142.9484  160.9508 H   0  0  0  0  0  0  0  0  0  0  0  0
  153.2360  141.3273  161.4961 H   0  0  0  0  0  0  0  0  0  0  0  0
  155.2091  142.0654  159.3149 H   0  0  0  0  0  0  0  0  0  0  0  0
  155.3823  140.8300  160.5613 H   0  0  0  0  0  0  0  0  0  0  0  0
  146.8428  135.2167  157.5071 H   0  0  0  0  0  0  0  0  0  0  0  0
  148.3357  134.8237  156.6656 H   0  0  0  0  0  0  0  0  0  0  0  0
  146.2893  133.6069  155.6588 H   0  0  0  0  0  0  0  0  0  0  0  0
  1  2  2  0  0  0  0
  2 29  1  0  0  0  0
  2  3  1  0  0  0  0
  3  4  1  0  0  0  0
  3 30  1  0  0  0  0
  3 31  1  0  0  0  0
  4  5  1  0  0  0  0
  4 28  1  0  0  0  0
  4 32  1  0  0  0  0
  5 10  1  0  0  0  0
  5  6  1  0  0  0  0
  5 33  1  0  0  0  0
  6  7  1  0  0  0  0
  6 34  1  0  0  0  0
  6 35  1  0  0  0  0
  7  8  1  0  0  0  0
  7 36  1  0  0  0  0
  7 37  1  0  0  0  0
  8  9  1  0  0  0  0
  8 38  1  0  0  0  0
  8 39  1  0  0  0  0
  9 10  1  0  0  0  0
  9 40  1  0  0  0  0
  9 41  1  0  0  0  0
 10 11  1  0  0  0  0
 11 16  1  0  0  0  0
 11 12  2  0  0  0  0
 12 13  1  0  0  0  0
 13 14  2  0  0  0  0
 13 42  1  0  0  0  0
 14 15  1  0  0  0  0
 15 19  1  0  0  0  0
 15 16  2  0  0  0  0
 16 17  1  0  0  0  0
 17 18  2  0  0  0  0
 18 19  1  0  0  0  0
 18 43  1  0  0  0  0
 19 20  1  0  0  0  0
 20 21  1  0  0  0  0
 20 44  1  0  0  0  0
 20 45  1  0  0  0  0
 21 22  1  0  0  0  0
 21 23  1  0  0  0  0
 21 46  1  0  0  0  0
 22 47  1  0  0  0  0
 23 27  1  0  0  0  0
 23 24  1  0  0  0  0
 23 48  1  0  0  0  0
 24 25  1  0  0  0  0
 24 49  1  0  0  0  0
 24 50  1  0  0  0  0
 25 26  1  0  0  0  0
 25 51  1  0  0  0  0
 25 52  1  0  0  0  0
 26 27  1  0  0  0  0
 26 53  1  0  0  0  0
 26 54  1  0  0  0  0
 28 29  1  0  0  0  0
 28 55  1  0  0  0  0
 28 56  1  0  0  0  0
 29 57  1  0  0  0  0
M  END
> <s_m_source_file>
AV-unprocessed.smi

> <i_m_source_file_index>
203

> <i_lp_mmshare_version>
43012

> <i_f3d_flags>
0

> <s_epik_input>
Tz1DMVtDSDJdW0NASF0oW0NIMl1bTkhdMSlbQ0BASF0yW0NIMl1bQ0gyXVtDSDJdW0NIMl1OMmMobltjSF1uMyljKGMzNCluW2NIXW40W0NIMl1bQ0BIXShbT0hdKVtDQEBIXTVbQ0gyXVtDSDJdW0NIMl1PNQ==

> <s_epik_cmdline>
J2VwaWtfcHl0aG9uJywgJy1waCcsICc3LjAnLCAnLXRuJywgJzgnLCAnLW1hJywgJzIwMCcsICctbWV0YWxfYmluZGluZycsICctaW1hZScsICc8aW5maWxlLm1hZT4nLCAnLW9tYWUnLCAnPG91dGZpbGUubWFlPic=

> <r_lp_tautomer_probability>
1

> <r_epik_Ionization_Penalty>
0.00175146

> <r_epik_Ionization_Penalty_Charging>
0

> <r_epik_Ionization_Penalty_Neutral>
0.00175146

> <r_epik_State_Penalty>
0.00109045

> <r_epik_Charging_Adjusted_Penalty>
0.00109045

> <i_epik_Tot_Q>
0

> <i_epik_Tot_abs_Q>
0

> <r_epik_Metal_State_Penalty>
-0

> <b_epik_Metal_Only>
0

> <s_lp_Force_Field>
OPLS_2005

> <r_lp_Energy>
55.4262

> <b_lp_Chiralities_Consistent>
1

> <s_lp_Variant>
AV-unprocessed.smi:203-4

> <Gold.Version>
5.8.1

> <Gold.Id.Protein>
6NUR|6NUR_protein|mol2

> <Gold.PLP.Fitness>
45.2273

> <Gold.PLP.PLP>
-40.7749

> <Gold.PLP.part.hbond>
-3.1879

> <Gold.PLP.part.metal>
0.0000

> <Gold.PLP.part.buried>
-5.2174

> <Gold.PLP.part.nonpolar>
-33.1688

> <Gold.PLP.part.repulsive>
0.0582

> <Gold.PLP.ligand.clash>
0.0000

> <Gold.PLP.ligand.torsion>
0.9355

> <Gold.PLP.Chemscore.Hbond>
2.0000

> <Gold.PLP.Chemscore.CHOScore>
0.0000

> <Gold.PLP.Chemscore.Metal>
0.0000

> <Gold.Chemscore.Hbonds>
donor molecule, donor type, donor heavy atom, donor atom, acceptor molecule, acceptor atom, score
      P1  H  6896  6908       L1    17  0.94
      P1  H  7997  8009       L1    22  0.85

> <Gold.PLP.Chemscore.Internal.Correction>
0.3234

> <Gold.Rescore>
     Score         DG    S(hbond)    S(metal)    S(lipo)     H(rot)  DE(clash)    DE(int)     intcor
     12.93     -15.11       1.80        0.00      90.29       2.72       0.02       2.17       ----

> <Gold.Chemscore.Fitness>
12.9279

> <Gold.Chemscore.DG>
-15.1117

> <Gold.Chemscore.ZeroCoef>
-5.4800

> <Gold.Chemscore.Hbond>
1.8034

> <Gold.Chemscore.Metal>
0.0000

> <Gold.Chemscore.Lipo>
90.2922

> <Gold.Chemscore.Internal_Hbond>
0.0000

> <Gold.Chemscore.DEClash>
0.0170

> <Gold.Chemscore.DEInternal>
2.1668

> <Gold.Chemscore.Rot>
2.7171

> <Gold.Chemscore.Internal.Correction>
   9.000000E+99

> <Gold.Chemscore.Hbonds>
donor molecule, donor type, donor heavy atom, donor atom, acceptor molecule, acceptor atom, score
      P1  H  6896  6908       L1    17  0.79
      P1  H  7997  8009       L1    22  0.15

> <Gold.Chemscore.Hbond.Weighted>
-6.0232

> <Gold.Chemscore.Metal.Weighted>
-0.0000

> <Gold.Chemscore.Lipo.Weighted>
-10.5642

> <Gold.Chemscore.Internal_Hbond.Weighted>
0.0000

> <Gold.Chemscore.DEClash.Weighted>
0.0170

> <Gold.Chemscore.DEInternal.Weighted>
2.1668

> <Gold.Chemscore.Rot.Weighted>
6.9557

> <Gold.Chemscore.Internal.Correction.Weighted>
   9.000000E+99

> <Gold.Protein.RotatedTorsions>
[ 6907 6896 6895 6894 ] final -151.50 input  -60.11 | X-H torsion
[ 7974 7965 7964 7962 ] final  171.40 input  175.53 | X-H torsion
[ 8008 7997 7996 7995 ] final  167.85 input   59.86 | X-H torsion
[ 10167 10162 10161 10158 ] final -164.32 input  -65.29 | X-H torsion
[ 10718 10713 10712 10709 ] final   16.65 input   66.30 | X-H torsion
[ 10763 10752 10751 10750 ] final   61.09 input  -60.55 | X-H torsion
[ 11005 11000 10999 10996 ] final -112.57 input  -57.11 | X-H torsion

> <Gold.Protein.ActiveResidues>
 VAL166  LYS551  ARG553  GLY616  TRP617  ASP618  TYR619  PRO620  LYS621  CYS622 
 ASP623  PHE694  ASN695  SER759  ASP760  ASP761  ALA762  ILE779  LEU786  VAL792 
 PHE793  MET794  SER795  GLU796  ALA797  LYS798  CYS799  TRP800  GLU811  SER814 

> <Gold.Protein.RotatedAtoms>
  151.2140  133.4539  159.2598 H   0  0  0  0  0  0  0  0  0  0  0  0  # atno 6907 bound_to 6896
  151.0948  134.9938  159.8430 H   0  0  0  0  0  0  0  0  0  0  0  0  # atno 6908 bound_to 6896
  152.5438  134.2071  159.8788 H   0  0  0  0  0  0  0  0  0  0  0  0  # atno 6909 bound_to 6896
  144.7296  139.9344  143.6426 H   0  0  0  0  0  0  0  0  0  0  0  0  # atno 7974 bound_to 7965
  156.1598  140.1606  156.8631 H   0  0  0  0  0  0  0  0  0  0  0  0  # atno 8008 bound_to 7997
  154.5150  140.0792  156.8099 H   0  0  0  0  0  0  0  0  0  0  0  0  # atno 8009 bound_to 7997
  155.3729  140.3401  155.4246 H   0  0  0  0  0  0  0  0  0  0  0  0  # atno 8010 bound_to 7997
  139.6259  144.0534  152.1974 H   0  0  0  0  0  0  0  0  0  0  0  0  # atno 10167 bound_to 10162
  157.0709  130.6347  149.5805 H   0  0  0  0  0  0  0  0  0  0  0  0  # atno 10718 bound_to 10713
  152.9940  135.5513  154.5978 H   0  0  0  0  0  0  0  0  0  0  0  0  # atno 10763 bound_to 10752
  154.5326  135.2814  155.1169 H   0  0  0  0  0  0  0  0  0  0  0  0  # atno 10764 bound_to 10752
  154.2478  135.6404  153.5282 H   0  0  0  0  0  0  0  0  0  0  0  0  # atno 10765 bound_to 10752
  141.0667  133.9447  157.2565 H   0  0  0  0  0  0  0  0  0  0  0  0  # atno 11005 bound_to 11000
  146.0832  139.3820  143.0451 LP  0  0  0  0  0  0  0  0  0  0  0  0  # atno 17320 bound_to 7965
  145.7812  140.9855  143.1098 LP  0  0  0  0  0  0  0  0  0  0  0  0  # atno 17321 bound_to 7965
  140.0187  144.6169  150.7585 LP  0  0  0  0  0  0  0  0  0  0  0  0  # atno 17342 bound_to 10162
  140.7410  143.2812  151.3592 LP  0  0  0  0  0  0  0  0  0  0  0  0  # atno 17343 bound_to 10162
  155.9951  130.5016  150.7445 LP  0  0  0  0  0  0  0  0  0  0  0  0  # atno 17370 bound_to 10713
  157.4879  131.0908  151.0461 LP  0  0  0  0  0  0  0  0  0  0  0  0  # atno 17371 bound_to 10713
  139.9483  135.0180  156.8918 LP  0  0  0  0  0  0  0  0  0  0  0  0  # atno 17394 bound_to 11000
  140.5759  134.0399  155.7446 LP  0  0  0  0  0  0  0  0  0  0  0  0  # atno 17395 bound_to 11000

$$$$
