AV-unprocessed.smi:155|AV-procd|sdf|1276|dock6
  -GOLD-   2262018543D 1   1.00000     0.00000
 Structure written by MMmdl.
 63 66  0  0  0  0  0  0  0  0  2 V2000
  143.6511  132.9561  151.2302 C   0  0  0  0  0  0  0  0  0  0  0  0
  143.3698  134.4071  151.1288 N   0  3  0  0  0  0  0  0  0  0  0  0
  144.5307  135.1461  150.5852 C   0  0  0  0  0  0  0  0  0  0  0  0
  142.8729  134.9964  152.3974 C   0  0  0  0  0  0  0  0  0  0  0  0
  144.0088  135.2324  153.4151 C   0  0  0  0  0  0  0  0  0  0  0  0
  144.4626  136.6237  153.4201 N   0  0  0  0  0  0  0  0  0  0  0  0
  144.0793  137.3395  154.6466 C   0  0  0  0  0  0  0  0  0  0  0  0
  145.0641  137.1880  155.8248 C   0  0  0  0  0  0  0  0  0  0  0  0
  146.1674  138.2635  155.8163 C   0  0  0  0  0  0  0  0  0  0  0  0
  147.0990  138.1241  154.6960 N   0  0  0  0  0  0  0  0  0  0  0  0
  148.3249  138.6959  154.8086 C   0  0  0  0  0  0  0  0  0  0  0  0
  149.3868  138.1446  154.1622 N   0  0  0  0  0  0  0  0  0  0  0  0
  150.6006  138.6936  154.2673 C   0  0  0  0  0  0  0  0  0  0  0  0
  150.9702  139.7780  154.9512 N   0  0  0  0  0  0  0  0  0  0  0  0
  149.9079  140.3408  155.5949 C   0  0  0  0  0  0  0  0  0  0  0  0
  148.5644  139.8702  155.5774 C   0  0  0  0  0  0  0  0  0  0  0  0
  147.7589  140.7116  156.3367 N   0  0  0  0  0  0  0  0  0  0  0  0
  148.5800  141.6225  156.7827 C   0  0  0  0  0  0  0  0  0  0  0  0
  149.8878  141.4807  156.3788 N   0  0  0  0  0  0  0  0  0  0  0  0
  150.9956  142.3571  156.7123 C   0  0  0  0  0  0  0  0  0  0  0  0
  151.1843  142.5336  158.2337 C   0  0  1  0  0  0  0  0  0  0  0  0
  151.1315  141.2417  158.8042 O   0  0  0  0  0  0  0  0  0  0  0  0
  152.5207  143.2079  158.6425 C   0  0  2  0  0  0  0  0  0  0  0  0
  152.7095  143.3741  160.1530 C   0  0  0  0  0  0  0  0  0  0  0  0
  151.9433  144.6446  160.4740 C   0  0  0  0  0  0  0  0  0  0  0  0
  151.9250  145.4039  159.1458 C   0  0  0  0  0  0  0  0  0  0  0  0
  152.5831  144.5606  158.2066 O   0  0  0  0  0  0  0  0  0  0  0  0
  146.5502  138.0288  153.3442 C   0  0  0  0  0  0  0  0  0  0  0  0
  145.8985  136.6538  153.1241 C   0  0  0  0  0  0  0  0  0  0  0  0
  144.4520  132.7626  151.9451 H   0  0  0  0  0  0  0  0  0  0  0  0
  143.9587  132.5582  150.2626 H   0  0  0  0  0  0  0  0  0  0  0  0
  142.7723  132.3955  151.5465 H   0  0  0  0  0  0  0  0  0  0  0  0
  145.3773  135.1044  151.2718 H   0  0  0  0  0  0  0  0  0  0  0  0
  144.2787  136.1932  150.4141 H   0  0  0  0  0  0  0  0  0  0  0  0
  144.8441  134.7242  149.6296 H   0  0  0  0  0  0  0  0  0  0  0  0
  142.3467  135.9266  152.1752 H   0  0  0  0  0  0  0  0  0  0  0  0
  142.1374  134.3246  152.8407 H   0  0  0  0  0  0  0  0  0  0  0  0
  143.7101  134.9160  154.4154 H   0  0  0  0  0  0  0  0  0  0  0  0
  144.8596  134.6091  153.1407 H   0  0  0  0  0  0  0  0  0  0  0  0
  143.9738  138.3979  154.4068 H   0  0  0  0  0  0  0  0  0  0  0  0
  143.0852  137.0308  154.9647 H   0  0  0  0  0  0  0  0  0  0  0  0
  144.4993  137.3125  156.7490 H   0  0  0  0  0  0  0  0  0  0  0  0
  145.4875  136.1842  155.8750 H   0  0  0  0  0  0  0  0  0  0  0  0
  145.7220  139.2590  155.7931 H   0  0  0  0  0  0  0  0  0  0  0  0
  146.7224  138.1899  156.7529 H   0  0  0  0  0  0  0  0  0  0  0  0
  151.3884  138.1920  153.7248 H   0  0  0  0  0  0  0  0  0  0  0  0
  148.2506  142.4354  157.4133 H   0  0  0  0  0  0  0  0  0  0  0  0
  151.8973  141.9322  156.2688 H   0  0  0  0  0  0  0  0  0  0  0  0
  150.8402  143.3238  156.2316 H   0  0  0  0  0  0  0  0  0  0  0  0
  150.3416  143.0975  158.6349 H   0  0  0  0  0  0  0  0  0  0  0  0
  152.0131  140.9668  159.0044 H   0  0  0  0  0  0  0  0  0  0  0  0
  153.3541  142.6521  158.2110 H   0  0  0  0  0  0  0  0  0  0  0  0
  152.3775  142.5171  160.7395 H   0  0  0  0  0  0  0  0  0  0  0  0
  153.7679  143.5278  160.3674 H   0  0  0  0  0  0  0  0  0  0  0  0
  150.9250  144.4078  160.7843 H   0  0  0  0  0  0  0  0  0  0  0  0
  152.4146  145.2147  161.2749 H   0  0  0  0  0  0  0  0  0  0  0  0
  150.9014  145.5916  158.8195 H   0  0  0  0  0  0  0  0  0  0  0  0
  152.4400  146.3624  159.2118 H   0  0  0  0  0  0  0  0  0  0  0  0
  145.8443  138.8403  153.1639 H   0  0  0  0  0  0  0  0  0  0  0  0
  147.3362  138.1633  152.6015 H   0  0  0  0  0  0  0  0  0  0  0  0
  146.4334  135.8943  153.6975 H   0  0  0  0  0  0  0  0  0  0  0  0
  146.0159  136.3764  152.0759 H   0  0  0  0  0  0  0  0  0  0  0  0
  142.6283  134.5170  150.4516 H   0  0  0  0  0  0  0  0  0  0  0  0
  1  2  1  0  0  0  0
  1 30  1  0  0  0  0
  1 31  1  0  0  0  0
  1 32  1  0  0  0  0
  2  3  1  0  0  0  0
  2  4  1  0  0  0  0
  2 63  1  0  0  0  0
  3 33  1  0  0  0  0
  3 34  1  0  0  0  0
  3 35  1  0  0  0  0
  4  5  1  0  0  0  0
  4 36  1  0  0  0  0
  4 37  1  0  0  0  0
  5  6  1  0  0  0  0
  5 38  1  0  0  0  0
  5 39  1  0  0  0  0
  6 29  1  0  0  0  0
  6  7  1  0  0  0  0
  7  8  1  0  0  0  0
  7 40  1  0  0  0  0
  7 41  1  0  0  0  0
  8  9  1  0  0  0  0
  8 42  1  0  0  0  0
  8 43  1  0  0  0  0
  9 10  1  0  0  0  0
  9 44  1  0  0  0  0
  9 45  1  0  0  0  0
 10 11  1  0  0  0  0
 10 28  1  0  0  0  0
 11 16  1  0  0  0  0
 11 12  2  0  0  0  0
 12 13  1  0  0  0  0
 13 14  2  0  0  0  0
 13 46  1  0  0  0  0
 14 15  1  0  0  0  0
 15 19  1  0  0  0  0
 15 16  2  0  0  0  0
 16 17  1  0  0  0  0
 17 18  2  0  0  0  0
 18 19  1  0  0  0  0
 18 47  1  0  0  0  0
 19 20  1  0  0  0  0
 20 21  1  0  0  0  0
 20 48  1  0  0  0  0
 20 49  1  0  0  0  0
 21 22  1  0  0  0  0
 21 23  1  0  0  0  0
 21 50  1  0  0  0  0
 22 51  1  0  0  0  0
 23 27  1  0  0  0  0
 23 24  1  0  0  0  0
 23 52  1  0  0  0  0
 24 25  1  0  0  0  0
 24 53  1  0  0  0  0
 24 54  1  0  0  0  0
 25 26  1  0  0  0  0
 25 55  1  0  0  0  0
 25 56  1  0  0  0  0
 26 27  1  0  0  0  0
 26 57  1  0  0  0  0
 26 58  1  0  0  0  0
 28 29  1  0  0  0  0
 28 59  1  0  0  0  0
 28 60  1  0  0  0  0
 29 61  1  0  0  0  0
 29 62  1  0  0  0  0
M  CHG  1   2   1
M  END
> <s_m_source_file>
AV-unprocessed.smi

> <i_m_source_file_index>
155

> <i_lp_mmshare_version>
43012

> <i_f3d_flags>
0

> <s_epik_input>
W0NIM11OKFtDSDNdKVtDSDJdW0NIMl1OMVtDSDJdW0NIMl1bQ0gyXU4oW0NIMl1bQ0gyXTEpYyhuW2NIXW4yKWMoYzIzKW5bY0hdbjNbQ0gyXVtDQEhdKFtPSF0pW0NAQEhdNFtDSDJdW0NIMl1bQ0gyXU80

> <s_epik_cmdline>
J2VwaWtfcHl0aG9uJywgJy1waCcsICc3LjAnLCAnLXRuJywgJzgnLCAnLW1hJywgJzIwMCcsICctbWV0YWxfYmluZGluZycsICctaW1hZScsICc8aW5maWxlLm1hZT4nLCAnLW9tYWUnLCAnPG91dGZpbGUubWFlPic=

> <r_lp_tautomer_probability>
1

> <r_epik_Ionization_Penalty>
0.0599493

> <r_epik_Ionization_Penalty_Charging>
0.00816363

> <r_epik_Ionization_Penalty_Neutral>
0.0517857

> <r_epik_State_Penalty>
0.460607

> <r_epik_Charging_Adjusted_Penalty>
0.468771

> <i_epik_Tot_Q>
1

> <i_epik_Tot_abs_Q>
1

> <r_epik_Metal_State_Penalty>
0.45965

> <b_epik_Metal_Only>
0

> <s_lp_Force_Field>
OPLS_2005

> <r_lp_Energy>
58.8836

> <b_lp_Chiralities_Consistent>
1

> <s_lp_Variant>
AV-unprocessed.smi:155-10

> <Gold.Version>
5.8.1

> <Gold.Id.Protein>
6NUR|6NUR_protein|mol2

> <Gold.PLP.Fitness>
49.6275

> <Gold.PLP.PLP>
-44.7567

> <Gold.PLP.part.hbond>
-2.0000

> <Gold.PLP.part.metal>
0.0000

> <Gold.PLP.part.buried>
-8.6831

> <Gold.PLP.part.nonpolar>
-35.7887

> <Gold.PLP.part.repulsive>
1.0078

> <Gold.PLP.ligand.clash>
0.0000

> <Gold.PLP.ligand.torsion>
1.9572

> <Gold.PLP.Chemscore.Hbond>
2.8000

> <Gold.PLP.Chemscore.CHOScore>
0.0000

> <Gold.PLP.Chemscore.Metal>
0.0000

> <Gold.Chemscore.Hbonds>
donor molecule, donor type, donor heavy atom, donor atom, acceptor molecule, acceptor atom, score
      L1  H     2    63       P1 10186  2.00
      P1  H  7989  7998       L1    14  1.00

> <Gold.PLP.Chemscore.Internal.Correction>
0.3853

> <Gold.Rescore>
     Score         DG    S(hbond)    S(metal)    S(lipo)     H(rot)  DE(clash)    DE(int)     intcor
     10.41     -13.86       1.05        0.00     100.87       2.71       0.38       3.07       ----

> <Gold.Chemscore.Fitness>
10.4116

> <Gold.Chemscore.DG>
-13.8625

> <Gold.Chemscore.ZeroCoef>
-5.4800

> <Gold.Chemscore.Hbond>
1.0518

> <Gold.Chemscore.Metal>
0.0000

> <Gold.Chemscore.Lipo>
100.8710

> <Gold.Chemscore.Internal_Hbond>
0.0000

> <Gold.Chemscore.DEClash>
0.3763

> <Gold.Chemscore.DEInternal>
3.0746

> <Gold.Chemscore.Rot>
2.7080

> <Gold.Chemscore.Internal.Correction>
   9.000000E+99

> <Gold.Chemscore.Hbonds>
donor molecule, donor type, donor heavy atom, donor atom, acceptor molecule, acceptor atom, score
      L1  H     2    63       P1 10186  0.40
      P1  H  7989  7998       L1    14  0.22

> <Gold.Chemscore.Hbond.Weighted>
-3.5132

> <Gold.Chemscore.Metal.Weighted>
-0.0000

> <Gold.Chemscore.Lipo.Weighted>
-11.8019

> <Gold.Chemscore.Internal_Hbond.Weighted>
0.0000

> <Gold.Chemscore.DEClash.Weighted>
0.3763

> <Gold.Chemscore.DEInternal.Weighted>
3.0746

> <Gold.Chemscore.Rot.Weighted>
6.9326

> <Gold.Chemscore.Internal.Correction.Weighted>
   9.000000E+99

> <Gold.Protein.RotatedTorsions>
[ 6907 6896 6895 6894 ] final  124.67 input  -60.11 | X-H torsion
[ 7974 7965 7964 7962 ] final   66.47 input  175.53 | X-H torsion
[ 8008 7997 7996 7995 ] final  133.68 input   59.86 | X-H torsion
[ 10167 10162 10161 10158 ] final -175.60 input  -65.29 | X-H torsion
[ 10718 10713 10712 10709 ] final  100.73 input   66.30 | X-H torsion
[ 10763 10752 10751 10750 ] final   41.62 input  -60.55 | X-H torsion
[ 11005 11000 10999 10996 ] final   11.24 input  -57.11 | X-H torsion

> <Gold.Protein.ActiveResidues>
 VAL166  LYS551  ARG553  GLY616  TRP617  ASP618  TYR619  PRO620  LYS621  CYS622 
 ASP623  PHE694  ASN695  SER759  ASP760  ASP761  ALA762  ILE779  LEU786  VAL792 
 PHE793  MET794  SER795  GLU796  ALA797  LYS798  CYS799  TRP800  GLU811  SER814 

> <Gold.Protein.RotatedAtoms>
  152.4058  133.6887  159.6355 H   0  0  0  0  0  0  0  0  0  0  0  0  # atno 6907 bound_to 6896
  150.7943  133.8711  159.3267 H   0  0  0  0  0  0  0  0  0  0  0  0  # atno 6908 bound_to 6896
  151.6465  135.1008  160.0203 H   0  0  0  0  0  0  0  0  0  0  0  0  # atno 6909 bound_to 6896
  145.8262  139.3112  143.1014 H   0  0  0  0  0  0  0  0  0  0  0  0  # atno 7974 bound_to 7965
  156.2994  140.2515  156.3293 H   0  0  0  0  0  0  0  0  0  0  0  0  # atno 8008 bound_to 7997
  154.9161  140.0402  157.1991 H   0  0  0  0  0  0  0  0  0  0  0  0  # atno 8009 bound_to 7997
  154.8357  140.2883  155.5696 H   0  0  0  0  0  0  0  0  0  0  0  0  # atno 8010 bound_to 7997
  139.5572  144.1959  152.1179 H   0  0  0  0  0  0  0  0  0  0  0  0  # atno 10167 bound_to 10162
  157.6847  131.0706  150.5145 H   0  0  0  0  0  0  0  0  0  0  0  0  # atno 10718 bound_to 10713
  152.9903  135.6156  154.2817 H   0  0  0  0  0  0  0  0  0  0  0  0  # atno 10763 bound_to 10752
  154.2546  135.2784  155.2804 H   0  0  0  0  0  0  0  0  0  0  0  0  # atno 10764 bound_to 10752
  154.5258  135.5802  153.6776 H   0  0  0  0  0  0  0  0  0  0  0  0  # atno 10765 bound_to 10752
  140.5054  134.0704  155.7804 H   0  0  0  0  0  0  0  0  0  0  0  0  # atno 11005 bound_to 11000
  145.9621  140.8827  143.0205 LP  0  0  0  0  0  0  0  0  0  0  0  0  # atno 17320 bound_to 7965
  144.6743  140.1827  143.7404 LP  0  0  0  0  0  0  0  0  0  0  0  0  # atno 17321 bound_to 7965
  140.1465  144.5154  150.6712 LP  0  0  0  0  0  0  0  0  0  0  0  0  # atno 17342 bound_to 10162
  140.6847  143.2344  151.5292 LP  0  0  0  0  0  0  0  0  0  0  0  0  # atno 17343 bound_to 10162
  156.5461  130.4220  149.6130 LP  0  0  0  0  0  0  0  0  0  0  0  0  # atno 17370 bound_to 10713
  156.2943  130.7141  151.1998 LP  0  0  0  0  0  0  0  0  0  0  0  0  # atno 17371 bound_to 10713
  141.1414  133.9132  157.2318 LP  0  0  0  0  0  0  0  0  0  0  0  0  # atno 17394 bound_to 11000
  139.9689  135.0134  156.9460 LP  0  0  0  0  0  0  0  0  0  0  0  0  # atno 17395 bound_to 11000

$$$$
