AV-unprocessed.smi:1265|AV-procd|sdf|5320|dock4
  -GOLD-   22720 4443D 1   1.00000     0.00000
 Structure written by MMmdl.
 45 47  0  0  0  0  0  0  0  0  2 V2000
  144.8026  136.0946  153.0377 O   0  0  0  0  0  0  0  0  0  0  0  0
  145.9871  135.9989  152.7218 C   0  0  0  0  0  0  0  0  0  0  0  0
  146.9367  136.8297  153.1766 N   0  0  0  0  0  0  0  0  0  0  0  0
  146.7127  137.9683  154.0686 C   0  0  0  0  0  0  0  0  0  0  0  0
  147.9603  138.8967  154.2263 C   0  0  2  0  0  0  0  0  0  0  0  0
  149.2015  138.0372  154.2629 N   0  3  0  0  0  0  0  0  0  0  0  0
  150.4711  138.7997  154.4318 C   0  0  0  0  0  0  0  0  0  0  0  0
  151.6905  137.8799  154.2717 C   0  0  0  0  0  0  0  0  0  0  0  0
  151.6162  136.8364  155.2310 O   0  0  0  0  0  0  0  0  0  0  0  0
  150.4690  136.0250  155.0282 C   0  0  0  0  0  0  0  0  0  0  0  0
  149.1877  136.8642  155.1814 C   0  0  0  0  0  0  0  0  0  0  0  0
  147.7962  139.7996  155.4817 C   0  0  0  0  0  0  0  0  0  0  0  0
  146.6945  140.8266  155.2038 C   0  0  0  0  0  0  0  0  0  0  0  0
  146.7975  141.2454  153.4466 S   0  0  0  0  0  0  0  0  0  0  0  0
  147.9893  139.9290  153.0745 C   0  0  0  0  0  0  0  0  0  0  0  0
  146.5095  135.0725  151.8981 N   0  0  0  0  0  0  0  0  0  0  0  0
  145.8714  134.0025  151.2090 C   0  0  0  0  0  0  0  0  0  0  0  0
  144.4615  133.9644  151.2430 C   0  0  0  0  0  0  0  0  0  0  0  0
  143.7900  132.9211  150.5747 C   0  0  0  0  0  0  0  0  0  0  0  0
  144.4276  131.9451  149.8960 N   0  0  0  0  0  0  0  0  0  0  0  0
  145.7763  131.9802  149.8639 C   0  0  0  0  0  0  0  0  0  0  0  0
  146.5438  132.9779  150.4981 C   0  0  0  0  0  0  0  0  0  0  0  0
  147.8818  136.6863  152.8521 H   0  0  0  0  0  0  0  0  0  0  0  0
  145.8773  138.5288  153.6509 H   0  0  0  0  0  0  0  0  0  0  0  0
  146.3366  137.6226  155.0314 H   0  0  0  0  0  0  0  0  0  0  0  0
  150.5465  139.6034  153.7014 H   0  0  0  0  0  0  0  0  0  0  0  0
  150.5044  139.2621  155.4190 H   0  0  0  0  0  0  0  0  0  0  0  0
  151.7435  137.4689  153.2621 H   0  0  0  0  0  0  0  0  0  0  0  0
  152.6094  138.4429  154.4355 H   0  0  0  0  0  0  0  0  0  0  0  0
  150.5111  135.5586  154.0424 H   0  0  0  0  0  0  0  0  0  0  0  0
  150.4758  135.2169  155.7598 H   0  0  0  0  0  0  0  0  0  0  0  0
  149.0784  137.1989  156.2136 H   0  0  0  0  0  0  0  0  0  0  0  0
  148.3547  136.2002  154.9559 H   0  0  0  0  0  0  0  0  0  0  0  0
  147.6108  139.2364  156.3955 H   0  0  0  0  0  0  0  0  0  0  0  0
  148.6930  140.3925  155.6566 H   0  0  0  0  0  0  0  0  0  0  0  0
  145.7094  140.4096  155.4125 H   0  0  0  0  0  0  0  0  0  0  0  0
  146.8068  141.7190  155.8200 H   0  0  0  0  0  0  0  0  0  0  0  0
  148.9706  140.3994  153.0066 H   0  0  0  0  0  0  0  0  0  0  0  0
  147.7734  139.4878  152.1008 H   0  0  0  0  0  0  0  0  0  0  0  0
  147.5048  135.1377  151.7436 H   0  0  0  0  0  0  0  0  0  0  0  0
  143.8973  134.7194  151.7707 H   0  0  0  0  0  0  0  0  0  0  0  0
  142.7113  132.8710  150.5855 H   0  0  0  0  0  0  0  0  0  0  0  0
  146.2614  131.1870  149.3147 H   0  0  0  0  0  0  0  0  0  0  0  0
  147.6175  132.9253  150.4215 H   0  0  0  0  0  0  0  0  0  0  0  0
  149.2502  137.6298  153.3402 H   0  0  0  0  0  0  0  0  0  0  0  0
  1  2  2  0  0  0  0
  2  3  1  0  0  0  0
  2 16  1  0  0  0  0
  3  4  1  0  0  0  0
  3 23  1  0  0  0  0
  4  5  1  0  0  0  0
  4 24  1  0  0  0  0
  4 25  1  0  0  0  0
  5 15  1  0  0  0  0
  5  6  1  0  0  0  0
  5 12  1  0  0  0  0
  6 11  1  0  0  0  0
  6  7  1  0  0  0  0
  6 45  1  0  0  0  0
  7  8  1  0  0  0  0
  7 26  1  0  0  0  0
  7 27  1  0  0  0  0
  8  9  1  0  0  0  0
  8 28  1  0  0  0  0
  8 29  1  0  0  0  0
  9 10  1  0  0  0  0
 10 11  1  0  0  0  0
 10 30  1  0  0  0  0
 10 31  1  0  0  0  0
 11 32  1  0  0  0  0
 11 33  1  0  0  0  0
 12 13  1  0  0  0  0
 12 34  1  0  0  0  0
 12 35  1  0  0  0  0
 13 14  1  0  0  0  0
 13 36  1  0  0  0  0
 13 37  1  0  0  0  0
 14 15  1  0  0  0  0
 15 38  1  0  0  0  0
 15 39  1  0  0  0  0
 16 17  1  0  0  0  0
 16 40  1  0  0  0  0
 17 22  1  0  0  0  0
 17 18  2  0  0  0  0
 18 19  1  0  0  0  0
 18 41  1  0  0  0  0
 19 20  2  0  0  0  0
 19 42  1  0  0  0  0
 20 21  1  0  0  0  0
 21 22  2  0  0  0  0
 21 43  1  0  0  0  0
 22 44  1  0  0  0  0
M  CHG  1   6   1
M  END
> <s_m_source_file>
AV-unprocessed.smi

> <i_m_source_file_index>
1265

> <i_lp_mmshare_version>
43012

> <i_f3d_flags>
0

> <s_epik_input>
W2NIXTFbY0hdbltjSF1bY0hdYzFbTkhdQyg9TylbTkhdW0NIMl1bQ0BdMihbQ0gyXVtDSDJdU1tDSDJdMilOM1tDSDJdW0NIMl1PW0NIMl1bQ0gyXTM=

> <s_epik_cmdline>
J2VwaWtfcHl0aG9uJywgJy1waCcsICc3LjAnLCAnLXRuJywgJzgnLCAnLW1hJywgJzIwMCcsICctbWV0YWxfYmluZGluZycsICctaW1hZScsICc8aW5maWxlLm1hZT4nLCAnLW9tYWUnLCAnPG91dGZpbGUubWFlPic=

> <r_epik_Ionization_Penalty>
2.1318

> <r_epik_Ionization_Penalty_Charging>
2.03219

> <r_epik_Ionization_Penalty_Neutral>
0.0996087

> <r_epik_State_Penalty>
2.24194

> <r_epik_Charging_Adjusted_Penalty>
4.27413

> <i_epik_Tot_Q>
1

> <i_epik_Tot_abs_Q>
1

> <r_epik_Metal_State_Penalty>
2.2363

> <b_epik_Metal_Only>
0

> <s_lp_Force_Field>
OPLS_2005

> <r_lp_Energy>
49.924

> <b_lp_Chiralities_Consistent>
1

> <s_lp_Variant>
AV-unprocessed.smi:1265-6

> <Gold.Version>
5.8.1

> <Gold.Id.Protein>
6NUR|6NUR_protein|mol2

> <Gold.PLP.Fitness>
49.8848

> <Gold.PLP.PLP>
-32.7012

> <Gold.PLP.part.hbond>
-4.2574

> <Gold.PLP.part.metal>
0.0000

> <Gold.PLP.part.buried>
-1.5343

> <Gold.PLP.part.nonpolar>
-28.4224

> <Gold.PLP.part.repulsive>
0.4293

> <Gold.PLP.ligand.clash>
0.0000

> <Gold.PLP.ligand.torsion>
0.4968

> <Gold.PLP.Chemscore.Hbond>
4.9280

> <Gold.PLP.Chemscore.CHOScore>
1.0884

> <Gold.PLP.Chemscore.Metal>
0.0000

> <Gold.Chemscore.Hbonds>
donor molecule, donor type, donor heavy atom, donor atom, acceptor molecule, acceptor atom, score
      L1  H     3    23       P1  7948  0.99
      L1  H     6    45       P1  7948  2.00
      L1  H    16    40       P1  7948  0.93
      P1  H 10752 10764       L1     9  1.00
      L1  C    19    42       P1 10186  1.00
      L1  C    21    43       P1 10747  0.09

> <Gold.PLP.Chemscore.Internal.Correction>
0.1281

> <Gold.Rescore>
     Score         DG    S(hbond)    S(metal)    S(lipo)     H(rot)  DE(clash)    DE(int)     intcor
     19.74     -23.91       3.29        0.00      95.98       1.49       1.84       2.34       ----

> <Gold.Chemscore.Fitness>
19.7373

> <Gold.Chemscore.DG>
-23.9104

> <Gold.Chemscore.ZeroCoef>
-5.4800

> <Gold.Chemscore.Hbond>
3.2948

> <Gold.Chemscore.Metal>
0.0000

> <Gold.Chemscore.Lipo>
95.9824

> <Gold.Chemscore.Internal_Hbond>
0.0000

> <Gold.Chemscore.DEClash>
1.8376

> <Gold.Chemscore.DEInternal>
2.3355

> <Gold.Chemscore.Rot>
1.4860

> <Gold.Chemscore.Internal.Correction>
   9.000000E+99

> <Gold.Chemscore.Hbonds>
donor molecule, donor type, donor heavy atom, donor atom, acceptor molecule, acceptor atom, score
      L1  H     3    23       P1  7948  0.91
      L1  H     6    45       P1  7948  0.92
      L1  H    16    40       P1  7948  0.76
      P1  H 10752 10764       L1     9  0.15
      P1  H 10785 10796       L1    20  0.02

> <Gold.Chemscore.Hbond.Weighted>
-11.0047

> <Gold.Chemscore.Metal.Weighted>
-0.0000

> <Gold.Chemscore.Lipo.Weighted>
-11.2299

> <Gold.Chemscore.Internal_Hbond.Weighted>
0.0000

> <Gold.Chemscore.DEClash.Weighted>
1.8376

> <Gold.Chemscore.DEInternal.Weighted>
2.3355

> <Gold.Chemscore.Rot.Weighted>
3.8042

> <Gold.Chemscore.Internal.Correction.Weighted>
   9.000000E+99

> <Gold.Protein.RotatedTorsions>
[ 6907 6896 6895 6894 ] final  149.90 input  -60.11 | X-H torsion
[ 7974 7965 7964 7962 ] final   15.85 input  175.53 | X-H torsion
[ 8008 7997 7996 7995 ] final  -83.43 input   59.86 | X-H torsion
[ 10167 10162 10161 10158 ] final   68.24 input  -65.29 | X-H torsion
[ 10718 10713 10712 10709 ] final -104.14 input   66.30 | X-H torsion
[ 10763 10752 10751 10750 ] final  -46.04 input  -60.55 | X-H torsion
[ 11005 11000 10999 10996 ] final   84.46 input  -57.11 | X-H torsion

> <Gold.Protein.ActiveResidues>
 VAL166  LYS551  ARG553  GLY616  TRP617  ASP618  TYR619  PRO620  LYS621  CYS622 
 ASP623  PHE694  ASN695  SER759  ASP760  ASP761  ALA762  ILE779  LEU786  VAL792 
 PHE793  MET794  SER795  GLU796  ALA797  LYS798  CYS799  TRP800  GLU811  SER814 

> <Gold.Protein.RotatedAtoms>
  152.1218  133.4357  159.4678 H   0  0  0  0  0  0  0  0  0  0  0  0  # atno 6907 bound_to 6896
  150.6872  134.2526  159.4526 H   0  0  0  0  0  0  0  0  0  0  0  0  # atno 6908 bound_to 6896
  152.0403  134.9715  160.0624 H   0  0  0  0  0  0  0  0  0  0  0  0  # atno 6909 bound_to 6896
  146.2267  139.8834  142.8567 H   0  0  0  0  0  0  0  0  0  0  0  0  # atno 7974 bound_to 7965
  154.6190  140.0619  156.9591 H   0  0  0  0  0  0  0  0  0  0  0  0  # atno 8008 bound_to 7997
  155.1848  140.3302  155.4350 H   0  0  0  0  0  0  0  0  0  0  0  0  # atno 8009 bound_to 7997
  156.2421  140.1891  156.6942 H   0  0  0  0  0  0  0  0  0  0  0  0  # atno 8010 bound_to 7997
  140.0808  144.5072  150.7163 H   0  0  0  0  0  0  0  0  0  0  0  0  # atno 10167 bound_to 10162
  156.0293  130.5501  150.7354 H   0  0  0  0  0  0  0  0  0  0  0  0  # atno 10718 bound_to 10713
  154.0385  135.6647  153.4787 H   0  0  0  0  0  0  0  0  0  0  0  0  # atno 10763 bound_to 10752
  153.0511  135.5084  154.7865 H   0  0  0  0  0  0  0  0  0  0  0  0  # atno 10764 bound_to 10752
  154.6833  135.3048  154.9548 H   0  0  0  0  0  0  0  0  0  0  0  0  # atno 10765 bound_to 10752
  139.9000  134.8217  156.2448 H   0  0  0  0  0  0  0  0  0  0  0  0  # atno 11005 bound_to 11000
  145.2489  141.0037  143.3892 LP  0  0  0  0  0  0  0  0  0  0  0  0  # atno 17320 bound_to 7965
  144.9390  139.4210  143.6458 LP  0  0  0  0  0  0  0  0  0  0  0  0  # atno 17321 bound_to 7965
  140.7078  143.2481  151.4672 LP  0  0  0  0  0  0  0  0  0  0  0  0  # atno 17342 bound_to 10162
  139.5780  144.1773  152.1930 LP  0  0  0  0  0  0  0  0  0  0  0  0  # atno 17343 bound_to 10162
  157.4936  131.0913  151.0397 LP  0  0  0  0  0  0  0  0  0  0  0  0  # atno 17370 bound_to 10713
  157.0797  130.5898  149.5418 LP  0  0  0  0  0  0  0  0  0  0  0  0  # atno 17371 bound_to 10713
  141.0262  133.7014  156.1351 LP  0  0  0  0  0  0  0  0  0  0  0  0  # atno 17394 bound_to 11000
  140.7163  134.4407  157.5578 LP  0  0  0  0  0  0  0  0  0  0  0  0  # atno 17395 bound_to 11000

$$$$
