AV-unprocessed.smi:1644|AV-procd|sdf|6590|dock4
  -GOLD-   22720 7283D 1   1.00000     0.00000
 Structure written by MMmdl.
 50 52  0  0  0  0  0  0  0  0  2 V2000
  144.2898  136.0852  152.0945 C   0  0  0  0  0  0  0  0  0  0  0  0
  145.6182  136.8459  152.0260 C   0  0  0  0  0  0  0  0  0  0  0  0
  145.7730  137.8602  153.1776 C   0  0  0  0  0  0  0  0  0  0  0  0
  146.9064  138.8987  153.0132 C   0  0  2  0  0  0  0  0  0  0  0  0
  148.2296  138.3073  153.0086 N   0  0  0  0  0  0  0  0  0  0  0  0
  149.0171  138.8066  153.9703 C   0  0  0  0  0  0  0  0  0  0  0  0
  150.1892  138.4872  154.1647 O   0  0  0  0  0  0  0  0  0  0  0  0
  148.3099  139.7122  154.6714 N   0  0  0  0  0  0  0  0  0  0  0  0
  148.8400  140.4753  155.8052 C   0  0  0  0  0  0  0  0  0  0  0  0
  149.9025  141.4990  155.3573 C   0  0  1  0  0  0  0  0  0  0  0  0
  149.2926  142.4489  154.5051 O   0  0  0  0  0  0  0  0  0  0  0  0
  150.5119  142.2504  156.5566 C   0  0  0  0  0  0  0  0  0  0  0  0
  151.3233  141.3799  157.4163 N   0  0  0  0  0  0  0  0  0  0  0  0
  151.7484  140.1025  157.2211 C   0  0  0  0  0  0  0  0  0  0  0  0
  152.4697  139.7392  158.3181 N   0  3  0  0  0  0  0  0  0  0  0  0
  152.5041  140.8004  159.2260 C   0  0  0  0  0  0  0  0  0  0  0  0
  153.1045  140.9147  160.4743 C   0  0  0  0  0  0  0  0  0  0  0  0
  152.9491  142.1438  161.1550 C   0  0  0  0  0  0  0  0  0  0  0  0
  153.5925  142.3023  162.5222 C   0  0  0  0  0  0  0  0  0  0  0  0
  152.2087  143.2092  160.5795 C   0  0  0  0  0  0  0  0  0  0  0  0
  152.0446  144.5249  161.3214 C   0  0  0  0  0  0  0  0  0  0  0  0
  151.6073  143.0740  159.3081 C   0  0  0  0  0  0  0  0  0  0  0  0
  151.7705  141.8564  158.6523 C   0  0  0  0  0  0  0  0  0  0  0  0
  147.0667  139.8419  154.1915 C   0  0  0  0  0  0  0  0  0  0  0  0
  146.1805  140.5902  154.6031 O   0  0  0  0  0  0  0  0  0  0  0  0
  144.2050  135.3763  151.2707 H   0  0  0  0  0  0  0  0  0  0  0  0
  143.4412  136.7673  152.0353 H   0  0  0  0  0  0  0  0  0  0  0  0
  144.2057  135.5244  153.0259 H   0  0  0  0  0  0  0  0  0  0  0  0
  146.4360  136.1252  152.0459 H   0  0  0  0  0  0  0  0  0  0  0  0
  145.6821  137.3588  151.0659 H   0  0  0  0  0  0  0  0  0  0  0  0
  144.8314  138.3971  153.2985 H   0  0  0  0  0  0  0  0  0  0  0  0
  145.9239  137.3192  154.1127 H   0  0  0  0  0  0  0  0  0  0  0  0
  146.7644  139.4806  152.1017 H   0  0  0  0  0  0  0  0  0  0  0  0
  148.5173  137.6092  152.3379 H   0  0  0  0  0  0  0  0  0  0  0  0
  148.0417  140.9592  156.3716 H   0  0  0  0  0  0  0  0  0  0  0  0
  149.2879  139.7641  156.5016 H   0  0  0  0  0  0  0  0  0  0  0  0
  150.7004  140.9986  154.8072 H   0  0  0  0  0  0  0  0  0  0  0  0
  149.3997  143.3074  154.8860 H   0  0  0  0  0  0  0  0  0  0  0  0
  151.1488  143.0673  156.2136 H   0  0  0  0  0  0  0  0  0  0  0  0
  149.7328  142.7023  157.1717 H   0  0  0  0  0  0  0  0  0  0  0  0
  151.5463  139.4883  156.3553 H   0  0  0  0  0  0  0  0  0  0  0  0
  153.6652  140.0988  160.9065 H   0  0  0  0  0  0  0  0  0  0  0  0
  154.3031  143.1291  162.5181 H   0  0  0  0  0  0  0  0  0  0  0  0
  154.1323  141.4017  162.8167 H   0  0  0  0  0  0  0  0  0  0  0  0
  152.8349  142.4999  163.2807 H   0  0  0  0  0  0  0  0  0  0  0  0
  151.4461  145.2341  160.7487 H   0  0  0  0  0  0  0  0  0  0  0  0
  153.0160  144.9832  161.5077 H   0  0  0  0  0  0  0  0  0  0  0  0
  151.5462  144.3659  162.2780 H   0  0  0  0  0  0  0  0  0  0  0  0
  151.0428  143.8837  158.8689 H   0  0  0  0  0  0  0  0  0  0  0  0
  152.9035  138.8326  158.4360 H   0  0  0  0  0  0  0  0  0  0  0  0
  1  2  1  0  0  0  0
  1 26  1  0  0  0  0
  1 27  1  0  0  0  0
  1 28  1  0  0  0  0
  2  3  1  0  0  0  0
  2 29  1  0  0  0  0
  2 30  1  0  0  0  0
  3  4  1  0  0  0  0
  3 31  1  0  0  0  0
  3 32  1  0  0  0  0
  4 24  1  0  0  0  0
  4  5  1  0  0  0  0
  4 33  1  0  0  0  0
  5  6  1  0  0  0  0
  5 34  1  0  0  0  0
  6  7  2  0  0  0  0
  6  8  1  0  0  0  0
  8  9  1  0  0  0  0
  8 24  1  0  0  0  0
  9 10  1  0  0  0  0
  9 35  1  0  0  0  0
  9 36  1  0  0  0  0
 10 11  1  0  0  0  0
 10 12  1  0  0  0  0
 10 37  1  0  0  0  0
 11 38  1  0  0  0  0
 12 13  1  0  0  0  0
 12 39  1  0  0  0  0
 12 40  1  0  0  0  0
 13 23  1  0  0  0  0
 13 14  1  0  0  0  0
 14 15  2  0  0  0  0
 14 41  1  0  0  0  0
 15 16  1  0  0  0  0
 15 50  1  0  0  0  0
 16 23  2  0  0  0  0
 16 17  1  0  0  0  0
 17 18  2  0  0  0  0
 17 42  1  0  0  0  0
 18 19  1  0  0  0  0
 18 20  1  0  0  0  0
 19 43  1  0  0  0  0
 19 44  1  0  0  0  0
 19 45  1  0  0  0  0
 20 21  1  0  0  0  0
 20 22  2  0  0  0  0
 21 46  1  0  0  0  0
 21 47  1  0  0  0  0
 21 48  1  0  0  0  0
 22 23  1  0  0  0  0
 22 49  1  0  0  0  0
 24 25  2  0  0  0  0
M  CHG  1  15   1
M  END
> <s_m_source_file>
AV-unprocessed.smi

> <i_m_source_file_index>
1644

> <i_lp_mmshare_version>
43012

> <i_f3d_flags>
0

> <s_epik_input>
W0NIM11bQ0gyXVtDSDJdW0NAQEhdMVtOSF1DKD1PKU4oQzE9TylbQ0gyXVtDQEhdKFtPSF0pW0NIMl1uKFtjSF1uMiljKGMyMylbY0hdYyhbQ0gzXSljKFtjSF0zKVtDSDNd

> <s_epik_cmdline>
J2VwaWtfcHl0aG9uJywgJy1waCcsICc3LjAnLCAnLXRuJywgJzgnLCAnLW1hJywgJzIwMCcsICctbWV0YWxfYmluZGluZycsICctaW1hZScsICc8aW5maWxlLm1hZT4nLCAnLW9tYWUnLCAnPG91dGZpbGUubWFlPic=

> <r_lp_tautomer_probability>
1

> <r_epik_Ionization_Penalty>
1.06742

> <r_epik_Ionization_Penalty_Charging>
1.06736

> <r_epik_Ionization_Penalty_Neutral>
5.56132e-05

> <r_epik_State_Penalty>
1.12163

> <r_epik_Charging_Adjusted_Penalty>
2.18899

> <i_epik_Tot_Q>
1

> <i_epik_Tot_abs_Q>
1

> <r_epik_Metal_State_Penalty>
1.26636

> <b_epik_Metal_Only>
0

> <s_lp_Force_Field>
OPLS_2005

> <r_lp_Energy>
29.5634

> <b_lp_Chiralities_Consistent>
1

> <s_lp_Variant>
AV-unprocessed.smi:1644-7

> <Gold.Version>
5.8.1

> <Gold.Id.Protein>
6NUR|6NUR_protein|mol2

> <Gold.PLP.Fitness>
52.5195

> <Gold.PLP.PLP>
-46.8427

> <Gold.PLP.part.hbond>
-3.7469

> <Gold.PLP.part.metal>
0.0000

> <Gold.PLP.part.buried>
-2.0522

> <Gold.PLP.part.nonpolar>
-41.2030

> <Gold.PLP.part.repulsive>
0.4917

> <Gold.PLP.ligand.clash>
0.0000

> <Gold.PLP.ligand.torsion>
0.2655

> <Gold.PLP.Chemscore.Hbond>
2.0359

> <Gold.PLP.Chemscore.CHOScore>
0.0000

> <Gold.PLP.Chemscore.Metal>
0.0000

> <Gold.Chemscore.Hbonds>
donor molecule, donor type, donor heavy atom, donor atom, acceptor molecule, acceptor atom, score
      L1  H     5    34       P1  7948  0.91
      L1  H    11    38       P1  8028  1.00
      P1  H  8011  8017       L1    11  0.07

> <Gold.PLP.Chemscore.Internal.Correction>
0.1001

> <Gold.Rescore>
     Score         DG    S(hbond)    S(metal)    S(lipo)     H(rot)  DE(clash)    DE(int)     intcor
     17.65     -19.28       2.05        0.00     120.64       2.80       1.31       0.32       ----

> <Gold.Chemscore.Fitness>
17.6476

> <Gold.Chemscore.DG>
-19.2756

> <Gold.Chemscore.ZeroCoef>
-5.4800

> <Gold.Chemscore.Hbond>
2.0476

> <Gold.Chemscore.Metal>
0.0000

> <Gold.Chemscore.Lipo>
120.6365

> <Gold.Chemscore.Internal_Hbond>
0.0000

> <Gold.Chemscore.DEClash>
1.3053

> <Gold.Chemscore.DEInternal>
0.3227

> <Gold.Chemscore.Rot>
2.7961

> <Gold.Chemscore.Internal.Correction>
   9.000000E+99

> <Gold.Chemscore.Hbonds>
donor molecule, donor type, donor heavy atom, donor atom, acceptor molecule, acceptor atom, score
      L1  H     5    34       P1  7948  0.86
      L1  H    11    38       P1  8028  0.98
      P1  H  8011  8017       L1    11  0.06

> <Gold.Chemscore.Hbond.Weighted>
-6.8391

> <Gold.Chemscore.Metal.Weighted>
-0.0000

> <Gold.Chemscore.Lipo.Weighted>
-14.1145

> <Gold.Chemscore.Internal_Hbond.Weighted>
0.0000

> <Gold.Chemscore.DEClash.Weighted>
1.3053

> <Gold.Chemscore.DEInternal.Weighted>
0.3227

> <Gold.Chemscore.Rot.Weighted>
7.1580

> <Gold.Chemscore.Internal.Correction.Weighted>
   9.000000E+99

> <Gold.Protein.RotatedTorsions>
[ 6907 6896 6895 6894 ] final   38.30 input  -60.11 | X-H torsion
[ 7974 7965 7964 7962 ] final   32.47 input  175.53 | X-H torsion
[ 8008 7997 7996 7995 ] final  101.50 input   59.86 | X-H torsion
[ 10167 10162 10161 10158 ] final  -59.78 input  -65.29 | X-H torsion
[ 10718 10713 10712 10709 ] final  -89.02 input   66.30 | X-H torsion
[ 10763 10752 10751 10750 ] final  140.73 input  -60.55 | X-H torsion
[ 11005 11000 10999 10996 ] final   68.04 input  -57.11 | X-H torsion

> <Gold.Protein.ActiveResidues>
 VAL166  LYS551  ARG553  GLY616  TRP617  ASP618  TYR619  PRO620  LYS621  CYS622 
 ASP623  PHE694  ASN695  SER759  ASP760  ASP761  ALA762  ILE779  LEU786  VAL792 
 PHE793  MET794  SER795  GLU796  ALA797  LYS798  CYS799  TRP800  GLU811  SER814 

> <Gold.Protein.RotatedAtoms>
  152.1546  134.8961  160.0545 H   0  0  0  0  0  0  0  0  0  0  0  0  # atno 6907 bound_to 6896
  151.9980  133.3810  159.4178 H   0  0  0  0  0  0  0  0  0  0  0  0  # atno 6908 bound_to 6896
  150.6880  134.3787  159.5068 H   0  0  0  0  0  0  0  0  0  0  0  0  # atno 6909 bound_to 6896
  146.1484  139.6522  142.9115 H   0  0  0  0  0  0  0  0  0  0  0  0  # atno 7974 bound_to 7965
  156.1305  140.3196  155.8341 H   0  0  0  0  0  0  0  0  0  0  0  0  # atno 8008 bound_to 7997
  155.4341  140.0521  157.3033 H   0  0  0  0  0  0  0  0  0  0  0  0  # atno 8009 bound_to 7997
  154.4895  140.2086  155.9592 H   0  0  0  0  0  0  0  0  0  0  0  0  # atno 8010 bound_to 7997
  140.6113  143.2388  151.5702 H   0  0  0  0  0  0  0  0  0  0  0  0  # atno 10167 bound_to 10162
  155.9984  130.4857  150.5108 H   0  0  0  0  0  0  0  0  0  0  0  0  # atno 10718 bound_to 10713
  153.9276  135.2993  155.3446 H   0  0  0  0  0  0  0  0  0  0  0  0  # atno 10763 bound_to 10752
  154.7543  135.4965  153.9349 H   0  0  0  0  0  0  0  0  0  0  0  0  # atno 10764 bound_to 10752
  153.1108  135.6758  153.9607 H   0  0  0  0  0  0  0  0  0  0  0  0  # atno 10765 bound_to 10752
  139.9735  134.6861  156.0400 H   0  0  0  0  0  0  0  0  0  0  0  0  # atno 11005 bound_to 11000
  145.4881  141.0438  143.2608 LP  0  0  0  0  0  0  0  0  0  0  0  0  # atno 17320 bound_to 7965
  144.7874  139.6398  143.7128 LP  0  0  0  0  0  0  0  0  0  0  0  0  # atno 17321 bound_to 7965
  139.5364  144.2770  152.1259 LP  0  0  0  0  0  0  0  0  0  0  0  0  # atno 17342 bound_to 10162
  140.1970  144.4695  150.6450 LP  0  0  0  0  0  0  0  0  0  0  0  0  # atno 17343 bound_to 10162
  157.3081  131.0658  151.2020 LP  0  0  0  0  0  0  0  0  0  0  0  0  # atno 17370 bound_to 10713
  157.2976  130.6827  149.6147 LP  0  0  0  0  0  0  0  0  0  0  0  0  # atno 17371 bound_to 10713
  141.1413  133.6564  156.3738 LP  0  0  0  0  0  0  0  0  0  0  0  0  # atno 17394 bound_to 11000
  140.5244  134.6273  157.5329 LP  0  0  0  0  0  0  0  0  0  0  0  0  # atno 17395 bound_to 11000

$$$$
