AV-unprocessed.smi:2695|AV-procd|sdf|10411|dock7
  -GOLD-   2272014443D 1   1.00000     0.00000
 Structure written by MMmdl.
 42 43  0  0  0  0  0  0  0  0  1 V2000
  148.1065  134.4915  157.7823 C   0  0  0  0  0  0  0  0  0  0  0  0
  147.7777  134.7366  159.2497 C   0  0  0  0  0  0  0  0  0  0  0  0
  147.6400  133.6808  160.0850 C   0  0  0  0  0  0  0  0  0  0  0  0
  147.2853  133.8781  161.5013 C   0  0  0  0  0  0  0  0  0  0  0  0
  147.1846  132.9379  162.2868 O   0  0  0  0  0  0  0  0  0  0  0  0
  147.0525  135.2688  161.9155 C   0  0  0  0  0  0  0  0  0  0  0  0
  147.2169  136.2565  161.0146 C   0  0  0  0  0  0  0  0  0  0  0  0
  146.9944  137.5396  161.3383 O   0  0  0  0  0  0  0  0  0  0  0  0
  147.6139  136.0741  159.6749 N   0  0  0  0  0  0  0  0  0  0  0  0
  147.8548  137.2170  158.7750 C   0  0  0  0  0  0  0  0  0  0  0  0
  149.3122  137.3281  158.3052 C   0  0  0  0  0  0  0  0  0  0  0  0
  150.1857  136.5900  158.7632 O   0  0  0  0  0  0  0  0  0  0  0  0
  149.5540  138.2757  157.3865 N   0  0  0  0  0  0  0  0  0  0  0  0
  150.8485  138.5687  156.7679 C   0  0  2  0  0  0  0  0  0  0  0  0
  151.3922  139.9164  157.3109 C   0  0  0  0  0  0  0  0  0  0  0  0
  151.8461  139.8912  158.7755 C   0  0  0  0  0  0  0  0  0  0  0  0
  151.8535  141.3549  159.2302 C   0  0  0  0  0  0  0  0  0  0  0  0
  150.9253  142.1100  158.2691 C   0  0  0  0  0  0  0  0  0  0  0  0
  150.3701  141.0617  157.3007 C   0  0  0  0  0  0  0  0  0  0  0  0
  150.6793  138.5325  155.2316 C   0  0  0  0  0  0  0  0  0  0  0  0
  150.2585  137.3246  154.8527 F   0  0  0  0  0  0  0  0  0  0  0  0
  149.7849  139.4393  154.8362 F   0  0  0  0  0  0  0  0  0  0  0  0
  151.8366  138.7688  154.6154 F   0  0  0  0  0  0  0  0  0  0  0  0
  147.9270  133.4502  157.5122 H   0  0  0  0  0  0  0  0  0  0  0  0
  149.1569  134.7077  157.5860 H   0  0  0  0  0  0  0  0  0  0  0  0
  147.4898  135.0983  157.1196 H   0  0  0  0  0  0  0  0  0  0  0  0
  147.7709  132.6682  159.7312 H   0  0  0  0  0  0  0  0  0  0  0  0
  146.7445  135.4690  162.9316 H   0  0  0  0  0  0  0  0  0  0  0  0
  147.2077  137.1607  157.8989 H   0  0  0  0  0  0  0  0  0  0  0  0
  147.5645  138.1555  159.2461 H   0  0  0  0  0  0  0  0  0  0  0  0
  148.7731  138.8336  157.0728 H   0  0  0  0  0  0  0  0  0  0  0  0
  151.5617  137.7854  157.0304 H   0  0  0  0  0  0  0  0  0  0  0  0
  152.2426  140.2259  156.7009 H   0  0  0  0  0  0  0  0  0  0  0  0
  151.1300  139.3291  159.3766 H   0  0  0  0  0  0  0  0  0  0  0  0
  152.8233  139.4251  158.9038 H   0  0  0  0  0  0  0  0  0  0  0  0
  151.5292  141.4481  160.2672 H   0  0  0  0  0  0  0  0  0  0  0  0
  152.8623  141.7643  159.1669 H   0  0  0  0  0  0  0  0  0  0  0  0
  150.1247  142.6298  158.7963 H   0  0  0  0  0  0  0  0  0  0  0  0
  151.4958  142.8608  157.7210 H   0  0  0  0  0  0  0  0  0  0  0  0
  150.2061  141.4714  156.3034 H   0  0  0  0  0  0  0  0  0  0  0  0
  149.4083  140.7023  157.6699 H   0  0  0  0  0  0  0  0  0  0  0  0
  146.2093  137.5683  161.8635 H   0  0  0  0  0  0  0  0  0  0  0  0
  1  2  1  0  0  0  0
  1 24  1  0  0  0  0
  1 25  1  0  0  0  0
  1 26  1  0  0  0  0
  2  9  1  0  0  0  0
  2  3  2  0  0  0  0
  3  4  1  0  0  0  0
  3 27  1  0  0  0  0
  4  5  2  0  0  0  0
  4  6  1  0  0  0  0
  6  7  2  0  0  0  0
  6 28  1  0  0  0  0
  7  8  1  0  0  0  0
  7  9  1  0  0  0  0
  8 42  1  0  0  0  0
  9 10  1  0  0  0  0
 10 11  1  0  0  0  0
 10 29  1  0  0  0  0
 10 30  1  0  0  0  0
 11 12  2  0  0  0  0
 11 13  1  0  0  0  0
 13 14  1  0  0  0  0
 13 31  1  0  0  0  0
 14 15  1  0  0  0  0
 14 20  1  0  0  0  0
 14 32  1  0  0  0  0
 15 19  1  0  0  0  0
 15 16  1  0  0  0  0
 15 33  1  0  0  0  0
 16 17  1  0  0  0  0
 16 34  1  0  0  0  0
 16 35  1  0  0  0  0
 17 18  1  0  0  0  0
 17 36  1  0  0  0  0
 17 37  1  0  0  0  0
 18 19  1  0  0  0  0
 18 38  1  0  0  0  0
 18 39  1  0  0  0  0
 19 40  1  0  0  0  0
 19 41  1  0  0  0  0
 20 21  1  0  0  0  0
 20 22  1  0  0  0  0
 20 23  1  0  0  0  0
M  END
> <s_m_source_file>
AV-unprocessed.smi

> <i_m_source_file_index>
2695

> <i_lp_mmshare_version>
43012

> <i_f3d_flags>
0

> <s_epik_input>
W0NIM11jMVtjSF1jKFtPSF0pW2NIXWMoPU8pbjFbQ0gyXUMoPU8pW05IXVtDQEBIXShDKEYpKEYpRilbQ0hdMltDSDJdW0NIMl1bQ0gyXVtDSDJdMg==

> <s_epik_cmdline>
J2VwaWtfcHl0aG9uJywgJy1waCcsICc3LjAnLCAnLXRuJywgJzgnLCAnLW1hJywgJzIwMCcsICctbWV0YWxfYmluZGluZycsICctaW1hZScsICc8aW5maWxlLm1hZT4nLCAnLW9tYWUnLCAnPG91dGZpbGUubWFlPic=

> <r_epik_Ionization_Penalty>
1.35977e-07

> <r_epik_Ionization_Penalty_Charging>
0

> <r_epik_Ionization_Penalty_Neutral>
1.35977e-07

> <r_epik_State_Penalty>
2.53185

> <r_epik_Charging_Adjusted_Penalty>
2.53185

> <i_epik_Tot_Q>
0

> <i_epik_Tot_abs_Q>
0

> <r_epik_Metal_State_Penalty>
2.53184

> <b_epik_Metal_Only>
0

> <s_lp_Force_Field>
OPLS_2005

> <r_lp_Energy>
25.5635

> <b_lp_Chiralities_Consistent>
1

> <s_lp_Variant>
AV-unprocessed.smi:2695-5

> <Gold.Version>
5.8.1

> <Gold.Id.Protein>
6NUR|6NUR_protein|mol2

> <Gold.PLP.Fitness>
42.8056

> <Gold.PLP.PLP>
-35.2192

> <Gold.PLP.part.hbond>
-2.9531

> <Gold.PLP.part.metal>
0.0000

> <Gold.PLP.part.buried>
-3.9098

> <Gold.PLP.part.nonpolar>
-29.1612

> <Gold.PLP.part.repulsive>
0.0646

> <Gold.PLP.ligand.clash>
0.0000

> <Gold.PLP.ligand.torsion>
0.2881

> <Gold.PLP.Chemscore.Hbond>
2.6326

> <Gold.PLP.Chemscore.CHOScore>
0.0000

> <Gold.PLP.Chemscore.Metal>
0.0000

> <Gold.Chemscore.Hbonds>
donor molecule, donor type, donor heavy atom, donor atom, acceptor molecule, acceptor atom, score
      P1  H  6896  6907       L1    12  0.94
      P1  H  6931  6943       L1     8  0.33
      P1  H  6934  6947       L1     8  1.00

> <Gold.PLP.Chemscore.Internal.Correction>
0.2648

> <Gold.Rescore>
     Score         DG    S(hbond)    S(metal)    S(lipo)     H(rot)  DE(clash)    DE(int)     intcor
     11.59     -12.12       1.94        0.00      54.93       2.45       0.01       0.51       ----

> <Gold.Chemscore.Fitness>
11.5906

> <Gold.Chemscore.DG>
-12.1158

> <Gold.Chemscore.ZeroCoef>
-5.4800

> <Gold.Chemscore.Hbond>
1.9414

> <Gold.Chemscore.Metal>
0.0000

> <Gold.Chemscore.Lipo>
54.9306

> <Gold.Chemscore.Internal_Hbond>
0.0000

> <Gold.Chemscore.DEClash>
0.0117

> <Gold.Chemscore.DEInternal>
0.5135

> <Gold.Chemscore.Rot>
2.4512

> <Gold.Chemscore.Internal.Correction>
   9.000000E+99

> <Gold.Chemscore.Hbonds>
donor molecule, donor type, donor heavy atom, donor atom, acceptor molecule, acceptor atom, score
      P1  H  6896  6907       L1    12  0.89
      P1  H  6931  6943       L1     8  0.13
      P1  H  6934  6947       L1     8  0.32

> <Gold.Chemscore.Hbond.Weighted>
-6.4841

> <Gold.Chemscore.Metal.Weighted>
-0.0000

> <Gold.Chemscore.Lipo.Weighted>
-6.4269

> <Gold.Chemscore.Internal_Hbond.Weighted>
0.0000

> <Gold.Chemscore.DEClash.Weighted>
0.0117

> <Gold.Chemscore.DEInternal.Weighted>
0.5135

> <Gold.Chemscore.Rot.Weighted>
6.2752

> <Gold.Chemscore.Internal.Correction.Weighted>
   9.000000E+99

> <Gold.Protein.RotatedTorsions>
[ 6907 6896 6895 6894 ] final  -48.14 input  -60.11 | X-H torsion
[ 7974 7965 7964 7962 ] final -158.61 input  175.53 | X-H torsion
[ 8008 7997 7996 7995 ] final -103.46 input   59.86 | X-H torsion
[ 10167 10162 10161 10158 ] final  178.66 input  -65.29 | X-H torsion
[ 10718 10713 10712 10709 ] final  -44.44 input   66.30 | X-H torsion
[ 10763 10752 10751 10750 ] final    5.22 input  -60.55 | X-H torsion
[ 11005 11000 10999 10996 ] final -143.25 input  -57.11 | X-H torsion

> <Gold.Protein.ActiveResidues>
 VAL166  LYS551  ARG553  GLY616  TRP617  ASP618  TYR619  PRO620  LYS621  CYS622 
 ASP623  PHE694  ASN695  SER759  ASP760  ASP761  ALA762  ILE779  LEU786  VAL792 
 PHE793  MET794  SER795  GLU796  ALA797  LYS798  CYS799  TRP800  GLU811  SER814 

> <Gold.Protein.RotatedAtoms>
  150.8936  134.8342  159.7310 H   0  0  0  0  0  0  0  0  0  0  0  0  # atno 6907 bound_to 6896
  152.4851  134.4610  159.9615 H   0  0  0  0  0  0  0  0  0  0  0  0  # atno 6908 bound_to 6896
  151.4670  133.3539  159.2853 H   0  0  0  0  0  0  0  0  0  0  0  0  # atno 6909 bound_to 6896
  144.7499  140.3803  143.6056 H   0  0  0  0  0  0  0  0  0  0  0  0  # atno 7974 bound_to 7965
  154.8713  140.0423  157.1726 H   0  0  0  0  0  0  0  0  0  0  0  0  # atno 8008 bound_to 7997
  154.8736  140.2962  155.5446 H   0  0  0  0  0  0  0  0  0  0  0  0  # atno 8009 bound_to 7997
  156.2999  140.2424  156.3728 H   0  0  0  0  0  0  0  0  0  0  0  0  # atno 8010 bound_to 7997
  139.5303  144.2653  152.0673 H   0  0  0  0  0  0  0  0  0  0  0  0  # atno 10167 bound_to 10162
  156.2386  130.4178  149.8788 H   0  0  0  0  0  0  0  0  0  0  0  0  # atno 10718 bound_to 10713
  153.2619  135.6924  153.7569 H   0  0  0  0  0  0  0  0  0  0  0  0  # atno 10763 bound_to 10752
  153.6625  135.3358  155.3132 H   0  0  0  0  0  0  0  0  0  0  0  0  # atno 10764 bound_to 10752
  154.8433  135.4480  154.1613 H   0  0  0  0  0  0  0  0  0  0  0  0  # atno 10765 bound_to 10752
  140.8144  134.2706  157.4927 H   0  0  0  0  0  0  0  0  0  0  0  0  # atno 11005 bound_to 11000
  145.6984  139.1655  143.2607 LP  0  0  0  0  0  0  0  0  0  0  0  0  # atno 17320 bound_to 7965
  146.1433  140.7028  142.9357 LP  0  0  0  0  0  0  0  0  0  0  0  0  # atno 17321 bound_to 7965
  140.2116  144.4557  150.6383 LP  0  0  0  0  0  0  0  0  0  0  0  0  # atno 17342 bound_to 10162
  140.6477  143.2217  151.6149 LP  0  0  0  0  0  0  0  0  0  0  0  0  # atno 17343 bound_to 10162
  156.6378  130.8692  151.3508 LP  0  0  0  0  0  0  0  0  0  0  0  0  # atno 17370 bound_to 10713
  157.7165  130.9504  150.1275 LP  0  0  0  0  0  0  0  0  0  0  0  0  # atno 17371 bound_to 10713
  139.8712  134.9501  156.4044 LP  0  0  0  0  0  0  0  0  0  0  0  0  # atno 17394 bound_to 11000
  140.9165  133.7675  155.9854 LP  0  0  0  0  0  0  0  0  0  0  0  0  # atno 17395 bound_to 11000

$$$$
