#       Name:                AV-unprocessed.smi:2320
#       Creating user name   scv26
#       Creation time:       Fri Mar 27 12:50:29 2020


#       File generated by GOLD software.
#

@<TRIPOS>MOLECULE
AV-unprocessed.smi:2320
    48    49     1
SMALL
NO_CHARGES


@<TRIPOS>ATOM
      1 ****        -7.0361   1.9936   0.9344 C.3            1 S1                 0.0000
      2 ****        -5.6039   1.5050   0.8665 C.ar           1 S1                 0.0000
      3 ****        -4.5347   2.4226   0.8490 C.ar           1 S1                 0.0000
      4 ****        -3.2071   1.9580   0.7856 C.ar           1 S1                 0.0000
      5 ****        -2.9260   0.5773   0.7378 C.ar           1 S1                 0.0000
      6 ****        -1.5984   0.2123   0.6761 O.3            1 S1                 0.0000
      7 ****        -1.2828  -1.1706   0.5807 C.3            1 S1                 0.0000
      8 ****         0.2428  -1.3239   0.4803 C.3            1 S1                 0.0000
      9 ****         0.5289  -2.7036   0.5901 O.3            1 S1                 0.0000
     10 ****         0.7943  -0.7987  -0.8648 C.3            1 S1                 0.0000
     11 ****         2.2200  -0.4406  -0.7782 N.am           1 S1                 0.0000
     12 ****         2.5104   0.8496  -0.3033 C.2            1 S1                 0.0000
     13 ****         3.7262   1.2741  -0.1891 N.2            1 S1                 0.0000
     14 ****         4.7912   0.4397  -0.5403 C.2            1 S1                 0.0000
     15 ****         6.1760   1.0408  -0.3776 C.3            1 S1                 0.0000
     16 ****         4.5783  -0.8244  -0.9977 C.2            1 S1                 0.0000
     17 ****         5.6993  -1.7761  -1.3978 C.3            1 S1                 0.0000
     18 ****         3.1994  -1.3227  -1.1299 C.2            1 S1                 0.0000
     19 ****         2.9359  -2.4572  -1.5330 O.2            1 S1                 0.0000
     20 ****        -4.0063  -0.3406   0.7564 C.ar           1 S1                 0.0000
     21 ****        -5.3348   0.1232   0.8199 C.ar           1 S1                 0.0000
     22 ****        -7.0834   3.0814   0.9936 H              1 S1                 0.0000
     23 ****        -7.5341   1.5830   1.8132 H              1 S1                 0.0000
     24 ****        -7.5855   1.6768   0.0476 H              1 S1                 0.0000
     25 ****        -4.7268   3.4850   0.8845 H              1 S1                 0.0000
     26 ****        -2.3948   2.6697   0.7725 H              1 S1                 0.0000
     27 ****        -1.6475  -1.6843   1.4721 H              1 S1                 0.0000
     28 ****        -1.7634  -1.6192  -0.2907 H              1 S1                 0.0000
     29 ****         0.7049  -0.8066   1.3221 H              1 S1                 0.0000
     30 ****         0.1402  -3.1516  -0.1457 H              1 S1                 0.0000
     31 ****         0.6008  -1.5144  -1.6663 H              1 S1                 0.0000
     32 ****         0.2332   0.0880  -1.1668 H              1 S1                 0.0000
     33 ****         1.6436   1.4575  -0.0374 H              1 S1                 0.0000
     34 ****         6.6973   1.0621  -1.3349 H              1 S1                 0.0000
     35 ****         6.7659   0.4567   0.3291 H              1 S1                 0.0000
     36 ****         6.1241   2.0640  -0.0030 H              1 S1                 0.0000
     37 ****         5.6439  -2.6926  -0.8095 H              1 S1                 0.0000
     38 ****         6.6928  -1.3550  -1.2518 H              1 S1                 0.0000
     39 ****         5.6066  -2.0434  -2.4509 H              1 S1                 0.0000
     40 ****        -3.8431  -1.4070   0.7243 H              1 S1                 0.0000
     41 ****        -6.1490  -0.5867   0.8337 H              1 S1                 0.0000
     42 ****        -1.1570   0.5602   1.5032 LP             1 S1                 0.0000
     43 ****        -1.2048   0.6617  -0.1259 LP             1 S1                 0.0000
     44 ****         0.1461  -3.0603   1.4422 LP             1 S1                 0.0000
     45 ****         1.5191  -2.8438   0.5851 LP             1 S1                 0.0000
     46 ****         3.9044   2.1978   0.1499 LP             1 S1                 0.0000
     47 ****         1.9835  -2.7521  -1.6092 LP             1 S1                 0.0000
     48 ****         3.6746  -3.0828  -1.7839 LP             1 S1                 0.0000
@<TRIPOS>BOND
    1    1    2 1     
    2    1   22 1     
    3    1   23 1     
    4    1   24 1     
    5    2   21 ar    
    6    2    3 ar    
    7    3    4 ar    
    8    3   25 1     
    9    4    5 ar    
   10    4   26 1     
   11    5    6 1     
   12    5   20 ar    
   13    6    7 1     
   14    7    8 1     
   15    7   27 1     
   16    7   28 1     
   17    8    9 1     
   18    8   10 1     
   19    8   29 1     
   20    9   30 1     
   21   10   11 1     
   22   10   31 1     
   23   10   32 1     
   24   11   18 am    
   25   11   12 1     
   26   12   13 2     
   27   12   33 1     
   28   13   14 1     
   29   14   15 1     
   30   14   16 2     
   31   15   34 1     
   32   15   35 1     
   33   15   36 1     
   34   16   17 1     
   35   16   18 1     
   36   17   37 1     
   37   17   38 1     
   38   17   39 1     
   39   18   19 2     
   40   20   21 ar    
   41   20   40 1     
   42   21   41 1     
   43    6   42 1     
   44    6   43 1     
   45    9   44 1     
   46    9   45 1     
   47   13   46 1     
   48   19   47 1     
   49   19   48 1     
@<TRIPOS>SUBSTRUCTURE
      1 S1             1
@<TRIPOS>SET
LONE_PAIRS      STATIC     ATOMS    <user>   **** ""
7 42 43 44 45 46 47 48
DONOR_HYDROGENS      STATIC     ATOMS    <user>   **** ""
1 30
ATOM$BLUE        STATIC     ATOMS    COLORGROUP SYSTEM
7 42 43 44 45 46 47 48
ATOM$RED        STATIC     ATOMS    COLORGROUP SYSTEM
1 30
