#       Name:                AV-unprocessed.smi:3099
#       Creating user name   scv26
#       Creation time:       Fri Mar 27 17:17:58 2020


#       File generated by GOLD software.
#

@<TRIPOS>MOLECULE
AV-unprocessed.smi:3099
    35    36     1
SMALL
NO_CHARGES


@<TRIPOS>ATOM
      1 ****        -1.5316  -0.0740   3.0774 C.3            1 S1                 0.0000
      2 ****        -2.1008   0.1924   1.7713 N.pl3          1 S1                 0.0000
      3 ****        -2.6003   1.3599   1.3438 C.2            1 S1                 0.0000
      4 ****        -3.0591   1.3411   0.0998 N.2            1 S1                 0.0000
      5 ****        -2.8295   0.0331  -0.3165 C.2            1 S1                 0.0000
      6 ****        -2.2363  -0.6858   0.6981 C.2            1 S1                 0.0000
      7 ****        -1.7870  -2.1154   0.7164 C.3            1 S1                 0.0000
      8 ****        -0.2596  -2.3129   0.6818 C.3            1 S1                 0.0000
      9 ****         0.3576  -1.6470  -0.4628 N.am           1 S1                 0.0000
     10 ****         0.9768  -0.4561  -0.4343 C.2            1 S1                 0.0000
     11 ****         1.1061   0.2150   0.5901 O.2            1 S1                 0.0000
     12 ****         1.5158   0.0534  -1.7737 C.3            1 S1                 0.0000
     13 ****         2.7737   0.8946  -1.6346 C.3            1 S1                 0.0000
     14 ****         2.7051   2.3369  -1.1834 C.3            1 S1                 0.0000
     15 ****         3.0687   2.0105  -2.6108 C.3            1 S1                 0.0000
     16 ****        -1.8934   0.6584   3.7997 H              1 S1                 0.0000
     17 ****        -0.4449  -0.0101   3.0229 H              1 S1                 0.0000
     18 ****        -1.8169  -1.0693   3.4171 H              1 S1                 0.0000
     19 ****        -2.6285   2.2469   1.9597 H              1 S1                 0.0000
     20 ****        -3.0995  -0.2882  -1.3116 H              1 S1                 0.0000
     21 ****        -2.1950  -2.6146   1.5956 H              1 S1                 0.0000
     22 ****        -2.2253  -2.6304  -0.1390 H              1 S1                 0.0000
     23 ****         0.1862  -1.9663   1.6150 H              1 S1                 0.0000
     24 ****        -0.0319  -3.3771   0.6199 H              1 S1                 0.0000
     25 ****         0.2970  -2.1240  -1.3505 H              1 S1                 0.0000
     26 ****         1.7302  -0.7863  -2.4359 H              1 S1                 0.0000
     27 ****         0.7344   0.6450  -2.2526 H              1 S1                 0.0000
     28 ****         3.6368   0.3319  -1.2832 H              1 S1                 0.0000
     29 ****         1.7208   2.7641  -1.0003 H              1 S1                 0.0000
     30 ****         3.4978   2.6947  -0.5297 H              1 S1                 0.0000
     31 ****         4.1047   2.1534  -2.9112 H              1 S1                 0.0000
     32 ****         2.3275   2.2263  -3.3778 H              1 S1                 0.0000
     33 ****        -3.4727   2.0904  -0.4175 LP             1 S1                 0.0000
     34 ****         0.7404  -0.1216   1.4578 LP             1 S1                 0.0000
     35 ****         1.5769   1.0965   0.5542 LP             1 S1                 0.0000
@<TRIPOS>BOND
    1    1    2 1     
    2    1   16 1     
    3    1   17 1     
    4    1   18 1     
    5    2    6 1     
    6    2    3 1     
    7    3    4 2     
    8    3   19 1     
    9    4    5 1     
   10    5    6 2     
   11    5   20 1     
   12    6    7 1     
   13    7    8 1     
   14    7   21 1     
   15    7   22 1     
   16    8    9 1     
   17    8   23 1     
   18    8   24 1     
   19    9   10 am    
   20    9   25 1     
   21   10   11 2     
   22   10   12 1     
   23   12   13 1     
   24   12   26 1     
   25   12   27 1     
   26   13   15 1     
   27   13   14 1     
   28   13   28 1     
   29   14   15 1     
   30   14   29 1     
   31   14   30 1     
   32   15   31 1     
   33   15   32 1     
   34    4   33 1     
   35   11   34 1     
   36   11   35 1     
@<TRIPOS>SUBSTRUCTURE
      1 S1             1
@<TRIPOS>SET
LONE_PAIRS      STATIC     ATOMS    <user>   **** ""
3 33 34 35
DONOR_HYDROGENS      STATIC     ATOMS    <user>   **** ""
1 25
ATOM$BLUE        STATIC     ATOMS    COLORGROUP SYSTEM
3 33 34 35
ATOM$RED        STATIC     ATOMS    COLORGROUP SYSTEM
1 25
