AV-unprocessed.smi:1853|AV-procd|sdf|7528|dock7
  -GOLD-   22720 9243D 1   1.00000     0.00000
 Structure written by MMmdl.
 43 45  0  0  0  0  0  0  0  0  2 V2000
  152.4914  143.5449  161.9425 C   0  0  0  0  0  0  0  0  0  0  0  0
  152.5520  142.5410  160.8098 C   0  0  0  0  0  0  0  0  0  0  0  0
  153.3273  141.3713  160.9340 C   0  0  0  0  0  0  0  0  0  0  0  0
  153.3792  140.4437  159.8762 C   0  0  0  0  0  0  0  0  0  0  0  0
  152.6626  140.6666  158.6826 C   0  0  0  0  0  0  0  0  0  0  0  0
  152.7673  139.7049  157.7011 O   0  0  0  0  0  0  0  0  0  0  0  0
  152.0793  139.9162  156.4753 C   0  0  0  0  0  0  0  0  0  0  0  0
  150.5801  139.6631  156.6868 C   0  0  0  0  0  0  0  0  0  0  0  0
  149.8829  139.3587  155.4289 N   0  0  0  0  0  0  0  0  0  0  0  0
  150.0273  138.3112  154.5662 C   0  0  0  0  0  0  0  0  0  0  0  0
  150.9785  137.1597  154.7097 C   0  0  0  0  0  0  0  0  0  0  0  0
  150.6845  136.2763  155.8344 N   0  0  0  0  0  0  0  0  0  0  0  0
  151.5790  135.8709  156.7476 C   0  0  0  0  0  0  0  0  0  0  0  0
  152.7529  136.2357  156.7782 O   0  0  0  0  0  0  0  0  0  0  0  0
  149.1438  138.5101  153.5453 N   0  3  0  0  0  0  0  0  0  0  0  0
  148.4174  139.6799  153.7663 C   0  0  0  0  0  0  0  0  0  0  0  0
  147.4101  140.2829  153.0193 C   0  0  0  0  0  0  0  0  0  0  0  0
  146.8719  141.4807  153.5339 C   0  0  0  0  0  0  0  0  0  0  0  0
  147.3359  142.0334  154.7455 C   0  0  0  0  0  0  0  0  0  0  0  0
  148.3586  141.4130  155.4932 C   0  0  0  0  0  0  0  0  0  0  0  0
  148.8856  140.2296  154.9766 C   0  0  0  0  0  0  0  0  0  0  0  0
  151.8876  141.8478  158.5628 C   0  0  0  0  0  0  0  0  0  0  0  0
  151.8347  142.7763  159.6206 C   0  0  0  0  0  0  0  0  0  0  0  0
  152.8500  143.1094  162.8758 H   0  0  0  0  0  0  0  0  0  0  0  0
  151.4667  143.8831  162.0994 H   0  0  0  0  0  0  0  0  0  0  0  0
  153.1082  144.4129  161.7092 H   0  0  0  0  0  0  0  0  0  0  0  0
  153.8852  141.1802  161.8392 H   0  0  0  0  0  0  0  0  0  0  0  0
  153.9789  139.5521  159.9821 H   0  0  0  0  0  0  0  0  0  0  0  0
  152.2337  140.9377  156.1245 H   0  0  0  0  0  0  0  0  0  0  0  0
  152.4573  139.2359  155.7107 H   0  0  0  0  0  0  0  0  0  0  0  0
  150.4174  138.8437  157.3873 H   0  0  0  0  0  0  0  0  0  0  0  0
  150.1084  140.5415  157.1282 H   0  0  0  0  0  0  0  0  0  0  0  0
  150.9515  136.5716  153.7922 H   0  0  0  0  0  0  0  0  0  0  0  0
  151.9973  137.5356  154.8092 H   0  0  0  0  0  0  0  0  0  0  0  0
  149.7427  135.9175  155.9001 H   0  0  0  0  0  0  0  0  0  0  0  0
  151.1203  135.1732  157.4652 H   0  0  0  0  0  0  0  0  0  0  0  0
  147.0516  139.8601  152.0923 H   0  0  0  0  0  0  0  0  0  0  0  0
  146.0863  141.9846  152.9895 H   0  0  0  0  0  0  0  0  0  0  0  0
  146.8979  142.9515  155.1095 H   0  0  0  0  0  0  0  0  0  0  0  0
  148.7051  141.8428  156.4214 H   0  0  0  0  0  0  0  0  0  0  0  0
  151.3227  142.0658  157.6693 H   0  0  0  0  0  0  0  0  0  0  0  0
  151.2397  143.6719  159.5159 H   0  0  0  0  0  0  0  0  0  0  0  0
  149.0392  137.8784  152.7618 H   0  0  0  0  0  0  0  0  0  0  0  0
  1  2  1  0  0  0  0
  1 24  1  0  0  0  0
  1 25  1  0  0  0  0
  1 26  1  0  0  0  0
  2 23  1  0  0  0  0
  2  3  2  0  0  0  0
  3  4  1  0  0  0  0
  3 27  1  0  0  0  0
  4  5  2  0  0  0  0
  4 28  1  0  0  0  0
  5  6  1  0  0  0  0
  5 22  1  0  0  0  0
  6  7  1  0  0  0  0
  7  8  1  0  0  0  0
  7 29  1  0  0  0  0
  7 30  1  0  0  0  0
  8  9  1  0  0  0  0
  8 31  1  0  0  0  0
  8 32  1  0  0  0  0
  9 21  1  0  0  0  0
  9 10  1  0  0  0  0
 10 11  1  0  0  0  0
 10 15  2  0  0  0  0
 11 12  1  0  0  0  0
 11 33  1  0  0  0  0
 11 34  1  0  0  0  0
 12 13  1  0  0  0  0
 12 35  1  0  0  0  0
 13 14  2  0  0  0  0
 13 36  1  0  0  0  0
 15 16  1  0  0  0  0
 15 43  1  0  0  0  0
 16 21  2  0  0  0  0
 16 17  1  0  0  0  0
 17 18  2  0  0  0  0
 17 37  1  0  0  0  0
 18 19  1  0  0  0  0
 18 38  1  0  0  0  0
 19 20  2  0  0  0  0
 19 39  1  0  0  0  0
 20 21  1  0  0  0  0
 20 40  1  0  0  0  0
 22 23  2  0  0  0  0
 22 41  1  0  0  0  0
 23 42  1  0  0  0  0
M  CHG  1  15   1
M  END
> <s_m_source_file>
AV-unprocessed.smi

> <i_m_source_file_index>
1853

> <i_lp_mmshare_version>
43012

> <i_f3d_flags>
0

> <s_epik_input>
W0NIM11jMVtjSF1bY0hdYyhbY0hdW2NIXTEpT1tDSDJdW0NIMl1uKGMobjIpW0NIMl1bTkhdW0NIXT1PKWMoYzIzKVtjSF1bY0hdW2NIXVtjSF0z

> <s_epik_cmdline>
J2VwaWtfcHl0aG9uJywgJy1waCcsICc3LjAnLCAnLXRuJywgJzgnLCAnLW1hJywgJzIwMCcsICctbWV0YWxfYmluZGluZycsICctaW1hZScsICc8aW5maWxlLm1hZT4nLCAnLW9tYWUnLCAnPG91dGZpbGUubWFlPic=

> <r_lp_tautomer_probability>
1

> <r_epik_Ionization_Penalty>
1.39966

> <r_epik_Ionization_Penalty_Charging>
1.39966

> <r_epik_Ionization_Penalty_Neutral>
7.38905e-08

> <r_epik_State_Penalty>
1.4817

> <r_epik_Charging_Adjusted_Penalty>
2.88136

> <i_epik_Tot_Q>
1

> <i_epik_Tot_abs_Q>
1

> <r_epik_Metal_State_Penalty>
1.53574

> <b_epik_Metal_Only>
0

> <s_lp_Force_Field>
OPLS_2005

> <r_lp_Energy>
13.1997

> <b_lp_Chiralities_Consistent>
1

> <s_lp_Variant>
AV-unprocessed.smi:1853-2

> <Gold.Version>
5.8.1

> <Gold.Id.Protein>
6NUR|6NUR_protein|mol2

> <Gold.PLP.Fitness>
57.3265

> <Gold.PLP.PLP>
-45.8252

> <Gold.PLP.part.hbond>
-4.0000

> <Gold.PLP.part.metal>
0.0000

> <Gold.PLP.part.buried>
-1.0055

> <Gold.PLP.part.nonpolar>
-40.4309

> <Gold.PLP.part.repulsive>
0.1512

> <Gold.PLP.ligand.clash>
0.0000

> <Gold.PLP.ligand.torsion>
0.2750

> <Gold.PLP.Chemscore.Hbond>
4.0000

> <Gold.PLP.Chemscore.CHOScore>
0.0000

> <Gold.PLP.Chemscore.Metal>
0.0000

> <Gold.Chemscore.Hbonds>
donor molecule, donor type, donor heavy atom, donor atom, acceptor molecule, acceptor atom, score
      L1  H    15    43       P1  7948  2.00
      P1  H  7997  8010       L1     6  0.80
      P1  H 10752 10765       L1    14  1.00

> <Gold.PLP.Chemscore.Internal.Correction>
0.0513

> <Gold.Rescore>
     Score         DG    S(hbond)    S(metal)    S(lipo)     H(rot)  DE(clash)    DE(int)     intcor
     20.16     -21.20       2.20        0.00     125.34       2.46       0.46       0.58       ----

> <Gold.Chemscore.Fitness>
20.1584

> <Gold.Chemscore.DG>
-21.1970

> <Gold.Chemscore.ZeroCoef>
-5.4800

> <Gold.Chemscore.Hbond>
2.2007

> <Gold.Chemscore.Metal>
0.0000

> <Gold.Chemscore.Lipo>
125.3409

> <Gold.Chemscore.Internal_Hbond>
0.0000

> <Gold.Chemscore.DEClash>
0.4595

> <Gold.Chemscore.DEInternal>
0.5791

> <Gold.Chemscore.Rot>
2.4603

> <Gold.Chemscore.Internal.Correction>
   9.000000E+99

> <Gold.Chemscore.Hbonds>
donor molecule, donor type, donor heavy atom, donor atom, acceptor molecule, acceptor atom, score
      L1  H    15    43       P1  7948  0.99
      P1  H  7997  8010       L1     6  0.04
      P1  H 10752 10765       L1    14  0.63

> <Gold.Chemscore.Hbond.Weighted>
-7.3504

> <Gold.Chemscore.Metal.Weighted>
-0.0000

> <Gold.Chemscore.Lipo.Weighted>
-14.6649

> <Gold.Chemscore.Internal_Hbond.Weighted>
0.0000

> <Gold.Chemscore.DEClash.Weighted>
0.4595

> <Gold.Chemscore.DEInternal.Weighted>
0.5791

> <Gold.Chemscore.Rot.Weighted>
6.2983

> <Gold.Chemscore.Internal.Correction.Weighted>
   9.000000E+99

> <Gold.Protein.RotatedTorsions>
[ 6907 6896 6895 6894 ] final -121.81 input  -60.11 | X-H torsion
[ 7974 7965 7964 7962 ] final   68.85 input  175.53 | X-H torsion
[ 8008 7997 7996 7995 ] final   35.09 input   59.86 | X-H torsion
[ 10167 10162 10161 10158 ] final  -65.43 input  -65.29 | X-H torsion
[ 10718 10713 10712 10709 ] final  -98.12 input   66.30 | X-H torsion
[ 10763 10752 10751 10750 ] final -111.97 input  -60.55 | X-H torsion
[ 11005 11000 10999 10996 ] final   -4.91 input  -57.11 | X-H torsion

> <Gold.Protein.ActiveResidues>
 VAL166  LYS551  ARG553  GLY616  TRP617  ASP618  TYR619  PRO620  LYS621  CYS622 
 ASP623  PHE694  ASN695  SER759  ASP760  ASP761  ALA762  ILE779  LEU786  VAL792 
 PHE793  MET794  SER795  GLU796  ALA797  LYS798  CYS799  TRP800  GLU811  SER814 

> <Gold.Protein.RotatedAtoms>
  150.8517  133.7776  159.3022 H   0  0  0  0  0  0  0  0  0  0  0  0  # atno 6907 bound_to 6896
  151.5446  135.1066  159.9944 H   0  0  0  0  0  0  0  0  0  0  0  0  # atno 6908 bound_to 6896
  152.4558  133.7677  159.6838 H   0  0  0  0  0  0  0  0  0  0  0  0  # atno 6909 bound_to 6896
  145.7975  139.2965  143.1174 H   0  0  0  0  0  0  0  0  0  0  0  0  # atno 7974 bound_to 7965
  155.1653  140.3287  155.4403 H   0  0  0  0  0  0  0  0  0  0  0  0  # atno 8008 bound_to 7997
  156.2528  140.1953  156.6709 H   0  0  0  0  0  0  0  0  0  0  0  0  # atno 8009 bound_to 7997
  154.6375  140.0574  156.9793 H   0  0  0  0  0  0  0  0  0  0  0  0  # atno 8010 bound_to 7997
  140.5730  143.2319  151.6500 H   0  0  0  0  0  0  0  0  0  0  0  0  # atno 10167 bound_to 10162
  156.0100  130.5224  150.6476 H   0  0  0  0  0  0  0  0  0  0  0  0  # atno 10718 bound_to 10713
  154.8327  135.4508  154.1121 H   0  0  0  0  0  0  0  0  0  0  0  0  # atno 10763 bound_to 10752
  153.2381  135.6913  153.7820 H   0  0  0  0  0  0  0  0  0  0  0  0  # atno 10764 bound_to 10752
  153.7178  135.3346  155.3236 H   0  0  0  0  0  0  0  0  0  0  0  0  # atno 10765 bound_to 10752
  140.6854  133.9117  155.8582 H   0  0  0  0  0  0  0  0  0  0  0  0  # atno 11005 bound_to 11000
  145.9912  140.8601  143.0065 LP  0  0  0  0  0  0  0  0  0  0  0  0  # atno 17320 bound_to 7965
  144.6773  140.2218  143.7365 LP  0  0  0  0  0  0  0  0  0  0  0  0  # atno 17321 bound_to 7965
  139.5127  144.3466  152.0691 LP  0  0  0  0  0  0  0  0  0  0  0  0  # atno 17342 bound_to 10162
  140.2606  144.4071  150.6187 LP  0  0  0  0  0  0  0  0  0  0  0  0  # atno 17343 bound_to 10162
  157.4244  131.0841  151.1100 LP  0  0  0  0  0  0  0  0  0  0  0  0  # atno 17370 bound_to 10713
  157.1692  130.6260  149.5635 LP  0  0  0  0  0  0  0  0  0  0  0  0  # atno 17371 bound_to 10713
  141.0284  134.0790  157.4042 LP  0  0  0  0  0  0  0  0  0  0  0  0  # atno 17394 bound_to 11000
  139.8939  135.0133  156.6924 LP  0  0  0  0  0  0  0  0  0  0  0  0  # atno 17395 bound_to 11000

$$$$
