#       Name:                AV-unprocessed.smi:66
#       Creating user name   scv26
#       Creation time:       Thu Mar 26 16:51:31 2020


#       File generated by GOLD software.
#

@<TRIPOS>MOLECULE
AV-unprocessed.smi:66
    37    39     1
SMALL
NO_CHARGES


@<TRIPOS>ATOM
      1 ****        -2.5662  -1.2445  -1.4105 O.co2          1 S1                 0.0000
      2 ****        -1.3348  -1.1414  -1.6013 C.2            1 S1                 0.0000
      3 ****        -0.6053  -2.0237  -2.1064 O.co2          1 S1                -1.0000
      4 ****        -0.6813   0.1848  -1.1779 C.3            1 S1                 0.0000
      5 ****        -0.2097   1.0024  -2.3938 C.3            1 S1                 0.0000
      6 ****         1.2683   0.6356  -2.5246 C.3            1 S1                 0.0000
      7 ****         2.0165   1.6238  -3.2013 O.3            1 S1                 0.0000
      8 ****         1.7042   0.4678  -1.0688 C.3            1 S1                 0.0000
      9 ****         0.5237  -0.0377  -0.3775 N.pl3          1 S1                 0.0000
     10 ****         0.5094  -0.1539   1.0306 C.ar           1 S1                 0.0000
     11 ****         1.6824  -0.0217   1.6964 N.ar           1 S1                 0.0000
     12 ****         1.6765  -0.1256   3.0313 C.ar           1 S1                 0.0000
     13 ****         0.6448  -0.3516   3.8578 N.ar           1 S1                 0.0000
     14 ****        -0.5248  -0.4927   3.2206 C.ar           1 S1                 0.0000
     15 ****        -1.7515  -0.7397   3.8221 N.2            1 S1                 0.0000
     16 ****        -2.5656  -0.8000   2.7703 C.2            1 S1                 0.0000
     17 ****        -1.9996  -0.6141   1.5676 N.pl3          1 S1                 0.0000
     18 ****        -0.6496  -0.4037   1.8004 C.ar           1 S1                 0.0000
     19 ****        -2.4809  -0.6494   0.6784 H              1 S1                 0.0000
     20 ****        -1.4056   0.7767  -0.6177 H              1 S1                 0.0000
     21 ****        -0.7737   0.8032  -3.3063 H              1 S1                 0.0000
     22 ****        -0.3142   2.0653  -2.1707 H              1 S1                 0.0000
     23 ****         1.3660  -0.3142  -3.0523 H              1 S1                 0.0000
     24 ****         2.9175   1.3411  -3.2375 H              1 S1                 0.0000
     25 ****         2.5498  -0.2153  -0.9796 H              1 S1                 0.0000
     26 ****         1.9886   1.4287  -0.6364 H              1 S1                 0.0000
     27 ****         2.6376  -0.0095   3.5098 H              1 S1                 0.0000
     28 ****        -3.6230  -0.9917   2.8779 H              1 S1                 0.0000
     29 ****        -3.0436  -2.0843  -1.6690 LP             1 S1                 0.0000
     30 ****        -3.0736  -0.4871  -0.9995 LP             1 S1                 0.0000
     31 ****        -1.0014  -2.8958  -2.3937 LP             1 S1                 0.0000
     32 ****         0.3738  -1.8567  -2.2228 LP             1 S1                 0.0000
     33 ****         1.9540   2.4917  -2.7085 LP             1 S1                 0.0000
     34 ****         1.6613   1.7408  -4.1288 LP             1 S1                 0.0000
     35 ****         2.5342   0.1498   1.2013 LP             1 S1                 0.0000
     36 ****         0.7394  -0.4091   4.8516 LP             1 S1                 0.0000
     37 ****        -1.9674  -0.8449   4.7928 LP             1 S1                 0.0000
@<TRIPOS>BOND
    1    1    2 ar    
    2    2    3 ar    
    3    2    4 1     
    4    4    9 1     
    5    4    5 1     
    6    4   20 1     
    7    5    6 1     
    8    5   21 1     
    9    5   22 1     
   10    6    7 1     
   11    6    8 1     
   12    6   23 1     
   13    7   24 1     
   14    8    9 1     
   15    8   25 1     
   16    8   26 1     
   17    9   10 1     
   18   10   18 ar    
   19   10   11 ar    
   20   11   12 ar    
   21   12   13 ar    
   22   12   27 1     
   23   13   14 ar    
   24   14   18 ar    
   25   14   15 1     
   26   15   16 2     
   27   16   17 1     
   28   16   28 1     
   29   17   19 1     
   30   17   18 1     
   31    1   29 1     
   32    1   30 1     
   33    3   31 1     
   34    3   32 1     
   35    7   33 1     
   36    7   34 1     
   37   11   35 1     
   38   13   36 1     
   39   15   37 1     
@<TRIPOS>SUBSTRUCTURE
      1 S1             1
@<TRIPOS>SET
LONE_PAIRS      STATIC     ATOMS    <user>   **** ""
9 29 30 31 32 33 34 35 36 37
DONOR_HYDROGENS      STATIC     ATOMS    <user>   **** ""
2 24 19
ATOM$BLUE        STATIC     ATOMS    COLORGROUP SYSTEM
9 29 30 31 32 33 34 35 36 37
ATOM$RED        STATIC     ATOMS    COLORGROUP SYSTEM
2 24 19
