#       Name:                AV-unprocessed.smi:2235
#       Creating user name   scv26
#       Creation time:       Fri Mar 27 12:25:13 2020


#       File generated by GOLD software.
#

@<TRIPOS>MOLECULE
AV-unprocessed.smi:2235
    41    42     1
SMALL
NO_CHARGES


@<TRIPOS>ATOM
      1 ****        -1.8447   0.4144  -1.6393 O.2            1 S1                 0.0000
      2 ****        -1.4625  -0.1453  -0.6117 C.2            1 S1                 0.0000
      3 ****        -0.8846  -1.5592  -0.6806 C.3            1 S1                 0.0000
      4 ****         0.5661  -1.5351  -0.6290 N.pl3          1 S1                 0.0000
      5 ****         1.4542  -1.2189  -1.6356 C.2            1 S1                 0.0000
      6 ****         2.7156  -1.3348  -1.1233 C.2            1 S1                 0.0000
      7 ****         4.0344  -1.1009  -1.8067 C.3            1 S1                 0.0000
      8 ****         4.3894  -2.2502  -2.7597 C.3            1 S1                 0.0000
      9 ****         5.6363  -1.9994  -3.3715 O.3            1 S1                 0.0000
     10 ****         2.4891  -1.7323   0.2251 C.2            1 S1                 0.0000
     11 ****         1.2044  -1.8514   0.5182 N.2            1 S1                 0.0000
     12 ****        -1.5230   0.4179   0.6048 N.am           1 S1                 0.0000
     13 ****        -2.0381   1.7549   0.8857 C.3            1 S1                 0.0000
     14 ****        -1.5711   2.2334   2.2720 C.3            1 S1                 0.0000
     15 ****        -2.8040   2.1703   3.1735 C.3            1 S1                 0.0000
     16 ****        -3.9671   2.4660   2.2321 C.3            1 S1                 0.0000
     17 ****        -3.5810   1.7769   0.9219 C.3            1 S1                 0.0000
     18 ****        -1.2726  -2.1645   0.1404 H              1 S1                 0.0000
     19 ****        -1.1932  -2.0431  -1.6083 H              1 S1                 0.0000
     20 ****         1.1175  -0.9397  -2.6233 H              1 S1                 0.0000
     21 ****         4.0120  -0.1640  -2.3646 H              1 S1                 0.0000
     22 ****         4.8302  -0.9876  -1.0692 H              1 S1                 0.0000
     23 ****         4.4433  -3.1962  -2.2200 H              1 S1                 0.0000
     24 ****         3.6296  -2.3581  -3.5345 H              1 S1                 0.0000
     25 ****         5.8365  -2.7180  -3.9517 H              1 S1                 0.0000
     26 ****         3.2178  -1.9371   0.9955 H              1 S1                 0.0000
     27 ****        -1.1824  -0.1162   1.3915 H              1 S1                 0.0000
     28 ****        -1.6673   2.4505   0.1305 H              1 S1                 0.0000
     29 ****        -0.7374   1.6557   2.6735 H              1 S1                 0.0000
     30 ****        -1.2358   3.2690   2.1993 H              1 S1                 0.0000
     31 ****        -2.9093   1.1651   3.5841 H              1 S1                 0.0000
     32 ****        -2.7500   2.8691   4.0088 H              1 S1                 0.0000
     33 ****        -4.9236   2.1182   2.6228 H              1 S1                 0.0000
     34 ****        -4.0437   3.5424   2.0723 H              1 S1                 0.0000
     35 ****        -4.0035   2.2869   0.0557 H              1 S1                 0.0000
     36 ****        -3.9820   0.7620   0.9229 H              1 S1                 0.0000
     37 ****        -1.7772  -0.0557  -2.5194 LP             1 S1                 0.0000
     38 ****        -2.2226   1.3391  -1.5941 LP             1 S1                 0.0000
     39 ****         6.3462  -1.9237  -2.6713 LP             1 S1                 0.0000
     40 ****         5.5905  -1.1476  -3.8933 LP             1 S1                 0.0000
     41 ****         0.7976  -2.1161   1.3925 LP             1 S1                 0.0000
@<TRIPOS>BOND
    1    1    2 2     
    2    2    3 1     
    3    2   12 am    
    4    3    4 1     
    5    3   18 1     
    6    3   19 1     
    7    4   11 1     
    8    4    5 1     
    9    5    6 2     
   10    5   20 1     
   11    6    7 1     
   12    6   10 1     
   13    7    8 1     
   14    7   21 1     
   15    7   22 1     
   16    8    9 1     
   17    8   23 1     
   18    8   24 1     
   19    9   25 1     
   20   10   11 2     
   21   10   26 1     
   22   12   13 1     
   23   12   27 1     
   24   13   17 1     
   25   13   14 1     
   26   13   28 1     
   27   14   15 1     
   28   14   29 1     
   29   14   30 1     
   30   15   16 1     
   31   15   31 1     
   32   15   32 1     
   33   16   17 1     
   34   16   33 1     
   35   16   34 1     
   36   17   35 1     
   37   17   36 1     
   38    1   37 1     
   39    1   38 1     
   40    9   39 1     
   41    9   40 1     
   42   11   41 1     
@<TRIPOS>SUBSTRUCTURE
      1 S1             1
@<TRIPOS>SET
LONE_PAIRS      STATIC     ATOMS    <user>   **** ""
5 37 38 39 40 41
DONOR_HYDROGENS      STATIC     ATOMS    <user>   **** ""
2 25 27
ATOM$BLUE        STATIC     ATOMS    COLORGROUP SYSTEM
5 37 38 39 40 41
ATOM$RED        STATIC     ATOMS    COLORGROUP SYSTEM
2 25 27
