AV-unprocessed.smi:915|AV-procd|sdf|4157|dock1
  -GOLD-   22720 2 63D 1   1.00000     0.00000
 Structure written by MMmdl.
 33 34  0  0  0  0  0  0  0  0  2 V2000
  152.4835  144.6934  158.3934 C   0  0  0  0  0  0  0  0  0  0  0  0
  151.8093  143.9303  159.5391 C   0  0  0  0  0  0  0  0  0  0  0  0
  152.5676  142.6967  159.9246 C   0  0  0  0  0  0  0  0  0  0  0  0
  153.0393  142.3710  161.1680 C   0  0  0  0  0  0  0  0  0  0  0  0
  153.8691  140.8421  161.1566 S   0  0  0  0  0  0  0  0  0  0  0  0
  153.5520  140.6771  159.4279 C   0  0  0  0  0  0  0  0  0  0  0  0
  153.9758  139.6063  158.7199 N   0  5  0  0  0  0  0  0  0  0  0  0
  153.8040  138.3087  159.0799 C   0  0  0  0  0  0  0  0  0  0  0  0
  152.9921  137.5027  158.6206 O   0  0  0  0  0  0  0  0  0  0  0  0
  154.6412  137.9156  160.0488 N   0  0  0  0  0  0  0  0  0  0  0  0
  154.6900  136.5779  160.6260 C   0  0  0  0  0  0  0  0  0  0  0  0
  154.9896  136.6340  162.1326 C   0  0  1  0  0  0  0  0  0  0  0  0
  153.8218  137.2054  162.9482 C   0  0  0  0  0  0  0  0  0  0  0  0
  153.9961  136.7124  164.3850 C   0  0  0  0  0  0  0  0  0  0  0  0
  154.3254  135.2227  164.2904 C   0  0  0  0  0  0  0  0  0  0  0  0
  155.3661  134.9959  162.8266 S   0  0  0  0  0  0  0  0  0  0  0  0
  152.8641  141.7314  158.9605 N   0  0  0  0  0  0  0  0  0  0  0  0
  151.9131  145.5845  158.1314 H   0  0  0  0  0  0  0  0  0  0  0  0
  152.5609  144.0728  157.4999 H   0  0  0  0  0  0  0  0  0  0  0  0
  153.4894  145.0101  158.6704 H   0  0  0  0  0  0  0  0  0  0  0  0
  151.7094  144.5923  160.3997 H   0  0  0  0  0  0  0  0  0  0  0  0
  150.7930  143.6655  159.2457 H   0  0  0  0  0  0  0  0  0  0  0  0
  152.9521  142.9329  162.0854 H   0  0  0  0  0  0  0  0  0  0  0  0
  155.2996  138.5938  160.4031 H   0  0  0  0  0  0  0  0  0  0  0  0
  153.7297  136.0877  160.4584 H   0  0  0  0  0  0  0  0  0  0  0  0
  155.4477  135.9848  160.1113 H   0  0  0  0  0  0  0  0  0  0  0  0
  155.8653  137.2610  162.3065 H   0  0  0  0  0  0  0  0  0  0  0  0
  153.7885  138.2942  162.8947 H   0  0  0  0  0  0  0  0  0  0  0  0
  152.8743  136.8340  162.5553 H   0  0  0  0  0  0  0  0  0  0  0  0
  154.8247  137.2429  164.8558 H   0  0  0  0  0  0  0  0  0  0  0  0
  153.1071  136.8930  164.9896 H   0  0  0  0  0  0  0  0  0  0  0  0
  154.8209  134.8506  165.1873 H   0  0  0  0  0  0  0  0  0  0  0  0
  153.4107  134.6459  164.1497 H   0  0  0  0  0  0  0  0  0  0  0  0
  1  2  1  0  0  0  0
  1 18  1  0  0  0  0
  1 19  1  0  0  0  0
  1 20  1  0  0  0  0
  2  3  1  0  0  0  0
  2 21  1  0  0  0  0
  2 22  1  0  0  0  0
  3 17  1  0  0  0  0
  3  4  2  0  0  0  0
  4  5  1  0  0  0  0
  4 23  1  0  0  0  0
  5  6  1  0  0  0  0
  6  7  1  0  0  0  0
  6 17  2  0  0  0  0
  7  8  1  0  0  0  0
  8  9  2  0  0  0  0
  8 10  1  0  0  0  0
 10 11  1  0  0  0  0
 10 24  1  0  0  0  0
 11 12  1  0  0  0  0
 11 25  1  0  0  0  0
 11 26  1  0  0  0  0
 12 16  1  0  0  0  0
 12 13  1  0  0  0  0
 12 27  1  0  0  0  0
 13 14  1  0  0  0  0
 13 28  1  0  0  0  0
 13 29  1  0  0  0  0
 14 15  1  0  0  0  0
 14 30  1  0  0  0  0
 14 31  1  0  0  0  0
 15 16  1  0  0  0  0
 15 32  1  0  0  0  0
 15 33  1  0  0  0  0
M  CHG  1   7  -1
M  END
> <s_m_source_file>
AV-unprocessed.smi

> <i_m_source_file_index>
915

> <i_lp_mmshare_version>
43012

> <i_f3d_flags>
0

> <s_epik_input>
W0NIM11bQ0gyXWMxW2NIXXNjKG4xKVtOSF1DKD1PKVtOSF1bQ0gyXVtDQEBIXTJbQ0gyXVtDSDJdW0NIMl1TMg==

> <s_epik_cmdline>
J2VwaWtfcHl0aG9uJywgJy1waCcsICc3LjAnLCAnLXRuJywgJzgnLCAnLW1hJywgJzIwMCcsICctbWV0YWxfYmluZGluZycsICctaW1hZScsICc8aW5maWxlLm1hZT4nLCAnLW9tYWUnLCAnPG91dGZpbGUubWFlPic=

> <r_lp_tautomer_probability>
0.999

> <r_epik_Ionization_Penalty>
8.73043

> <r_epik_Ionization_Penalty_Charging>
6.79141

> <r_epik_Ionization_Penalty_Neutral>
1.93902

> <r_epik_State_Penalty>
6.79158

> <r_epik_Charging_Adjusted_Penalty>
13.583

> <i_epik_Tot_Q>
-1

> <i_epik_Tot_abs_Q>
1

> <r_epik_Metal_State_Penalty>
2.71141

> <b_epik_Metal_Only>
1

> <s_lp_Force_Field>
OPLS_2005

> <r_lp_Energy>
9.1846

> <b_lp_Chiralities_Consistent>
1

> <s_lp_Variant>
AV-unprocessed.smi:915-4

> <Gold.Version>
5.8.1

> <Gold.Id.Protein>
6NUR|6NUR_protein|mol2

> <Gold.PLP.Fitness>
44.0157

> <Gold.PLP.PLP>
-40.7190

> <Gold.PLP.part.hbond>
-1.0000

> <Gold.PLP.part.metal>
0.0000

> <Gold.PLP.part.buried>
-4.0708

> <Gold.PLP.part.nonpolar>
-35.8386

> <Gold.PLP.part.repulsive>
0.0443

> <Gold.PLP.ligand.clash>
0.0000

> <Gold.PLP.ligand.torsion>
1.3717

> <Gold.PLP.Chemscore.Hbond>
2.0000

> <Gold.PLP.Chemscore.CHOScore>
0.0000

> <Gold.PLP.Chemscore.Metal>
0.0000

> <Gold.Chemscore.Hbonds>
donor molecule, donor type, donor heavy atom, donor atom, acceptor molecule, acceptor atom, score
      P1  H  7997  8008       L1     7  2.00

> <Gold.PLP.Chemscore.Internal.Correction>
0.0400

> <Gold.Rescore>
     Score         DG    S(hbond)    S(metal)    S(lipo)     H(rot)  DE(clash)    DE(int)     intcor
     15.56     -17.27       0.90        0.00     104.18       1.33       0.02       1.69       ----

> <Gold.Chemscore.Fitness>
15.5584

> <Gold.Chemscore.DG>
-17.2680

> <Gold.Chemscore.ZeroCoef>
-5.4800

> <Gold.Chemscore.Hbond>
0.8997

> <Gold.Chemscore.Metal>
0.0000

> <Gold.Chemscore.Lipo>
104.1817

> <Gold.Chemscore.Internal_Hbond>
0.0000

> <Gold.Chemscore.DEClash>
0.0166

> <Gold.Chemscore.DEInternal>
1.6931

> <Gold.Chemscore.Rot>
1.3305

> <Gold.Chemscore.Internal.Correction>
   9.000000E+99

> <Gold.Chemscore.Hbonds>
donor molecule, donor type, donor heavy atom, donor atom, acceptor molecule, acceptor atom, score
      P1  H  7997  8008       L1     7  0.86

> <Gold.Chemscore.Hbond.Weighted>
-3.0048

> <Gold.Chemscore.Metal.Weighted>
-0.0000

> <Gold.Chemscore.Lipo.Weighted>
-12.1893

> <Gold.Chemscore.Internal_Hbond.Weighted>
0.0000

> <Gold.Chemscore.DEClash.Weighted>
0.0166

> <Gold.Chemscore.DEInternal.Weighted>
1.6931

> <Gold.Chemscore.Rot.Weighted>
3.4060

> <Gold.Chemscore.Internal.Correction.Weighted>
   9.000000E+99

> <Gold.Protein.RotatedTorsions>
[ 6907 6896 6895 6894 ] final  -11.12 input  -60.11 | X-H torsion
[ 7974 7965 7964 7962 ] final  160.74 input  175.53 | X-H torsion
[ 8008 7997 7996 7995 ] final -112.65 input   59.86 | X-H torsion
[ 10167 10162 10161 10158 ] final   -6.83 input  -65.29 | X-H torsion
[ 10718 10713 10712 10709 ] final   55.83 input   66.30 | X-H torsion
[ 10763 10752 10751 10750 ] final  -56.17 input  -60.55 | X-H torsion
[ 11005 11000 10999 10996 ] final  -85.34 input  -57.11 | X-H torsion

> <Gold.Protein.ActiveResidues>
 VAL166  LYS551  ARG553  GLY616  TRP617  ASP618  TYR619  PRO620  LYS621  CYS622 
 ASP623  PHE694  ASN695  SER759  ASP760  ASP761  ALA762  ILE779  LEU786  VAL792 
 PHE793  MET794  SER795  GLU796  ALA797  LYS798  CYS799  TRP800  GLU811  SER814 

> <Gold.Protein.RotatedAtoms>
  151.3913  135.0956  159.9526 H   0  0  0  0  0  0  0  0  0  0  0  0  # atno 6907 bound_to 6896
  152.5079  133.8977  159.7436 H   0  0  0  0  0  0  0  0  0  0  0  0  # atno 6908 bound_to 6896
  150.9431  133.6577  159.2815 H   0  0  0  0  0  0  0  0  0  0  0  0  # atno 6909 bound_to 6896
  144.7721  139.7800  143.6293 H   0  0  0  0  0  0  0  0  0  0  0  0  # atno 7974 bound_to 7965
  155.0085  140.0394  157.2389 H   0  0  0  0  0  0  0  0  0  0  0  0  # atno 8008 bound_to 7997
  154.7481  140.2761  155.6292 H   0  0  0  0  0  0  0  0  0  0  0  0  # atno 8009 bound_to 7997
  156.2879  140.2652  156.2227 H   0  0  0  0  0  0  0  0  0  0  0  0  # atno 8010 bound_to 7997
  140.7010  143.6149  150.8668 H   0  0  0  0  0  0  0  0  0  0  0  0  # atno 10167 bound_to 10162
  157.5379  130.8676  149.8780 H   0  0  0  0  0  0  0  0  0  0  0  0  # atno 10718 bound_to 10713
  154.2024  135.6408  153.5091 H   0  0  0  0  0  0  0  0  0  0  0  0  # atno 10763 bound_to 10752
  153.0009  135.5454  154.6301 H   0  0  0  0  0  0  0  0  0  0  0  0  # atno 10764 bound_to 10752
  154.5717  135.2917  155.0793 H   0  0  0  0  0  0  0  0  0  0  0  0  # atno 10765 bound_to 10752
  141.1642  133.7394  156.9001 H   0  0  0  0  0  0  0  0  0  0  0  0  # atno 11005 bound_to 11000
  146.1875  139.5098  142.9826 LP  0  0  0  0  0  0  0  0  0  0  0  0  # atno 17320 bound_to 7965
  145.6293  141.0307  143.1872 LP  0  0  0  0  0  0  0  0  0  0  0  0  # atno 17321 bound_to 7965
  139.9871  143.5887  152.2923 LP  0  0  0  0  0  0  0  0  0  0  0  0  # atno 17342 bound_to 10162
  139.6529  144.7661  151.2112 LP  0  0  0  0  0  0  0  0  0  0  0  0  # atno 17343 bound_to 10162
  156.0473  130.3725  150.1286 LP  0  0  0  0  0  0  0  0  0  0  0  0  # atno 17370 bound_to 10713
  156.9467  130.9762  151.3506 LP  0  0  0  0  0  0  0  0  0  0  0  0  # atno 17371 bound_to 10713
  140.1589  134.9179  157.2689 LP  0  0  0  0  0  0  0  0  0  0  0  0  # atno 17394 bound_to 11000
  140.2635  134.3543  155.7398 LP  0  0  0  0  0  0  0  0  0  0  0  0  # atno 17395 bound_to 11000

$$$$
