#       Name:                AV-unprocessed.smi:1952
#       Creating user name   scv26
#       Creation time:       Fri Mar 27 10:03:32 2020


#       File generated by GOLD software.
#

@<TRIPOS>MOLECULE
AV-unprocessed.smi:1952
    47    48     1
SMALL
NO_CHARGES


@<TRIPOS>ATOM
      1 ****        -5.9232   2.6810  -1.4733 C.3            1 S1                 0.0000
      2 ****        -4.4963   2.2606  -1.3837 C.2            1 S1                 0.0000
      3 ****        -3.8581   1.0766  -1.6254 C.2            1 S1                 0.0000
      4 ****        -2.5001   1.3814  -1.3426 C.2            1 S1                 0.0000
      5 ****        -1.4898   0.3955  -1.4787 N.am           1 S1                 0.0000
      6 ****        -0.1732   0.5348  -1.2490 C.2            1 S1                 0.0000
      7 ****         0.3731   1.5711  -0.8699 O.2            1 S1                 0.0000
      8 ****         0.4831  -0.6119  -1.4825 N.am           1 S1                 0.0000
      9 ****         1.9187  -0.8276  -1.3081 C.3            1 S1                 0.0000
     10 ****         2.4676  -1.5530  -2.5439 C.3            1 S1                 0.0000
     11 ****         2.1857  -1.6398  -0.0221 C.3            1 S1                 0.0000
     12 ****         1.7340  -1.0216   1.2252 N.3            1 S1                 0.0000
     13 ****         1.7995  -1.9659   2.3349 C.3            1 S1                 0.0000
     14 ****         1.3160  -1.3368   3.6531 C.3            1 S1                 0.0000
     15 ****         2.0835  -0.1713   3.9355 O.3            1 S1                 0.0000
     16 ****         2.0148   0.7969   2.8937 C.3            1 S1                 0.0000
     17 ****         2.5016   0.1719   1.5751 C.3            1 S1                 0.0000
     18 ****        -2.3252   2.6375  -0.9614 N.2            1 S1                 0.0000
     19 ****        -3.6036   3.2074  -0.9861 O.3            1 S1                 0.0000
     20 ****        -6.5633   1.8358  -1.7263 H              1 S1                 0.0000
     21 ****        -6.0533   3.4453  -2.2396 H              1 S1                 0.0000
     22 ****        -6.2657   3.0918  -0.5235 H              1 S1                 0.0000
     23 ****        -4.2952   0.1448  -1.9524 H              1 S1                 0.0000
     24 ****        -1.8035  -0.5141  -1.7827 H              1 S1                 0.0000
     25 ****        -0.0557  -1.4084  -1.7893 H              1 S1                 0.0000
     26 ****         2.4403   0.1283  -1.2518 H              1 S1                 0.0000
     27 ****         3.5428  -1.7124  -2.4582 H              1 S1                 0.0000
     28 ****         2.2933  -0.9721  -3.4503 H              1 S1                 0.0000
     29 ****         1.9964  -2.5275  -2.6764 H              1 S1                 0.0000
     30 ****         1.6928  -2.6069  -0.1336 H              1 S1                 0.0000
     31 ****         3.2518  -1.8596   0.0508 H              1 S1                 0.0000
     32 ****         1.1911  -2.8428   2.1117 H              1 S1                 0.0000
     33 ****         2.8239  -2.3205   2.4593 H              1 S1                 0.0000
     34 ****         0.2579  -1.0781   3.5925 H              1 S1                 0.0000
     35 ****         1.4273  -2.0449   4.4743 H              1 S1                 0.0000
     36 ****         0.9912   1.1610   2.7921 H              1 S1                 0.0000
     37 ****         2.6348   1.6530   3.1602 H              1 S1                 0.0000
     38 ****         3.5594  -0.0805   1.6635 H              1 S1                 0.0000
     39 ****         2.4250   0.9208   0.7882 H              1 S1                 0.0000
     40 ****        -0.1721   2.3940  -0.7096 LP             1 S1                 0.0000
     41 ****         1.3620   1.5899  -0.7223 LP             1 S1                 0.0000
     42 ****         0.7854  -0.7483   1.0655 LP             1 S1                 0.0000
     43 ****         3.0387  -0.4396   4.0606 LP             1 S1                 0.0000
     44 ****         1.7401   0.2414   4.7791 LP             1 S1                 0.0000
     45 ****        -1.4657   3.0827  -0.7102 LP             1 S1                 0.0000
     46 ****        -3.8441   3.5338  -0.0720 LP             1 S1                 0.0000
     47 ****        -3.6178   3.9739  -1.6281 LP             1 S1                 0.0000
@<TRIPOS>BOND
    1    1    2 1     
    2    1   20 1     
    3    1   21 1     
    4    1   22 1     
    5    2   19 1     
    6    2    3 2     
    7    3    4 1     
    8    3   23 1     
    9    4    5 1     
   10    4   18 2     
   11    5    6 am    
   12    5   24 1     
   13    6    7 2     
   14    6    8 am    
   15    8    9 1     
   16    8   25 1     
   17    9   10 1     
   18    9   11 1     
   19    9   26 1     
   20   10   27 1     
   21   10   28 1     
   22   10   29 1     
   23   11   12 1     
   24   11   30 1     
   25   11   31 1     
   26   12   17 1     
   27   12   13 1     
   28   13   14 1     
   29   13   32 1     
   30   13   33 1     
   31   14   15 1     
   32   14   34 1     
   33   14   35 1     
   34   15   16 1     
   35   16   17 1     
   36   16   36 1     
   37   16   37 1     
   38   17   38 1     
   39   17   39 1     
   40   18   19 1     
   41    7   40 1     
   42    7   41 1     
   43   12   42 1     
   44   15   43 1     
   45   15   44 1     
   46   18   45 1     
   47   19   46 1     
   48   19   47 1     
@<TRIPOS>SUBSTRUCTURE
      1 S1             1
@<TRIPOS>SET
LONE_PAIRS      STATIC     ATOMS    <user>   **** ""
8 40 41 42 43 44 45 46 47
DONOR_HYDROGENS      STATIC     ATOMS    <user>   **** ""
2 24 25
ATOM$BLUE        STATIC     ATOMS    COLORGROUP SYSTEM
8 40 41 42 43 44 45 46 47
ATOM$RED        STATIC     ATOMS    COLORGROUP SYSTEM
2 24 25
