AV-unprocessed.smi:3064|AV-procd|sdf|11689|dock4
  -GOLD-   2272017 93D 1   1.00000     0.00000
 Structure written by MMmdl.
 21 22  0  0  0  0  0  0  0  0  1 V2000
  150.7327  145.1381  158.8299 C   0  0  0  0  0  0  0  0  0  0  0  0
  151.1610  145.5968  160.0494 C   0  0  0  0  0  0  0  0  0  0  0  0
  152.3049  144.5063  160.7829 S   0  0  0  0  0  0  0  0  0  0  0  0
  152.1409  143.4412  159.3898 C   0  0  0  0  0  0  0  0  0  0  0  0
  152.9173  142.1708  159.2455 C   0  0  2  0  0  0  0  0  0  0  0  0
  152.0117  140.9640  158.9321 C   0  0  0  0  0  0  0  0  0  0  0  0
  152.8050  139.7371  158.8770 N   0  0  0  0  0  0  0  0  0  0  0  0
  153.5685  139.5463  160.1092 C   0  0  0  0  0  0  0  0  0  0  0  0
  154.4314  140.7871  160.4023 C   0  0  0  0  0  0  0  0  0  0  0  0
  153.6012  141.9414  160.4756 O   0  0  0  0  0  0  0  0  0  0  0  0
  151.3045  143.9182  158.4614 N   0  0  0  0  0  0  0  0  0  0  0  0
  150.0309  145.6133  158.1606 H   0  0  0  0  0  0  0  0  0  0  0  0
  150.8772  146.5069  160.5564 H   0  0  0  0  0  0  0  0  0  0  0  0
  153.6469  142.3113  158.4458 H   0  0  0  0  0  0  0  0  0  0  0  0
  151.2416  140.8717  159.6991 H   0  0  0  0  0  0  0  0  0  0  0  0
  151.4941  141.1169  157.9849 H   0  0  0  0  0  0  0  0  0  0  0  0
  152.1917  138.9418  158.7302 H   0  0  0  0  0  0  0  0  0  0  0  0
  152.8889  139.3682  160.9436 H   0  0  0  0  0  0  0  0  0  0  0  0
  154.1999  138.6615  160.0252 H   0  0  0  0  0  0  0  0  0  0  0  0
  154.9513  140.6655  161.3526 H   0  0  0  0  0  0  0  0  0  0  0  0
  155.1968  140.9206  159.6361 H   0  0  0  0  0  0  0  0  0  0  0  0
  1 11  1  0  0  0  0
  1  2  2  0  0  0  0
  1 12  1  0  0  0  0
  2  3  1  0  0  0  0
  2 13  1  0  0  0  0
  3  4  1  0  0  0  0
  4  5  1  0  0  0  0
  4 11  2  0  0  0  0
  5 10  1  0  0  0  0
  5  6  1  0  0  0  0
  5 14  1  0  0  0  0
  6  7  1  0  0  0  0
  6 15  1  0  0  0  0
  6 16  1  0  0  0  0
  7  8  1  0  0  0  0
  7 17  1  0  0  0  0
  8  9  1  0  0  0  0
  8 18  1  0  0  0  0
  8 19  1  0  0  0  0
  9 10  1  0  0  0  0
  9 20  1  0  0  0  0
  9 21  1  0  0  0  0
M  END
> <s_m_source_file>
AV-unprocessed.smi

> <i_m_source_file_index>
3064

> <i_lp_mmshare_version>
43012

> <i_f3d_flags>
0

> <s_epik_input>
bjFbY0hdW2NIXXNjMVtDQEBIXTJbQ0gyXVtOSF1bQ0gyXVtDSDJdTzI=

> <s_epik_cmdline>
J2VwaWtfcHl0aG9uJywgJy1waCcsICc3LjAnLCAnLXRuJywgJzgnLCAnLW1hJywgJzIwMCcsICctbWV0YWxfYmluZGluZycsICctaW1hZScsICc8aW5maWxlLm1hZT4nLCAnLW9tYWUnLCAnPG91dGZpbGUubWFlPic=

> <r_epik_Ionization_Penalty>
0.980767

> <r_epik_Ionization_Penalty_Charging>
0

> <r_epik_Ionization_Penalty_Neutral>
0.980767

> <r_epik_State_Penalty>
1.0271

> <r_epik_Charging_Adjusted_Penalty>
1.0271

> <i_epik_Tot_Q>
0

> <i_epik_Tot_abs_Q>
0

> <r_epik_Metal_State_Penalty>
1.02673

> <b_epik_Metal_Only>
0

> <s_lp_Force_Field>
OPLS_2005

> <r_lp_Energy>
8.04051

> <b_lp_Chiralities_Consistent>
1

> <s_lp_Variant>
AV-unprocessed.smi:3064-3

> <Gold.Version>
5.8.1

> <Gold.Id.Protein>
6NUR|6NUR_protein|mol2

> <Gold.PLP.Fitness>
32.0565

> <Gold.PLP.PLP>
-26.3681

> <Gold.PLP.part.hbond>
-1.0000

> <Gold.PLP.part.metal>
0.0000

> <Gold.PLP.part.buried>
-4.0906

> <Gold.PLP.part.nonpolar>
-21.5340

> <Gold.PLP.part.repulsive>
0.0976

> <Gold.PLP.ligand.clash>
0.0000

> <Gold.PLP.ligand.torsion>
0.0933

> <Gold.PLP.Chemscore.Hbond>
1.0000

> <Gold.PLP.Chemscore.CHOScore>
0.9548

> <Gold.PLP.Chemscore.Metal>
0.0000

> <Gold.Chemscore.Hbonds>
donor molecule, donor type, donor heavy atom, donor atom, acceptor molecule, acceptor atom, score
      L1  C     1    12       P1  8029  1.00

> <Gold.PLP.Chemscore.Internal.Correction>
0.0106

> <Gold.Rescore>
     Score         DG    S(hbond)    S(metal)    S(lipo)     H(rot)  DE(clash)    DE(int)     intcor
     13.05     -13.09       0.34        0.00      77.20       1.00       0.01       0.03       ----

> <Gold.Chemscore.Fitness>
13.0524

> <Gold.Chemscore.DG>
-13.0943

> <Gold.Chemscore.ZeroCoef>
-5.4800

> <Gold.Chemscore.Hbond>
0.3419

> <Gold.Chemscore.Metal>
0.0000

> <Gold.Chemscore.Lipo>
77.2001

> <Gold.Chemscore.Internal_Hbond>
0.0000

> <Gold.Chemscore.DEClash>
0.0073

> <Gold.Chemscore.DEInternal>
0.0346

> <Gold.Chemscore.Rot>
1.0000

> <Gold.Chemscore.Internal.Correction>
   9.000000E+99

> <Gold.Chemscore.Hbond.Weighted>
-1.1419

> <Gold.Chemscore.Metal.Weighted>
-0.0000

> <Gold.Chemscore.Lipo.Weighted>
-9.0324

> <Gold.Chemscore.Internal_Hbond.Weighted>
0.0000

> <Gold.Chemscore.DEClash.Weighted>
0.0073

> <Gold.Chemscore.DEInternal.Weighted>
0.0346

> <Gold.Chemscore.Rot.Weighted>
2.5600

> <Gold.Chemscore.Internal.Correction.Weighted>
   9.000000E+99

> <Gold.Protein.RotatedTorsions>
[ 6907 6896 6895 6894 ] final  139.24 input  -60.11 | X-H torsion
[ 7974 7965 7964 7962 ] final -127.12 input  175.53 | X-H torsion
[ 8008 7997 7996 7995 ] final   31.32 input   59.86 | X-H torsion
[ 10167 10162 10161 10158 ] final  -33.56 input  -65.29 | X-H torsion
[ 10718 10713 10712 10709 ] final  145.14 input   66.30 | X-H torsion
[ 10763 10752 10751 10750 ] final  128.88 input  -60.55 | X-H torsion
[ 11005 11000 10999 10996 ] final   87.57 input  -57.11 | X-H torsion

> <Gold.Protein.ActiveResidues>
 VAL166  LYS551  ARG553  GLY616  TRP617  ASP618  TYR619  PRO620  LYS621  CYS622 
 ASP623  PHE694  ASN695  SER759  ASP760  ASP761  ALA762  ILE779  LEU786  VAL792 
 PHE793  MET794  SER795  GLU796  ALA797  LYS798  CYS799  TRP800  GLU811  SER814 

> <Gold.Protein.RotatedAtoms>
  152.2572  133.5266  159.5359 H   0  0  0  0  0  0  0  0  0  0  0  0  # atno 6907 bound_to 6896
  150.7113  134.0879  159.3930 H   0  0  0  0  0  0  0  0  0  0  0  0  # atno 6908 bound_to 6896
  151.8798  135.0458  160.0538 H   0  0  0  0  0  0  0  0  0  0  0  0  # atno 6909 bound_to 6896
  144.9803  140.7633  143.4616 H   0  0  0  0  0  0  0  0  0  0  0  0  # atno 7974 bound_to 7965
  155.1045  140.3233  155.4538 H   0  0  0  0  0  0  0  0  0  0  0  0  # atno 8008 bound_to 7997
  156.2708  140.2055  156.6117 H   0  0  0  0  0  0  0  0  0  0  0  0  # atno 8009 bound_to 7997
  154.6803  140.0527  157.0246 H   0  0  0  0  0  0  0  0  0  0  0  0  # atno 8010 bound_to 7997
  140.7202  143.3611  151.1960 H   0  0  0  0  0  0  0  0  0  0  0  0  # atno 10167 bound_to 10162
  157.3488  131.0947  151.1018 H   0  0  0  0  0  0  0  0  0  0  0  0  # atno 10718 bound_to 10713
  153.7326  135.3236  155.3289 H   0  0  0  0  0  0  0  0  0  0  0  0  # atno 10763 bound_to 10752
  154.8321  135.4526  154.1106 H   0  0  0  0  0  0  0  0  0  0  0  0  # atno 10764 bound_to 10752
  153.2258  135.6954  153.8028 H   0  0  0  0  0  0  0  0  0  0  0  0  # atno 10765 bound_to 10752
  139.8916  134.8431  156.2879 H   0  0  0  0  0  0  0  0  0  0  0  0  # atno 11005 bound_to 11000
  145.2431  139.2064  143.4982 LP  0  0  0  0  0  0  0  0  0  0  0  0  # atno 17320 bound_to 7965
  146.3406  140.2330  142.8594 LP  0  0  0  0  0  0  0  0  0  0  0  0  # atno 17321 bound_to 7965
  139.7164  143.9294  152.2968 LP  0  0  0  0  0  0  0  0  0  0  0  0  # atno 17342 bound_to 10162
  139.9036  144.6897  150.8638 LP  0  0  0  0  0  0  0  0  0  0  0  0  # atno 17343 bound_to 10162
  157.2201  130.6477  149.5808 LP  0  0  0  0  0  0  0  0  0  0  0  0  # atno 17370 bound_to 10713
  155.9718  130.4632  150.6172 LP  0  0  0  0  0  0  0  0  0  0  0  0  # atno 17371 bound_to 10713
  140.9995  133.7160  156.0939 LP  0  0  0  0  0  0  0  0  0  0  0  0  # atno 17394 bound_to 11000
  140.7516  134.4038  157.5540 LP  0  0  0  0  0  0  0  0  0  0  0  0  # atno 17395 bound_to 11000

$$$$
