AV-unprocessed.smi:672|AV-procd|sdf|3294|dock10
  -GOLD-   22720 0253D 1   1.00000     0.00000
 Structure written by MMmdl.
 35 36  0  0  0  0  0  0  0  0  2 V2000
  149.4208  134.5975  155.3459 C   0  0  0  0  0  0  0  0  0  0  0  0
  150.4620  135.3941  154.5523 C   0  0  0  0  0  0  0  0  0  0  0  0
  150.8084  136.6915  155.2030 C   0  0  0  0  0  0  0  0  0  0  0  0
  152.0577  137.0225  155.5403 N   0  0  0  0  0  0  0  0  0  0  0  0
  152.1213  138.2639  156.1560 N   0  0  0  0  0  0  0  0  0  0  0  0
  150.9204  138.8422  156.2994 C   0  0  0  0  0  0  0  0  0  0  0  0
  150.7648  140.0467  156.8732 N   0  5  0  0  0  0  0  0  0  0  0  0
  151.8185  140.6540  157.4650 C   0  0  0  0  0  0  0  0  0  0  0  0
  152.9438  140.1744  157.6227 O   0  0  0  0  0  0  0  0  0  0  0  0
  151.5534  141.8943  157.9001 N   0  0  0  0  0  0  0  0  0  0  0  0
  152.4951  142.7836  158.5770 C   0  0  1  0  0  0  0  0  0  0  0  0
  151.7973  144.0516  159.1101 C   0  0  0  0  0  0  0  0  0  0  0  0
  151.8117  143.9350  160.6348 C   0  0  0  0  0  0  0  0  0  0  0  0
  153.0704  143.1233  160.9352 C   0  0  1  0  0  0  0  0  0  0  0  0
  153.0538  142.3552  162.5813 S   0  0  0  0  0  0  0  0  0  0  0  0
  153.5506  143.7681  163.6019 C   0  0  0  0  0  0  0  0  0  0  0  0
  153.1177  142.0921  159.8046 C   0  0  0  0  0  0  0  0  0  0  0  0
  149.5945  137.8800  155.6467 S   0  0  0  0  0  0  0  0  0  0  0  0
  149.1865  133.6579  154.8456 H   0  0  0  0  0  0  0  0  0  0  0  0
  148.4926  135.1599  155.4515 H   0  0  0  0  0  0  0  0  0  0  0  0
  149.7855  134.3616  156.3461 H   0  0  0  0  0  0  0  0  0  0  0  0
  151.3715  134.8040  154.4342 H   0  0  0  0  0  0  0  0  0  0  0  0
  150.0889  135.5962  153.5478 H   0  0  0  0  0  0  0  0  0  0  0  0
  150.6204  142.2483  157.7480 H   0  0  0  0  0  0  0  0  0  0  0  0
  153.2898  143.0703  157.8856 H   0  0  0  0  0  0  0  0  0  0  0  0
  152.3715  144.9288  158.8095 H   0  0  0  0  0  0  0  0  0  0  0  0
  150.7858  144.1862  158.7246 H   0  0  0  0  0  0  0  0  0  0  0  0
  151.8083  144.9090  161.1244 H   0  0  0  0  0  0  0  0  0  0  0  0
  150.9269  143.3898  160.9668 H   0  0  0  0  0  0  0  0  0  0  0  0
  153.9446  143.7713  160.8560 H   0  0  0  0  0  0  0  0  0  0  0  0
  153.6283  143.4659  164.6462 H   0  0  0  0  0  0  0  0  0  0  0  0
  152.8177  144.5714  163.5302 H   0  0  0  0  0  0  0  0  0  0  0  0
  154.5197  144.1487  163.2797 H   0  0  0  0  0  0  0  0  0  0  0  0
  152.5274  141.2181  160.0858 H   0  0  0  0  0  0  0  0  0  0  0  0
  154.1328  141.7444  159.6101 H   0  0  0  0  0  0  0  0  0  0  0  0
  1  2  1  0  0  0  0
  1 19  1  0  0  0  0
  1 20  1  0  0  0  0
  1 21  1  0  0  0  0
  2  3  1  0  0  0  0
  2 22  1  0  0  0  0
  2 23  1  0  0  0  0
  3 18  1  0  0  0  0
  3  4  2  0  0  0  0
  4  5  1  0  0  0  0
  5  6  2  0  0  0  0
  6  7  1  0  0  0  0
  6 18  1  0  0  0  0
  7  8  1  0  0  0  0
  8  9  2  0  0  0  0
  8 10  1  0  0  0  0
 10 11  1  0  0  0  0
 10 24  1  0  0  0  0
 11 17  1  0  0  0  0
 11 12  1  0  0  0  0
 11 25  1  0  0  0  0
 12 13  1  0  0  0  0
 12 26  1  0  0  0  0
 12 27  1  0  0  0  0
 13 14  1  0  0  0  0
 13 28  1  0  0  0  0
 13 29  1  0  0  0  0
 14 15  1  0  0  0  0
 14 17  1  0  0  0  0
 14 30  1  0  0  0  0
 15 16  1  0  0  0  0
 16 31  1  0  0  0  0
 16 32  1  0  0  0  0
 16 33  1  0  0  0  0
 17 34  1  0  0  0  0
 17 35  1  0  0  0  0
M  CHG  1   7  -1
M  END
> <s_m_source_file>
AV-unprocessed.smi

> <i_m_source_file_index>
672

> <i_lp_mmshare_version>
43012

> <i_f3d_flags>
0

> <s_epik_input>
W0NIM11bQ0gyXWMxbm5jKHMxKVtOSF1DKD1PKVtOSF1bQ0BASF0yW0NIMl1bQ0gyXVtDQEhdKFtDSDJdMilTW0NIM10=

> <s_epik_cmdline>
J2VwaWtfcHl0aG9uJywgJy1waCcsICc3LjAnLCAnLXRuJywgJzgnLCAnLW1hJywgJzIwMCcsICctbWV0YWxfYmluZGluZycsICctaW1hZScsICc8aW5maWxlLm1hZT4nLCAnLW9tYWUnLCAnPG91dGZpbGUubWFlPic=

> <r_lp_tautomer_probability>
1

> <r_epik_Ionization_Penalty>
4.49964

> <r_epik_Ionization_Penalty_Charging>
4.32991

> <r_epik_Ionization_Penalty_Neutral>
0.169727

> <r_epik_State_Penalty>
4.32952

> <r_epik_Charging_Adjusted_Penalty>
8.65943

> <i_epik_Tot_Q>
-1

> <i_epik_Tot_abs_Q>
1

> <r_epik_Metal_State_Penalty>
0.740482

> <b_epik_Metal_Only>
1

> <s_lp_Force_Field>
OPLS_2005

> <r_lp_Energy>
10.5366

> <b_lp_Chiralities_Consistent>
1

> <s_lp_Variant>
AV-unprocessed.smi:672-6

> <Gold.Version>
5.8.1

> <Gold.Id.Protein>
6NUR|6NUR_protein|mol2

> <Gold.PLP.Fitness>
39.4636

> <Gold.PLP.PLP>
-34.1101

> <Gold.PLP.part.hbond>
-2.0000

> <Gold.PLP.part.metal>
0.0000

> <Gold.PLP.part.buried>
-4.1515

> <Gold.PLP.part.nonpolar>
-27.6168

> <Gold.PLP.part.repulsive>
0.0894

> <Gold.PLP.ligand.clash>
0.0000

> <Gold.PLP.ligand.torsion>
0.2639

> <Gold.PLP.Chemscore.Hbond>
1.9520

> <Gold.PLP.Chemscore.CHOScore>
0.0000

> <Gold.PLP.Chemscore.Metal>
0.0000

> <Gold.Chemscore.Hbonds>
donor molecule, donor type, donor heavy atom, donor atom, acceptor molecule, acceptor atom, score
      P1  H  7997  8008       L1     9  0.94
      P1  H 10752 10765       L1     4  0.83

> <Gold.PLP.Chemscore.Internal.Correction>
0.0253

> <Gold.Rescore>
     Score         DG    S(hbond)    S(metal)    S(lipo)     H(rot)  DE(clash)    DE(int)     intcor
     16.31     -19.66       1.87        0.00      97.33       1.34       0.05       3.30       ----

> <Gold.Chemscore.Fitness>
16.3123

> <Gold.Chemscore.DG>
-19.6634

> <Gold.Chemscore.ZeroCoef>
-5.4800

> <Gold.Chemscore.Hbond>
1.8650

> <Gold.Chemscore.Metal>
0.0000

> <Gold.Chemscore.Lipo>
97.3265

> <Gold.Chemscore.Internal_Hbond>
0.0000

> <Gold.Chemscore.DEClash>
0.0472

> <Gold.Chemscore.DEInternal>
3.3039

> <Gold.Chemscore.Rot>
1.3410

> <Gold.Chemscore.Internal.Correction>
   9.000000E+99

> <Gold.Chemscore.Hbonds>
donor molecule, donor type, donor heavy atom, donor atom, acceptor molecule, acceptor atom, score
      P1  H  7997  8008       L1     9  0.91
      P1  H 10752 10765       L1     4  0.45

> <Gold.Chemscore.Hbond.Weighted>
-6.2291

> <Gold.Chemscore.Metal.Weighted>
-0.0000

> <Gold.Chemscore.Lipo.Weighted>
-11.3872

> <Gold.Chemscore.Internal_Hbond.Weighted>
0.0000

> <Gold.Chemscore.DEClash.Weighted>
0.0472

> <Gold.Chemscore.DEInternal.Weighted>
3.3039

> <Gold.Chemscore.Rot.Weighted>
3.4329

> <Gold.Chemscore.Internal.Correction.Weighted>
   9.000000E+99

> <Gold.Protein.RotatedTorsions>
[ 6907 6896 6895 6894 ] final  161.35 input  -60.11 | X-H torsion
[ 7974 7965 7964 7962 ] final   27.71 input  175.53 | X-H torsion
[ 8008 7997 7996 7995 ] final  -81.53 input   59.86 | X-H torsion
[ 10167 10162 10161 10158 ] final   25.13 input  -65.29 | X-H torsion
[ 10718 10713 10712 10709 ] final   17.39 input   66.30 | X-H torsion
[ 10763 10752 10751 10750 ] final -148.73 input  -60.55 | X-H torsion
[ 11005 11000 10999 10996 ] final -166.15 input  -57.11 | X-H torsion

> <Gold.Protein.ActiveResidues>
 VAL166  LYS551  ARG553  GLY616  TRP617  ASP618  TYR619  PRO620  LYS621  CYS622 
 ASP623  PHE694  ASN695  SER759  ASP760  ASP761  ALA762  ILE779  LEU786  VAL792 
 PHE793  MET794  SER795  GLU796  ALA797  LYS798  CYS799  TRP800  GLU811  SER814 

> <Gold.Protein.RotatedAtoms>
  151.9569  133.3683  159.4020 H   0  0  0  0  0  0  0  0  0  0  0  0  # atno 6907 bound_to 6896
  150.6971  134.4282  159.5245 H   0  0  0  0  0  0  0  0  0  0  0  0  # atno 6908 bound_to 6896
  152.1964  134.8627  160.0563 H   0  0  0  0  0  0  0  0  0  0  0  0  # atno 6909 bound_to 6896
  146.1769  139.7154  142.8928 H   0  0  0  0  0  0  0  0  0  0  0  0  # atno 7974 bound_to 7965
  154.5993  140.0646  156.9346 H   0  0  0  0  0  0  0  0  0  0  0  0  # atno 8008 bound_to 7997
  155.2160  140.3326  155.4304 H   0  0  0  0  0  0  0  0  0  0  0  0  # atno 8009 bound_to 7997
  156.2307  140.1840  156.7232 H   0  0  0  0  0  0  0  0  0  0  0  0  # atno 8010 bound_to 7997
  140.5131  144.0126  150.6382 H   0  0  0  0  0  0  0  0  0  0  0  0  # atno 10167 bound_to 10162
  157.0814  130.6389  149.5827 H   0  0  0  0  0  0  0  0  0  0  0  0  # atno 10718 bound_to 10713
  154.8217  135.3327  154.7019 H   0  0  0  0  0  0  0  0  0  0  0  0  # atno 10763 bound_to 10752
  153.7650  135.6930  153.4922 H   0  0  0  0  0  0  0  0  0  0  0  0  # atno 10764 bound_to 10752
  153.2084  135.4491  155.0299 H   0  0  0  0  0  0  0  0  0  0  0  0  # atno 10765 bound_to 10752
  140.5676  134.5270  157.5156 H   0  0  0  0  0  0  0  0  0  0  0  0  # atno 11005 bound_to 11000
  145.4186  141.0404  143.2976 LP  0  0  0  0  0  0  0  0  0  0  0  0  # atno 17320 bound_to 7965
  144.8251  139.5725  143.6969 LP  0  0  0  0  0  0  0  0  0  0  0  0  # atno 17321 bound_to 7965
  140.3455  143.2994  152.0543 LP  0  0  0  0  0  0  0  0  0  0  0  0  # atno 17342 bound_to 10162
  139.4902  144.6412  151.6873 LP  0  0  0  0  0  0  0  0  0  0  0  0  # atno 17343 bound_to 10162
  155.9922  130.4980  150.7332 LP  0  0  0  0  0  0  0  0  0  0  0  0  # atno 17370 bound_to 10713
  157.4797  131.0901  151.0550 LP  0  0  0  0  0  0  0  0  0  0  0  0  # atno 17371 bound_to 10713
  139.9377  134.7845  156.0759 LP  0  0  0  0  0  0  0  0  0  0  0  0  # atno 17394 bound_to 11000
  141.1076  133.6654  156.2900 LP  0  0  0  0  0  0  0  0  0  0  0  0  # atno 17395 bound_to 11000

$$$$
