AV-unprocessed.smi:3259|AV-procd|sdf|12474|dock10
  -GOLD-   2272018373D 1   1.00000     0.00000
 Structure written by MMmdl.
 39 40  0  0  0  0  0  0  0  0  1 V2000
  147.2941  139.1158  153.2325 C   0  0  0  0  0  0  0  0  0  0  0  0
  148.3716  139.3502  154.1309 O   0  0  0  0  0  0  0  0  0  0  0  0
  148.0457  139.8569  155.4326 C   0  0  1  0  0  0  0  0  0  0  0  0
  146.8561  139.0900  156.0241 C   0  0  0  0  0  0  0  0  0  0  0  0
  149.3260  140.0329  156.2717 C   0  0  0  0  0  0  0  0  0  0  0  0
  149.5103  141.3776  155.5711 C   0  0  2  0  0  0  0  0  0  0  0  0
  150.0361  142.4070  156.4609 N   0  0  0  0  0  0  0  0  0  0  0  0
  150.9885  142.1997  157.3828 C   0  0  0  0  0  0  0  0  0  0  0  0
  151.5339  141.1107  157.5593 O   0  0  0  0  0  0  0  0  0  0  0  0
  151.3947  143.4068  158.2299 C   0  0  0  0  0  0  0  0  0  0  0  0
  151.9685  142.9936  159.4986 N   0  0  0  0  0  0  0  0  0  0  0  0
  153.0523  142.1697  159.7221 C   0  0  0  0  0  0  0  0  0  0  0  0
  153.2206  142.0759  161.0739 C   0  0  0  0  0  0  0  0  0  0  0  0
  152.1779  142.8877  161.6013 C   0  0  0  0  0  0  0  0  0  0  0  0
  151.4298  143.4346  160.6566 N   0  0  0  0  0  0  0  0  0  0  0  0
  147.9758  141.4175  155.3521 C   0  0  0  0  0  0  0  0  0  0  0  0
  147.5025  142.0144  154.0219 C   0  0  0  0  0  0  0  0  0  0  0  0
  147.1400  142.1141  156.4427 C   0  0  0  0  0  0  0  0  0  0  0  0
  147.6725  138.5941  152.3538 H   0  0  0  0  0  0  0  0  0  0  0  0
  146.8497  140.0483  152.8857 H   0  0  0  0  0  0  0  0  0  0  0  0
  146.5125  138.4971  153.6720 H   0  0  0  0  0  0  0  0  0  0  0  0
  146.5176  139.5273  156.9627 H   0  0  0  0  0  0  0  0  0  0  0  0
  147.1091  138.0540  156.2483 H   0  0  0  0  0  0  0  0  0  0  0  0
  146.0078  139.0879  155.3394 H   0  0  0  0  0  0  0  0  0  0  0  0
  149.1231  140.1202  157.3408 H   0  0  0  0  0  0  0  0  0  0  0  0
  150.1273  139.3190  156.0847 H   0  0  0  0  0  0  0  0  0  0  0  0
  150.0704  141.2708  154.6391 H   0  0  0  0  0  0  0  0  0  0  0  0
  149.6433  143.3330  156.3770 H   0  0  0  0  0  0  0  0  0  0  0  0
  152.1183  144.0193  157.6897 H   0  0  0  0  0  0  0  0  0  0  0  0
  150.5242  144.0354  158.4228 H   0  0  0  0  0  0  0  0  0  0  0  0
  153.6080  141.7253  158.9098 H   0  0  0  0  0  0  0  0  0  0  0  0
  153.9744  141.5140  161.6049 H   0  0  0  0  0  0  0  0  0  0  0  0
  151.9436  143.0944  162.6351 H   0  0  0  0  0  0  0  0  0  0  0  0
  147.5592  143.1034  154.0278 H   0  0  0  0  0  0  0  0  0  0  0  0
  146.4698  141.7384  153.8067 H   0  0  0  0  0  0  0  0  0  0  0  0
  148.1107  141.6763  153.1827 H   0  0  0  0  0  0  0  0  0  0  0  0
  147.2790  143.1957  156.4266 H   0  0  0  0  0  0  0  0  0  0  0  0
  147.4044  141.7752  157.4443 H   0  0  0  0  0  0  0  0  0  0  0  0
  146.0741  141.9256  156.3104 H   0  0  0  0  0  0  0  0  0  0  0  0
  1  2  1  0  0  0  0
  1 19  1  0  0  0  0
  1 20  1  0  0  0  0
  1 21  1  0  0  0  0
  2  3  1  0  0  0  0
  3 16  1  0  0  0  0
  3  4  1  0  0  0  0
  3  5  1  0  0  0  0
  4 22  1  0  0  0  0
  4 23  1  0  0  0  0
  4 24  1  0  0  0  0
  5  6  1  0  0  0  0
  5 25  1  0  0  0  0
  5 26  1  0  0  0  0
  6  7  1  0  0  0  0
  6 16  1  0  0  0  0
  6 27  1  0  0  0  0
  7  8  1  0  0  0  0
  7 28  1  0  0  0  0
  8  9  2  0  0  0  0
  8 10  1  0  0  0  0
 10 11  1  0  0  0  0
 10 29  1  0  0  0  0
 10 30  1  0  0  0  0
 11 15  1  0  0  0  0
 11 12  1  0  0  0  0
 12 13  2  0  0  0  0
 12 31  1  0  0  0  0
 13 14  1  0  0  0  0
 13 32  1  0  0  0  0
 14 15  2  0  0  0  0
 14 33  1  0  0  0  0
 16 17  1  0  0  0  0
 16 18  1  0  0  0  0
 17 34  1  0  0  0  0
 17 35  1  0  0  0  0
 17 36  1  0  0  0  0
 18 37  1  0  0  0  0
 18 38  1  0  0  0  0
 18 39  1  0  0  0  0
M  END
> <s_m_source_file>
AV-unprocessed.smi

> <i_m_source_file_index>
3259

> <i_lp_mmshare_version>
43012

> <i_f3d_flags>
0

> <s_epik_input>
W0NIM11PW0NAQF0xKFtDSDNdKVtDSDJdW0NASF0oQzEoW0NIM10pW0NIM10pW05IXUMoPU8pW0NIMl1uMltjSF1bY0hdW2NIXW4y

> <s_epik_cmdline>
J2VwaWtfcHl0aG9uJywgJy1waCcsICc3LjAnLCAnLXRuJywgJzgnLCAnLW1hJywgJzIwMCcsICctbWV0YWxfYmluZGluZycsICctaW1hZScsICc8aW5maWxlLm1hZT4nLCAnLW9tYWUnLCAnPG91dGZpbGUubWFlPic=

> <r_lp_tautomer_probability>
1

> <r_epik_Ionization_Penalty>
1.78399e-05

> <r_epik_Ionization_Penalty_Charging>
0

> <r_epik_Ionization_Penalty_Neutral>
1.78399e-05

> <r_epik_State_Penalty>
-0

> <r_epik_Charging_Adjusted_Penalty>
0

> <i_epik_Tot_Q>
0

> <i_epik_Tot_abs_Q>
0

> <r_epik_Metal_State_Penalty>
-0

> <b_epik_Metal_Only>
0

> <s_lp_Force_Field>
OPLS_2005

> <r_lp_Energy>
23.5096

> <b_lp_Chiralities_Consistent>
1

> <s_lp_Variant>
AV-unprocessed.smi:3259-3

> <Gold.Version>
5.8.1

> <Gold.Id.Protein>
6NUR|6NUR_protein|mol2

> <Gold.PLP.Fitness>
36.3465

> <Gold.PLP.PLP>
-34.6402

> <Gold.PLP.part.hbond>
-1.0749

> <Gold.PLP.part.metal>
0.0000

> <Gold.PLP.part.buried>
-5.1005

> <Gold.PLP.part.nonpolar>
-28.8390

> <Gold.PLP.part.repulsive>
0.3192

> <Gold.PLP.ligand.clash>
0.0000

> <Gold.PLP.ligand.torsion>
0.8342

> <Gold.PLP.Chemscore.Hbond>
1.0000

> <Gold.PLP.Chemscore.CHOScore>
0.0000

> <Gold.PLP.Chemscore.Metal>
0.0000

> <Gold.Chemscore.Hbonds>
donor molecule, donor type, donor heavy atom, donor atom, acceptor molecule, acceptor atom, score
      L1  H     7    28       P1  8028  1.00

> <Gold.PLP.Chemscore.Internal.Correction>
0.3747

> <Gold.Rescore>
     Score         DG    S(hbond)    S(metal)    S(lipo)     H(rot)  DE(clash)    DE(int)     intcor
     10.72     -14.46       1.00        0.00      83.24       1.60       0.05       3.69       ----

> <Gold.Chemscore.Fitness>
10.7214

> <Gold.Chemscore.DG>
-14.4624

> <Gold.Chemscore.ZeroCoef>
-5.4800

> <Gold.Chemscore.Hbond>
0.9968

> <Gold.Chemscore.Metal>
0.0000

> <Gold.Chemscore.Lipo>
83.2412

> <Gold.Chemscore.Internal_Hbond>
0.0000

> <Gold.Chemscore.DEClash>
0.0533

> <Gold.Chemscore.DEInternal>
3.6877

> <Gold.Chemscore.Rot>
1.5962

> <Gold.Chemscore.Internal.Correction>
   9.000000E+99

> <Gold.Chemscore.Hbonds>
donor molecule, donor type, donor heavy atom, donor atom, acceptor molecule, acceptor atom, score
      L1  H     7    28       P1  8028  1.00

> <Gold.Chemscore.Hbond.Weighted>
-3.3294

> <Gold.Chemscore.Metal.Weighted>
-0.0000

> <Gold.Chemscore.Lipo.Weighted>
-9.7392

> <Gold.Chemscore.Internal_Hbond.Weighted>
0.0000

> <Gold.Chemscore.DEClash.Weighted>
0.0533

> <Gold.Chemscore.DEInternal.Weighted>
3.6877

> <Gold.Chemscore.Rot.Weighted>
4.0862

> <Gold.Chemscore.Internal.Correction.Weighted>
   9.000000E+99

> <Gold.Protein.RotatedTorsions>
[ 6907 6896 6895 6894 ] final -139.52 input  -60.11 | X-H torsion
[ 7974 7965 7964 7962 ] final   19.45 input  175.53 | X-H torsion
[ 8008 7997 7996 7995 ] final   71.24 input   59.86 | X-H torsion
[ 10167 10162 10161 10158 ] final  -94.62 input  -65.29 | X-H torsion
[ 10718 10713 10712 10709 ] final  134.34 input   66.30 | X-H torsion
[ 10763 10752 10751 10750 ] final  100.04 input  -60.55 | X-H torsion
[ 11005 11000 10999 10996 ] final   40.34 input  -57.11 | X-H torsion

> <Gold.Protein.ActiveResidues>
 VAL166  LYS551  ARG553  GLY616  TRP617  ASP618  TYR619  PRO620  LYS621  CYS622 
 ASP623  PHE694  ASN695  SER759  ASP760  ASP761  ALA762  ILE779  LEU786  VAL792 
 PHE793  MET794  SER795  GLU796  ALA797  LYS798  CYS799  TRP800  GLU811  SER814 

> <Gold.Protein.RotatedAtoms>
  151.0488  133.5642  159.2643 H   0  0  0  0  0  0  0  0  0  0  0  0  # atno 6907 bound_to 6896
  151.2660  135.0668  159.9126 H   0  0  0  0  0  0  0  0  0  0  0  0  # atno 6908 bound_to 6896
  152.5378  134.0226  159.8042 H   0  0  0  0  0  0  0  0  0  0  0  0  # atno 6909 bound_to 6896
  146.2148  139.8310  142.8660 H   0  0  0  0  0  0  0  0  0  0  0  0  # atno 7974 bound_to 7965
  155.7509  140.3488  155.5150 H   0  0  0  0  0  0  0  0  0  0  0  0  # atno 8008 bound_to 7997
  155.9005  140.1033  157.1374 H   0  0  0  0  0  0  0  0  0  0  0  0  # atno 8009 bound_to 7997
  154.4043  140.1287  156.4417 H   0  0  0  0  0  0  0  0  0  0  0  0  # atno 8010 bound_to 7997
  140.3126  143.3096  152.0132 H   0  0  0  0  0  0  0  0  0  0  0  0  # atno 10167 bound_to 10162
  157.4682  131.1078  150.9835 H   0  0  0  0  0  0  0  0  0  0  0  0  # atno 10718 bound_to 10713
  153.3089  135.4092  155.1319 H   0  0  0  0  0  0  0  0  0  0  0  0  # atno 10763 bound_to 10752
  154.8570  135.3559  154.5750 H   0  0  0  0  0  0  0  0  0  0  0  0  # atno 10764 bound_to 10752
  153.6178  135.7065  153.5380 H   0  0  0  0  0  0  0  0  0  0  0  0  # atno 10765 bound_to 10752
  140.1940  134.3952  155.8131 H   0  0  0  0  0  0  0  0  0  0  0  0  # atno 11005 bound_to 11000
  145.2997  141.0190  143.3616 LP  0  0  0  0  0  0  0  0  0  0  0  0  # atno 17320 bound_to 7965
  144.9015  139.4643  143.6630 LP  0  0  0  0  0  0  0  0  0  0  0  0  # atno 17321 bound_to 7965
  139.4890  144.6373  151.6949 LP  0  0  0  0  0  0  0  0  0  0  0  0  # atno 17342 bound_to 10162
  140.5555  144.0355  150.6146 LP  0  0  0  0  0  0  0  0  0  0  0  0  # atno 17343 bound_to 10162
  157.0609  130.5825  149.5385 LP  0  0  0  0  0  0  0  0  0  0  0  0  # atno 17370 bound_to 10713
  156.0061  130.5147  150.7833 LP  0  0  0  0  0  0  0  0  0  0  0  0  # atno 17371 bound_to 10713
  141.2227  133.7060  156.8143 LP  0  0  0  0  0  0  0  0  0  0  0  0  # atno 17394 bound_to 11000
  140.2128  134.8815  157.3293 LP  0  0  0  0  0  0  0  0  0  0  0  0  # atno 17395 bound_to 11000

$$$$
