AV-unprocessed.smi:316|AV-procd|sdf|2324|dock8
  -GOLD-   2262022223D 1   1.00000     0.00000
 Structure written by MMmdl.
 42 43  0  0  0  0  0  0  0  0  1 V2000
  151.2935  141.8846  156.4835 C   0  0  0  0  0  0  0  0  0  0  0  0
  150.9631  140.6890  155.7236 N   0  0  0  0  0  0  0  0  0  0  0  0
  151.7561  139.6119  155.6284 C   0  0  0  0  0  0  0  0  0  0  0  0
  152.8494  139.5279  156.1882 O   0  0  0  0  0  0  0  0  0  0  0  0
  151.2340  138.4525  154.7769 C   0  0  0  0  0  0  0  0  0  0  0  0
  149.9356  137.8486  155.3461 C   0  0  0  0  0  0  0  0  0  0  0  0
  149.5174  136.6669  154.6005 N   0  0  0  0  0  0  0  0  0  0  0  0
  149.5528  135.4112  155.0682 C   0  0  0  0  0  0  0  0  0  0  0  0
  149.9571  135.1163  156.1931 O   0  0  0  0  0  0  0  0  0  0  0  0
  149.1126  134.5375  154.1476 N   0  0  0  0  0  0  0  0  0  0  0  0
  149.0712  133.1168  154.2321 C   0  0  0  0  0  0  0  0  0  0  0  0
  149.9482  132.3968  155.0800 C   0  0  0  0  0  0  0  0  0  0  0  0
  149.8241  131.0003  155.1752 C   0  0  0  0  0  0  0  0  0  0  0  0
  148.8130  130.3707  154.4307 C   0  0  0  0  0  0  0  0  0  0  0  0
  147.9602  131.0424  153.6317 N   0  0  0  0  0  0  0  0  0  0  0  0
  148.0769  132.3885  153.5177 C   0  0  0  0  0  0  0  0  0  0  0  0
  147.1664  133.0377  152.6526 N   0  0  0  0  0  0  0  0  0  0  0  0
  146.3144  134.1149  153.1458 C   0  0  0  0  0  0  0  0  0  0  0  0
  145.2277  134.2756  152.0867 C   0  0  0  0  0  0  0  0  0  0  0  0
  145.0113  132.8386  151.6222 C   0  0  0  0  0  0  0  0  0  0  0  0
  146.4078  132.2144  151.7152 C   0  0  0  0  0  0  0  0  0  0  0  0
  150.4976  142.6223  156.3806 H   0  0  0  0  0  0  0  0  0  0  0  0
  152.2207  142.3312  156.1219 H   0  0  0  0  0  0  0  0  0  0  0  0
  151.4084  141.6515  157.5427 H   0  0  0  0  0  0  0  0  0  0  0  0
  150.0802  140.6812  155.2333 H   0  0  0  0  0  0  0  0  0  0  0  0
  151.0635  138.8180  153.7637 H   0  0  0  0  0  0  0  0  0  0  0  0
  152.0047  137.6833  154.7043 H   0  0  0  0  0  0  0  0  0  0  0  0
  150.0583  137.5938  156.4007 H   0  0  0  0  0  0  0  0  0  0  0  0
  149.1262  138.5776  155.2951 H   0  0  0  0  0  0  0  0  0  0  0  0
  149.1732  136.8178  153.6634 H   0  0  0  0  0  0  0  0  0  0  0  0
  148.8914  134.9215  153.2405 H   0  0  0  0  0  0  0  0  0  0  0  0
  150.6987  132.8927  155.6762 H   0  0  0  0  0  0  0  0  0  0  0  0
  150.4800  130.4276  155.8141 H   0  0  0  0  0  0  0  0  0  0  0  0
  148.6803  129.3003  154.4823 H   0  0  0  0  0  0  0  0  0  0  0  0
  145.8547  133.8433  154.0971 H   0  0  0  0  0  0  0  0  0  0  0  0
  146.8810  135.0354  153.2889 H   0  0  0  0  0  0  0  0  0  0  0  0
  144.3218  134.7424  152.4743 H   0  0  0  0  0  0  0  0  0  0  0  0
  145.5980  134.8830  151.2595 H   0  0  0  0  0  0  0  0  0  0  0  0
  144.3351  132.3303  152.3109 H   0  0  0  0  0  0  0  0  0  0  0  0
  144.5833  132.7732  150.6215 H   0  0  0  0  0  0  0  0  0  0  0  0
  146.8958  132.2521  150.7411 H   0  0  0  0  0  0  0  0  0  0  0  0
  146.3580  131.1707  152.0288 H   0  0  0  0  0  0  0  0  0  0  0  0
  1  2  1  0  0  0  0
  1 22  1  0  0  0  0
  1 23  1  0  0  0  0
  1 24  1  0  0  0  0
  2  3  1  0  0  0  0
  2 25  1  0  0  0  0
  3  4  2  0  0  0  0
  3  5  1  0  0  0  0
  5  6  1  0  0  0  0
  5 26  1  0  0  0  0
  5 27  1  0  0  0  0
  6  7  1  0  0  0  0
  6 28  1  0  0  0  0
  6 29  1  0  0  0  0
  7  8  1  0  0  0  0
  7 30  1  0  0  0  0
  8  9  2  0  0  0  0
  8 10  1  0  0  0  0
 10 11  1  0  0  0  0
 10 31  1  0  0  0  0
 11 16  1  0  0  0  0
 11 12  2  0  0  0  0
 12 13  1  0  0  0  0
 12 32  1  0  0  0  0
 13 14  2  0  0  0  0
 13 33  1  0  0  0  0
 14 15  1  0  0  0  0
 14 34  1  0  0  0  0
 15 16  2  0  0  0  0
 16 17  1  0  0  0  0
 17 21  1  0  0  0  0
 17 18  1  0  0  0  0
 18 19  1  0  0  0  0
 18 35  1  0  0  0  0
 18 36  1  0  0  0  0
 19 20  1  0  0  0  0
 19 37  1  0  0  0  0
 19 38  1  0  0  0  0
 20 21  1  0  0  0  0
 20 39  1  0  0  0  0
 20 40  1  0  0  0  0
 21 41  1  0  0  0  0
 21 42  1  0  0  0  0
M  END
> <s_m_source_file>
AV-unprocessed.smi

> <i_m_source_file_index>
316

> <i_lp_mmshare_version>
43012

> <i_f3d_flags>
0

> <s_epik_input>
W0NIM11bTkhdQyg9TylbQ0gyXVtDSDJdW05IXUMoPU8pW05IXWMxW2NIXVtjSF1bY0hdbmMxTjJbQ0gyXVtDSDJdW0NIMl1bQ0gyXTI=

> <s_epik_cmdline>
J2VwaWtfcHl0aG9uJywgJy1waCcsICc3LjAnLCAnLXRuJywgJzgnLCAnLW1hJywgJzIwMCcsICctbWV0YWxfYmluZGluZycsICctaW1hZScsICc8aW5maWxlLm1hZT4nLCAnLW9tYWUnLCAnPG91dGZpbGUubWFlPic=

> <r_lp_tautomer_probability>
1

> <r_epik_Ionization_Penalty>
0.0916714

> <r_epik_Ionization_Penalty_Charging>
0

> <r_epik_Ionization_Penalty_Neutral>
0.0916714

> <r_epik_State_Penalty>
0.0814442

> <r_epik_Charging_Adjusted_Penalty>
0.0814442

> <i_epik_Tot_Q>
0

> <i_epik_Tot_abs_Q>
0

> <r_epik_Metal_State_Penalty>
0.0705089

> <b_epik_Metal_Only>
0

> <s_lp_Force_Field>
OPLS_2005

> <r_lp_Energy>
29.6087

> <b_lp_Chiralities_Consistent>
1

> <s_lp_Variant>
AV-unprocessed.smi:316-1

> <Gold.Version>
5.8.1

> <Gold.Id.Protein>
6NUR|6NUR_protein|mol2

> <Gold.PLP.Fitness>
42.3963

> <Gold.PLP.PLP>
-34.0400

> <Gold.PLP.part.hbond>
-3.0000

> <Gold.PLP.part.metal>
0.0000

> <Gold.PLP.part.buried>
-3.8554

> <Gold.PLP.part.nonpolar>
-27.2533

> <Gold.PLP.part.repulsive>
0.4367

> <Gold.PLP.ligand.clash>
0.0000

> <Gold.PLP.ligand.torsion>
0.4141

> <Gold.PLP.Chemscore.Hbond>
2.9440

> <Gold.PLP.Chemscore.CHOScore>
0.0000

> <Gold.PLP.Chemscore.Metal>
0.0000

> <Gold.Chemscore.Hbonds>
donor molecule, donor type, donor heavy atom, donor atom, acceptor molecule, acceptor atom, score
      L1  H     7    30       P1  7948  0.99
      L1  H    10    31       P1  7948  1.00
      P1  H  7997  8008       L1     4  1.00

> <Gold.PLP.Chemscore.Internal.Correction>
0.3524

> <Gold.Rescore>
     Score         DG    S(hbond)    S(metal)    S(lipo)     H(rot)  DE(clash)    DE(int)     intcor
     12.87     -14.68       2.14        0.00      60.13       1.94       0.08       1.73       ----

> <Gold.Chemscore.Fitness>
12.8687

> <Gold.Chemscore.DG>
-14.6810

> <Gold.Chemscore.ZeroCoef>
-5.4800

> <Gold.Chemscore.Hbond>
2.1382

> <Gold.Chemscore.Metal>
0.0000

> <Gold.Chemscore.Lipo>
60.1308

> <Gold.Chemscore.Internal_Hbond>
0.0000

> <Gold.Chemscore.DEClash>
0.0825

> <Gold.Chemscore.DEInternal>
1.7298

> <Gold.Chemscore.Rot>
1.9437

> <Gold.Chemscore.Internal.Correction>
   9.000000E+99

> <Gold.Chemscore.Hbonds>
donor molecule, donor type, donor heavy atom, donor atom, acceptor molecule, acceptor atom, score
      L1  H     7    30       P1  7948  0.93
      L1  H    10    31       P1  7948  0.25
      P1  H  7997  8008       L1     4  0.99

> <Gold.Chemscore.Hbond.Weighted>
-7.1416

> <Gold.Chemscore.Metal.Weighted>
-0.0000

> <Gold.Chemscore.Lipo.Weighted>
-7.0353

> <Gold.Chemscore.Internal_Hbond.Weighted>
0.0000

> <Gold.Chemscore.DEClash.Weighted>
0.0825

> <Gold.Chemscore.DEInternal.Weighted>
1.7298

> <Gold.Chemscore.Rot.Weighted>
4.9759

> <Gold.Chemscore.Internal.Correction.Weighted>
   9.000000E+99

> <Gold.Protein.RotatedTorsions>
[ 6907 6896 6895 6894 ] final  166.25 input  -60.11 | X-H torsion
[ 7974 7965 7964 7962 ] final  164.77 input  175.53 | X-H torsion
[ 8008 7997 7996 7995 ] final  -37.28 input   59.86 | X-H torsion
[ 10167 10162 10161 10158 ] final  -38.41 input  -65.29 | X-H torsion
[ 10718 10713 10712 10709 ] final  171.84 input   66.30 | X-H torsion
[ 10763 10752 10751 10750 ] final  143.35 input  -60.55 | X-H torsion
[ 11005 11000 10999 10996 ] final  -71.45 input  -57.11 | X-H torsion

> <Gold.Protein.ActiveResidues>
 VAL166  LYS551  ARG553  GLY616  TRP617  ASP618  TYR619  PRO620  LYS621  CYS622 
 ASP623  PHE694  ASN695  SER759  ASP760  ASP761  ALA762  ILE779  LEU786  VAL792 
 PHE793  MET794  SER795  GLU796  ALA797  LYS798  CYS799  TRP800  GLU811  SER814 

> <Gold.Protein.RotatedAtoms>
  151.8819  133.3497  159.3768 H   0  0  0  0  0  0  0  0  0  0  0  0  # atno 6907 bound_to 6896
  150.7125  134.5010  159.5570 H   0  0  0  0  0  0  0  0  0  0  0  0  # atno 6908 bound_to 6896
  152.2563  134.8081  160.0489 H   0  0  0  0  0  0  0  0  0  0  0  0  # atno 6909 bound_to 6896
  144.7531  139.8374  143.6359 H   0  0  0  0  0  0  0  0  0  0  0  0  # atno 7974 bound_to 7965
  154.4056  140.1608  156.2511 H   0  0  0  0  0  0  0  0  0  0  0  0  # atno 8008 bound_to 7997
  155.9118  140.3427  155.6082 H   0  0  0  0  0  0  0  0  0  0  0  0  # atno 8009 bound_to 7997
  155.7326  140.0782  157.2272 H   0  0  0  0  0  0  0  0  0  0  0  0  # atno 8010 bound_to 7997
  140.7093  143.3279  151.2637 H   0  0  0  0  0  0  0  0  0  0  0  0  # atno 10167 bound_to 10162
  156.9876  131.0138  151.2865 H   0  0  0  0  0  0  0  0  0  0  0  0  # atno 10718 bound_to 10713
  153.9709  135.2951  155.3427 H   0  0  0  0  0  0  0  0  0  0  0  0  # atno 10763 bound_to 10752
  154.7323  135.5062  153.8987 H   0  0  0  0  0  0  0  0  0  0  0  0  # atno 10764 bound_to 10752
  153.0900  135.6705  153.9984 H   0  0  0  0  0  0  0  0  0  0  0  0  # atno 10765 bound_to 10752
  141.1592  133.6818  156.6908 H   0  0  0  0  0  0  0  0  0  0  0  0  # atno 11005 bound_to 11000
  146.1506  139.4588  143.0051 LP  0  0  0  0  0  0  0  0  0  0  0  0  # atno 17320 bound_to 7965
  145.6875  141.0174  143.1573 LP  0  0  0  0  0  0  0  0  0  0  0  0  # atno 17321 bound_to 7965
  139.6752  143.9950  152.2777 LP  0  0  0  0  0  0  0  0  0  0  0  0  # atno 17342 bound_to 10162
  139.9561  144.6588  150.8124 LP  0  0  0  0  0  0  0  0  0  0  0  0  # atno 17343 bound_to 10162
  157.5481  130.8164  149.8111 LP  0  0  0  0  0  0  0  0  0  0  0  0  # atno 17370 bound_to 10713
  156.0219  130.3792  150.1935 LP  0  0  0  0  0  0  0  0  0  0  0  0  # atno 17371 bound_to 10713
  140.3032  134.8147  157.4115 LP  0  0  0  0  0  0  0  0  0  0  0  0  # atno 17394 bound_to 11000
  140.1244  134.5178  155.8157 LP  0  0  0  0  0  0  0  0  0  0  0  0  # atno 17395 bound_to 11000

$$$$
