AV-unprocessed.smi:1485|AV-procd|sdf|6003|dock9
  -GOLD-   22720 6 93D 1   1.00000     0.00000
 Structure written by MMmdl.
 44 45  0  0  0  0  0  0  0  0  1 V2000
  144.2310  143.2161  155.1248 C   0  0  0  0  0  0  0  0  0  0  0  0
  145.4549  143.1914  154.4114 O   0  0  0  0  0  0  0  0  0  0  0  0
  146.2003  142.0105  154.6536 C   0  0  0  0  0  0  0  0  0  0  0  0
  147.6401  142.2221  154.1622 C   0  0  0  0  0  0  0  0  0  0  0  0
  148.4617  141.0267  154.3776 N   0  0  0  0  0  0  0  0  0  0  0  0
  149.5479  141.2326  155.2113 N   0  0  0  0  0  0  0  0  0  0  0  0
  150.3478  140.2545  155.4907 C   0  0  0  0  0  0  0  0  0  0  0  0
  151.5257  140.4343  156.3839 C   0  0  0  0  0  0  0  0  0  0  0  0
  152.5849  139.8342  156.1931 O   0  0  0  0  0  0  0  0  0  0  0  0
  151.3477  141.2949  157.4026 N   0  0  0  0  0  0  0  0  0  0  0  0
  152.3500  141.6430  158.4044 C   0  0  2  0  0  0  0  0  0  0  0  0
  152.8564  140.3614  159.0903 C   0  0  0  0  0  0  0  0  0  0  0  0
  153.8681  140.6832  160.2004 C   0  0  0  0  0  0  0  0  0  0  0  0
  153.2746  141.6585  161.2290 C   0  0  0  0  0  0  0  0  0  0  0  0
  152.7754  142.9514  160.5561 C   0  0  2  0  0  0  0  0  0  0  0  0
  152.1817  143.9266  161.5825 C   0  0  0  0  0  0  0  0  0  0  0  0
  151.7633  142.6234  159.4411 C   0  0  0  0  0  0  0  0  0  0  0  0
  150.1241  138.9293  154.9377 C   0  0  0  0  0  0  0  0  0  0  0  0
  149.0571  138.7428  154.1302 C   0  0  0  0  0  0  0  0  0  0  0  0
  148.1335  139.8304  153.8032 C   0  0  0  0  0  0  0  0  0  0  0  0
  147.1481  139.6824  153.0811 O   0  0  0  0  0  0  0  0  0  0  0  0
  143.7001  144.1435  154.9105 H   0  0  0  0  0  0  0  0  0  0  0  0
  144.4004  143.1665  156.2013 H   0  0  0  0  0  0  0  0  0  0  0  0
  143.5877  142.3851  154.8326 H   0  0  0  0  0  0  0  0  0  0  0  0
  146.1982  141.7818  155.7206 H   0  0  0  0  0  0  0  0  0  0  0  0
  145.7410  141.1677  154.1345 H   0  0  0  0  0  0  0  0  0  0  0  0
  147.6389  142.5009  153.1069 H   0  0  0  0  0  0  0  0  0  0  0  0
  148.0798  143.0731  154.6856 H   0  0  0  0  0  0  0  0  0  0  0  0
  150.4469  141.7439  157.4859 H   0  0  0  0  0  0  0  0  0  0  0  0
  153.1976  142.1192  157.9072 H   0  0  0  0  0  0  0  0  0  0  0  0
  152.0157  139.8127  159.5174 H   0  0  0  0  0  0  0  0  0  0  0  0
  153.3164  139.6998  158.3553 H   0  0  0  0  0  0  0  0  0  0  0  0
  154.1797  139.7638  160.6968 H   0  0  0  0  0  0  0  0  0  0  0  0
  154.7673  141.1176  159.7614 H   0  0  0  0  0  0  0  0  0  0  0  0
  152.4513  141.1742  161.7560 H   0  0  0  0  0  0  0  0  0  0  0  0
  154.0263  141.8952  161.9828 H   0  0  0  0  0  0  0  0  0  0  0  0
  153.6335  143.4429  160.0953 H   0  0  0  0  0  0  0  0  0  0  0  0
  151.3151  143.4950  162.0843 H   0  0  0  0  0  0  0  0  0  0  0  0
  151.8625  144.8527  161.1038 H   0  0  0  0  0  0  0  0  0  0  0  0
  152.9143  144.1871  162.3467 H   0  0  0  0  0  0  0  0  0  0  0  0
  151.4544  143.5451  158.9463 H   0  0  0  0  0  0  0  0  0  0  0  0
  150.8617  142.1943  159.8815 H   0  0  0  0  0  0  0  0  0  0  0  0
  150.7894  138.1083  155.1621 H   0  0  0  0  0  0  0  0  0  0  0  0
  148.8786  137.7628  153.7124 H   0  0  0  0  0  0  0  0  0  0  0  0
  1  2  1  0  0  0  0
  1 22  1  0  0  0  0
  1 23  1  0  0  0  0
  1 24  1  0  0  0  0
  2  3  1  0  0  0  0
  3  4  1  0  0  0  0
  3 25  1  0  0  0  0
  3 26  1  0  0  0  0
  4  5  1  0  0  0  0
  4 27  1  0  0  0  0
  4 28  1  0  0  0  0
  5 20  1  0  0  0  0
  5  6  1  0  0  0  0
  6  7  2  0  0  0  0
  7  8  1  0  0  0  0
  7 18  1  0  0  0  0
  8  9  2  0  0  0  0
  8 10  1  0  0  0  0
 10 11  1  0  0  0  0
 10 29  1  0  0  0  0
 11 17  1  0  0  0  0
 11 12  1  0  0  0  0
 11 30  1  0  0  0  0
 12 13  1  0  0  0  0
 12 31  1  0  0  0  0
 12 32  1  0  0  0  0
 13 14  1  0  0  0  0
 13 33  1  0  0  0  0
 13 34  1  0  0  0  0
 14 15  1  0  0  0  0
 14 35  1  0  0  0  0
 14 36  1  0  0  0  0
 15 16  1  0  0  0  0
 15 17  1  0  0  0  0
 15 37  1  0  0  0  0
 16 38  1  0  0  0  0
 16 39  1  0  0  0  0
 16 40  1  0  0  0  0
 17 41  1  0  0  0  0
 17 42  1  0  0  0  0
 18 19  2  0  0  0  0
 18 43  1  0  0  0  0
 19 20  1  0  0  0  0
 19 44  1  0  0  0  0
 20 21  2  0  0  0  0
M  END
> <s_m_source_file>
AV-unprocessed.smi

> <i_m_source_file_index>
1485

> <i_lp_mmshare_version>
43012

> <i_f3d_flags>
0

> <s_epik_input>
W0NIM11PW0NIMl1bQ0gyXW4xbmMoW2NIXVtjSF1jMT1PKUMoPU8pW05IXVtDQEBIXTJbQ0gyXVtDSDJdW0NIMl1bQ0BASF0oW0NIM10pW0NIMl0y

> <s_epik_cmdline>
J2VwaWtfcHl0aG9uJywgJy1waCcsICc3LjAnLCAnLXRuJywgJzgnLCAnLW1hJywgJzIwMCcsICctbWV0YWxfYmluZGluZycsICctaW1hZScsICc8aW5maWxlLm1hZT4nLCAnLW9tYWUnLCAnPG91dGZpbGUubWFlPic=

> <r_lp_tautomer_probability>
1

> <r_epik_Ionization_Penalty>
6.4688e-07

> <r_epik_Ionization_Penalty_Charging>
6.63567e-09

> <r_epik_Ionization_Penalty_Neutral>
6.40245e-07

> <r_epik_State_Penalty>
-0

> <r_epik_Charging_Adjusted_Penalty>
6.63567e-09

> <i_epik_Tot_Q>
0

> <i_epik_Tot_abs_Q>
0

> <r_epik_Metal_State_Penalty>
-0

> <b_epik_Metal_Only>
0

> <s_lp_Force_Field>
OPLS_2005

> <r_lp_Energy>
28.6474

> <b_lp_Chiralities_Consistent>
1

> <s_lp_Variant>
AV-unprocessed.smi:1485-3

> <Gold.Version>
5.8.1

> <Gold.Id.Protein>
6NUR|6NUR_protein|mol2

> <Gold.PLP.Fitness>
44.5292

> <Gold.PLP.PLP>
-42.6610

> <Gold.PLP.part.hbond>
-1.0000

> <Gold.PLP.part.metal>
0.0000

> <Gold.PLP.part.buried>
-5.1125

> <Gold.PLP.part.nonpolar>
-37.5311

> <Gold.PLP.part.repulsive>
0.6330

> <Gold.PLP.ligand.clash>
0.0000

> <Gold.PLP.ligand.torsion>
0.5726

> <Gold.PLP.Chemscore.Hbond>
1.0000

> <Gold.PLP.Chemscore.CHOScore>
0.0000

> <Gold.PLP.Chemscore.Metal>
0.0000

> <Gold.Chemscore.Hbonds>
donor molecule, donor type, donor heavy atom, donor atom, acceptor molecule, acceptor atom, score
      P1  H  7997  8010       L1     9  1.00

> <Gold.PLP.Chemscore.Internal.Correction>
0.0133

> <Gold.Rescore>
     Score         DG    S(hbond)    S(metal)    S(lipo)     H(rot)  DE(clash)    DE(int)     intcor
     14.90     -17.46       1.00        0.00     107.74       1.55       0.09       2.47       ----

> <Gold.Chemscore.Fitness>
14.9024

> <Gold.Chemscore.DG>
-17.4632

> <Gold.Chemscore.ZeroCoef>
-5.4800

> <Gold.Chemscore.Hbond>
0.9998

> <Gold.Chemscore.Metal>
0.0000

> <Gold.Chemscore.Lipo>
107.7438

> <Gold.Chemscore.Internal_Hbond>
0.0000

> <Gold.Chemscore.DEClash>
0.0917

> <Gold.Chemscore.DEInternal>
2.4692

> <Gold.Chemscore.Rot>
1.5478

> <Gold.Chemscore.Internal.Correction>
   9.000000E+99

> <Gold.Chemscore.Hbonds>
donor molecule, donor type, donor heavy atom, donor atom, acceptor molecule, acceptor atom, score
      P1  H  7997  8010       L1     9  1.00

> <Gold.Chemscore.Hbond.Weighted>
-3.3395

> <Gold.Chemscore.Metal.Weighted>
-0.0000

> <Gold.Chemscore.Lipo.Weighted>
-12.6060

> <Gold.Chemscore.Internal_Hbond.Weighted>
0.0000

> <Gold.Chemscore.DEClash.Weighted>
0.0917

> <Gold.Chemscore.DEInternal.Weighted>
2.4692

> <Gold.Chemscore.Rot.Weighted>
3.9623

> <Gold.Chemscore.Internal.Correction.Weighted>
   9.000000E+99

> <Gold.Protein.RotatedTorsions>
[ 6907 6896 6895 6894 ] final    0.08 input  -60.11 | X-H torsion
[ 7974 7965 7964 7962 ] final  109.64 input  175.53 | X-H torsion
[ 8008 7997 7996 7995 ] final   77.01 input   59.86 | X-H torsion
[ 10167 10162 10161 10158 ] final  178.05 input  -65.29 | X-H torsion
[ 10718 10713 10712 10709 ] final   92.09 input   66.30 | X-H torsion
[ 10763 10752 10751 10750 ] final -132.93 input  -60.55 | X-H torsion
[ 11005 11000 10999 10996 ] final  -89.22 input  -57.11 | X-H torsion

> <Gold.Protein.ActiveResidues>
 VAL166  LYS551  ARG553  GLY616  TRP617  ASP618  TYR619  PRO620  LYS621  CYS622 
 ASP623  PHE694  ASN695  SER759  ASP760  ASP761  ALA762  ILE779  LEU786  VAL792 
 PHE793  MET794  SER795  GLU796  ALA797  LYS798  CYS799  TRP800  GLU811  SER814 

> <Gold.Protein.RotatedAtoms>
  151.5706  135.1062  159.9993 H   0  0  0  0  0  0  0  0  0  0  0  0  # atno 6907 bound_to 6896
  152.4403  133.7431  159.6662 H   0  0  0  0  0  0  0  0  0  0  0  0  # atno 6908 bound_to 6896
  150.8307  133.8027  159.3123 H   0  0  0  0  0  0  0  0  0  0  0  0  # atno 6909 bound_to 6896
  145.2652  139.2687  143.3995 H   0  0  0  0  0  0  0  0  0  0  0  0  # atno 7974 bound_to 7965
  155.8355  140.3464  155.5599 H   0  0  0  0  0  0  0  0  0  0  0  0  # atno 8008 bound_to 7997
  155.8197  140.0911  157.1876 H   0  0  0  0  0  0  0  0  0  0  0  0  # atno 8009 bound_to 7997
  154.4004  140.1432  156.3472 H   0  0  0  0  0  0  0  0  0  0  0  0  # atno 8010 bound_to 7997
  139.5278  144.2726  152.0614 H   0  0  0  0  0  0  0  0  0  0  0  0  # atno 10167 bound_to 10162
  157.6959  131.0430  150.3828 H   0  0  0  0  0  0  0  0  0  0  0  0  # atno 10718 bound_to 10713
  154.8738  135.3782  154.4489 H   0  0  0  0  0  0  0  0  0  0  0  0  # atno 10763 bound_to 10752
  153.5167  135.7029  153.5757 H   0  0  0  0  0  0  0  0  0  0  0  0  # atno 10764 bound_to 10752
  153.4023  135.3945  155.1961 H   0  0  0  0  0  0  0  0  0  0  0  0  # atno 10765 bound_to 10752
  141.1588  133.7617  156.9564 H   0  0  0  0  0  0  0  0  0  0  0  0  # atno 11005 bound_to 11000
  146.3263  140.3080  142.8625 LP  0  0  0  0  0  0  0  0  0  0  0  0  # atno 17320 bound_to 7965
  144.9383  140.8051  143.5646 LP  0  0  0  0  0  0  0  0  0  0  0  0  # atno 17321 bound_to 7965
  140.2185  144.4490  150.6353 LP  0  0  0  0  0  0  0  0  0  0  0  0  # atno 17342 bound_to 10162
  140.6434  143.2208  151.6240 LP  0  0  0  0  0  0  0  0  0  0  0  0  # atno 17343 bound_to 10162
  156.4240  130.3958  149.6805 LP  0  0  0  0  0  0  0  0  0  0  0  0  # atno 17370 bound_to 10713
  156.4046  130.7692  151.2702 LP  0  0  0  0  0  0  0  0  0  0  0  0  # atno 17371 bound_to 10713
  140.1222  134.9409  157.2220 LP  0  0  0  0  0  0  0  0  0  0  0  0  # atno 17394 bound_to 11000
  140.3057  134.3081  155.7279 LP  0  0  0  0  0  0  0  0  0  0  0  0  # atno 17395 bound_to 11000

$$$$
