#       Name:                AV-unprocessed.smi:52
#       Creating user name   scv26
#       Creation time:       Thu Mar 26 16:37:59 2020


#       File generated by GOLD software.
#

@<TRIPOS>MOLECULE
AV-unprocessed.smi:52
    36    37     1
SMALL
NO_CHARGES


@<TRIPOS>ATOM
      1 ****        -5.4519   0.6108  -1.0013 O.co2          1 S1                 0.0000
      2 ****        -4.4159   0.0352  -1.4010 C.2            1 S1                 0.0000
      3 ****        -4.4597  -1.0481  -2.0245 O.co2          1 S1                -1.0000
      4 ****        -3.0946   0.6547  -1.1230 C.2            1 S1                 0.0000
      5 ****        -2.8616   1.8250  -0.4456 C.2            1 S1                 0.0000
      6 ****        -1.5129   2.0513  -0.3889 O.3            1 S1                 0.0000
      7 ****        -0.9687   0.9934  -1.0489 C.2            1 S1                 0.0000
      8 ****         0.5169   0.8967  -1.1614 C.3            1 S1                 0.0000
      9 ****         0.9535   0.4116   0.1702 N.4            1 S1                 1.0000
     10 ****         2.4048   0.5730   0.4283 C.3            1 S1                 0.0000
     11 ****         2.9076  -0.7574   1.0022 C.3            1 S1                 0.0000
     12 ****         1.6412  -1.4461   1.5002 C.3            1 S1                 0.0000
     13 ****         1.7830  -2.8505   1.5371 O.3            1 S1                 0.0000
     14 ****         0.5960  -0.9915   0.4851 C.3            1 S1                 0.0000
     15 ****        -1.8685   0.1286  -1.5102 N.2            1 S1                 0.0000
     16 ****         1.3824  -1.0760   2.4934 H              1 S1                 0.0000
     17 ****        -3.5018   2.5558   0.0263 H              1 S1                 0.0000
     18 ****         0.8078   0.2175  -1.9639 H              1 S1                 0.0000
     19 ****         0.9252   1.8859  -1.3716 H              1 S1                 0.0000
     20 ****         2.9607   0.8396  -0.4720 H              1 S1                 0.0000
     21 ****         2.5374   1.3804   1.1491 H              1 S1                 0.0000
     22 ****         3.3633  -1.3441   0.2024 H              1 S1                 0.0000
     23 ****         3.6549  -0.6266   1.7857 H              1 S1                 0.0000
     24 ****         0.9680  -3.2308   1.8288 H              1 S1                 0.0000
     25 ****        -0.4217  -1.0776   0.8674 H              1 S1                 0.0000
     26 ****         0.6681  -1.5978  -0.4202 H              1 S1                 0.0000
     27 ****         0.4868   0.9863   0.8574 H              1 S1                 0.0000
     28 ****        -6.3489   0.2054  -1.1778 LP             1 S1                 0.0000
     29 ****        -5.3833   1.4764  -0.5053 LP             1 S1                 0.0000
     30 ****        -5.3414  -1.4790  -2.2168 LP             1 S1                 0.0000
     31 ****        -3.6131  -1.4833  -2.3308 LP             1 S1                 0.0000
     32 ****        -1.1974   2.0779   0.5596 LP             1 S1                 0.0000
     33 ****        -1.2782   2.9111  -0.8425 LP             1 S1                 0.0000
     34 ****         2.5155  -3.0979   2.1712 LP             1 S1                 0.0000
     35 ****         2.0045  -3.1902   0.6230 LP             1 S1                 0.0000
     36 ****        -1.6996  -0.7136  -2.0223 LP             1 S1                 0.0000
@<TRIPOS>BOND
    1    1    2 ar    
    2    2    3 ar    
    3    2    4 1     
    4    4   15 1     
    5    4    5 2     
    6    5    6 1     
    7    5   17 1     
    8    6    7 1     
    9    7    8 1     
   10    7   15 2     
   11    8    9 1     
   12    8   18 1     
   13    8   19 1     
   14    9   14 1     
   15    9   10 1     
   16    9   27 1     
   17   10   11 1     
   18   10   20 1     
   19   10   21 1     
   20   11   12 1     
   21   11   22 1     
   22   11   23 1     
   23   12   16 1     
   24   12   13 1     
   25   12   14 1     
   26   13   24 1     
   27   14   25 1     
   28   14   26 1     
   29    1   28 1     
   30    1   29 1     
   31    3   30 1     
   32    3   31 1     
   33    6   32 1     
   34    6   33 1     
   35   13   34 1     
   36   13   35 1     
   37   15   36 1     
@<TRIPOS>SUBSTRUCTURE
      1 S1             1
@<TRIPOS>SET
LONE_PAIRS      STATIC     ATOMS    <user>   **** ""
9 28 29 30 31 32 33 34 35 36
DONOR_HYDROGENS      STATIC     ATOMS    <user>   **** ""
2 27 24
ATOM$BLUE        STATIC     ATOMS    COLORGROUP SYSTEM
9 28 29 30 31 32 33 34 35 36
ATOM$RED        STATIC     ATOMS    COLORGROUP SYSTEM
2 27 24
