AV-unprocessed.smi:3135|AV-procd|sdf|11946|dock9
  -GOLD-   2272017343D 1   1.00000     0.00000
 Structure written by MMmdl.
 38 39  0  0  0  0  0  0  0  0  2 V2000
  151.5208  136.7463  154.6394 C   0  0  0  0  0  0  0  0  0  0  0  0
  150.9123  138.1183  154.6803 C   0  0  0  0  0  0  0  0  0  0  0  0
  151.4826  139.3119  155.2074 C   0  0  0  0  0  0  0  0  0  0  0  0
  150.6837  140.3599  155.0886 N   0  0  0  0  0  0  0  0  0  0  0  0
  149.5785  139.8753  154.4827 N   0  0  0  0  0  0  0  0  0  0  0  0
  148.4688  140.7638  154.1788 C   0  0  0  0  0  0  0  0  0  0  0  0
  147.2493  140.0087  153.6391 C   0  0  0  0  0  0  0  0  0  0  0  0
  146.2002  140.0015  154.2823 O   0  0  0  0  0  0  0  0  0  0  0  0
  147.3962  139.3608  152.4717 N   0  0  0  0  0  0  0  0  0  0  0  0
  146.3475  138.6052  151.7982 C   0  0  0  0  0  0  0  0  0  0  0  0
  145.7327  137.5419  152.7274 C   0  0  0  0  0  0  0  0  0  0  0  0
  145.9422  136.1538  152.2426 N   0  3  2  0  0  0  0  0  0  0  0  0
  145.4545  135.9930  150.8536 C   0  0  0  0  0  0  0  0  0  0  0  0
  145.3648  135.1281  153.1448 C   0  0  0  0  0  0  0  0  0  0  0  0
  145.1288  133.7856  152.4879 C   0  0  0  0  0  0  0  0  0  0  0  0
  143.9616  134.7001  152.7709 C   0  0  0  0  0  0  0  0  0  0  0  0
  149.6882  138.5239  154.2293 C   0  0  0  0  0  0  0  0  0  0  0  0
  152.5933  136.7861  154.4475 H   0  0  0  0  0  0  0  0  0  0  0  0
  151.0783  136.1293  153.8568 H   0  0  0  0  0  0  0  0  0  0  0  0
  151.3819  136.2184  155.5829 H   0  0  0  0  0  0  0  0  0  0  0  0
  152.4493  139.4469  155.6701 H   0  0  0  0  0  0  0  0  0  0  0  0
  148.1882  141.3027  155.0845 H   0  0  0  0  0  0  0  0  0  0  0  0
  148.8010  141.5079  153.4531 H   0  0  0  0  0  0  0  0  0  0  0  0
  148.2916  139.4179  152.0078 H   0  0  0  0  0  0  0  0  0  0  0  0
  145.5776  139.2831  151.4253 H   0  0  0  0  0  0  0  0  0  0  0  0
  146.8013  138.1358  150.9258 H   0  0  0  0  0  0  0  0  0  0  0  0
  146.1352  137.6415  153.7368 H   0  0  0  0  0  0  0  0  0  0  0  0
  144.6594  137.7233  152.8025 H   0  0  0  0  0  0  0  0  0  0  0  0
  144.3776  136.1582  150.7981 H   0  0  0  0  0  0  0  0  0  0  0  0
  145.6644  134.9925  150.4749 H   0  0  0  0  0  0  0  0  0  0  0  0
  145.9440  136.7029  150.1862 H   0  0  0  0  0  0  0  0  0  0  0  0
  145.6466  135.1965  154.1942 H   0  0  0  0  0  0  0  0  0  0  0  0
  145.4214  133.6592  151.4472 H   0  0  0  0  0  0  0  0  0  0  0  0
  145.2287  132.8980  153.1094 H   0  0  0  0  0  0  0  0  0  0  0  0
  143.2912  134.4147  153.5792 H   0  0  0  0  0  0  0  0  0  0  0  0
  143.4816  135.1691  151.9138 H   0  0  0  0  0  0  0  0  0  0  0  0
  148.8953  137.9686  153.7500 H   0  0  0  0  0  0  0  0  0  0  0  0
  146.9401  135.9990  152.2163 H   0  0  0  0  0  0  0  0  0  0  0  0
  1  2  1  0  0  0  0
  1 18  1  0  0  0  0
  1 19  1  0  0  0  0
  1 20  1  0  0  0  0
  2 17  2  0  0  0  0
  2  3  1  0  0  0  0
  3  4  2  0  0  0  0
  3 21  1  0  0  0  0
  4  5  1  0  0  0  0
  5  6  1  0  0  0  0
  5 17  1  0  0  0  0
  6  7  1  0  0  0  0
  6 22  1  0  0  0  0
  6 23  1  0  0  0  0
  7  8  2  0  0  0  0
  7  9  1  0  0  0  0
  9 10  1  0  0  0  0
  9 24  1  0  0  0  0
 10 11  1  0  0  0  0
 10 25  1  0  0  0  0
 10 26  1  0  0  0  0
 11 12  1  0  0  0  0
 11 27  1  0  0  0  0
 11 28  1  0  0  0  0
 12 13  1  0  0  0  0
 12 14  1  0  0  0  0
 12 38  1  0  0  0  0
 13 29  1  0  0  0  0
 13 30  1  0  0  0  0
 13 31  1  0  0  0  0
 14 16  1  0  0  0  0
 14 15  1  0  0  0  0
 14 32  1  0  0  0  0
 15 16  1  0  0  0  0
 15 33  1  0  0  0  0
 15 34  1  0  0  0  0
 16 35  1  0  0  0  0
 16 36  1  0  0  0  0
 17 37  1  0  0  0  0
M  CHG  1  12   1
M  END
> <s_m_source_file>
AV-unprocessed.smi

> <i_m_source_file_index>
3135

> <i_lp_mmshare_version>
43012

> <i_f3d_flags>
0

> <s_epik_input>
W0NIM11jMVtjSF1ubihbY0hdMSlbQ0gyXUMoPU8pW05IXVtDSDJdW0NIMl1OKFtDSDNdKVtDSF0yW0NIMl1bQ0gyXTI=

> <s_epik_cmdline>
J2VwaWtfcHl0aG9uJywgJy1waCcsICc3LjAnLCAnLXRuJywgJzgnLCAnLW1hJywgJzIwMCcsICctbWV0YWxfYmluZGluZycsICctaW1hZScsICc8aW5maWxlLm1hZT4nLCAnLW9tYWUnLCAnPG91dGZpbGUubWFlPic=

> <r_lp_tautomer_probability>
1

> <r_epik_Ionization_Penalty>
0.174318

> <r_epik_Ionization_Penalty_Charging>
0.174302

> <r_epik_Ionization_Penalty_Neutral>
1.62778e-05

> <r_epik_State_Penalty>
0.163722

> <r_epik_Charging_Adjusted_Penalty>
0.338024

> <i_epik_Tot_Q>
1

> <i_epik_Tot_abs_Q>
1

> <r_epik_Metal_State_Penalty>
0.163727

> <b_epik_Metal_Only>
0

> <s_lp_Force_Field>
OPLS_2005

> <r_lp_Energy>
17.5594

> <b_lp_Chiralities_Consistent>
1

> <s_lp_Variant>
AV-unprocessed.smi:3135-2

> <Gold.Version>
5.8.1

> <Gold.Id.Protein>
6NUR|6NUR_protein|mol2

> <Gold.PLP.Fitness>
43.2515

> <Gold.PLP.PLP>
-30.8116

> <Gold.PLP.part.hbond>
-2.7950

> <Gold.PLP.part.metal>
0.0000

> <Gold.PLP.part.buried>
0.5594

> <Gold.PLP.part.nonpolar>
-29.6557

> <Gold.PLP.part.repulsive>
0.4691

> <Gold.PLP.ligand.clash>
0.0000

> <Gold.PLP.ligand.torsion>
1.0858

> <Gold.PLP.Chemscore.Hbond>
3.4388

> <Gold.PLP.Chemscore.CHOScore>
1.0000

> <Gold.PLP.Chemscore.Metal>
0.0000

> <Gold.Chemscore.Hbonds>
donor molecule, donor type, donor heavy atom, donor atom, acceptor molecule, acceptor atom, score
      L1  H     9    24       P1  7957  1.00
      L1  H    12    38       P1  7948  1.95
      P1  H  7989  7998       L1     4  0.45
      L1  C    17    37       P1  7948  0.96

> <Gold.PLP.Chemscore.Internal.Correction>
1.2952

> <Gold.Rescore>
     Score         DG    S(hbond)    S(metal)    S(lipo)     H(rot)  DE(clash)    DE(int)     intcor
     12.68     -15.09       1.98        0.00      68.33       1.96       0.04       2.36       ----

> <Gold.Chemscore.Fitness>
12.6808

> <Gold.Chemscore.DG>
-15.0889

> <Gold.Chemscore.ZeroCoef>
-5.4800

> <Gold.Chemscore.Hbond>
1.9820

> <Gold.Chemscore.Metal>
0.0000

> <Gold.Chemscore.Lipo>
68.3349

> <Gold.Chemscore.Internal_Hbond>
0.0000

> <Gold.Chemscore.DEClash>
0.0435

> <Gold.Chemscore.DEInternal>
2.3647

> <Gold.Chemscore.Rot>
1.9555

> <Gold.Chemscore.Internal.Correction>
   9.000000E+99

> <Gold.Chemscore.Hbonds>
donor molecule, donor type, donor heavy atom, donor atom, acceptor molecule, acceptor atom, score
      L1  H     9    24       P1  7957  1.00
      L1  H    12    38       P1  7948  0.92

> <Gold.Chemscore.Hbond.Weighted>
-6.6198

> <Gold.Chemscore.Metal.Weighted>
-0.0000

> <Gold.Chemscore.Lipo.Weighted>
-7.9952

> <Gold.Chemscore.Internal_Hbond.Weighted>
0.0000

> <Gold.Chemscore.DEClash.Weighted>
0.0435

> <Gold.Chemscore.DEInternal.Weighted>
2.3647

> <Gold.Chemscore.Rot.Weighted>
5.0060

> <Gold.Chemscore.Internal.Correction.Weighted>
   9.000000E+99

> <Gold.Protein.RotatedTorsions>
[ 6907 6896 6895 6894 ] final  135.86 input  -60.11 | X-H torsion
[ 7974 7965 7964 7962 ] final  175.47 input  175.53 | X-H torsion
[ 8008 7997 7996 7995 ] final -109.23 input   59.86 | X-H torsion
[ 10167 10162 10161 10158 ] final  175.23 input  -65.29 | X-H torsion
[ 10718 10713 10712 10709 ] final  140.36 input   66.30 | X-H torsion
[ 10763 10752 10751 10750 ] final  137.36 input  -60.55 | X-H torsion
[ 11005 11000 10999 10996 ] final   49.87 input  -57.11 | X-H torsion

> <Gold.Protein.ActiveResidues>
 VAL166  LYS551  ARG553  GLY616  TRP617  ASP618  TYR619  PRO620  LYS621  CYS622 
 ASP623  PHE694  ASN695  SER759  ASP760  ASP761  ALA762  ILE779  LEU786  VAL792 
 PHE793  MET794  SER795  GLU796  ALA797  LYS798  CYS799  TRP800  GLU811  SER814 

> <Gold.Protein.RotatedAtoms>
  152.2958  133.5606  159.5586 H   0  0  0  0  0  0  0  0  0  0  0  0  # atno 6907 bound_to 6896
  150.7255  134.0363  159.3759 H   0  0  0  0  0  0  0  0  0  0  0  0  # atno 6908 bound_to 6896
  151.8266  135.0635  160.0482 H   0  0  0  0  0  0  0  0  0  0  0  0  # atno 6909 bound_to 6896
  144.7201  139.9951  143.6440 H   0  0  0  0  0  0  0  0  0  0  0  0  # atno 7974 bound_to 7965
  154.9562  140.0400  157.2168 H   0  0  0  0  0  0  0  0  0  0  0  0  # atno 8008 bound_to 7997
  154.7932  140.2839  155.5954 H   0  0  0  0  0  0  0  0  0  0  0  0  # atno 8009 bound_to 7997
  156.2952  140.2569  156.2784 H   0  0  0  0  0  0  0  0  0  0  0  0  # atno 8010 bound_to 7997
  139.5170  144.3055  152.0340 H   0  0  0  0  0  0  0  0  0  0  0  0  # atno 10167 bound_to 10162
  157.4042  131.1020  151.0521 H   0  0  0  0  0  0  0  0  0  0  0  0  # atno 10718 bound_to 10713
  153.8718  135.3055  155.3442 H   0  0  0  0  0  0  0  0  0  0  0  0  # atno 10763 bound_to 10752
  154.7802  135.4839  153.9831 H   0  0  0  0  0  0  0  0  0  0  0  0  # atno 10764 bound_to 10752
  153.1402  135.6822  153.9136 H   0  0  0  0  0  0  0  0  0  0  0  0  # atno 10765 bound_to 10752
  140.1066  134.5010  155.8714 H   0  0  0  0  0  0  0  0  0  0  0  0  # atno 11005 bound_to 11000
  146.0380  139.3395  143.0714 LP  0  0  0  0  0  0  0  0  0  0  0  0  # atno 17320 bound_to 7965
  145.8370  140.9601  143.0819 LP  0  0  0  0  0  0  0  0  0  0  0  0  # atno 17321 bound_to 7965
  140.2501  144.4178  150.6225 LP  0  0  0  0  0  0  0  0  0  0  0  0  # atno 17342 bound_to 10162
  140.6231  143.2178  151.6654 LP  0  0  0  0  0  0  0  0  0  0  0  0  # atno 17343 bound_to 10162
  157.1509  130.6183  149.5582 LP  0  0  0  0  0  0  0  0  0  0  0  0  # atno 17370 bound_to 10713
  155.9832  130.4849  150.6919 LP  0  0  0  0  0  0  0  0  0  0  0  0  # atno 17371 bound_to 10713
  141.2120  133.6713  156.6624 LP  0  0  0  0  0  0  0  0  0  0  0  0  # atno 17394 bound_to 11000
  140.3147  134.8057  157.4204 LP  0  0  0  0  0  0  0  0  0  0  0  0  # atno 17395 bound_to 11000

$$$$
