AV-unprocessed.smi:1835|AV-procd|sdf|7473|dock8
  -GOLD-   22720 9173D 1   1.00000     0.00000
 Structure written by MMmdl.
 41 42  0  0  0  0  0  0  0  0  1 V2000
  146.5489  141.8808  153.8082 C   0  0  0  0  0  0  0  0  0  0  0  0
  146.6020  142.5986  155.1815 C   0  0  2  0  0  0  0  0  0  0  0  0
  147.3280  141.6788  156.2020 C   0  0  0  0  0  0  0  0  0  0  0  0
  148.7736  141.8735  156.1935 N   0  0  0  0  0  0  0  0  0  0  0  0
  149.6764  140.8906  156.3167 C   0  0  0  0  0  0  0  0  0  0  0  0
  149.3662  139.7068  156.4593 O   0  0  0  0  0  0  0  0  0  0  0  0
  151.1478  141.3293  156.2876 C   0  0  0  0  0  0  0  0  0  0  0  0
  151.6001  141.9647  157.5364 N   0  0  0  0  0  0  0  0  0  0  0  0
  151.1307  143.2676  157.7973 C   0  0  0  0  0  0  0  0  0  0  0  0
  151.4821  143.9405  158.9044 C   0  0  0  0  0  0  0  0  0  0  0  0
  152.3689  143.2946  159.8428 C   0  0  0  0  0  0  0  0  0  0  0  0
  152.8192  142.0465  159.6058 C   0  0  0  0  0  0  0  0  0  0  0  0
  152.4337  141.3051  158.3991 C   0  0  0  0  0  0  0  0  0  0  0  0
  152.8365  140.1630  158.1773 O   0  0  0  0  0  0  0  0  0  0  0  0
  145.2664  143.0511  155.6374 N   0  0  0  0  0  0  0  0  0  0  0  0
  144.5930  143.8945  154.6423 C   0  0  0  0  0  0  0  0  0  0  0  0
  143.2163  144.3944  155.1129 C   0  0  0  0  0  0  0  0  0  0  0  0
  143.3586  145.1046  156.3348 O   0  0  0  0  0  0  0  0  0  0  0  0
  143.9331  144.2990  157.3541 C   0  0  0  0  0  0  0  0  0  0  0  0
  145.3149  143.7947  156.9019 C   0  0  0  0  0  0  0  0  0  0  0  0
  147.5212  141.5027  153.4944 H   0  0  0  0  0  0  0  0  0  0  0  0
  146.2330  142.5454  153.0054 H   0  0  0  0  0  0  0  0  0  0  0  0
  145.8626  141.0336  153.8341 H   0  0  0  0  0  0  0  0  0  0  0  0
  147.2286  143.4829  155.0547 H   0  0  0  0  0  0  0  0  0  0  0  0
  147.0027  141.8835  157.2211 H   0  0  0  0  0  0  0  0  0  0  0  0
  147.1006  140.6318  155.9946 H   0  0  0  0  0  0  0  0  0  0  0  0
  149.1078  142.8196  156.0820 H   0  0  0  0  0  0  0  0  0  0  0  0
  151.7733  140.4649  156.0568 H   0  0  0  0  0  0  0  0  0  0  0  0
  151.2838  142.0104  155.4462 H   0  0  0  0  0  0  0  0  0  0  0  0
  150.4671  143.6762  157.0492 H   0  0  0  0  0  0  0  0  0  0  0  0
  151.1085  144.9370  159.0895 H   0  0  0  0  0  0  0  0  0  0  0  0
  152.6721  143.8145  160.7395 H   0  0  0  0  0  0  0  0  0  0  0  0
  153.4810  141.5789  160.3200 H   0  0  0  0  0  0  0  0  0  0  0  0
  145.2226  144.7512  154.3969 H   0  0  0  0  0  0  0  0  0  0  0  0
  144.4324  143.3450  153.7168 H   0  0  0  0  0  0  0  0  0  0  0  0
  142.7794  145.0572  154.3659 H   0  0  0  0  0  0  0  0  0  0  0  0
  142.5257  143.5597  155.2440 H   0  0  0  0  0  0  0  0  0  0  0  0
  144.0266  144.8913  158.2643 H   0  0  0  0  0  0  0  0  0  0  0  0
  143.2717  143.4620  157.5832 H   0  0  0  0  0  0  0  0  0  0  0  0
  145.6954  143.1653  157.7038 H   0  0  0  0  0  0  0  0  0  0  0  0
  145.9972  144.6409  156.8088 H   0  0  0  0  0  0  0  0  0  0  0  0
  1  2  1  0  0  0  0
  1 21  1  0  0  0  0
  1 22  1  0  0  0  0
  1 23  1  0  0  0  0
  2  3  1  0  0  0  0
  2 15  1  0  0  0  0
  2 24  1  0  0  0  0
  3  4  1  0  0  0  0
  3 25  1  0  0  0  0
  3 26  1  0  0  0  0
  4  5  1  0  0  0  0
  4 27  1  0  0  0  0
  5  6  2  0  0  0  0
  5  7  1  0  0  0  0
  7  8  1  0  0  0  0
  7 28  1  0  0  0  0
  7 29  1  0  0  0  0
  8 13  1  0  0  0  0
  8  9  1  0  0  0  0
  9 10  2  0  0  0  0
  9 30  1  0  0  0  0
 10 11  1  0  0  0  0
 10 31  1  0  0  0  0
 11 12  2  0  0  0  0
 11 32  1  0  0  0  0
 12 13  1  0  0  0  0
 12 33  1  0  0  0  0
 13 14  2  0  0  0  0
 15 20  1  0  0  0  0
 15 16  1  0  0  0  0
 16 17  1  0  0  0  0
 16 34  1  0  0  0  0
 16 35  1  0  0  0  0
 17 18  1  0  0  0  0
 17 36  1  0  0  0  0
 17 37  1  0  0  0  0
 18 19  1  0  0  0  0
 19 20  1  0  0  0  0
 19 38  1  0  0  0  0
 19 39  1  0  0  0  0
 20 40  1  0  0  0  0
 20 41  1  0  0  0  0
M  END
> <s_m_source_file>
AV-unprocessed.smi

> <i_m_source_file_index>
1835

> <i_lp_mmshare_version>
43012

> <i_f3d_flags>
0

> <s_epik_input>
W0NIMl0xW0NIMl1PW0NIMl1bQ0gyXU4xW0NASF0oW0NIM10pW0NIMl1bTkhdQyg9TylbQ0gyXW4yW2NIXVtjSF1bY0hdW2NIXWMyPU8=

> <s_epik_cmdline>
J2VwaWtfcHl0aG9uJywgJy1waCcsICc3LjAnLCAnLXRuJywgJzgnLCAnLW1hJywgJzIwMCcsICctbWV0YWxfYmluZGluZycsICctaW1hZScsICc8aW5maWxlLm1hZT4nLCAnLW9tYWUnLCAnPG91dGZpbGUubWFlPic=

> <r_lp_tautomer_probability>
1

> <r_epik_Ionization_Penalty>
0.237383

> <r_epik_Ionization_Penalty_Charging>
3.58805e-07

> <r_epik_Ionization_Penalty_Neutral>
0.237382

> <r_epik_State_Penalty>
0.228245

> <r_epik_Charging_Adjusted_Penalty>
0.228245

> <i_epik_Tot_Q>
0

> <i_epik_Tot_abs_Q>
0

> <r_epik_Metal_State_Penalty>
0.22822

> <b_epik_Metal_Only>
0

> <s_lp_Force_Field>
OPLS_2005

> <r_lp_Energy>
38.378

> <b_lp_Chiralities_Consistent>
1

> <s_lp_Variant>
AV-unprocessed.smi:1835-1

> <Gold.Version>
5.8.1

> <Gold.Id.Protein>
6NUR|6NUR_protein|mol2

> <Gold.PLP.Fitness>
40.5277

> <Gold.PLP.PLP>
-33.3147

> <Gold.PLP.part.hbond>
-2.0000

> <Gold.PLP.part.metal>
0.0000

> <Gold.PLP.part.buried>
-4.3782

> <Gold.PLP.part.nonpolar>
-26.5661

> <Gold.PLP.part.repulsive>
0.2207

> <Gold.PLP.ligand.clash>
0.0000

> <Gold.PLP.ligand.torsion>
0.9088

> <Gold.PLP.Chemscore.Hbond>
2.0000

> <Gold.PLP.Chemscore.CHOScore>
1.0000

> <Gold.PLP.Chemscore.Metal>
0.0000

> <Gold.Chemscore.Hbonds>
donor molecule, donor type, donor heavy atom, donor atom, acceptor molecule, acceptor atom, score
      L1  H     4    27       P1  8028  1.00
      P1  H  7997  8008       L1    14  0.84
      L1  C     9    30       P1  8028  1.00

> <Gold.PLP.Chemscore.Internal.Correction>
0.0305

> <Gold.Rescore>
     Score         DG    S(hbond)    S(metal)    S(lipo)     H(rot)  DE(clash)    DE(int)     intcor
     15.04     -15.98       1.88        0.00      77.31       1.89       0.16       0.79       ----

> <Gold.Chemscore.Fitness>
15.0351

> <Gold.Chemscore.DG>
-15.9797

> <Gold.Chemscore.ZeroCoef>
-5.4800

> <Gold.Chemscore.Hbond>
1.8826

> <Gold.Chemscore.Metal>
0.0000

> <Gold.Chemscore.Lipo>
77.3135

> <Gold.Chemscore.Internal_Hbond>
0.0000

> <Gold.Chemscore.DEClash>
0.1587

> <Gold.Chemscore.DEInternal>
0.7860

> <Gold.Chemscore.Rot>
1.8882

> <Gold.Chemscore.Internal.Correction>
   9.000000E+99

> <Gold.Chemscore.Hbonds>
donor molecule, donor type, donor heavy atom, donor atom, acceptor molecule, acceptor atom, score
      L1  H     4    27       P1  8028  0.96
      P1  H  7997  8008       L1    14  0.68

> <Gold.Chemscore.Hbond.Weighted>
-6.2879

> <Gold.Chemscore.Metal.Weighted>
-0.0000

> <Gold.Chemscore.Lipo.Weighted>
-9.0457

> <Gold.Chemscore.Internal_Hbond.Weighted>
0.0000

> <Gold.Chemscore.DEClash.Weighted>
0.1587

> <Gold.Chemscore.DEInternal.Weighted>
0.7860

> <Gold.Chemscore.Rot.Weighted>
4.8338

> <Gold.Chemscore.Internal.Correction.Weighted>
   9.000000E+99

> <Gold.Protein.RotatedTorsions>
[ 6907 6896 6895 6894 ] final   21.07 input  -60.11 | X-H torsion
[ 7974 7965 7964 7962 ] final  -74.56 input  175.53 | X-H torsion
[ 8008 7997 7996 7995 ] final  -74.52 input   59.86 | X-H torsion
[ 10167 10162 10161 10158 ] final  149.69 input  -65.29 | X-H torsion
[ 10718 10713 10712 10709 ] final  -32.09 input   66.30 | X-H torsion
[ 10763 10752 10751 10750 ] final   96.65 input  -60.55 | X-H torsion
[ 11005 11000 10999 10996 ] final -164.10 input  -57.11 | X-H torsion

> <Gold.Protein.ActiveResidues>
 VAL166  LYS551  ARG553  GLY616  TRP617  ASP618  TYR619  PRO620  LYS621  CYS622 
 ASP623  PHE694  ASN695  SER759  ASP760  ASP761  ALA762  ILE779  LEU786  VAL792 
 PHE793  MET794  SER795  GLU796  ALA797  LYS798  CYS799  TRP800  GLU811  SER814 

> <Gold.Protein.RotatedAtoms>
  151.9062  135.0358  160.0510 H   0  0  0  0  0  0  0  0  0  0  0  0  # atno 6907 bound_to 6896
  152.2317  133.5059  159.5228 H   0  0  0  0  0  0  0  0  0  0  0  0  # atno 6908 bound_to 6896
  150.7027  134.1123  159.4047 H   0  0  0  0  0  0  0  0  0  0  0  0  # atno 6909 bound_to 6896
  145.6374  140.9320  143.1054 H   0  0  0  0  0  0  0  0  0  0  0  0  # atno 7974 bound_to 7965
  154.5338  140.0760  156.8391 H   0  0  0  0  0  0  0  0  0  0  0  0  # atno 8008 bound_to 7997
  155.3320  140.3402  155.4221 H   0  0  0  0  0  0  0  0  0  0  0  0  # atno 8009 bound_to 7997
  156.1807  140.1651  156.8265 H   0  0  0  0  0  0  0  0  0  0  0  0  # atno 8010 bound_to 7997
  139.4858  144.5581  151.7280 H   0  0  0  0  0  0  0  0  0  0  0  0  # atno 10167 bound_to 10162
  156.3792  130.4353  149.7483 H   0  0  0  0  0  0  0  0  0  0  0  0  # atno 10718 bound_to 10713
  153.2675  135.4211  155.0955 H   0  0  0  0  0  0  0  0  0  0  0  0  # atno 10763 bound_to 10752
  154.8443  135.3464  154.6291 H   0  0  0  0  0  0  0  0  0  0  0  0  # atno 10764 bound_to 10752
  153.6710  135.7043  153.5204 H   0  0  0  0  0  0  0  0  0  0  0  0  # atno 10765 bound_to 10752
  140.5907  134.5048  157.5192 H   0  0  0  0  0  0  0  0  0  0  0  0  # atno 11005 bound_to 11000
  144.7170  139.8162  143.7395 LP  0  0  0  0  0  0  0  0  0  0  0  0  # atno 17320 bound_to 7965
  146.1308  139.4343  143.0170 LP  0  0  0  0  0  0  0  0  0  0  0  0  # atno 17321 bound_to 7965
  140.5147  144.0972  150.6005 LP  0  0  0  0  0  0  0  0  0  0  0  0  # atno 17342 bound_to 10162
  140.3909  143.2753  152.0061 LP  0  0  0  0  0  0  0  0  0  0  0  0  # atno 17343 bound_to 10162
  156.4580  130.7938  151.2959 LP  0  0  0  0  0  0  0  0  0  0  0  0  # atno 17370 bound_to 10713
  157.7491  131.0074  150.3191 LP  0  0  0  0  0  0  0  0  0  0  0  0  # atno 17371 bound_to 10713
  139.9275  134.8027  156.1025 LP  0  0  0  0  0  0  0  0  0  0  0  0  # atno 17394 bound_to 11000
  141.0937  133.6704  156.2597 LP  0  0  0  0  0  0  0  0  0  0  0  0  # atno 17395 bound_to 11000

$$$$
