AV-unprocessed.smi:1920|AV-procd|sdf|7778|dock1
  -GOLD-   22720 9523D 1   1.00000     0.00000
 Structure written by MMmdl.
 37 38  0  0  0  0  0  0  0  0  2 V2000
  154.3133  141.2830  161.0972 C   0  0  0  0  0  0  0  0  0  0  0  0
  153.0779  141.7634  160.3237 C   0  0  1  0  0  0  0  0  0  0  0  0
  153.4548  142.8338  159.2773 C   0  0  0  0  0  0  0  0  0  0  0  0
  152.3342  143.7147  158.9312 N   0  0  0  0  0  0  0  0  0  0  0  0
  151.7584  144.6752  159.7232 C   0  0  0  0  0  0  0  0  0  0  0  0
  150.7457  145.2333  158.9867 C   0  0  0  0  0  0  0  0  0  0  0  0
  150.7503  144.5956  157.7752 N   0  3  0  0  0  0  0  0  0  0  0  0
  151.7199  143.6756  157.7415 C   0  0  0  0  0  0  0  0  0  0  0  0
  152.4382  140.6086  159.6942 N   0  0  0  0  0  0  0  0  0  0  0  0
  153.0640  139.6479  158.9954 C   0  0  0  0  0  0  0  0  0  0  0  0
  154.2844  139.6119  158.8374 O   0  0  0  0  0  0  0  0  0  0  0  0
  152.1763  138.5534  158.3935 C   0  0  0  0  0  0  0  0  0  0  0  0
  151.3547  139.0231  157.1730 C   0  0  2  0  0  0  0  0  0  0  0  0
  150.5113  137.9350  156.5528 C   0  0  0  0  0  0  0  0  0  0  0  0
  150.7171  137.8081  155.2440 C   0  0  0  0  0  0  0  0  0  0  0  0
  151.7376  138.7825  154.7249 C   0  0  0  0  0  0  0  0  0  0  0  0
  152.2366  139.5086  155.9941 C   0  0  0  0  0  0  0  0  0  0  0  0
  154.7996  142.1109  161.6140 H   0  0  0  0  0  0  0  0  0  0  0  0
  155.0483  140.8291  160.4316 H   0  0  0  0  0  0  0  0  0  0  0  0
  154.0422  140.5418  161.8497 H   0  0  0  0  0  0  0  0  0  0  0  0
  152.3974  142.2072  161.0530 H   0  0  0  0  0  0  0  0  0  0  0  0
  154.2516  143.4721  159.6614 H   0  0  0  0  0  0  0  0  0  0  0  0
  153.8346  142.3712  158.3646 H   0  0  0  0  0  0  0  0  0  0  0  0
  152.0979  144.8784  160.7285 H   0  0  0  0  0  0  0  0  0  0  0  0
  150.0403  146.0153  159.2282 H   0  0  0  0  0  0  0  0  0  0  0  0
  151.9531  143.0237  156.9186 H   0  0  0  0  0  0  0  0  0  0  0  0
  151.4327  140.5521  159.7702 H   0  0  0  0  0  0  0  0  0  0  0  0
  152.8201  137.7228  158.1027 H   0  0  0  0  0  0  0  0  0  0  0  0
  151.5038  138.1671  159.1614 H   0  0  0  0  0  0  0  0  0  0  0  0
  150.6801  139.8279  157.4695 H   0  0  0  0  0  0  0  0  0  0  0  0
  149.8091  137.3484  157.1272 H   0  0  0  0  0  0  0  0  0  0  0  0
  150.2118  137.1044  154.5992 H   0  0  0  0  0  0  0  0  0  0  0  0
  152.5454  138.2596  154.2120 H   0  0  0  0  0  0  0  0  0  0  0  0
  151.2668  139.4725  154.0243 H   0  0  0  0  0  0  0  0  0  0  0  0
  152.1822  140.5916  155.8791 H   0  0  0  0  0  0  0  0  0  0  0  0
  153.2850  139.2606  156.1656 H   0  0  0  0  0  0  0  0  0  0  0  0
  150.1120  144.7892  157.0136 H   0  0  0  0  0  0  0  0  0  0  0  0
  1  2  1  0  0  0  0
  1 18  1  0  0  0  0
  1 19  1  0  0  0  0
  1 20  1  0  0  0  0
  2  3  1  0  0  0  0
  2  9  1  0  0  0  0
  2 21  1  0  0  0  0
  3  4  1  0  0  0  0
  3 22  1  0  0  0  0
  3 23  1  0  0  0  0
  4  8  1  0  0  0  0
  4  5  1  0  0  0  0
  5  6  2  0  0  0  0
  5 24  1  0  0  0  0
  6  7  1  0  0  0  0
  6 25  1  0  0  0  0
  7  8  2  0  0  0  0
  7 37  1  0  0  0  0
  8 26  1  0  0  0  0
  9 10  1  0  0  0  0
  9 27  1  0  0  0  0
 10 11  2  0  0  0  0
 10 12  1  0  0  0  0
 12 13  1  0  0  0  0
 12 28  1  0  0  0  0
 12 29  1  0  0  0  0
 13 17  1  0  0  0  0
 13 14  1  0  0  0  0
 13 30  1  0  0  0  0
 14 15  2  0  0  0  0
 14 31  1  0  0  0  0
 15 16  1  0  0  0  0
 15 32  1  0  0  0  0
 16 17  1  0  0  0  0
 16 33  1  0  0  0  0
 16 34  1  0  0  0  0
 17 35  1  0  0  0  0
 17 36  1  0  0  0  0
M  CHG  1   7   1
M  END
> <s_m_source_file>
AV-unprocessed.smi

> <i_m_source_file_index>
1920

> <i_lp_mmshare_version>
43012

> <i_f3d_flags>
0

> <s_epik_input>
W2NIXTFuW2NIXVtjSF1uMVtDSDJdW0NAQEhdKFtDSDNdKVtOSF1DKD1PKVtDSDJdW0NAQEhdMltDSF09W0NIXVtDSDJdW0NIMl0y

> <s_epik_cmdline>
J2VwaWtfcHl0aG9uJywgJy1waCcsICc3LjAnLCAnLXRuJywgJzgnLCAnLW1hJywgJzIwMCcsICctbWV0YWxfYmluZGluZycsICctaW1hZScsICc8aW5maWxlLm1hZT4nLCAnLW9tYWUnLCAnPG91dGZpbGUubWFlPic=

> <r_lp_tautomer_probability>
1

> <r_epik_Ionization_Penalty>
0.24816

> <r_epik_Ionization_Penalty_Charging>
0

> <r_epik_Ionization_Penalty_Neutral>
0.24816

> <r_epik_State_Penalty>
0.2394

> <r_epik_Charging_Adjusted_Penalty>
0.2394

> <i_epik_Tot_Q>
1

> <i_epik_Tot_abs_Q>
1

> <r_epik_Metal_State_Penalty>
0.531457

> <b_epik_Metal_Only>
0

> <s_lp_Force_Field>
OPLS_2005

> <r_lp_Energy>
20.1539

> <b_lp_Chiralities_Consistent>
1

> <s_lp_Variant>
AV-unprocessed.smi:1920-2

> <Gold.Version>
5.8.1

> <Gold.Id.Protein>
6NUR|6NUR_protein|mol2

> <Gold.PLP.Fitness>
47.0009

> <Gold.PLP.PLP>
-39.2642

> <Gold.PLP.part.hbond>
-2.4468

> <Gold.PLP.part.metal>
0.0000

> <Gold.PLP.part.buried>
-3.2204

> <Gold.PLP.part.nonpolar>
-33.5861

> <Gold.PLP.part.repulsive>
0.2528

> <Gold.PLP.ligand.clash>
0.0000

> <Gold.PLP.ligand.torsion>
0.6883

> <Gold.PLP.Chemscore.Hbond>
3.0000

> <Gold.PLP.Chemscore.CHOScore>
0.0000

> <Gold.PLP.Chemscore.Metal>
0.0000

> <Gold.Chemscore.Hbonds>
donor molecule, donor type, donor heavy atom, donor atom, acceptor molecule, acceptor atom, score
      L1  H     7    37       P1  8028  2.00
      P1  H  7997  8009       L1    11  1.00

> <Gold.PLP.Chemscore.Internal.Correction>
0.1134

> <Gold.Rescore>
     Score         DG    S(hbond)    S(metal)    S(lipo)     H(rot)  DE(clash)    DE(int)     intcor
     14.95     -17.16       1.89        0.00      89.82       2.01       0.15       2.05       ----

> <Gold.Chemscore.Fitness>
14.9492

> <Gold.Chemscore.DG>
-17.1554

> <Gold.Chemscore.ZeroCoef>
-5.4800

> <Gold.Chemscore.Hbond>
1.8921

> <Gold.Chemscore.Metal>
0.0000

> <Gold.Chemscore.Lipo>
89.8207

> <Gold.Chemscore.Internal_Hbond>
0.0000

> <Gold.Chemscore.DEClash>
0.1534

> <Gold.Chemscore.DEInternal>
2.0527

> <Gold.Chemscore.Rot>
2.0130

> <Gold.Chemscore.Internal.Correction>
   9.000000E+99

> <Gold.Chemscore.Hbonds>
donor molecule, donor type, donor heavy atom, donor atom, acceptor molecule, acceptor atom, score
      L1  H     7    37       P1  8028  0.35
      P1  H  7997  8009       L1    11  0.75

> <Gold.Chemscore.Hbond.Weighted>
-6.3196

> <Gold.Chemscore.Metal.Weighted>
-0.0000

> <Gold.Chemscore.Lipo.Weighted>
-10.5090

> <Gold.Chemscore.Internal_Hbond.Weighted>
0.0000

> <Gold.Chemscore.DEClash.Weighted>
0.1534

> <Gold.Chemscore.DEInternal.Weighted>
2.0527

> <Gold.Chemscore.Rot.Weighted>
5.1533

> <Gold.Chemscore.Internal.Correction.Weighted>
   9.000000E+99

> <Gold.Protein.RotatedTorsions>
[ 6907 6896 6895 6894 ] final -129.35 input  -60.11 | X-H torsion
[ 7974 7965 7964 7962 ] final  -23.61 input  175.53 | X-H torsion
[ 8008 7997 7996 7995 ] final  146.50 input   59.86 | X-H torsion
[ 10167 10162 10161 10158 ] final  -97.62 input  -65.29 | X-H torsion
[ 10718 10713 10712 10709 ] final  136.75 input   66.30 | X-H torsion
[ 10763 10752 10751 10750 ] final  -24.63 input  -60.55 | X-H torsion
[ 11005 11000 10999 10996 ] final  129.80 input  -57.11 | X-H torsion

> <Gold.Protein.ActiveResidues>
 VAL166  LYS551  ARG553  GLY616  TRP617  ASP618  TYR619  PRO620  LYS621  CYS622 
 ASP623  PHE694  ASN695  SER759  ASP760  ASP761  ALA762  ILE779  LEU786  VAL792 
 PHE793  MET794  SER795  GLU796  ALA797  LYS798  CYS799  TRP800  GLU811  SER814 

> <Gold.Protein.RotatedAtoms>
  150.9277  133.6803  159.2817 H   0  0  0  0  0  0  0  0  0  0  0  0  # atno 6907 bound_to 6896
  151.4236  135.0999  159.9631 H   0  0  0  0  0  0  0  0  0  0  0  0  # atno 6908 bound_to 6896
  152.5011  133.8724  159.7360 H   0  0  0  0  0  0  0  0  0  0  0  0  # atno 6909 bound_to 6896
  146.1606  140.4639  142.8573 H   0  0  0  0  0  0  0  0  0  0  0  0  # atno 7974 bound_to 7965
  156.2853  140.2181  156.5387 H   0  0  0  0  0  0  0  0  0  0  0  0  # atno 8008 bound_to 7997
  154.7388  140.0489  157.0815 H   0  0  0  0  0  0  0  0  0  0  0  0  # atno 8009 bound_to 7997
  155.0257  140.3129  155.4780 H   0  0  0  0  0  0  0  0  0  0  0  0  # atno 8010 bound_to 7997
  140.2815  143.3279  152.0437 H   0  0  0  0  0  0  0  0  0  0  0  0  # atno 10167 bound_to 10162
  157.4434  131.1059  151.0117 H   0  0  0  0  0  0  0  0  0  0  0  0  # atno 10718 bound_to 10713
  153.6868  135.6964  153.5101 H   0  0  0  0  0  0  0  0  0  0  0  0  # atno 10763 bound_to 10752
  153.2443  135.4295  155.0730 H   0  0  0  0  0  0  0  0  0  0  0  0  # atno 10764 bound_to 10752
  154.8384  135.3515  154.6410 H   0  0  0  0  0  0  0  0  0  0  0  0  # atno 10765 bound_to 10752
  139.9636  134.9596  156.9201 H   0  0  0  0  0  0  0  0  0  0  0  0  # atno 11005 bound_to 11000
  144.8021  140.6233  143.6471 LP  0  0  0  0  0  0  0  0  0  0  0  0  # atno 17320 bound_to 7965
  145.4599  139.1514  143.3872 LP  0  0  0  0  0  0  0  0  0  0  0  0  # atno 17321 bound_to 7965
  139.4961  144.6588  151.6511 LP  0  0  0  0  0  0  0  0  0  0  0  0  # atno 17342 bound_to 10162
  140.5808  143.9949  150.6267 LP  0  0  0  0  0  0  0  0  0  0  0  0  # atno 17343 bound_to 10162
  157.0972  130.5967  149.5452 LP  0  0  0  0  0  0  0  0  0  0  0  0  # atno 17370 bound_to 10713
  155.9958  130.5025  150.7471 LP  0  0  0  0  0  0  0  0  0  0  0  0  # atno 17371 bound_to 10713
  140.5446  134.0687  155.7351 LP  0  0  0  0  0  0  0  0  0  0  0  0  # atno 17394 bound_to 11000
  141.1314  133.9295  157.2526 LP  0  0  0  0  0  0  0  0  0  0  0  0  # atno 17395 bound_to 11000

$$$$
