AV-unprocessed.smi:313|AV-procd|sdf|2312|dock1
  -GOLD-   2262022213D 1   1.00000     0.00000
 Structure written by MMmdl.
 50 51  0  0  0  0  0  0  0  0  1 V2000
  151.4473  129.3744  155.3975 C   0  0  0  0  0  0  0  0  0  0  0  0
  150.6390  130.5796  154.8953 C   0  0  0  0  0  0  0  0  0  0  0  0
  150.3798  131.6461  155.9760 C   0  0  1  0  0  0  0  0  0  0  0  0
  151.6440  131.9318  156.8023 C   0  0  0  0  0  0  0  0  0  0  0  0
  149.8950  132.8793  155.3604 N   0  0  0  0  0  0  0  0  0  0  0  0
  149.5024  133.9797  156.0204 C   0  0  0  0  0  0  0  0  0  0  0  0
  149.5092  134.0702  157.2493 O   0  0  0  0  0  0  0  0  0  0  0  0
  149.0104  135.1474  155.1499 C   0  0  1  0  0  0  0  0  0  0  0  0
  147.4729  135.1407  155.1709 C   0  0  0  0  0  0  0  0  0  0  0  0
  149.4640  136.4281  155.6898 N   0  0  0  0  0  0  0  0  0  0  0  0
  150.6341  137.0221  155.4006 C   0  0  0  0  0  0  0  0  0  0  0  0
  151.4745  136.5361  154.6434 O   0  0  0  0  0  0  0  0  0  0  0  0
  150.8999  138.3124  156.1201 C   0  0  0  0  0  0  0  0  0  0  0  0
  149.8634  139.0505  156.7306 C   0  0  0  0  0  0  0  0  0  0  0  0
  150.1698  140.2654  157.3730 C   0  0  0  0  0  0  0  0  0  0  0  0
  151.5120  140.7235  157.3881 C   0  0  0  0  0  0  0  0  0  0  0  0
  151.8876  141.9368  158.0109 N   0  0  0  0  0  0  0  0  0  0  0  0
  151.9235  141.9378  159.4738 C   0  0  0  0  0  0  0  0  0  0  0  0
  152.6598  143.1816  159.9996 C   0  0  0  0  0  0  0  0  0  0  0  0
  152.0718  144.3564  159.4538 O   0  0  0  0  0  0  0  0  0  0  0  0
  152.1854  144.3871  158.0361 C   0  0  0  0  0  0  0  0  0  0  0  0
  151.4286  143.1951  157.4266 C   0  0  0  0  0  0  0  0  0  0  0  0
  152.5001  140.0161  156.7884 N   0  0  0  0  0  0  0  0  0  0  0  0
  152.2016  138.8529  156.1720 C   0  0  0  0  0  0  0  0  0  0  0  0
  151.6408  128.6741  154.5848 H   0  0  0  0  0  0  0  0  0  0  0  0
  150.9163  128.8312  156.1794 H   0  0  0  0  0  0  0  0  0  0  0  0
  152.4102  129.6880  155.8014 H   0  0  0  0  0  0  0  0  0  0  0  0
  151.1781  131.0359  154.0643 H   0  0  0  0  0  0  0  0  0  0  0  0
  149.6905  130.2311  154.4844 H   0  0  0  0  0  0  0  0  0  0  0  0
  149.6131  131.2583  156.6493 H   0  0  0  0  0  0  0  0  0  0  0  0
  152.0107  131.0245  157.2827 H   0  0  0  0  0  0  0  0  0  0  0  0
  151.4470  132.6611  157.5887 H   0  0  0  0  0  0  0  0  0  0  0  0
  152.4467  132.3249  156.1774 H   0  0  0  0  0  0  0  0  0  0  0  0
  149.8512  132.8947  154.3518 H   0  0  0  0  0  0  0  0  0  0  0  0
  149.3645  135.0294  154.1238 H   0  0  0  0  0  0  0  0  0  0  0  0
  147.0748  134.2065  154.7721 H   0  0  0  0  0  0  0  0  0  0  0  0
  147.0723  135.9497  154.5595 H   0  0  0  0  0  0  0  0  0  0  0  0
  147.0792  135.2659  156.1809 H   0  0  0  0  0  0  0  0  0  0  0  0
  148.8512  136.8847  156.3494 H   0  0  0  0  0  0  0  0  0  0  0  0
  148.8413  138.7009  156.7124 H   0  0  0  0  0  0  0  0  0  0  0  0
  149.3683  140.8125  157.8448 H   0  0  0  0  0  0  0  0  0  0  0  0
  150.8998  141.9220  159.8494 H   0  0  0  0  0  0  0  0  0  0  0  0
  152.4213  141.0512  159.8660 H   0  0  0  0  0  0  0  0  0  0  0  0
  152.5932  143.2242  161.0867 H   0  0  0  0  0  0  0  0  0  0  0  0
  153.7208  143.1400  159.7479 H   0  0  0  0  0  0  0  0  0  0  0  0
  151.7692  145.3241  157.6660 H   0  0  0  0  0  0  0  0  0  0  0  0
  153.2372  144.3698  157.7446 H   0  0  0  0  0  0  0  0  0  0  0  0
  151.5945  143.1959  156.3489 H   0  0  0  0  0  0  0  0  0  0  0  0
  150.3566  143.3021  157.5980 H   0  0  0  0  0  0  0  0  0  0  0  0
  153.0346  138.3402  155.7132 H   0  0  0  0  0  0  0  0  0  0  0  0
  1  2  1  0  0  0  0
  1 25  1  0  0  0  0
  1 26  1  0  0  0  0
  1 27  1  0  0  0  0
  2  3  1  0  0  0  0
  2 28  1  0  0  0  0
  2 29  1  0  0  0  0
  3  4  1  0  0  0  0
  3  5  1  0  0  0  0
  3 30  1  0  0  0  0
  4 31  1  0  0  0  0
  4 32  1  0  0  0  0
  4 33  1  0  0  0  0
  5  6  1  0  0  0  0
  5 34  1  0  0  0  0
  6  7  2  0  0  0  0
  6  8  1  0  0  0  0
  8  9  1  0  0  0  0
  8 10  1  0  0  0  0
  8 35  1  0  0  0  0
  9 36  1  0  0  0  0
  9 37  1  0  0  0  0
  9 38  1  0  0  0  0
 10 11  1  0  0  0  0
 10 39  1  0  0  0  0
 11 12  2  0  0  0  0
 11 13  1  0  0  0  0
 13 24  1  0  0  0  0
 13 14  2  0  0  0  0
 14 15  1  0  0  0  0
 14 40  1  0  0  0  0
 15 16  2  0  0  0  0
 15 41  1  0  0  0  0
 16 17  1  0  0  0  0
 16 23  1  0  0  0  0
 17 22  1  0  0  0  0
 17 18  1  0  0  0  0
 18 19  1  0  0  0  0
 18 42  1  0  0  0  0
 18 43  1  0  0  0  0
 19 20  1  0  0  0  0
 19 44  1  0  0  0  0
 19 45  1  0  0  0  0
 20 21  1  0  0  0  0
 21 22  1  0  0  0  0
 21 46  1  0  0  0  0
 21 47  1  0  0  0  0
 22 48  1  0  0  0  0
 22 49  1  0  0  0  0
 23 24  2  0  0  0  0
 24 50  1  0  0  0  0
M  END
> <s_m_source_file>
AV-unprocessed.smi

> <i_m_source_file_index>
313

> <i_lp_mmshare_version>
43012

> <i_f3d_flags>
0

> <s_epik_input>
W0NIM11bQ0gyXVtDQEhdKFtDSDNdKVtOSF1DKD1PKVtDQEhdKFtDSDNdKVtOSF1DKD1PKWMxW2NIXVtjSF1jKG5bY0hdMSlOMltDSDJdW0NIMl1PW0NIMl1bQ0gyXTI=

> <s_epik_cmdline>
J2VwaWtfcHl0aG9uJywgJy1waCcsICc3LjAnLCAnLXRuJywgJzgnLCAnLW1hJywgJzIwMCcsICctbWV0YWxfYmluZGluZycsICctaW1hZScsICc8aW5maWxlLm1hZT4nLCAnLW9tYWUnLCAnPG91dGZpbGUubWFlPic=

> <r_lp_tautomer_probability>
1

> <r_epik_Ionization_Penalty>
9.96442e-06

> <r_epik_Ionization_Penalty_Charging>
0

> <r_epik_Ionization_Penalty_Neutral>
9.96442e-06

> <r_epik_State_Penalty>
-0

> <r_epik_Charging_Adjusted_Penalty>
0

> <i_epik_Tot_Q>
0

> <i_epik_Tot_abs_Q>
0

> <r_epik_Metal_State_Penalty>
-0

> <b_epik_Metal_Only>
0

> <s_lp_Force_Field>
OPLS_2005

> <r_lp_Energy>
19.952

> <b_lp_Chiralities_Consistent>
1

> <s_lp_Variant>
AV-unprocessed.smi:313-4

> <Gold.Version>
5.8.1

> <Gold.Id.Protein>
6NUR|6NUR_protein|mol2

> <Gold.PLP.Fitness>
42.8799

> <Gold.PLP.PLP>
-36.0873

> <Gold.PLP.part.hbond>
-3.0000

> <Gold.PLP.part.metal>
0.0000

> <Gold.PLP.part.buried>
-5.2928

> <Gold.PLP.part.nonpolar>
-27.7124

> <Gold.PLP.part.repulsive>
0.2408

> <Gold.PLP.ligand.clash>
0.0000

> <Gold.PLP.ligand.torsion>
1.3724

> <Gold.PLP.Chemscore.Hbond>
3.0000

> <Gold.PLP.Chemscore.CHOScore>
0.0000

> <Gold.PLP.Chemscore.Metal>
0.0000

> <Gold.Chemscore.Hbonds>
donor molecule, donor type, donor heavy atom, donor atom, acceptor molecule, acceptor atom, score
      P1  H  6896  6909       L1     7  0.13
      P1  H  7997  8010       L1    23  1.00
      P1  H 10752 10764       L1    12  1.00

> <Gold.PLP.Chemscore.Internal.Correction>
0.5374

> <Gold.Rescore>
     Score         DG    S(hbond)    S(metal)    S(lipo)     H(rot)  DE(clash)    DE(int)     intcor
     18.82     -20.40       2.89        0.00      84.05       1.79       0.14       1.45       ----

> <Gold.Chemscore.Fitness>
18.8172

> <Gold.Chemscore.DG>
-20.4002

> <Gold.Chemscore.ZeroCoef>
-5.4800

> <Gold.Chemscore.Hbond>
2.8938

> <Gold.Chemscore.Metal>
0.0000

> <Gold.Chemscore.Lipo>
84.0524

> <Gold.Chemscore.Internal_Hbond>
0.0000

> <Gold.Chemscore.DEClash>
0.1352

> <Gold.Chemscore.DEInternal>
1.4479

> <Gold.Chemscore.Rot>
1.7888

> <Gold.Chemscore.Internal.Correction>
   9.000000E+99

> <Gold.Chemscore.Hbonds>
donor molecule, donor type, donor heavy atom, donor atom, acceptor molecule, acceptor atom, score
      P1  H  6896  6909       L1     7  0.14
      P1  H  7997  8010       L1    23  0.30
      P1  H 10752 10764       L1    12  1.00

> <Gold.Chemscore.Hbond.Weighted>
-9.6654

> <Gold.Chemscore.Metal.Weighted>
-0.0000

> <Gold.Chemscore.Lipo.Weighted>
-9.8341

> <Gold.Chemscore.Internal_Hbond.Weighted>
0.0000

> <Gold.Chemscore.DEClash.Weighted>
0.1352

> <Gold.Chemscore.DEInternal.Weighted>
1.4479

> <Gold.Chemscore.Rot.Weighted>
4.5793

> <Gold.Chemscore.Internal.Correction.Weighted>
   9.000000E+99

> <Gold.Protein.RotatedTorsions>
[ 6907 6896 6895 6894 ] final    5.36 input  -60.11 | X-H torsion
[ 7974 7965 7964 7962 ] final  -54.60 input  175.53 | X-H torsion
[ 8008 7997 7996 7995 ] final   71.44 input   59.86 | X-H torsion
[ 10167 10162 10161 10158 ] final  -46.51 input  -65.29 | X-H torsion
[ 10718 10713 10712 10709 ] final  172.71 input   66.30 | X-H torsion
[ 10763 10752 10751 10750 ] final  -62.92 input  -60.55 | X-H torsion
[ 11005 11000 10999 10996 ] final  -18.38 input  -57.11 | X-H torsion

> <Gold.Protein.ActiveResidues>
 VAL166  LYS551  ARG553  GLY616  TRP617  ASP618  TYR619  PRO620  LYS621  CYS622 
 ASP623  PHE694  ASN695  SER759  ASP760  ASP761  ALA762  ILE779  LEU786  VAL792 
 PHE793  MET794  SER795  GLU796  ALA797  LYS798  CYS799  TRP800  GLU811  SER814 

> <Gold.Protein.RotatedAtoms>
  151.6562  135.0995  160.0170 H   0  0  0  0  0  0  0  0  0  0  0  0  # atno 6907 bound_to 6896
  152.3973  133.6761  159.6295 H   0  0  0  0  0  0  0  0  0  0  0  0  # atno 6908 bound_to 6896
  150.7878  133.8769  159.3316 H   0  0  0  0  0  0  0  0  0  0  0  0  # atno 6909 bound_to 6896
  145.8837  140.8124  142.9826 H   0  0  0  0  0  0  0  0  0  0  0  0  # atno 7974 bound_to 7965
  155.7539  140.3488  155.5164 H   0  0  0  0  0  0  0  0  0  0  0  0  # atno 8008 bound_to 7997
  155.8979  140.1029  157.1393 H   0  0  0  0  0  0  0  0  0  0  0  0  # atno 8009 bound_to 7997
  154.4040  140.1292  156.4385 H   0  0  0  0  0  0  0  0  0  0  0  0  # atno 8010 bound_to 7997
  140.6814  143.2827  151.3793 H   0  0  0  0  0  0  0  0  0  0  0  0  # atno 10167 bound_to 10162
  156.9749  131.0101  151.2896 H   0  0  0  0  0  0  0  0  0  0  0  0  # atno 10718 bound_to 10713
  154.3072  135.6223  153.5450 H   0  0  0  0  0  0  0  0  0  0  0  0  # atno 10763 bound_to 10752
  152.9833  135.5692  154.5217 H   0  0  0  0  0  0  0  0  0  0  0  0  # atno 10764 bound_to 10752
  154.4860  135.2865  155.1510 H   0  0  0  0  0  0  0  0  0  0  0  0  # atno 10765 bound_to 10752
  140.8262  133.8031  155.9710 H   0  0  0  0  0  0  0  0  0  0  0  0  # atno 11005 bound_to 11000
  144.6728  140.1423  143.7436 LP  0  0  0  0  0  0  0  0  0  0  0  0  # atno 17320 bound_to 7965
  145.8992  139.2420  143.1503 LP  0  0  0  0  0  0  0  0  0  0  0  0  # atno 17321 bound_to 7965
  139.6140  144.1041  152.2327 LP  0  0  0  0  0  0  0  0  0  0  0  0  # atno 17342 bound_to 10162
  140.0464  144.5967  150.7370 LP  0  0  0  0  0  0  0  0  0  0  0  0  # atno 17343 bound_to 10162
  157.5567  130.8218  149.8213 LP  0  0  0  0  0  0  0  0  0  0  0  0  # atno 17370 bound_to 10713
  156.0268  130.3777  150.1801 LP  0  0  0  0  0  0  0  0  0  0  0  0  # atno 17371 bound_to 10713
  140.9047  134.2335  157.5021 LP  0  0  0  0  0  0  0  0  0  0  0  0  # atno 17394 bound_to 11000
  139.8706  134.9723  156.4767 LP  0  0  0  0  0  0  0  0  0  0  0  0  # atno 17395 bound_to 11000

$$$$
