AV-unprocessed.smi:203|AV-procd|sdf|1590|dock5
  -GOLD-   2262019483D 1   1.00000     0.00000
 Structure written by MMmdl.
 57 61  0  0  0  0  0  0  0  0  1 V2000
  145.2765  129.6739  161.0834 O   0  0  0  0  0  0  0  0  0  0  0  0
  146.3393  130.2135  160.7854 C   0  0  0  0  0  0  0  0  0  0  0  0
  146.4738  131.2463  159.6800 C   0  0  0  0  0  0  0  0  0  0  0  0
  147.9153  131.7694  159.8438 C   0  0  1  0  0  0  0  0  0  0  0  0
  148.0179  133.2550  160.3181 C   0  0  2  0  0  0  0  0  0  0  0  0
  147.2473  133.5226  161.6377 C   0  0  0  0  0  0  0  0  0  0  0  0
  147.3831  134.9844  162.0853 C   0  0  0  0  0  0  0  0  0  0  0  0
  146.9211  135.9208  160.9630 C   0  0  0  0  0  0  0  0  0  0  0  0
  147.6981  135.6324  159.6713 C   0  0  0  0  0  0  0  0  0  0  0  0
  147.5917  134.2245  159.2919 N   0  0  0  0  0  0  0  0  0  0  0  0
  148.0838  134.0255  158.0496 C   0  0  0  0  0  0  0  0  0  0  0  0
  149.4061  134.2571  157.8627 N   0  0  0  0  0  0  0  0  0  0  0  0
  149.9363  134.1403  156.6416 C   0  0  0  0  0  0  0  0  0  0  0  0
  149.3314  133.8181  155.4959 N   0  0  0  0  0  0  0  0  0  0  0  0
  148.0036  133.5710  155.6881 C   0  0  0  0  0  0  0  0  0  0  0  0
  147.3044  133.6374  156.9242 C   0  0  0  0  0  0  0  0  0  0  0  0
  145.9645  133.3214  156.7313 N   0  0  0  0  0  0  0  0  0  0  0  0
  145.8706  133.1098  155.4471 C   0  0  0  0  0  0  0  0  0  0  0  0
  147.0427  133.2610  154.7425 N   0  0  0  0  0  0  0  0  0  0  0  0
  147.2104  133.1589  153.3054 C   0  0  0  0  0  0  0  0  0  0  0  0
  146.3507  132.0331  152.6882 C   0  0  2  0  0  0  0  0  0  0  0  0
  147.1733  130.8894  152.5736 O   0  0  0  0  0  0  0  0  0  0  0  0
  145.7488  132.3717  151.3038 C   0  0  1  0  0  0  0  0  0  0  0  0
  144.6722  131.4007  150.8127 C   0  0  0  0  0  0  0  0  0  0  0  0
  143.8457  132.2332  149.8429 C   0  0  0  0  0  0  0  0  0  0  0  0
  144.2618  133.6747  150.1429 C   0  0  0  0  0  0  0  0  0  0  0  0
  145.0119  133.5862  151.3435 O   0  0  0  0  0  0  0  0  0  0  0  0
  148.5980  130.7703  160.8024 C   0  0  0  0  0  0  0  0  0  0  0  0
  147.5163  129.9854  161.3641 N   0  0  0  0  0  0  0  0  0  0  0  0
  146.3414  130.7590  158.7135 H   0  0  0  0  0  0  0  0  0  0  0  0
  145.7175  132.0261  159.7701 H   0  0  0  0  0  0  0  0  0  0  0  0
  148.4272  131.6657  158.8867 H   0  0  0  0  0  0  0  0  0  0  0  0
  149.0705  133.4548  160.5217 H   0  0  0  0  0  0  0  0  0  0  0  0
  146.1892  133.2924  161.5118 H   0  0  0  0  0  0  0  0  0  0  0  0
  147.6058  132.8752  162.4370 H   0  0  0  0  0  0  0  0  0  0  0  0
  146.7956  135.1589  162.9870 H   0  0  0  0  0  0  0  0  0  0  0  0
  148.4219  135.1972  162.3411 H   0  0  0  0  0  0  0  0  0  0  0  0
  145.8531  135.7859  160.7868 H   0  0  0  0  0  0  0  0  0  0  0  0
  147.0602  136.9608  161.2590 H   0  0  0  0  0  0  0  0  0  0  0  0
  147.3165  136.2646  158.8679 H   0  0  0  0  0  0  0  0  0  0  0  0
  148.7489  135.8924  159.8084 H   0  0  0  0  0  0  0  0  0  0  0  0
  150.9942  134.3461  156.5702 H   0  0  0  0  0  0  0  0  0  0  0  0
  144.9327  132.8629  154.9711 H   0  0  0  0  0  0  0  0  0  0  0  0
  146.9509  134.1206  152.8604 H   0  0  0  0  0  0  0  0  0  0  0  0
  148.2672  132.9926  153.0930 H   0  0  0  0  0  0  0  0  0  0  0  0
  145.5396  131.7840  153.3737 H   0  0  0  0  0  0  0  0  0  0  0  0
  147.5900  130.9023  151.7256 H   0  0  0  0  0  0  0  0  0  0  0  0
  146.5397  132.4540  150.5556 H   0  0  0  0  0  0  0  0  0  0  0  0
  145.0925  130.5074  150.3499 H   0  0  0  0  0  0  0  0  0  0  0  0
  144.0441  131.0827  151.6460 H   0  0  0  0  0  0  0  0  0  0  0  0
  144.0642  131.9778  148.8057 H   0  0  0  0  0  0  0  0  0  0  0  0
  142.7793  132.0782  150.0104 H   0  0  0  0  0  0  0  0  0  0  0  0
  144.8999  134.0680  149.3502 H   0  0  0  0  0  0  0  0  0  0  0  0
  143.4101  134.3448  150.2593 H   0  0  0  0  0  0  0  0  0  0  0  0
  149.2656  130.1032  160.2558 H   0  0  0  0  0  0  0  0  0  0  0  0
  149.1859  131.2527  161.5832 H   0  0  0  0  0  0  0  0  0  0  0  0
  147.6550  129.3332  162.1226 H   0  0  0  0  0  0  0  0  0  0  0  0
  1  2  2  0  0  0  0
  2 29  1  0  0  0  0
  2  3  1  0  0  0  0
  3  4  1  0  0  0  0
  3 30  1  0  0  0  0
  3 31  1  0  0  0  0
  4  5  1  0  0  0  0
  4 28  1  0  0  0  0
  4 32  1  0  0  0  0
  5 10  1  0  0  0  0
  5  6  1  0  0  0  0
  5 33  1  0  0  0  0
  6  7  1  0  0  0  0
  6 34  1  0  0  0  0
  6 35  1  0  0  0  0
  7  8  1  0  0  0  0
  7 36  1  0  0  0  0
  7 37  1  0  0  0  0
  8  9  1  0  0  0  0
  8 38  1  0  0  0  0
  8 39  1  0  0  0  0
  9 10  1  0  0  0  0
  9 40  1  0  0  0  0
  9 41  1  0  0  0  0
 10 11  1  0  0  0  0
 11 16  1  0  0  0  0
 11 12  2  0  0  0  0
 12 13  1  0  0  0  0
 13 14  2  0  0  0  0
 13 42  1  0  0  0  0
 14 15  1  0  0  0  0
 15 19  1  0  0  0  0
 15 16  2  0  0  0  0
 16 17  1  0  0  0  0
 17 18  2  0  0  0  0
 18 19  1  0  0  0  0
 18 43  1  0  0  0  0
 19 20  1  0  0  0  0
 20 21  1  0  0  0  0
 20 44  1  0  0  0  0
 20 45  1  0  0  0  0
 21 22  1  0  0  0  0
 21 23  1  0  0  0  0
 21 46  1  0  0  0  0
 22 47  1  0  0  0  0
 23 27  1  0  0  0  0
 23 24  1  0  0  0  0
 23 48  1  0  0  0  0
 24 25  1  0  0  0  0
 24 49  1  0  0  0  0
 24 50  1  0  0  0  0
 25 26  1  0  0  0  0
 25 51  1  0  0  0  0
 25 52  1  0  0  0  0
 26 27  1  0  0  0  0
 26 53  1  0  0  0  0
 26 54  1  0  0  0  0
 28 29  1  0  0  0  0
 28 55  1  0  0  0  0
 28 56  1  0  0  0  0
 29 57  1  0  0  0  0
M  END
> <s_m_source_file>
AV-unprocessed.smi

> <i_m_source_file_index>
203

> <i_lp_mmshare_version>
43012

> <i_f3d_flags>
0

> <s_epik_input>
Tz1DMVtDSDJdW0NASF0oW0NIMl1bTkhdMSlbQ0BASF0yW0NIMl1bQ0gyXVtDSDJdW0NIMl1OMmMobltjSF1uMyljKGMzNCluW2NIXW40W0NIMl1bQ0BIXShbT0hdKVtDQEBIXTVbQ0gyXVtDSDJdW0NIMl1PNQ==

> <s_epik_cmdline>
J2VwaWtfcHl0aG9uJywgJy1waCcsICc3LjAnLCAnLXRuJywgJzgnLCAnLW1hJywgJzIwMCcsICctbWV0YWxfYmluZGluZycsICctaW1hZScsICc8aW5maWxlLm1hZT4nLCAnLW9tYWUnLCAnPG91dGZpbGUubWFlPic=

> <r_lp_tautomer_probability>
1

> <r_epik_Ionization_Penalty>
0.00175146

> <r_epik_Ionization_Penalty_Charging>
0

> <r_epik_Ionization_Penalty_Neutral>
0.00175146

> <r_epik_State_Penalty>
0.00109045

> <r_epik_Charging_Adjusted_Penalty>
0.00109045

> <i_epik_Tot_Q>
0

> <i_epik_Tot_abs_Q>
0

> <r_epik_Metal_State_Penalty>
-0

> <b_epik_Metal_Only>
0

> <s_lp_Force_Field>
OPLS_2005

> <r_lp_Energy>
55.9411

> <b_lp_Chiralities_Consistent>
1

> <s_lp_Variant>
AV-unprocessed.smi:203-9

> <Gold.Version>
5.8.1

> <Gold.Id.Protein>
6NUR|6NUR_protein|mol2

> <Gold.PLP.Fitness>
41.7318

> <Gold.PLP.PLP>
-34.9842

> <Gold.PLP.part.hbond>
-2.0000

> <Gold.PLP.part.metal>
0.0000

> <Gold.PLP.part.buried>
-6.4215

> <Gold.PLP.part.nonpolar>
-26.7946

> <Gold.PLP.part.repulsive>
0.2603

> <Gold.PLP.ligand.clash>
0.0000

> <Gold.PLP.ligand.torsion>
1.0804

> <Gold.PLP.Chemscore.Hbond>
2.0000

> <Gold.PLP.Chemscore.CHOScore>
0.8581

> <Gold.PLP.Chemscore.Metal>
0.0000

> <Gold.Chemscore.Hbonds>
donor molecule, donor type, donor heavy atom, donor atom, acceptor molecule, acceptor atom, score
      L1  H    22    47       P1 10747  1.00
      P1  H  6896  6907       L1    12  1.00
      L1  C    18    43       P1 10957  1.00

> <Gold.PLP.Chemscore.Internal.Correction>
0.3343

> <Gold.Rescore>
     Score         DG    S(hbond)    S(metal)    S(lipo)     H(rot)  DE(clash)    DE(int)     intcor
     14.52     -15.58       1.93        0.00      90.64       2.72       0.02       1.03       ----

> <Gold.Chemscore.Fitness>
14.5246

> <Gold.Chemscore.DG>
-15.5790

> <Gold.Chemscore.ZeroCoef>
-5.4800

> <Gold.Chemscore.Hbond>
1.9310

> <Gold.Chemscore.Metal>
0.0000

> <Gold.Chemscore.Lipo>
90.6437

> <Gold.Chemscore.Internal_Hbond>
0.0000

> <Gold.Chemscore.DEClash>
0.0231

> <Gold.Chemscore.DEInternal>
1.0313

> <Gold.Chemscore.Rot>
2.7171

> <Gold.Chemscore.Internal.Correction>
   9.000000E+99

> <Gold.Chemscore.Hbonds>
donor molecule, donor type, donor heavy atom, donor atom, acceptor molecule, acceptor atom, score
      L1  H    22    47       P1 10747  0.96
      P1  H  6896  6907       L1    12  0.82

> <Gold.Chemscore.Hbond.Weighted>
-6.4494

> <Gold.Chemscore.Metal.Weighted>
-0.0000

> <Gold.Chemscore.Lipo.Weighted>
-10.6053

> <Gold.Chemscore.Internal_Hbond.Weighted>
0.0000

> <Gold.Chemscore.DEClash.Weighted>
0.0231

> <Gold.Chemscore.DEInternal.Weighted>
1.0313

> <Gold.Chemscore.Rot.Weighted>
6.9557

> <Gold.Chemscore.Internal.Correction.Weighted>
   9.000000E+99

> <Gold.Protein.RotatedTorsions>
[ 6907 6896 6895 6894 ] final -111.09 input  -60.11 | X-H torsion
[ 7974 7965 7964 7962 ] final  176.61 input  175.53 | X-H torsion
[ 8008 7997 7996 7995 ] final -139.68 input   59.86 | X-H torsion
[ 10167 10162 10161 10158 ] final -152.70 input  -65.29 | X-H torsion
[ 10718 10713 10712 10709 ] final  -21.51 input   66.30 | X-H torsion
[ 10763 10752 10751 10750 ] final  -28.94 input  -60.55 | X-H torsion
[ 11005 11000 10999 10996 ] final   46.74 input  -57.11 | X-H torsion

> <Gold.Protein.ActiveResidues>
 VAL166  LYS551  ARG553  GLY616  TRP617  ASP618  TYR619  PRO620  LYS621  CYS622 
 ASP623  PHE694  ASN695  SER759  ASP760  ASP761  ALA762  ILE779  LEU786  VAL792 
 PHE793  MET794  SER795  GLU796  ALA797  LYS798  CYS799  TRP800  GLU811  SER814 

> <Gold.Protein.RotatedAtoms>
  150.7667  133.9286  159.3419 H   0  0  0  0  0  0  0  0  0  0  0  0  # atno 6907 bound_to 6896
  151.7182  135.0897  160.0289 H   0  0  0  0  0  0  0  0  0  0  0  0  # atno 6908 bound_to 6896
  152.3666  133.6327  159.6091 H   0  0  0  0  0  0  0  0  0  0  0  0  # atno 6909 bound_to 6896
  144.7181  140.0122  143.6440 H   0  0  0  0  0  0  0  0  0  0  0  0  # atno 7974 bound_to 7965
  155.4488  140.0537  157.3003 H   0  0  0  0  0  0  0  0  0  0  0  0  # atno 8008 bound_to 7997
  154.4786  140.2072  155.9774 H   0  0  0  0  0  0  0  0  0  0  0  0  # atno 8009 bound_to 7997
  156.1171  140.3194  155.8159 H   0  0  0  0  0  0  0  0  0  0  0  0  # atno 8010 bound_to 7997
  139.7159  143.9034  152.2486 H   0  0  0  0  0  0  0  0  0  0  0  0  # atno 10167 bound_to 10162
  156.5172  130.4624  149.6616 H   0  0  0  0  0  0  0  0  0  0  0  0  # atno 10718 bound_to 10713
  153.7566  135.6922  153.4934 H   0  0  0  0  0  0  0  0  0  0  0  0  # atno 10763 bound_to 10752
  153.1967  135.4451  155.0215 H   0  0  0  0  0  0  0  0  0  0  0  0  # atno 10764 bound_to 10752
  154.8168  135.3403  154.7083 H   0  0  0  0  0  0  0  0  0  0  0  0  # atno 10765 bound_to 10752
  140.1342  134.4667  155.8498 H   0  0  0  0  0  0  0  0  0  0  0  0  # atno 11005 bound_to 11000
  146.0249  139.3283  143.0790 LP  0  0  0  0  0  0  0  0  0  0  0  0  # atno 17320 bound_to 7965
  145.8523  140.9521  143.0743 LP  0  0  0  0  0  0  0  0  0  0  0  0  # atno 17321 bound_to 7965
  139.8916  144.6962  150.8764 LP  0  0  0  0  0  0  0  0  0  0  0  0  # atno 17342 bound_to 10162
  140.7743  143.3582  151.1880 LP  0  0  0  0  0  0  0  0  0  0  0  0  # atno 17343 bound_to 10162
  156.3184  130.7267  151.2174 LP  0  0  0  0  0  0  0  0  0  0  0  0  # atno 17370 bound_to 10713
  157.7442  131.0462  150.4883 LP  0  0  0  0  0  0  0  0  0  0  0  0  # atno 17371 bound_to 10713
  141.2175  133.6807  156.7126 LP  0  0  0  0  0  0  0  0  0  0  0  0  # atno 17394 bound_to 11000
  140.2804  134.8321  157.3928 LP  0  0  0  0  0  0  0  0  0  0  0  0  # atno 17395 bound_to 11000

$$$$
