AV-unprocessed.smi:914|AV-procd|sdf|4153|dock6
  -GOLD-   22720 2 53D 1   1.00000     0.00000
 Structure written by MMmdl.
 32 33  0  0  0  0  0  0  0  0  2 V2000
  151.0801  139.5692  154.4289 O   0  0  0  0  0  0  0  0  0  0  0  0
  151.5120  139.5266  155.5801 C   0  0  0  0  0  0  0  0  0  0  0  0
  152.3345  138.5307  156.0220 N   0  5  0  0  0  0  0  0  0  0  0  0
  152.8299  138.4690  157.2968 C   0  0  0  0  0  0  0  0  0  0  0  0
  153.5672  137.5567  157.6706 O   0  0  0  0  0  0  0  0  0  0  0  0
  152.4949  139.4561  158.1807 N   0  0  0  0  0  0  0  0  0  0  0  0
  152.9766  139.4771  159.5692 C   0  0  0  0  0  0  0  0  0  0  0  0
  153.6597  140.8094  159.9151 C   0  0  0  0  0  0  0  0  0  0  0  0
  152.9174  141.4805  160.9190 O   0  0  0  0  0  0  0  0  0  0  0  0
  153.0417  142.8900  160.8496 C   0  0  0  0  0  0  0  0  0  0  0  0
  151.9068  143.4414  159.9787 C   0  0  1  0  0  0  0  0  0  0  0  0
  151.8083  144.9642  159.9908 C   0  0  0  0  0  0  0  0  0  0  0  0
  151.0486  145.2287  158.7102 C   0  0  0  0  0  0  0  0  0  0  0  0
  151.5938  144.1508  157.7740 C   0  0  0  0  0  0  0  0  0  0  0  0
  152.1380  143.1312  158.6088 O   0  0  0  0  0  0  0  0  0  0  0  0
  151.6439  140.4992  157.7787 C   0  0  0  0  0  0  0  0  0  0  0  0
  151.1436  140.5743  156.5302 C   0  0  0  0  0  0  0  0  0  0  0  0
  150.0970  141.8680  156.0657 Cl  0  0  0  0  0  0  0  0  0  0  0  0
  152.1743  139.2729  160.2799 H   0  0  0  0  0  0  0  0  0  0  0  0
  153.6891  138.6630  159.7087 H   0  0  0  0  0  0  0  0  0  0  0  0
  154.6709  140.6171  160.2767 H   0  0  0  0  0  0  0  0  0  0  0  0
  153.7470  141.4341  159.0249 H   0  0  0  0  0  0  0  0  0  0  0  0
  152.9713  143.3018  161.8577 H   0  0  0  0  0  0  0  0  0  0  0  0
  154.0105  143.1810  160.4404 H   0  0  0  0  0  0  0  0  0  0  0  0
  150.9484  143.0162  160.2819 H   0  0  0  0  0  0  0  0  0  0  0  0
  151.3023  145.3514  160.8756 H   0  0  0  0  0  0  0  0  0  0  0  0
  152.8007  145.4142  159.9371 H   0  0  0  0  0  0  0  0  0  0  0  0
  149.9812  145.0757  158.8742 H   0  0  0  0  0  0  0  0  0  0  0  0
  151.1927  146.2392  158.3271 H   0  0  0  0  0  0  0  0  0  0  0  0
  150.8176  143.7504  157.1216 H   0  0  0  0  0  0  0  0  0  0  0  0
  152.3919  144.5476  157.1460 H   0  0  0  0  0  0  0  0  0  0  0  0
  151.4216  141.2263  158.5460 H   0  0  0  0  0  0  0  0  0  0  0  0
  1  2  2  0  0  0  0
  2 17  1  0  0  0  0
  2  3  1  0  0  0  0
  3  4  1  0  0  0  0
  4  5  2  0  0  0  0
  4  6  1  0  0  0  0
  6  7  1  0  0  0  0
  6 16  1  0  0  0  0
  7  8  1  0  0  0  0
  7 19  1  0  0  0  0
  7 20  1  0  0  0  0
  8  9  1  0  0  0  0
  8 21  1  0  0  0  0
  8 22  1  0  0  0  0
  9 10  1  0  0  0  0
 10 11  1  0  0  0  0
 10 23  1  0  0  0  0
 10 24  1  0  0  0  0
 11 15  1  0  0  0  0
 11 12  1  0  0  0  0
 11 25  1  0  0  0  0
 12 13  1  0  0  0  0
 12 26  1  0  0  0  0
 12 27  1  0  0  0  0
 13 14  1  0  0  0  0
 13 28  1  0  0  0  0
 13 29  1  0  0  0  0
 14 15  1  0  0  0  0
 14 30  1  0  0  0  0
 14 31  1  0  0  0  0
 16 17  2  0  0  0  0
 16 32  1  0  0  0  0
 17 18  1  0  0  0  0
M  CHG  1   3  -1
M  END
> <s_m_source_file>
AV-unprocessed.smi

> <i_m_source_file_index>
914

> <i_lp_mmshare_version>
43012

> <i_f3d_flags>
0

> <s_epik_input>
Tz1jMVtuSF1jKD1PKW4oW2NIXWMxQ2wpW0NIMl1bQ0gyXU9bQ0gyXVtDQEBIXTJbQ0gyXVtDSDJdW0NIMl1PMg==

> <s_epik_cmdline>
J2VwaWtfcHl0aG9uJywgJy1waCcsICc3LjAnLCAnLXRuJywgJzgnLCAnLW1hJywgJzIwMCcsICctbWV0YWxfYmluZGluZycsICctaW1hZScsICc8aW5maWxlLm1hZT4nLCAnLW9tYWUnLCAnPG91dGZpbGUubWFlPic=

> <r_epik_Ionization_Penalty>
1.76812

> <r_epik_Ionization_Penalty_Charging>
1.60097e-08

> <r_epik_Ionization_Penalty_Neutral>
1.76812

> <r_epik_State_Penalty>
1.87929

> <r_epik_Charging_Adjusted_Penalty>
1.87929

> <i_epik_Tot_Q>
-1

> <i_epik_Tot_abs_Q>
1

> <r_epik_Metal_State_Penalty>
0.0133872

> <b_epik_Metal_Only>
0

> <s_lp_Force_Field>
OPLS_2005

> <r_lp_Energy>
30.6138

> <b_lp_Chiralities_Consistent>
1

> <s_lp_Variant>
AV-unprocessed.smi:914-4

> <Gold.Version>
5.8.1

> <Gold.Id.Protein>
6NUR|6NUR_protein|mol2

> <Gold.PLP.Fitness>
38.9727

> <Gold.PLP.PLP>
-37.6280

> <Gold.PLP.part.hbond>
-1.0000

> <Gold.PLP.part.metal>
0.0000

> <Gold.PLP.part.buried>
-4.2226

> <Gold.PLP.part.nonpolar>
-32.2593

> <Gold.PLP.part.repulsive>
0.1425

> <Gold.PLP.ligand.clash>
0.0000

> <Gold.PLP.ligand.torsion>
0.8449

> <Gold.PLP.Chemscore.Hbond>
1.0000

> <Gold.PLP.Chemscore.CHOScore>
0.0000

> <Gold.PLP.Chemscore.Metal>
0.0000

> <Gold.Chemscore.Hbonds>
donor molecule, donor type, donor heavy atom, donor atom, acceptor molecule, acceptor atom, score
      P1  H  7989  7998       L1     1  1.00

> <Gold.PLP.Chemscore.Internal.Correction>
0.0345

> <Gold.Rescore>
     Score         DG    S(hbond)    S(metal)    S(lipo)     H(rot)  DE(clash)    DE(int)     intcor
     12.86     -14.83       0.98        0.00      97.22       2.07       0.11       1.86       ----

> <Gold.Chemscore.Fitness>
12.8574

> <Gold.Chemscore.DG>
-14.8271

> <Gold.Chemscore.ZeroCoef>
-5.4800

> <Gold.Chemscore.Hbond>
0.9779

> <Gold.Chemscore.Metal>
0.0000

> <Gold.Chemscore.Lipo>
97.2159

> <Gold.Chemscore.Internal_Hbond>
0.0000

> <Gold.Chemscore.DEClash>
0.1050

> <Gold.Chemscore.DEInternal>
1.8647

> <Gold.Chemscore.Rot>
2.0678

> <Gold.Chemscore.Internal.Correction>
   9.000000E+99

> <Gold.Chemscore.Hbonds>
donor molecule, donor type, donor heavy atom, donor atom, acceptor molecule, acceptor atom, score
      P1  H  7989  7998       L1     1  0.93

> <Gold.Chemscore.Hbond.Weighted>
-3.2663

> <Gold.Chemscore.Metal.Weighted>
-0.0000

> <Gold.Chemscore.Lipo.Weighted>
-11.3743

> <Gold.Chemscore.Internal_Hbond.Weighted>
0.0000

> <Gold.Chemscore.DEClash.Weighted>
0.1050

> <Gold.Chemscore.DEInternal.Weighted>
1.8647

> <Gold.Chemscore.Rot.Weighted>
5.2935

> <Gold.Chemscore.Internal.Correction.Weighted>
   9.000000E+99

> <Gold.Protein.RotatedTorsions>
[ 6907 6896 6895 6894 ] final  159.25 input  -60.11 | X-H torsion
[ 7974 7965 7964 7962 ] final -136.58 input  175.53 | X-H torsion
[ 8008 7997 7996 7995 ] final -171.72 input   59.86 | X-H torsion
[ 10167 10162 10161 10158 ] final  149.68 input  -65.29 | X-H torsion
[ 10718 10713 10712 10709 ] final  -29.33 input   66.30 | X-H torsion
[ 10763 10752 10751 10750 ] final -154.21 input  -60.55 | X-H torsion
[ 11005 11000 10999 10996 ] final  -68.25 input  -57.11 | X-H torsion

> <Gold.Protein.ActiveResidues>
 VAL166  LYS551  ARG553  GLY616  TRP617  ASP618  TYR619  PRO620  LYS621  CYS622 
 ASP623  PHE694  ASN695  SER759  ASP760  ASP761  ALA762  ILE779  LEU786  VAL792 
 PHE793  MET794  SER795  GLU796  ALA797  LYS798  CYS799  TRP800  GLU811  SER814 

> <Gold.Protein.RotatedAtoms>
  151.9883  133.3782  159.4134 H   0  0  0  0  0  0  0  0  0  0  0  0  # atno 6907 bound_to 6896
  150.6925  134.3964  159.5108 H   0  0  0  0  0  0  0  0  0  0  0  0  # atno 6908 bound_to 6896
  152.1693  134.8847  160.0586 H   0  0  0  0  0  0  0  0  0  0  0  0  # atno 6909 bound_to 6896
  144.8914  140.6647  143.5143 H   0  0  0  0  0  0  0  0  0  0  0  0  # atno 7974 bound_to 7965
  155.9352  140.1098  157.1100 H   0  0  0  0  0  0  0  0  0  0  0  0  # atno 8008 bound_to 7997
  154.4078  140.1230  156.4921 H   0  0  0  0  0  0  0  0  0  0  0  0  # atno 8009 bound_to 7997
  155.7030  140.3471  155.4943 H   0  0  0  0  0  0  0  0  0  0  0  0  # atno 8010 bound_to 7997
  139.4858  144.5582  151.7278 H   0  0  0  0  0  0  0  0  0  0  0  0  # atno 10167 bound_to 10162
  156.4138  130.4413  149.7233 H   0  0  0  0  0  0  0  0  0  0  0  0  # atno 10718 bound_to 10713
  154.7875  135.3195  154.7854 H   0  0  0  0  0  0  0  0  0  0  0  0  # atno 10763 bound_to 10752
  153.8550  135.6858  153.4792 H   0  0  0  0  0  0  0  0  0  0  0  0  # atno 10764 bound_to 10752
  153.1532  135.4691  154.9605 H   0  0  0  0  0  0  0  0  0  0  0  0  # atno 10765 bound_to 10752
  141.1527  133.6736  156.6417 H   0  0  0  0  0  0  0  0  0  0  0  0  # atno 11005 bound_to 11000
  145.3776  139.1644  143.4298 LP  0  0  0  0  0  0  0  0  0  0  0  0  # atno 17320 bound_to 7965
  146.3056  140.3853  142.8688 LP  0  0  0  0  0  0  0  0  0  0  0  0  # atno 17321 bound_to 7965
  140.5148  144.0970  150.6005 LP  0  0  0  0  0  0  0  0  0  0  0  0  # atno 17342 bound_to 10162
  140.3908  143.2753  152.0062 LP  0  0  0  0  0  0  0  0  0  0  0  0  # atno 17343 bound_to 10162
  156.4201  130.7764  151.2781 LP  0  0  0  0  0  0  0  0  0  0  0  0  # atno 17370 bound_to 10713
  157.7507  131.0185  150.3630 LP  0  0  0  0  0  0  0  0  0  0  0  0  # atno 17371 bound_to 10713
  140.3388  134.7867  157.4382 LP  0  0  0  0  0  0  0  0  0  0  0  0  # atno 17394 bound_to 11000
  140.0955  134.5543  155.8402 LP  0  0  0  0  0  0  0  0  0  0  0  0  # atno 17395 bound_to 11000

$$$$
