#       Name:                AV-unprocessed.smi:212
#       Creating user name   scv26
#       Creation time:       Thu Mar 26 19:56:30 2020


#       File generated by GOLD software.
#

@<TRIPOS>MOLECULE
AV-unprocessed.smi:212
    75    78     1
SMALL
NO_CHARGES


@<TRIPOS>ATOM
      1 ****        -1.3785  -2.1543   2.4910 C.3            1 S1                 0.0000
      2 ****        -2.2817  -1.0391   1.9300 C.3            1 S1                 0.0000
      3 ****        -2.4879   0.1366   2.9105 C.3            1 S1                 0.0000
      4 ****        -3.4105   1.1527   2.3402 N.4            1 S1                 1.0000
      5 ****        -3.6989   2.2729   3.2741 C.3            1 S1                 0.0000
      6 ****        -5.1911   2.3352   3.6721 C.3            1 S1                 0.0000
      7 ****        -5.4249   3.4744   4.6785 C.3            1 S1                 0.0000
      8 ****        -6.1221   2.5007   2.4569 C.3            1 S1                 0.0000
      9 ****        -5.5300   1.1315   4.3329 O.3            1 S1                 0.0000
     10 ****        -2.9981   1.6061   0.9866 C.3            1 S1                 0.0000
     11 ****        -2.8182   0.4108   0.0318 C.3            1 S1                 0.0000
     12 ****        -1.8925  -0.5679   0.5941 N.3            1 S1                 0.0000
     13 ****        -0.5962  -0.2936   0.2971 C.ar           1 S1                 0.0000
     14 ****         0.2251   0.2685   1.2225 N.ar           1 S1                 0.0000
     15 ****         1.4919   0.5592   0.9107 C.ar           1 S1                 0.0000
     16 ****         2.1277   0.3817  -0.2490 N.ar           1 S1                 0.0000
     17 ****         1.3041  -0.1730  -1.1834 C.ar           1 S1                 0.0000
     18 ****        -0.0590  -0.5350  -0.9963 C.ar           1 S1                 0.0000
     19 ****        -0.5759  -1.0676  -2.1708 N.2            1 S1                 0.0000
     20 ****         0.4267  -1.0248  -3.0060 C.2            1 S1                 0.0000
     21 ****         1.5953  -0.5076  -2.4934 N.pl3          1 S1                 0.0000
     22 ****         2.8571  -0.3453  -3.1942 C.3            1 S1                 0.0000
     23 ****         3.9474  -1.3464  -2.7364 C.3            1 S1                 0.0000
     24 ****         3.4512  -2.8129  -2.7304 C.3            1 S1                 0.0000
     25 ****         3.0827  -3.2393  -4.0262 O.3            1 S1                 0.0000
     26 ****         5.2558  -1.1699  -3.5475 C.3            1 S1                 0.0000
     27 ****         6.4246  -2.0157  -3.0727 C.3            1 S1                 0.0000
     28 ****         7.6150  -1.3066  -3.7089 C.3            1 S1                 0.0000
     29 ****         7.2596   0.0706  -3.7621 O.3            1 S1                 0.0000
     30 ****         5.8766   0.2283  -3.4620 C.3            1 S1                 0.0000
     31 ****        -1.8095  -2.5771   3.3988 H              1 S1                 0.0000
     32 ****        -0.3818  -1.7971   2.7474 H              1 S1                 0.0000
     33 ****        -1.2689  -2.9678   1.7732 H              1 S1                 0.0000
     34 ****        -3.2602  -1.5005   1.7886 H              1 S1                 0.0000
     35 ****        -2.9062  -0.2382   3.8455 H              1 S1                 0.0000
     36 ****        -1.5375   0.6081   3.1617 H              1 S1                 0.0000
     37 ****        -3.0853   2.1799   4.1723 H              1 S1                 0.0000
     38 ****        -3.4030   3.2216   2.8233 H              1 S1                 0.0000
     39 ****        -5.1831   4.4428   4.2391 H              1 S1                 0.0000
     40 ****        -4.8064   3.3548   5.5691 H              1 S1                 0.0000
     41 ****        -6.4652   3.5131   5.0041 H              1 S1                 0.0000
     42 ****        -5.8871   3.4101   1.9029 H              1 S1                 0.0000
     43 ****        -7.1666   2.5656   2.7643 H              1 S1                 0.0000
     44 ****        -6.0417   1.6618   1.7650 H              1 S1                 0.0000
     45 ****        -6.4277   1.1899   4.6242 H              1 S1                 0.0000
     46 ****        -3.7483   2.2858   0.5816 H              1 S1                 0.0000
     47 ****        -2.0667   2.1696   1.0614 H              1 S1                 0.0000
     48 ****        -3.7787  -0.0782  -0.1351 H              1 S1                 0.0000
     49 ****        -2.4800   0.7588  -0.9451 H              1 S1                 0.0000
     50 ****         2.0798   0.9983   1.7032 H              1 S1                 0.0000
     51 ****         0.3433  -1.3780  -4.0237 H              1 S1                 0.0000
     52 ****         2.6729  -0.4528  -4.2638 H              1 S1                 0.0000
     53 ****         3.1898   0.6815  -3.0411 H              1 S1                 0.0000
     54 ****         4.1812  -1.1030  -1.6992 H              1 S1                 0.0000
     55 ****         4.2215  -3.4820  -2.3478 H              1 S1                 0.0000
     56 ****         2.5965  -2.9344  -2.0651 H              1 S1                 0.0000
     57 ****         2.7999  -4.1398  -3.9767 H              1 S1                 0.0000
     58 ****         5.0686  -1.3994  -4.5979 H              1 S1                 0.0000
     59 ****         6.5056  -1.9787  -1.9852 H              1 S1                 0.0000
     60 ****         6.3536  -3.0605  -3.3762 H              1 S1                 0.0000
     61 ****         8.5390  -1.4605  -3.1511 H              1 S1                 0.0000
     62 ****         7.7701  -1.6641  -4.7277 H              1 S1                 0.0000
     63 ****         5.4071   0.9365  -4.1451 H              1 S1                 0.0000
     64 ****         5.7910   0.6285  -2.4509 H              1 S1                 0.0000
     65 ****        -4.2914   0.6746   2.2138 H              1 S1                 0.0000
     66 ****        -4.9282   0.9985   5.1204 LP             1 S1                 0.0000
     67 ****        -5.4296   0.3615   3.7029 LP             1 S1                 0.0000
     68 ****        -1.9803  -1.4394   0.1117 LP             1 S1                 0.0000
     69 ****        -0.1197   0.4654   2.1403 LP             1 S1                 0.0000
     70 ****         3.0842   0.6241  -0.4116 LP             1 S1                 0.0000
     71 ****        -1.5021  -1.4057  -2.3378 LP             1 S1                 0.0000
     72 ****         3.8676  -3.1656  -4.6414 LP             1 S1                 0.0000
     73 ****         2.3358  -2.6696  -4.3690 LP             1 S1                 0.0000
     74 ****         7.4419   0.4245  -4.6794 LP             1 S1                 0.0000
     75 ****         7.8035   0.5791  -3.0945 LP             1 S1                 0.0000
@<TRIPOS>BOND
    1    1    2 1     
    2    1   31 1     
    3    1   32 1     
    4    1   33 1     
    5    2   12 1     
    6    2    3 1     
    7    2   34 1     
    8    3    4 1     
    9    3   35 1     
   10    3   36 1     
   11    4    5 1     
   12    4   10 1     
   13    4   65 1     
   14    5    6 1     
   15    5   37 1     
   16    5   38 1     
   17    6    7 1     
   18    6    8 1     
   19    6    9 1     
   20    7   39 1     
   21    7   40 1     
   22    7   41 1     
   23    8   42 1     
   24    8   43 1     
   25    8   44 1     
   26    9   45 1     
   27   10   11 1     
   28   10   46 1     
   29   10   47 1     
   30   11   12 1     
   31   11   48 1     
   32   11   49 1     
   33   12   13 1     
   34   13   18 ar    
   35   13   14 ar    
   36   14   15 ar    
   37   15   16 ar    
   38   15   50 1     
   39   16   17 ar    
   40   17   21 1     
   41   17   18 ar    
   42   18   19 1     
   43   19   20 2     
   44   20   21 1     
   45   20   51 1     
   46   21   22 1     
   47   22   23 1     
   48   22   52 1     
   49   22   53 1     
   50   23   24 1     
   51   23   26 1     
   52   23   54 1     
   53   24   25 1     
   54   24   55 1     
   55   24   56 1     
   56   25   57 1     
   57   26   30 1     
   58   26   27 1     
   59   26   58 1     
   60   27   28 1     
   61   27   59 1     
   62   27   60 1     
   63   28   29 1     
   64   28   61 1     
   65   28   62 1     
   66   29   30 1     
   67   30   63 1     
   68   30   64 1     
   69    9   66 1     
   70    9   67 1     
   71   12   68 1     
   72   14   69 1     
   73   16   70 1     
   74   19   71 1     
   75   25   72 1     
   76   25   73 1     
   77   29   74 1     
   78   29   75 1     
@<TRIPOS>SUBSTRUCTURE
      1 S1             1
@<TRIPOS>SET
LONE_PAIRS      STATIC     ATOMS    <user>   **** ""
10 66 67 68 69 70 71 72 73 74 75
DONOR_HYDROGENS      STATIC     ATOMS    <user>   **** ""
3 65 45 57
ATOM$BLUE        STATIC     ATOMS    COLORGROUP SYSTEM
10 66 67 68 69 70 71 72 73 74 75
ATOM$RED        STATIC     ATOMS    COLORGROUP SYSTEM
3 65 45 57
