#       Name:                AV-unprocessed.smi:1033
#       Creating user name   scv26
#       Creation time:       Fri Mar 27 02:52:06 2020


#       File generated by GOLD software.
#

@<TRIPOS>MOLECULE
AV-unprocessed.smi:1033
    62    64     1
SMALL
NO_CHARGES


@<TRIPOS>ATOM
      1 ****        -5.2944   1.6471  -2.4642 C.3            1 S1                 0.0000
      2 ****        -4.2731   1.9314  -1.3769 C.ar           1 S1                 0.0000
      3 ****        -3.3985   3.0308  -1.5271 C.ar           1 S1                 0.0000
      4 ****        -2.4368   3.3312  -0.5385 C.ar           1 S1                 0.0000
      5 ****        -1.4939   4.3425  -0.4802 N.2            1 S1                 0.0000
      6 ****        -0.9016   4.0911   0.6831 C.2            1 S1                 0.0000
      7 ****        -1.3386   3.0237   1.3794 N.pl3          1 S1                 0.0000
      8 ****        -0.8394   2.5483   2.6570 C.3            1 S1                 0.0000
      9 ****        -0.1006   1.1992   2.5421 C.3            1 S1                 0.0000
     10 ****         0.4156   0.8781   3.8177 O.3            1 S1                 0.0000
     11 ****         1.0626   1.2185   1.5245 C.3            1 S1                 0.0000
     12 ****         1.7410  -0.0974   1.3969 N.4            1 S1                 1.0000
     13 ****         3.1186   0.0325   0.8600 C.3            1 S1                 0.0000
     14 ****         3.8360  -1.3302   0.8355 C.3            1 S1                 0.0000
     15 ****         3.0729  -2.3417   0.0625 N.4            1 S1                 1.0000
     16 ****         3.1837  -2.1719  -1.4117 C.3            1 S1                 0.0000
     17 ****         2.9852  -3.4940  -2.1803 C.3            1 S1                 0.0000
     18 ****         2.9214  -3.2667  -3.6961 C.3            1 S1                 0.0000
     19 ****         4.0730  -4.3580  -1.9194 O.3            1 S1                 0.0000
     20 ****         1.6805  -2.4610   0.5707 C.3            1 S1                 0.0000
     21 ****         0.9563  -1.0992   0.6285 C.3            1 S1                 0.0000
     22 ****        -2.3700   2.4922   0.6124 C.ar           1 S1                 0.0000
     23 ****        -3.2365   1.3967   0.7746 C.ar           1 S1                 0.0000
     24 ****        -4.1932   1.1123  -0.2221 C.ar           1 S1                 0.0000
     25 ****        -5.1267  -0.0710  -0.0376 C.3            1 S1                 0.0000
     26 ****        -5.2181   2.3664  -3.2801 H              1 S1                 0.0000
     27 ****        -6.3063   1.7041  -2.0625 H              1 S1                 0.0000
     28 ****        -5.1422   0.6515  -2.8812 H              1 S1                 0.0000
     29 ****        -3.4607   3.6562  -2.4058 H              1 S1                 0.0000
     30 ****        -0.0956   4.7130   1.0446 H              1 S1                 0.0000
     31 ****        -0.1760   3.3089   3.0720 H              1 S1                 0.0000
     32 ****        -1.6841   2.4634   3.3423 H              1 S1                 0.0000
     33 ****        -0.8270   0.4339   2.2732 H              1 S1                 0.0000
     34 ****        -0.2944   0.8892   4.4426 H              1 S1                 0.0000
     35 ****         0.7174   1.5287   0.5373 H              1 S1                 0.0000
     36 ****         1.7832   1.9731   1.8443 H              1 S1                 0.0000
     37 ****         3.0826   0.4630  -0.1421 H              1 S1                 0.0000
     38 ****         3.6898   0.7249   1.4794 H              1 S1                 0.0000
     39 ****         4.8463  -1.2277   0.4373 H              1 S1                 0.0000
     40 ****         3.9509  -1.6957   1.8569 H              1 S1                 0.0000
     41 ****         2.4650  -1.4265  -1.7522 H              1 S1                 0.0000
     42 ****         4.1670  -1.7726  -1.6659 H              1 S1                 0.0000
     43 ****         2.0673  -3.9927  -1.8714 H              1 S1                 0.0000
     44 ****         2.0819  -2.6233  -3.9601 H              1 S1                 0.0000
     45 ****         2.7928  -4.2087  -4.2304 H              1 S1                 0.0000
     46 ****         3.8319  -2.7958  -4.0685 H              1 S1                 0.0000
     47 ****         4.0076  -4.6823  -1.0345 H              1 S1                 0.0000
     48 ****         1.1063  -3.1695  -0.0252 H              1 S1                 0.0000
     49 ****         1.7253  -2.8832   1.5757 H              1 S1                 0.0000
     50 ****        -0.0209  -1.2459   1.0868 H              1 S1                 0.0000
     51 ****         0.7693  -0.7225  -0.3778 H              1 S1                 0.0000
     52 ****        -3.1695   0.7821   1.6599 H              1 S1                 0.0000
     53 ****        -4.9347  -0.5871   0.9035 H              1 S1                 0.0000
     54 ****        -4.9966  -0.7899  -0.8466 H              1 S1                 0.0000
     55 ****        -6.1656   0.2593  -0.0313 H              1 S1                 0.0000
     56 ****         3.5264  -3.2242   0.2536 H              1 S1                 0.0000
     57 ****         1.8372  -0.4524   2.3382 H              1 S1                 0.0000
     58 ****        -1.3072   5.0707  -1.1397 LP             1 S1                 0.0000
     59 ****         1.1064   1.5516   4.0807 LP             1 S1                 0.0000
     60 ****         0.8294  -0.0320   3.7942 LP             1 S1                 0.0000
     61 ****         4.9315  -3.8572  -2.0294 LP             1 S1                 0.0000
     62 ****         4.0509  -5.1261  -2.5595 LP             1 S1                 0.0000
@<TRIPOS>BOND
    1    1    2 1     
    2    1   26 1     
    3    1   27 1     
    4    1   28 1     
    5    2   24 ar    
    6    2    3 ar    
    7    3    4 ar    
    8    3   29 1     
    9    4   22 ar    
   10    4    5 1     
   11    5    6 2     
   12    6    7 1     
   13    6   30 1     
   14    7    8 1     
   15    7   22 1     
   16    8    9 1     
   17    8   31 1     
   18    8   32 1     
   19    9   10 1     
   20    9   11 1     
   21    9   33 1     
   22   10   34 1     
   23   11   12 1     
   24   11   35 1     
   25   11   36 1     
   26   12   21 1     
   27   12   13 1     
   28   12   57 1     
   29   13   14 1     
   30   13   37 1     
   31   13   38 1     
   32   14   15 1     
   33   14   39 1     
   34   14   40 1     
   35   15   16 1     
   36   15   20 1     
   37   15   56 1     
   38   16   17 1     
   39   16   41 1     
   40   16   42 1     
   41   17   18 1     
   42   17   19 1     
   43   17   43 1     
   44   18   44 1     
   45   18   45 1     
   46   18   46 1     
   47   19   47 1     
   48   20   21 1     
   49   20   48 1     
   50   20   49 1     
   51   21   50 1     
   52   21   51 1     
   53   22   23 ar    
   54   23   24 ar    
   55   23   52 1     
   56   24   25 1     
   57   25   53 1     
   58   25   54 1     
   59   25   55 1     
   60    5   58 1     
   61   10   59 1     
   62   10   60 1     
   63   19   61 1     
   64   19   62 1     
@<TRIPOS>SUBSTRUCTURE
      1 S1             1
@<TRIPOS>SET
LONE_PAIRS      STATIC     ATOMS    <user>   **** ""
5 58 59 60 61 62
DONOR_HYDROGENS      STATIC     ATOMS    <user>   **** ""
4 34 57 56 47
ATOM$BLUE        STATIC     ATOMS    COLORGROUP SYSTEM
5 58 59 60 61 62
ATOM$RED        STATIC     ATOMS    COLORGROUP SYSTEM
4 34 57 56 47
