AV-unprocessed.smi:2845|AV-procd|sdf|10946|dock7
  -GOLD-   2272015393D 1   1.00000     0.00000
 Structure written by MMmdl.
 42 44  0  0  0  0  0  0  0  0  1 V2000
  153.3593  142.5913  161.6974 C   0  0  0  0  0  0  0  0  0  0  0  0
  152.7451  142.2907  160.3416 C   0  0  0  0  0  0  0  0  0  0  0  0
  153.0624  141.0732  159.6986 C   0  0  0  0  0  0  0  0  0  0  0  0
  152.5139  140.7559  158.4368 C   0  0  0  0  0  0  0  0  0  0  0  0
  152.6897  139.6396  157.6373 N   0  0  0  0  0  0  0  0  0  0  0  0
  151.9212  139.9352  156.5934 C   0  0  0  0  0  0  0  0  0  0  0  0
  151.2640  141.1104  156.6229 N   0  0  0  0  0  0  0  0  0  0  0  0
  150.3792  141.6385  155.5992 C   0  0  0  0  0  0  0  0  0  0  0  0
  148.8917  141.4218  155.9351 C   0  0  1  0  0  0  0  0  0  0  0  0
  148.4781  142.3724  156.8989 O   0  0  0  0  0  0  0  0  0  0  0  0
  147.9981  141.5228  154.6845 C   0  0  0  0  0  0  0  0  0  0  0  0
  146.7194  142.1485  154.9682 N   0  0  0  0  0  0  0  0  0  0  0  0
  145.7387  141.7729  155.7945 C   0  0  0  0  0  0  0  0  0  0  0  0
  144.7008  142.5986  155.8110 N   0  0  0  0  0  0  0  0  0  0  0  0
  145.1482  143.5198  154.9096 C   0  0  0  0  0  0  0  0  0  0  0  0
  144.1476  144.9754  154.4693 S   0  0  2  0  0  0  0  0  0  0  0  0
  142.5147  144.2330  154.9419 C   0  0  0  0  0  0  0  0  0  0  0  0
  144.1782  145.0619  152.9419 O   0  0  0  0  0  0  0  0  0  0  0  0
  146.3465  143.3046  154.3693 N   0  0  0  0  0  0  0  0  0  0  0  0
  151.6297  141.6962  157.8307 C   0  0  0  0  0  0  0  0  0  0  0  0
  151.3050  142.9103  158.4620 C   0  0  0  0  0  0  0  0  0  0  0  0
  151.8637  143.2125  159.7217 C   0  0  0  0  0  0  0  0  0  0  0  0
  151.5087  144.5273  160.3935 C   0  0  0  0  0  0  0  0  0  0  0  0
  154.0180  141.7859  162.0239 H   0  0  0  0  0  0  0  0  0  0  0  0
  152.5807  142.7128  162.4508 H   0  0  0  0  0  0  0  0  0  0  0  0
  153.9480  143.5078  161.6556 H   0  0  0  0  0  0  0  0  0  0  0  0
  153.7332  140.3702  160.1703 H   0  0  0  0  0  0  0  0  0  0  0  0
  151.8283  139.2569  155.7576 H   0  0  0  0  0  0  0  0  0  0  0  0
  150.5883  142.7002  155.4627 H   0  0  0  0  0  0  0  0  0  0  0  0
  150.6262  141.1495  154.6562 H   0  0  0  0  0  0  0  0  0  0  0  0
  148.7704  140.4303  156.3738 H   0  0  0  0  0  0  0  0  0  0  0  0
  148.7663  143.2288  156.6211 H   0  0  0  0  0  0  0  0  0  0  0  0
  148.5017  142.0801  153.8926 H   0  0  0  0  0  0  0  0  0  0  0  0
  147.7995  140.5268  154.2864 H   0  0  0  0  0  0  0  0  0  0  0  0
  145.7873  140.8787  156.3985 H   0  0  0  0  0  0  0  0  0  0  0  0
  142.6420  143.4204  155.6572 H   0  0  0  0  0  0  0  0  0  0  0  0
  142.0098  143.8416  154.0588 H   0  0  0  0  0  0  0  0  0  0  0  0
  141.8781  144.9920  155.3964 H   0  0  0  0  0  0  0  0  0  0  0  0
  150.6307  143.6030  157.9808 H   0  0  0  0  0  0  0  0  0  0  0  0
  150.8035  145.1029  159.7934 H   0  0  0  0  0  0  0  0  0  0  0  0
  152.4016  145.1362  160.5357 H   0  0  0  0  0  0  0  0  0  0  0  0
  151.0513  144.3489  161.3669 H   0  0  0  0  0  0  0  0  0  0  0  0
  1  2  1  0  0  0  0
  1 24  1  0  0  0  0
  1 25  1  0  0  0  0
  1 26  1  0  0  0  0
  2 22  1  0  0  0  0
  2  3  2  0  0  0  0
  3  4  1  0  0  0  0
  3 27  1  0  0  0  0
  4 20  2  0  0  0  0
  4  5  1  0  0  0  0
  5  6  2  0  0  0  0
  6  7  1  0  0  0  0
  6 28  1  0  0  0  0
  7  8  1  0  0  0  0
  7 20  1  0  0  0  0
  8  9  1  0  0  0  0
  8 29  1  0  0  0  0
  8 30  1  0  0  0  0
  9 10  1  0  0  0  0
  9 11  1  0  0  0  0
  9 31  1  0  0  0  0
 10 32  1  0  0  0  0
 11 12  1  0  0  0  0
 11 33  1  0  0  0  0
 11 34  1  0  0  0  0
 12 19  1  0  0  0  0
 12 13  1  0  0  0  0
 13 14  2  0  0  0  0
 13 35  1  0  0  0  0
 14 15  1  0  0  0  0
 15 16  1  0  0  0  0
 15 19  2  0  0  0  0
 16 17  1  0  0  0  0
 16 18  2  0  0  0  0
 17 36  1  0  0  0  0
 17 37  1  0  0  0  0
 17 38  1  0  0  0  0
 20 21  1  0  0  0  0
 21 22  2  0  0  0  0
 21 39  1  0  0  0  0
 22 23  1  0  0  0  0
 23 40  1  0  0  0  0
 23 41  1  0  0  0  0
 23 42  1  0  0  0  0
M  END
> <s_m_source_file>
AV-unprocessed.smi

> <i_m_source_file_index>
2845

> <i_lp_mmshare_version>
43012

> <i_f3d_flags>
0

> <s_epik_input>
W0NIM11jKFtjSF0xKWMoW0NIM10pW2NIXWMoYzEyKW4oW2NIXW4yKVtDSDJdW0NASF0oW09IXSlbQ0gyXW4zW2NIXW5jKG4zKVtTQF0oPU8pW0NIM10=

> <s_epik_cmdline>
J2VwaWtfcHl0aG9uJywgJy1waCcsICc3LjAnLCAnLXRuJywgJzgnLCAnLW1hJywgJzIwMCcsICctbWV0YWxfYmluZGluZycsICctaW1hZScsICc8aW5maWxlLm1hZT4nLCAnLW9tYWUnLCAnPG91dGZpbGUubWFlPic=

> <r_lp_tautomer_probability>
1

> <r_epik_Ionization_Penalty>
0.0968684

> <r_epik_Ionization_Penalty_Charging>
0

> <r_epik_Ionization_Penalty_Neutral>
0.0968684

> <r_epik_State_Penalty>
0.0870047

> <r_epik_Charging_Adjusted_Penalty>
0.0870047

> <i_epik_Tot_Q>
0

> <i_epik_Tot_abs_Q>
0

> <r_epik_Metal_State_Penalty>
0.0746849

> <b_epik_Metal_Only>
0

> <s_lp_Force_Field>
OPLS_2005

> <r_lp_Energy>
9.68664

> <b_lp_Chiralities_Consistent>
1

> <s_lp_Variant>
AV-unprocessed.smi:2845-4

> <Gold.Version>
5.8.1

> <Gold.Id.Protein>
6NUR|6NUR_protein|mol2

> <Gold.PLP.Fitness>
48.4202

> <Gold.PLP.PLP>
-44.3739

> <Gold.PLP.part.hbond>
-3.0265

> <Gold.PLP.part.metal>
0.0000

> <Gold.PLP.part.buried>
-6.9213

> <Gold.PLP.part.nonpolar>
-35.4407

> <Gold.PLP.part.repulsive>
0.9470

> <Gold.PLP.ligand.clash>
0.0000

> <Gold.PLP.ligand.torsion>
1.4928

> <Gold.PLP.Chemscore.Hbond>
2.0000

> <Gold.PLP.Chemscore.CHOScore>
0.0000

> <Gold.PLP.Chemscore.Metal>
0.0000

> <Gold.Chemscore.Hbonds>
donor molecule, donor type, donor heavy atom, donor atom, acceptor molecule, acceptor atom, score
      L1  H    10    32       P1  8028  1.00
      P1  H  7997  8008       L1     5  1.00

> <Gold.PLP.Chemscore.Internal.Correction>
1.0319

> <Gold.Rescore>
     Score         DG    S(hbond)    S(metal)    S(lipo)     H(rot)  DE(clash)    DE(int)     intcor
      9.57     -12.95       0.83        0.00      99.49       2.71       0.83       2.55       ----

> <Gold.Chemscore.Fitness>
9.5685

> <Gold.Chemscore.DG>
-12.9456

> <Gold.Chemscore.ZeroCoef>
-5.4800

> <Gold.Chemscore.Hbond>
0.8277

> <Gold.Chemscore.Metal>
0.0000

> <Gold.Chemscore.Lipo>
99.4935

> <Gold.Chemscore.Internal_Hbond>
0.0000

> <Gold.Chemscore.DEClash>
0.8288

> <Gold.Chemscore.DEInternal>
2.5483

> <Gold.Chemscore.Rot>
2.7108

> <Gold.Chemscore.Internal.Correction>
   9.000000E+99

> <Gold.Chemscore.Hbonds>
donor molecule, donor type, donor heavy atom, donor atom, acceptor molecule, acceptor atom, score
      L1  H    10    32       P1  8028  0.85
      P1  H  7997  8008       L1     5  0.06

> <Gold.Chemscore.Hbond.Weighted>
-2.7645

> <Gold.Chemscore.Metal.Weighted>
-0.0000

> <Gold.Chemscore.Lipo.Weighted>
-11.6407

> <Gold.Chemscore.Internal_Hbond.Weighted>
0.0000

> <Gold.Chemscore.DEClash.Weighted>
0.8288

> <Gold.Chemscore.DEInternal.Weighted>
2.5483

> <Gold.Chemscore.Rot.Weighted>
6.9396

> <Gold.Chemscore.Internal.Correction.Weighted>
   9.000000E+99

> <Gold.Protein.RotatedTorsions>
[ 6907 6896 6895 6894 ] final -109.24 input  -60.11 | X-H torsion
[ 7974 7965 7964 7962 ] final   29.40 input  175.53 | X-H torsion
[ 8008 7997 7996 7995 ] final  -74.69 input   59.86 | X-H torsion
[ 10167 10162 10161 10158 ] final   42.52 input  -65.29 | X-H torsion
[ 10718 10713 10712 10709 ] final  100.22 input   66.30 | X-H torsion
[ 10763 10752 10751 10750 ] final   70.26 input  -60.55 | X-H torsion
[ 11005 11000 10999 10996 ] final  -33.84 input  -57.11 | X-H torsion

> <Gold.Protein.ActiveResidues>
 VAL166  LYS551  ARG553  GLY616  TRP617  ASP618  TYR619  PRO620  LYS621  CYS622 
 ASP623  PHE694  ASN695  SER759  ASP760  ASP761  ALA762  ILE779  LEU786  VAL792 
 PHE793  MET794  SER795  GLU796  ALA797  LYS798  CYS799  TRP800  GLU811  SER814 

> <Gold.Protein.RotatedAtoms>
  150.7550  133.9558  159.3499 H   0  0  0  0  0  0  0  0  0  0  0  0  # atno 6907 bound_to 6896
  151.7480  135.0837  160.0335 H   0  0  0  0  0  0  0  0  0  0  0  0  # atno 6908 bound_to 6896
  152.3485  133.6114  159.5963 H   0  0  0  0  0  0  0  0  0  0  0  0  # atno 6909 bound_to 6896
  146.1674  139.6927  142.8992 H   0  0  0  0  0  0  0  0  0  0  0  0  # atno 7974 bound_to 7965
  154.5353  140.0757  156.8416 H   0  0  0  0  0  0  0  0  0  0  0  0  # atno 8008 bound_to 7997
  155.3292  140.3400  155.4221 H   0  0  0  0  0  0  0  0  0  0  0  0  # atno 8009 bound_to 7997
  156.1821  140.1656  156.8240 H   0  0  0  0  0  0  0  0  0  0  0  0  # atno 8010 bound_to 7997
  140.3535  144.2319  150.6143 H   0  0  0  0  0  0  0  0  0  0  0  0  # atno 10167 bound_to 10162
  157.6859  131.0692  150.5067 H   0  0  0  0  0  0  0  0  0  0  0  0  # atno 10718 bound_to 10713
  153.0332  135.5180  154.7414 H   0  0  0  0  0  0  0  0  0  0  0  0  # atno 10763 bound_to 10752
  154.6412  135.2912  155.0103 H   0  0  0  0  0  0  0  0  0  0  0  0  # atno 10764 bound_to 10752
  154.1020  135.6635  153.4922 H   0  0  0  0  0  0  0  0  0  0  0  0  # atno 10765 bound_to 10752
  140.9668  133.7133  156.1458 H   0  0  0  0  0  0  0  0  0  0  0  0  # atno 11005 bound_to 11000
  145.4432  141.0424  143.2846 LP  0  0  0  0  0  0  0  0  0  0  0  0  # atno 17320 bound_to 7965
  144.8112  139.5959  143.7028 LP  0  0  0  0  0  0  0  0  0  0  0  0  # atno 17321 bound_to 7965
  140.5196  143.2269  151.8410 LP  0  0  0  0  0  0  0  0  0  0  0  0  # atno 17342 bound_to 10162
  139.4823  144.4853  151.9255 LP  0  0  0  0  0  0  0  0  0  0  0  0  # atno 17343 bound_to 10162
  156.5386  130.4202  149.6165 LP  0  0  0  0  0  0  0  0  0  0  0  0  # atno 17370 bound_to 10713
  156.3005  130.7174  151.2045 LP  0  0  0  0  0  0  0  0  0  0  0  0  # atno 17371 bound_to 10713
  140.7388  134.4173  157.5557 LP  0  0  0  0  0  0  0  0  0  0  0  0  # atno 17394 bound_to 11000
  139.8897  134.8823  156.2406 LP  0  0  0  0  0  0  0  0  0  0  0  0  # atno 17395 bound_to 11000

$$$$
