AV-unprocessed.smi:3149|AV-procd|sdf|12002|dock10
  -GOLD-   2272017403D 1   1.00000     0.00000
 Structure written by MMmdl.
 38 39  0  0  0  0  0  0  0  0  2 V2000
  147.5489  141.7567  154.7136 C   0  0  0  0  0  0  0  0  0  0  0  0
  148.8991  141.0918  155.0449 C   0  0  1  0  0  0  0  0  0  0  0  0
  149.2320  141.3073  156.4729 N   0  3  0  0  0  0  0  0  0  0  0  0
  150.6675  141.4907  156.7715 C   0  0  0  0  0  0  0  0  0  0  0  0
  150.9654  141.2339  158.2516 C   0  0  0  0  0  0  0  0  0  0  0  0
  151.0554  140.0837  158.6823 O   0  0  0  0  0  0  0  0  0  0  0  0
  151.2217  142.3449  159.0575 N   0  0  0  0  0  0  0  0  0  0  0  0
  151.9482  143.5002  158.5519 C   0  0  0  0  0  0  0  0  0  0  0  0
  152.4359  143.6878  159.9921 C   0  0  0  0  0  0  0  0  0  0  0  0
  152.0381  142.2317  160.2570 C   0  0  0  0  0  0  0  0  0  0  0  0
  148.9059  139.5713  154.7254 C   0  0  1  0  0  0  0  0  0  0  0  0
  147.9151  139.1792  153.6134 C   0  0  0  0  0  0  0  0  0  0  0  0
  150.2400  139.0954  154.3737 N   0  0  0  0  0  0  0  0  0  0  0  0
  150.5816  137.9425  153.6966 C   0  0  0  0  0  0  0  0  0  0  0  0
  151.9419  137.9237  153.5810 C   0  0  0  0  0  0  0  0  0  0  0  0
  152.3523  139.1293  154.2143 C   0  0  0  0  0  0  0  0  0  0  0  0
  151.3327  139.8303  154.6826 N   0  0  0  0  0  0  0  0  0  0  0  0
  147.3133  141.6831  153.6525 H   0  0  0  0  0  0  0  0  0  0  0  0
  147.5527  142.8194  154.9544 H   0  0  0  0  0  0  0  0  0  0  0  0
  146.7322  141.2947  155.2694 H   0  0  0  0  0  0  0  0  0  0  0  0
  149.6727  141.5689  154.4409 H   0  0  0  0  0  0  0  0  0  0  0  0
  148.7102  142.0970  156.8245 H   0  0  0  0  0  0  0  0  0  0  0  0
  151.2592  140.7971  156.1730 H   0  0  0  0  0  0  0  0  0  0  0  0
  150.9712  142.5028  156.5047 H   0  0  0  0  0  0  0  0  0  0  0  0
  152.7513  143.2435  157.8579 H   0  0  0  0  0  0  0  0  0  0  0  0
  151.3090  144.3024  158.1816 H   0  0  0  0  0  0  0  0  0  0  0  0
  153.5050  143.8833  160.0809 H   0  0  0  0  0  0  0  0  0  0  0  0
  151.8435  144.4083  160.5595 H   0  0  0  0  0  0  0  0  0  0  0  0
  151.4638  142.0754  161.1709 H   0  0  0  0  0  0  0  0  0  0  0  0
  152.8721  141.5338  160.1574 H   0  0  0  0  0  0  0  0  0  0  0  0
  148.6118  139.0361  155.6299 H   0  0  0  0  0  0  0  0  0  0  0  0
  146.8817  139.3565  153.9092 H   0  0  0  0  0  0  0  0  0  0  0  0
  147.9973  138.1183  153.3740 H   0  0  0  0  0  0  0  0  0  0  0  0
  148.1029  139.7396  152.6969 H   0  0  0  0  0  0  0  0  0  0  0  0
  149.8370  137.2373  153.3573 H   0  0  0  0  0  0  0  0  0  0  0  0
  152.5510  137.1665  153.1097 H   0  0  0  0  0  0  0  0  0  0  0  0
  153.3531  139.5144  154.3440 H   0  0  0  0  0  0  0  0  0  0  0  0
  148.9374  140.4825  156.9770 H   0  0  0  0  0  0  0  0  0  0  0  0
  1  2  1  0  0  0  0
  1 18  1  0  0  0  0
  1 19  1  0  0  0  0
  1 20  1  0  0  0  0
  2  3  1  0  0  0  0
  2 11  1  0  0  0  0
  2 21  1  0  0  0  0
  3  4  1  0  0  0  0
  3 22  1  0  0  0  0
  3 38  1  0  0  0  0
  4  5  1  0  0  0  0
  4 23  1  0  0  0  0
  4 24  1  0  0  0  0
  5  6  2  0  0  0  0
  5  7  1  0  0  0  0
  7 10  1  0  0  0  0
  7  8  1  0  0  0  0
  8  9  1  0  0  0  0
  8 25  1  0  0  0  0
  8 26  1  0  0  0  0
  9 10  1  0  0  0  0
  9 27  1  0  0  0  0
  9 28  1  0  0  0  0
 10 29  1  0  0  0  0
 10 30  1  0  0  0  0
 11 12  1  0  0  0  0
 11 13  1  0  0  0  0
 11 31  1  0  0  0  0
 12 32  1  0  0  0  0
 12 33  1  0  0  0  0
 12 34  1  0  0  0  0
 13 17  1  0  0  0  0
 13 14  1  0  0  0  0
 14 15  2  0  0  0  0
 14 35  1  0  0  0  0
 15 16  1  0  0  0  0
 15 36  1  0  0  0  0
 16 17  2  0  0  0  0
 16 37  1  0  0  0  0
M  CHG  1   3   1
M  END
> <s_m_source_file>
AV-unprocessed.smi

> <i_m_source_file_index>
3149

> <i_lp_mmshare_version>
43012

> <i_f3d_flags>
0

> <s_epik_input>
bjFbY0hdW2NIXVtjSF1uMVtDQEBIXShbQ0gzXSlbQ0BIXShbQ0gzXSlbTkhdW0NIMl1DKD1PKU4yW0NIMl1bQ0gyXVtDSDJdMg==

> <s_epik_cmdline>
J2VwaWtfcHl0aG9uJywgJy1waCcsICc3LjAnLCAnLXRuJywgJzgnLCAnLW1hJywgJzIwMCcsICctbWV0YWxfYmluZGluZycsICctaW1hZScsICc8aW5maWxlLm1hZT4nLCAnLW9tYWUnLCAnPG91dGZpbGUubWFlPic=

> <r_lp_tautomer_probability>
1

> <r_epik_Ionization_Penalty>
0.141739

> <r_epik_Ionization_Penalty_Charging>
0.141731

> <r_epik_Ionization_Penalty_Neutral>
8.82171e-06

> <r_epik_State_Penalty>
0.131043

> <r_epik_Charging_Adjusted_Penalty>
0.272773

> <i_epik_Tot_Q>
1

> <i_epik_Tot_abs_Q>
1

> <r_epik_Metal_State_Penalty>
0.131384

> <b_epik_Metal_Only>
0

> <s_lp_Force_Field>
OPLS_2005

> <r_lp_Energy>
20.424

> <b_lp_Chiralities_Consistent>
1

> <s_lp_Variant>
AV-unprocessed.smi:3149-4

> <Gold.Version>
5.8.1

> <Gold.Id.Protein>
6NUR|6NUR_protein|mol2

> <Gold.PLP.Fitness>
50.0462

> <Gold.PLP.PLP>
-42.3913

> <Gold.PLP.part.hbond>
-2.0000

> <Gold.PLP.part.metal>
0.0000

> <Gold.PLP.part.buried>
-2.2782

> <Gold.PLP.part.nonpolar>
-37.5451

> <Gold.PLP.part.repulsive>
0.1672

> <Gold.PLP.ligand.clash>
0.0000

> <Gold.PLP.ligand.torsion>
2.4876

> <Gold.PLP.Chemscore.Hbond>
2.9840

> <Gold.PLP.Chemscore.CHOScore>
0.9156

> <Gold.PLP.Chemscore.Metal>
0.0000

> <Gold.Chemscore.Hbonds>
donor molecule, donor type, donor heavy atom, donor atom, acceptor molecule, acceptor atom, score
      P1  H  7989  7998       L1    17  0.30
      L1  C    14    35       P1  7948  0.84

> <Gold.PLP.Chemscore.Internal.Correction>
0.9313

> <Gold.Rescore>
     Score         DG    S(hbond)    S(metal)    S(lipo)     H(rot)  DE(clash)    DE(int)     intcor
     15.40     -17.81       1.94        0.00      90.51       1.85       0.10       2.31       ----

> <Gold.Chemscore.Fitness>
15.3960

> <Gold.Chemscore.DG>
-17.8078

> <Gold.Chemscore.ZeroCoef>
-5.4800

> <Gold.Chemscore.Hbond>
1.9415

> <Gold.Chemscore.Metal>
0.0000

> <Gold.Chemscore.Lipo>
90.5146

> <Gold.Chemscore.Internal_Hbond>
0.0000

> <Gold.Chemscore.DEClash>
0.1020

> <Gold.Chemscore.DEInternal>
2.3098

> <Gold.Chemscore.Rot>
1.8544

> <Gold.Chemscore.Internal.Correction>
   9.000000E+99

> <Gold.Chemscore.Hbond.Weighted>
-6.4847

> <Gold.Chemscore.Metal.Weighted>
-0.0000

> <Gold.Chemscore.Lipo.Weighted>
-10.5902

> <Gold.Chemscore.Internal_Hbond.Weighted>
0.0000

> <Gold.Chemscore.DEClash.Weighted>
0.1020

> <Gold.Chemscore.DEInternal.Weighted>
2.3098

> <Gold.Chemscore.Rot.Weighted>
4.7472

> <Gold.Chemscore.Internal.Correction.Weighted>
   9.000000E+99

> <Gold.Protein.RotatedTorsions>
[ 6907 6896 6895 6894 ] final  165.75 input  -60.11 | X-H torsion
[ 7974 7965 7964 7962 ] final  161.68 input  175.53 | X-H torsion
[ 8008 7997 7996 7995 ] final -127.88 input   59.86 | X-H torsion
[ 10167 10162 10161 10158 ] final   40.40 input  -65.29 | X-H torsion
[ 10718 10713 10712 10709 ] final  -63.58 input   66.30 | X-H torsion
[ 10763 10752 10751 10750 ] final  174.66 input  -60.55 | X-H torsion
[ 11005 11000 10999 10996 ] final  -15.78 input  -57.11 | X-H torsion

> <Gold.Protein.ActiveResidues>
 VAL166  LYS551  ARG553  GLY616  TRP617  ASP618  TYR619  PRO620  LYS621  CYS622 
 ASP623  PHE694  ASN695  SER759  ASP760  ASP761  ALA762  ILE779  LEU786  VAL792 
 PHE793  MET794  SER795  GLU796  ALA797  LYS798  CYS799  TRP800  GLU811  SER814 

> <Gold.Protein.RotatedAtoms>
  151.8896  133.3513  159.3793 H   0  0  0  0  0  0  0  0  0  0  0  0  # atno 6907 bound_to 6896
  150.7106  134.4937  159.5537 H   0  0  0  0  0  0  0  0  0  0  0  0  # atno 6908 bound_to 6896
  152.2504  134.8138  160.0498 H   0  0  0  0  0  0  0  0  0  0  0  0  # atno 6909 bound_to 6896
  144.7673  139.7932  143.6310 H   0  0  0  0  0  0  0  0  0  0  0  0  # atno 7974 bound_to 7965
  155.2535  140.0433  157.2989 H   0  0  0  0  0  0  0  0  0  0  0  0  # atno 8008 bound_to 7997
  154.5754  140.2386  155.8099 H   0  0  0  0  0  0  0  0  0  0  0  0  # atno 8009 bound_to 7997
  156.2154  140.2986  155.9836 H   0  0  0  0  0  0  0  0  0  0  0  0  # atno 8010 bound_to 7997
  140.3745  144.2061  150.6132 H   0  0  0  0  0  0  0  0  0  0  0  0  # atno 10167 bound_to 10162
  156.0782  130.4222  150.1298 H   0  0  0  0  0  0  0  0  0  0  0  0  # atno 10718 bound_to 10713
  154.4569  135.2766  155.1741 H   0  0  0  0  0  0  0  0  0  0  0  0  # atno 10763 bound_to 10752
  154.3545  135.6143  153.5663 H   0  0  0  0  0  0  0  0  0  0  0  0  # atno 10764 bound_to 10752
  152.9851  135.5819  154.4924 H   0  0  0  0  0  0  0  0  0  0  0  0  # atno 10765 bound_to 10752
  140.8001  133.8220  155.9462 H   0  0  0  0  0  0  0  0  0  0  0  0  # atno 11005 bound_to 11000
  146.1792  139.4977  142.9877 LP  0  0  0  0  0  0  0  0  0  0  0  0  # atno 17320 bound_to 7965
  145.6429  141.0280  143.1802 LP  0  0  0  0  0  0  0  0  0  0  0  0  # atno 17321 bound_to 7965
  140.5000  143.2321  151.8693 LP  0  0  0  0  0  0  0  0  0  0  0  0  # atno 17342 bound_to 10162
  139.4800  144.5070  151.8984 LP  0  0  0  0  0  0  0  0  0  0  0  0  # atno 17343 bound_to 10162
  156.9335  130.9721  151.3529 LP  0  0  0  0  0  0  0  0  0  0  0  0  # atno 17370 bound_to 10713
  157.5887  130.8428  149.8627 LP  0  0  0  0  0  0  0  0  0  0  0  0  # atno 17371 bound_to 10713
  140.9303  134.2031  157.4868 LP  0  0  0  0  0  0  0  0  0  0  0  0  # atno 17394 bound_to 11000
  139.8722  134.9830  156.5179 LP  0  0  0  0  0  0  0  0  0  0  0  0  # atno 17395 bound_to 11000

$$$$
