AV-unprocessed.smi:470|AV-procd|sdf|2657|dock7
  -GOLD-   2262023 73D 1   1.00000     0.00000
 Structure written by MMmdl.
 32 33  0  0  0  0  0  0  0  0  2 V2000
  149.8376  138.5778  153.2881 N   0  0  0  0  0  0  0  0  0  0  0  0
  150.5833  138.9494  154.3329 C   0  0  0  0  0  0  0  0  0  0  0  0
  150.7594  140.1302  154.6263 O   0  0  0  0  0  0  0  0  0  0  0  0
  151.2127  137.8381  155.1771 C   0  0  0  0  0  0  0  0  0  0  0  0
  150.1596  137.1155  155.9663 C   0  0  0  0  0  0  0  0  0  0  0  0
  149.0668  136.4515  155.4720 C   0  0  0  0  0  0  0  0  0  0  0  0
  148.0989  135.7681  156.7462 S   0  0  0  0  0  0  0  0  0  0  0  0
  149.2169  136.4324  157.9389 C   0  0  0  0  0  0  0  0  0  0  0  0
  149.0999  136.2911  159.2705 N   0  5  0  0  0  0  0  0  0  0  0  0
  147.9419  136.4644  159.9696 C   0  0  0  0  0  0  0  0  0  0  0  0
  147.6443  137.4942  160.5718 O   0  0  0  0  0  0  0  0  0  0  0  0
  146.9450  135.2666  160.0000 C   0  0  1  0  0  0  0  0  0  0  0  0
  147.6033  133.9772  160.5520 C   0  0  0  0  0  0  0  0  0  0  0  0
  147.5926  133.8943  162.0681 C   0  0  0  0  0  0  0  0  0  0  0  0
  146.7871  134.6335  162.8481 C   0  0  0  0  0  0  0  0  0  0  0  0
  145.7956  135.6483  162.3107 C   0  0  0  0  0  0  0  0  0  0  0  0
  145.6388  135.5767  160.7752 C   0  0  0  0  0  0  0  0  0  0  0  0
  150.2400  137.0718  157.3610 N   0  0  0  0  0  0  0  0  0  0  0  0
  149.4204  139.2779  152.6927 H   0  0  0  0  0  0  0  0  0  0  0  0
  149.7113  137.5959  153.0870 H   0  0  0  0  0  0  0  0  0  0  0  0
  151.7428  137.1438  154.5240 H   0  0  0  0  0  0  0  0  0  0  0  0
  151.9639  138.2741  155.8369 H   0  0  0  0  0  0  0  0  0  0  0  0
  148.7717  136.3269  154.4410 H   0  0  0  0  0  0  0  0  0  0  0  0
  146.6091  135.0536  158.9864 H   0  0  0  0  0  0  0  0  0  0  0  0
  147.0898  133.0986  160.1610 H   0  0  0  0  0  0  0  0  0  0  0  0
  148.6380  133.8993  160.2186 H   0  0  0  0  0  0  0  0  0  0  0  0
  148.2634  133.1777  162.5187 H   0  0  0  0  0  0  0  0  0  0  0  0
  146.8354  134.5249  163.9214 H   0  0  0  0  0  0  0  0  0  0  0  0
  144.8280  135.4872  162.7863 H   0  0  0  0  0  0  0  0  0  0  0  0
  146.1256  136.6399  162.6196 H   0  0  0  0  0  0  0  0  0  0  0  0
  145.1882  136.4999  160.4082 H   0  0  0  0  0  0  0  0  0  0  0  0
  144.9198  134.7900  160.5434 H   0  0  0  0  0  0  0  0  0  0  0  0
  1  2  1  0  0  0  0
  1 19  1  0  0  0  0
  1 20  1  0  0  0  0
  2  3  2  0  0  0  0
  2  4  1  0  0  0  0
  4  5  1  0  0  0  0
  4 21  1  0  0  0  0
  4 22  1  0  0  0  0
  5 18  1  0  0  0  0
  5  6  2  0  0  0  0
  6  7  1  0  0  0  0
  6 23  1  0  0  0  0
  7  8  1  0  0  0  0
  8  9  1  0  0  0  0
  8 18  2  0  0  0  0
  9 10  1  0  0  0  0
 10 11  2  0  0  0  0
 10 12  1  0  0  0  0
 12 17  1  0  0  0  0
 12 13  1  0  0  0  0
 12 24  1  0  0  0  0
 13 14  1  0  0  0  0
 13 25  1  0  0  0  0
 13 26  1  0  0  0  0
 14 15  2  0  0  0  0
 14 27  1  0  0  0  0
 15 16  1  0  0  0  0
 15 28  1  0  0  0  0
 16 17  1  0  0  0  0
 16 29  1  0  0  0  0
 16 30  1  0  0  0  0
 17 31  1  0  0  0  0
 17 32  1  0  0  0  0
M  CHG  1   9  -1
M  END
> <s_m_source_file>
AV-unprocessed.smi

> <i_m_source_file_index>
470

> <i_lp_mmshare_version>
43012

> <i_f3d_flags>
0

> <s_epik_input>
W05IMl1DKD1PKVtDSDJdYzFbY0hdc2MobjEpW05IXUMoPU8pW0NAQEhdMltDSDJdW0NIXT1bQ0hdW0NIMl1bQ0gyXTI=

> <s_epik_cmdline>
J2VwaWtfcHl0aG9uJywgJy1waCcsICc3LjAnLCAnLXRuJywgJzgnLCAnLW1hJywgJzIwMCcsICctbWV0YWxfYmluZGluZycsICctaW1hZScsICc8aW5maWxlLm1hZT4nLCAnLW9tYWUnLCAnPG91dGZpbGUubWFlPic=

> <r_lp_tautomer_probability>
1

> <r_epik_Ionization_Penalty>
4.98985

> <r_epik_Ionization_Penalty_Charging>
4.63309

> <r_epik_Ionization_Penalty_Neutral>
0.356756

> <r_epik_State_Penalty>
4.63286

> <r_epik_Charging_Adjusted_Penalty>
9.26595

> <i_epik_Tot_Q>
-1

> <i_epik_Tot_abs_Q>
1

> <r_epik_Metal_State_Penalty>
0.88943

> <b_epik_Metal_Only>
1

> <s_lp_Force_Field>
OPLS_2005

> <r_lp_Energy>
8.68361

> <b_lp_Chiralities_Consistent>
1

> <s_lp_Variant>
AV-unprocessed.smi:470-4

> <Gold.Version>
5.8.1

> <Gold.Id.Protein>
6NUR|6NUR_protein|mol2

> <Gold.PLP.Fitness>
49.1803

> <Gold.PLP.PLP>
-29.1945

> <Gold.PLP.part.hbond>
-6.3933

> <Gold.PLP.part.metal>
0.0000

> <Gold.PLP.part.buried>
-3.3307

> <Gold.PLP.part.nonpolar>
-19.5164

> <Gold.PLP.part.repulsive>
0.1696

> <Gold.PLP.ligand.clash>
0.0000

> <Gold.PLP.ligand.torsion>
1.2310

> <Gold.PLP.Chemscore.Hbond>
6.4656

> <Gold.PLP.Chemscore.CHOScore>
1.0000

> <Gold.PLP.Chemscore.Metal>
0.0000

> <Gold.Chemscore.Hbonds>
donor molecule, donor type, donor heavy atom, donor atom, acceptor molecule, acceptor atom, score
      L1  H     1    19       P1  7957  0.82
      L1  H     1    20       P1  7948  0.94
      P1  H  6896  6908       L1     9  0.29
      P1  H  6931  6943       L1    11  0.58
      P1  H  6934  6947       L1    11  0.90
      P1  H  7989  7998       L1     3  1.00
      L1  C     6    23       P1  7948  0.89

> <Gold.PLP.Chemscore.Internal.Correction>
0.0512

> <Gold.Rescore>
     Score         DG    S(hbond)    S(metal)    S(lipo)     H(rot)  DE(clash)    DE(int)     intcor
     19.54     -22.04       4.38        0.00      57.40       1.87       0.13       2.38       ----

> <Gold.Chemscore.Fitness>
19.5379

> <Gold.Chemscore.DG>
-22.0423

> <Gold.Chemscore.ZeroCoef>
-5.4800

> <Gold.Chemscore.Hbond>
4.3807

> <Gold.Chemscore.Metal>
0.0000

> <Gold.Chemscore.Lipo>
57.3957

> <Gold.Chemscore.Internal_Hbond>
0.0000

> <Gold.Chemscore.DEClash>
0.1292

> <Gold.Chemscore.DEInternal>
2.3752

> <Gold.Chemscore.Rot>
1.8689

> <Gold.Chemscore.Internal.Correction>
   9.000000E+99

> <Gold.Chemscore.Hbonds>
donor molecule, donor type, donor heavy atom, donor atom, acceptor molecule, acceptor atom, score
      L1  H     1    19       P1  7957  0.81
      L1  H     1    20       P1  7948  0.59
      P1  H  6896  6908       L1     9  0.03
      P1  H  6931  6943       L1    11  0.53
      P1  H  6934  6947       L1    11  0.88
      P1  H  7989  7998       L1     3  0.77

> <Gold.Chemscore.Hbond.Weighted>
-14.6315

> <Gold.Chemscore.Metal.Weighted>
-0.0000

> <Gold.Chemscore.Lipo.Weighted>
-6.7153

> <Gold.Chemscore.Internal_Hbond.Weighted>
0.0000

> <Gold.Chemscore.DEClash.Weighted>
0.1292

> <Gold.Chemscore.DEInternal.Weighted>
2.3752

> <Gold.Chemscore.Rot.Weighted>
4.7844

> <Gold.Chemscore.Internal.Correction.Weighted>
   9.000000E+99

> <Gold.Protein.RotatedTorsions>
[ 6907 6896 6895 6894 ] final  164.86 input  -60.11 | X-H torsion
[ 7974 7965 7964 7962 ] final   75.77 input  175.53 | X-H torsion
[ 8008 7997 7996 7995 ] final  -56.56 input   59.86 | X-H torsion
[ 10167 10162 10161 10158 ] final  129.35 input  -65.29 | X-H torsion
[ 10718 10713 10712 10709 ] final   54.69 input   66.30 | X-H torsion
[ 10763 10752 10751 10750 ] final  146.93 input  -60.55 | X-H torsion
[ 11005 11000 10999 10996 ] final  162.44 input  -57.11 | X-H torsion

> <Gold.Protein.ActiveResidues>
 VAL166  LYS551  ARG553  GLY616  TRP617  ASP618  TYR619  PRO620  LYS621  CYS622 
 ASP623  PHE694  ASN695  SER759  ASP760  ASP761  ALA762  ILE779  LEU786  VAL792 
 PHE793  MET794  SER795  GLU796  ALA797  LYS798  CYS799  TRP800  GLU811  SER814 

> <Gold.Protein.RotatedAtoms>
  151.9034  133.3543  159.3838 H   0  0  0  0  0  0  0  0  0  0  0  0  # atno 6907 bound_to 6896
  150.7075  134.4805  159.5477 H   0  0  0  0  0  0  0  0  0  0  0  0  # atno 6908 bound_to 6896
  152.2398  134.8240  160.0513 H   0  0  0  0  0  0  0  0  0  0  0  0  # atno 6909 bound_to 6896
  145.7114  139.2616  143.1648 H   0  0  0  0  0  0  0  0  0  0  0  0  # atno 7974 bound_to 7965
  154.4234  140.1127  156.5656 H   0  0  0  0  0  0  0  0  0  0  0  0  # atno 8008 bound_to 7997
  155.6265  140.3495  155.4650 H   0  0  0  0  0  0  0  0  0  0  0  0  # atno 8009 bound_to 7997
  155.9982  140.1193  157.0562 H   0  0  0  0  0  0  0  0  0  0  0  0  # atno 8010 bound_to 7997
  139.5482  144.6791  151.4406 H   0  0  0  0  0  0  0  0  0  0  0  0  # atno 10167 bound_to 10162
  157.5279  130.8610  149.8647 H   0  0  0  0  0  0  0  0  0  0  0  0  # atno 10718 bound_to 10713
  154.0300  135.2898  155.3369 H   0  0  0  0  0  0  0  0  0  0  0  0  # atno 10763 bound_to 10752
  154.6993  135.5195  153.8507 H   0  0  0  0  0  0  0  0  0  0  0  0  # atno 10764 bound_to 10752
  153.0644  135.6625  154.0514 H   0  0  0  0  0  0  0  0  0  0  0  0  # atno 10765 bound_to 10752
  140.2258  134.8162  157.3267 H   0  0  0  0  0  0  0  0  0  0  0  0  # atno 11005 bound_to 11000
  146.0709  140.7870  142.9688 LP  0  0  0  0  0  0  0  0  0  0  0  0  # atno 17320 bound_to 7965
  144.6941  140.3341  143.7211 LP  0  0  0  0  0  0  0  0  0  0  0  0  # atno 17321 bound_to 7965
  140.6737  143.8238  150.7031 LP  0  0  0  0  0  0  0  0  0  0  0  0  # atno 17342 bound_to 10162
  140.1670  143.4227  152.2028 LP  0  0  0  0  0  0  0  0  0  0  0  0  # atno 17343 bound_to 10162
  156.0400  130.3741  150.1459 LP  0  0  0  0  0  0  0  0  0  0  0  0  # atno 17370 bound_to 10713
  156.9645  130.9815  151.3472 LP  0  0  0  0  0  0  0  0  0  0  0  0  # atno 17371 bound_to 10713
  140.1802  134.4499  155.7777 LP  0  0  0  0  0  0  0  0  0  0  0  0  # atno 17394 bound_to 11000
  141.2220  133.6980  156.7855 LP  0  0  0  0  0  0  0  0  0  0  0  0  # atno 17395 bound_to 11000

$$$$
