AV-unprocessed.smi:1304|AV-procd|sdf|5432|dock1
  -GOLD-   22720 4593D 1   1.00000     0.00000
 Structure written by MMmdl.
 48 49  0  0  0  0  0  0  0  0  2 V2000
  151.9983  138.7184  154.9747 C   0  0  0  0  0  0  0  0  0  0  0  0
  151.2031  138.3757  156.2472 C   0  0  0  0  0  0  0  0  0  0  0  0
  150.6233  139.5937  157.0312 C   0  0  2  0  0  0  0  0  0  0  0  0
  151.7648  140.6361  157.1681 C   0  0  0  0  0  0  0  0  0  0  0  0
  150.1773  139.1469  158.4599 C   0  0  0  0  0  0  0  0  0  0  0  0
  149.0375  138.2310  158.4552 N   0  0  0  0  0  0  0  0  0  0  0  0
  149.0706  136.9379  158.8121 C   0  0  0  0  0  0  0  0  0  0  0  0
  150.1017  136.3534  159.1455 O   0  0  0  0  0  0  0  0  0  0  0  0
  147.7292  136.1943  158.7894 C   0  0  0  0  0  0  0  0  0  0  0  0
  147.4772  135.4568  160.0385 N   0  0  0  0  0  0  0  0  0  0  0  0
  147.5743  134.0518  159.9895 C   0  0  0  0  0  0  0  0  0  0  0  0
  147.3693  133.2880  161.0743 C   0  0  0  0  0  0  0  0  0  0  0  0
  147.0409  133.9427  162.3184 C   0  0  0  0  0  0  0  0  0  0  0  0
  146.9468  135.2862  162.3769 C   0  0  0  0  0  0  0  0  0  0  0  0
  147.1707  136.1253  161.1940 C   0  0  0  0  0  0  0  0  0  0  0  0
  147.0903  137.3536  161.2387 O   0  0  0  0  0  0  0  0  0  0  0  0
  149.4604  140.1822  156.2711 N   0  3  0  0  0  0  0  0  0  0  0  0
  148.6254  141.1645  157.0196 C   0  0  0  0  0  0  0  0  0  0  0  0
  147.3630  141.5196  156.2177 C   0  0  0  0  0  0  0  0  0  0  0  0
  147.7369  142.0464  154.9525 O   0  0  0  0  0  0  0  0  0  0  0  0
  148.4664  141.1004  154.1835 C   0  0  0  0  0  0  0  0  0  0  0  0
  149.7652  140.7211  154.9155 C   0  0  0  0  0  0  0  0  0  0  0  0
  152.3794  137.8087  154.5099 H   0  0  0  0  0  0  0  0  0  0  0  0
  152.8573  139.3533  155.1906 H   0  0  0  0  0  0  0  0  0  0  0  0
  151.3815  139.2252  154.2328 H   0  0  0  0  0  0  0  0  0  0  0  0
  150.4097  137.6745  155.9898 H   0  0  0  0  0  0  0  0  0  0  0  0
  151.8680  137.8059  156.8962 H   0  0  0  0  0  0  0  0  0  0  0  0
  152.6936  140.1750  157.5067 H   0  0  0  0  0  0  0  0  0  0  0  0
  151.5267  141.4104  157.8974 H   0  0  0  0  0  0  0  0  0  0  0  0
  151.9802  141.1306  156.2206 H   0  0  0  0  0  0  0  0  0  0  0  0
  150.9892  138.6241  158.9643 H   0  0  0  0  0  0  0  0  0  0  0  0
  149.9447  140.0073  159.0874 H   0  0  0  0  0  0  0  0  0  0  0  0
  148.1447  138.6207  158.1883 H   0  0  0  0  0  0  0  0  0  0  0  0
  146.9136  136.8962  158.6036 H   0  0  0  0  0  0  0  0  0  0  0  0
  147.7295  135.5207  157.9316 H   0  0  0  0  0  0  0  0  0  0  0  0
  147.8302  133.6396  159.0243 H   0  0  0  0  0  0  0  0  0  0  0  0
  147.4512  132.2124  161.0187 H   0  0  0  0  0  0  0  0  0  0  0  0
  146.8709  133.3526  163.2068 H   0  0  0  0  0  0  0  0  0  0  0  0
  146.7005  135.7584  163.3168 H   0  0  0  0  0  0  0  0  0  0  0  0
  148.3135  140.7718  157.9853 H   0  0  0  0  0  0  0  0  0  0  0  0
  149.1904  142.0771  157.2103 H   0  0  0  0  0  0  0  0  0  0  0  0
  146.7215  140.6462  156.0903 H   0  0  0  0  0  0  0  0  0  0  0  0
  146.7789  142.2693  156.7515 H   0  0  0  0  0  0  0  0  0  0  0  0
  147.8544  140.2167  153.9950 H   0  0  0  0  0  0  0  0  0  0  0  0
  148.6973  141.5396  153.2128 H   0  0  0  0  0  0  0  0  0  0  0  0
  150.4100  141.5967  154.9931 H   0  0  0  0  0  0  0  0  0  0  0  0
  150.2859  139.9910  154.2985 H   0  0  0  0  0  0  0  0  0  0  0  0
  148.8514  139.3941  156.1030 H   0  0  0  0  0  0  0  0  0  0  0  0
  1  2  1  0  0  0  0
  1 23  1  0  0  0  0
  1 24  1  0  0  0  0
  1 25  1  0  0  0  0
  2  3  1  0  0  0  0
  2 26  1  0  0  0  0
  2 27  1  0  0  0  0
  3  4  1  0  0  0  0
  3  5  1  0  0  0  0
  3 17  1  0  0  0  0
  4 28  1  0  0  0  0
  4 29  1  0  0  0  0
  4 30  1  0  0  0  0
  5  6  1  0  0  0  0
  5 31  1  0  0  0  0
  5 32  1  0  0  0  0
  6  7  1  0  0  0  0
  6 33  1  0  0  0  0
  7  8  2  0  0  0  0
  7  9  1  0  0  0  0
  9 10  1  0  0  0  0
  9 34  1  0  0  0  0
  9 35  1  0  0  0  0
 10 15  1  0  0  0  0
 10 11  1  0  0  0  0
 11 12  2  0  0  0  0
 11 36  1  0  0  0  0
 12 13  1  0  0  0  0
 12 37  1  0  0  0  0
 13 14  2  0  0  0  0
 13 38  1  0  0  0  0
 14 15  1  0  0  0  0
 14 39  1  0  0  0  0
 15 16  2  0  0  0  0
 17 22  1  0  0  0  0
 17 18  1  0  0  0  0
 17 48  1  0  0  0  0
 18 19  1  0  0  0  0
 18 40  1  0  0  0  0
 18 41  1  0  0  0  0
 19 20  1  0  0  0  0
 19 42  1  0  0  0  0
 19 43  1  0  0  0  0
 20 21  1  0  0  0  0
 21 22  1  0  0  0  0
 21 44  1  0  0  0  0
 21 45  1  0  0  0  0
 22 46  1  0  0  0  0
 22 47  1  0  0  0  0
M  CHG  1  17   1
M  END
> <s_m_source_file>
AV-unprocessed.smi

> <i_m_source_file_index>
1304

> <i_lp_mmshare_version>
43012

> <i_f3d_flags>
0

> <s_epik_input>
W0NIMl0xW0NIMl1PW0NIMl1bQ0gyXU4xW0NAQF0oW0NIM10pKFtDSDJdW0NIM10pW0NIMl1bTkhdQyg9TylbQ0gyXW4yW2NIXVtjSF1bY0hdW2NIXWMyPU8=

> <s_epik_cmdline>
J2VwaWtfcHl0aG9uJywgJy1waCcsICc3LjAnLCAnLXRuJywgJzgnLCAnLW1hJywgJzIwMCcsICctbWV0YWxfYmluZGluZycsICctaW1hZScsICc8aW5maWxlLm1hZT4nLCAnLW9tYWUnLCAnPG91dGZpbGUubWFlPic=

> <r_lp_tautomer_probability>
1

> <r_epik_Ionization_Penalty>
0.519658

> <r_epik_Ionization_Penalty_Charging>
0.519658

> <r_epik_Ionization_Penalty_Neutral>
8.70177e-08

> <r_epik_State_Penalty>
0.527569

> <r_epik_Charging_Adjusted_Penalty>
1.04723

> <i_epik_Tot_Q>
1

> <i_epik_Tot_abs_Q>
1

> <r_epik_Metal_State_Penalty>
0.527613

> <b_epik_Metal_Only>
0

> <s_lp_Force_Field>
OPLS_2005

> <r_lp_Energy>
37.518

> <b_lp_Chiralities_Consistent>
1

> <s_lp_Variant>
AV-unprocessed.smi:1304-4

> <Gold.Version>
5.8.1

> <Gold.Id.Protein>
6NUR|6NUR_protein|mol2

> <Gold.PLP.Fitness>
44.9173

> <Gold.PLP.PLP>
-37.4896

> <Gold.PLP.part.hbond>
-3.0000

> <Gold.PLP.part.metal>
0.0000

> <Gold.PLP.part.buried>
-5.1582

> <Gold.PLP.part.nonpolar>
-30.0356

> <Gold.PLP.part.repulsive>
0.9543

> <Gold.PLP.ligand.clash>
0.0000

> <Gold.PLP.ligand.torsion>
0.5636

> <Gold.PLP.Chemscore.Hbond>
2.7600

> <Gold.PLP.Chemscore.CHOScore>
0.0000

> <Gold.PLP.Chemscore.Metal>
0.0000

> <Gold.Chemscore.Hbonds>
donor molecule, donor type, donor heavy atom, donor atom, acceptor molecule, acceptor atom, score
      P1  H  6896  6907       L1     8  1.00
      P1  H  6931  6943       L1    16  0.36
      P1  H  6934  6947       L1    16  1.00

> <Gold.PLP.Chemscore.Internal.Correction>
0.2751

> <Gold.Rescore>
     Score         DG    S(hbond)    S(metal)    S(lipo)     H(rot)  DE(clash)    DE(int)     intcor
     17.63     -18.54       2.74        0.00      77.82       2.03       0.00       0.91       ----

> <Gold.Chemscore.Fitness>
17.6260

> <Gold.Chemscore.DG>
-18.5400

> <Gold.Chemscore.ZeroCoef>
-5.4800

> <Gold.Chemscore.Hbond>
2.7398

> <Gold.Chemscore.Metal>
0.0000

> <Gold.Chemscore.Lipo>
77.8216

> <Gold.Chemscore.Internal_Hbond>
0.0000

> <Gold.Chemscore.DEClash>
0.0048

> <Gold.Chemscore.DEInternal>
0.9092

> <Gold.Chemscore.Rot>
2.0298

> <Gold.Chemscore.Internal.Correction>
   9.000000E+99

> <Gold.Chemscore.Hbonds>
donor molecule, donor type, donor heavy atom, donor atom, acceptor molecule, acceptor atom, score
      P1  H  6896  6907       L1     8  1.00
      P1  H  6931  6943       L1    16  0.29
      P1  H  6934  6947       L1    16  0.98

> <Gold.Chemscore.Hbond.Weighted>
-9.1511

> <Gold.Chemscore.Metal.Weighted>
-0.0000

> <Gold.Chemscore.Lipo.Weighted>
-9.1051

> <Gold.Chemscore.Internal_Hbond.Weighted>
0.0000

> <Gold.Chemscore.DEClash.Weighted>
0.0048

> <Gold.Chemscore.DEInternal.Weighted>
0.9092

> <Gold.Chemscore.Rot.Weighted>
5.1962

> <Gold.Chemscore.Internal.Correction.Weighted>
   9.000000E+99

> <Gold.Protein.RotatedTorsions>
[ 6907 6896 6895 6894 ] final  -44.50 input  -60.11 | X-H torsion
[ 7974 7965 7964 7962 ] final -132.70 input  175.53 | X-H torsion
[ 8008 7997 7996 7995 ] final -172.21 input   59.86 | X-H torsion
[ 10167 10162 10161 10158 ] final   17.48 input  -65.29 | X-H torsion
[ 10718 10713 10712 10709 ] final   22.88 input   66.30 | X-H torsion
[ 10763 10752 10751 10750 ] final -117.68 input  -60.55 | X-H torsion
[ 11005 11000 10999 10996 ] final   95.53 input  -57.11 | X-H torsion

> <Gold.Protein.ActiveResidues>
 VAL166  LYS551  ARG553  GLY616  TRP617  ASP618  TYR619  PRO620  LYS621  CYS622 
 ASP623  PHE694  ASN695  SER759  ASP760  ASP761  ALA762  ILE779  LEU786  VAL792 
 PHE793  MET794  SER795  GLU796  ALA797  LYS798  CYS799  TRP800  GLU811  SER814 

> <Gold.Protein.RotatedAtoms>
  150.9322  134.8736  159.7558 H   0  0  0  0  0  0  0  0  0  0  0  0  # atno 6907 bound_to 6896
  152.5043  134.4063  159.9443 H   0  0  0  0  0  0  0  0  0  0  0  0  # atno 6908 bound_to 6896
  151.4089  133.3694  159.2776 H   0  0  0  0  0  0  0  0  0  0  0  0  # atno 6909 bound_to 6896
  144.9261  140.7072  143.4935 H   0  0  0  0  0  0  0  0  0  0  0  0  # atno 7974 bound_to 7965
  155.9416  140.1109  157.1051 H   0  0  0  0  0  0  0  0  0  0  0  0  # atno 8008 bound_to 7997
  154.4090  140.1218  156.5000 H   0  0  0  0  0  0  0  0  0  0  0  0  # atno 8009 bound_to 7997
  155.6955  140.3472  155.4913 H   0  0  0  0  0  0  0  0  0  0  0  0  # atno 8010 bound_to 7997
  140.5722  143.9139  150.6722 H   0  0  0  0  0  0  0  0  0  0  0  0  # atno 10167 bound_to 10162
  157.1584  130.6706  149.6035 H   0  0  0  0  0  0  0  0  0  0  0  0  # atno 10718 bound_to 10713
  154.8563  135.4301  154.2017 H   0  0  0  0  0  0  0  0  0  0  0  0  # atno 10763 bound_to 10752
  153.3063  135.6972  153.7163 H   0  0  0  0  0  0  0  0  0  0  0  0  # atno 10764 bound_to 10752
  153.6273  135.3491  155.3004 H   0  0  0  0  0  0  0  0  0  0  0  0  # atno 10765 bound_to 10752
  139.8788  134.8903  156.4024 H   0  0  0  0  0  0  0  0  0  0  0  0  # atno 11005 bound_to 11000
  145.3217  139.1786  143.4584 LP  0  0  0  0  0  0  0  0  0  0  0  0  # atno 17320 bound_to 7965
  146.3226  140.3236  142.8635 LP  0  0  0  0  0  0  0  0  0  0  0  0  # atno 17321 bound_to 7965
  140.2617  143.3519  152.1317 LP  0  0  0  0  0  0  0  0  0  0  0  0  # atno 17342 bound_to 10162
  139.5124  144.6916  151.5745 LP  0  0  0  0  0  0  0  0  0  0  0  0  # atno 17343 bound_to 10162
  155.9758  130.4720  150.6484 LP  0  0  0  0  0  0  0  0  0  0  0  0  # atno 17370 bound_to 10713
  157.4155  131.0829  151.1180 LP  0  0  0  0  0  0  0  0  0  0  0  0  # atno 17371 bound_to 10713
  140.9257  133.7614  155.9962 LP  0  0  0  0  0  0  0  0  0  0  0  0  # atno 17394 bound_to 11000
  140.8388  134.3091  157.5321 LP  0  0  0  0  0  0  0  0  0  0  0  0  # atno 17395 bound_to 11000

$$$$
