#       Name:                AV-unprocessed.smi:2164
#       Creating user name   scv26
#       Creation time:       Fri Mar 27 11:59:44 2020


#       File generated by GOLD software.
#

@<TRIPOS>MOLECULE
AV-unprocessed.smi:2164
    43    45     1
SMALL
NO_CHARGES


@<TRIPOS>ATOM
      1 ****         1.5486   0.9923  -1.1501 O.2            1 S1                 0.0000
      2 ****         1.1289  -0.1527  -0.9737 C.2            1 S1                 0.0000
      3 ****         1.9600  -1.2029  -0.8471 N.am           1 S1                 0.0000
      4 ****         3.4203  -1.1448  -0.8544 C.3            1 S1                 0.0000
      5 ****         4.0110  -1.1345   0.5690 C.3            1 S1                 0.0000
      6 ****         3.5054   0.0111   1.4286 C.ar           1 S1                 0.0000
      7 ****         4.0004   1.3195   1.2514 C.ar           1 S1                 0.0000
      8 ****         3.4776   2.3558   2.0487 C.ar           1 S1                 0.0000
      9 ****         2.4797   2.0381   2.9917 C.ar           1 S1                 0.0000
     10 ****         2.0006   0.7886   3.1727 N.ar           1 S1                 0.0000
     11 ****         2.5090  -0.1995   2.4060 C.ar           1 S1                 0.0000
     12 ****        -0.2879  -0.5057  -0.8621 C.2            1 S1                 0.0000
     13 ****        -1.2206   0.4653  -0.8817 C.2            1 S1                 0.0000
     14 ****        -2.5917   0.2214  -0.7799 N.pl3          1 S1                 0.0000
     15 ****        -3.4889   1.3683  -0.7068 C.3            1 S1                 0.0000
     16 ****        -4.7266   1.1224  -1.5542 C.3            1 S1                 0.0000
     17 ****        -5.5840  -0.3170  -0.8093 S.o2           1 S1                 0.0000
     18 ****        -5.9515   0.0367   0.5707 O.2            1 S1                 0.0000
     19 ****        -6.6306  -0.7581  -1.7436 O.2            1 S1                 0.0000
     20 ****        -4.3398  -1.4405  -0.7760 N.2            1 S1                 0.0000
     21 ****        -3.0856  -1.1070  -0.7328 C.2            1 S1                 0.0000
     22 ****        -2.0798  -2.1551  -0.6637 C.2            1 S1                 0.0000
     23 ****        -0.7613  -1.8768  -0.7256 C.2            1 S1                 0.0000
     24 ****         1.5460  -2.1127  -0.7059 H              1 S1                 0.0000
     25 ****         3.7911  -2.0156  -1.3954 H              1 S1                 0.0000
     26 ****         3.7693  -0.2737  -1.4114 H              1 S1                 0.0000
     27 ****         3.7846  -2.0785   1.0662 H              1 S1                 0.0000
     28 ****         5.0985  -1.0758   0.5137 H              1 S1                 0.0000
     29 ****         4.7589   1.5281   0.5111 H              1 S1                 0.0000
     30 ****         3.8295   3.3707   1.9374 H              1 S1                 0.0000
     31 ****         2.0541   2.8090   3.6171 H              1 S1                 0.0000
     32 ****         2.0964  -1.1846   2.5673 H              1 S1                 0.0000
     33 ****        -0.9624   1.5109  -0.9767 H              1 S1                 0.0000
     34 ****        -3.7603   1.5479   0.3340 H              1 S1                 0.0000
     35 ****        -2.9892   2.2709  -1.0603 H              1 S1                 0.0000
     36 ****        -5.4018   1.9777  -1.5401 H              1 S1                 0.0000
     37 ****        -4.4740   0.8977  -2.5910 H              1 S1                 0.0000
     38 ****        -2.3638  -3.1934  -0.5711 H              1 S1                 0.0000
     39 ****        -0.0691  -2.7041  -0.6721 H              1 S1                 0.0000
     40 ****         2.5327   1.1615  -1.2029 LP             1 S1                 0.0000
     41 ****         0.9050   1.7524  -1.2405 LP             1 S1                 0.0000
     42 ****         1.2919   0.6012   3.8529 LP             1 S1                 0.0000
     43 ****        -4.5745  -2.4124  -0.7901 LP             1 S1                 0.0000
@<TRIPOS>BOND
    1    1    2 2     
    2    2    3 am    
    3    2   12 1     
    4    3    4 1     
    5    3   24 1     
    6    4    5 1     
    7    4   25 1     
    8    4   26 1     
    9    5    6 1     
   10    5   27 1     
   11    5   28 1     
   12    6   11 ar    
   13    6    7 ar    
   14    7    8 ar    
   15    7   29 1     
   16    8    9 ar    
   17    8   30 1     
   18    9   10 ar    
   19    9   31 1     
   20   10   11 ar    
   21   11   32 1     
   22   12   23 1     
   23   12   13 2     
   24   13   14 1     
   25   13   33 1     
   26   14   21 1     
   27   14   15 1     
   28   15   16 1     
   29   15   34 1     
   30   15   35 1     
   31   16   17 1     
   32   16   36 1     
   33   16   37 1     
   34   17   18 2     
   35   17   19 2     
   36   17   20 1     
   37   20   21 2     
   38   21   22 1     
   39   22   23 2     
   40   22   38 1     
   41   23   39 1     
   42    1   40 1     
   43    1   41 1     
   44   10   42 1     
   45   20   43 1     
@<TRIPOS>SUBSTRUCTURE
      1 S1             1
@<TRIPOS>SET
LONE_PAIRS      STATIC     ATOMS    <user>   **** ""
6 40 41 42 18 19 43
DONOR_HYDROGENS      STATIC     ATOMS    <user>   **** ""
1 24
ATOM$BLUE        STATIC     ATOMS    COLORGROUP SYSTEM
6 40 41 42 18 19 43
ATOM$RED        STATIC     ATOMS    COLORGROUP SYSTEM
1 24
