AV-unprocessed.smi:1260|AV-procd|sdf|5293|dock7
  -GOLD-   22720 4413D 1   1.00000     0.00000
 Structure written by MMmdl.
 37 39  0  0  0  0  0  0  0  0  2 V2000
  150.2173  140.0643  154.1540 O   0  0  0  0  0  0  0  0  0  0  0  0
  149.6138  139.0884  154.5983 C   0  0  0  0  0  0  0  0  0  0  0  0
  150.3443  137.7593  154.7854 C   0  0  0  0  0  0  0  0  0  0  0  0
  151.5995  137.9607  155.4843 N   0  0  0  0  0  0  0  0  0  0  0  0
  152.1885  139.0737  155.9267 C   0  0  0  0  0  0  0  0  0  0  0  0
  153.3339  138.8118  156.5369 N   0  0  0  0  0  0  0  0  0  0  0  0
  153.4307  137.4333  156.4454 N   0  0  0  0  0  0  0  0  0  0  0  0
  152.4037  136.9225  155.8232 N   0  0  0  0  0  0  0  0  0  0  0  0
  148.3111  139.1071  154.9220 N   0  0  0  0  0  0  0  0  0  0  0  0
  147.4234  140.2566  154.7700 C   0  0  2  0  0  0  0  0  0  0  0  0
  147.3867  140.8012  153.3356 C   0  0  0  0  0  0  0  0  0  0  0  0
  147.2763  142.3323  153.4826 C   0  0  0  0  0  0  0  0  0  0  0  0
  147.2099  142.6193  154.9348 N   0  3  1  0  0  0  0  0  0  0  0  0
  145.8122  142.8486  155.3954 C   0  0  0  0  0  0  0  0  0  0  0  0
  145.7068  142.9079  156.9249 C   0  0  0  0  0  0  0  0  0  0  0  0
  146.2480  141.6162  157.5427 C   0  0  0  0  0  0  0  0  0  0  0  0
  147.7048  141.4208  157.1122 C   0  0  0  0  0  0  0  0  0  0  0  0
  147.8949  141.4723  155.5789 C   0  0  1  0  0  0  0  0  0  0  0  0
  149.7201  137.0673  155.3528 H   0  0  0  0  0  0  0  0  0  0  0  0
  150.5480  137.2940  153.8200 H   0  0  0  0  0  0  0  0  0  0  0  0
  151.7786  140.0659  155.8090 H   0  0  0  0  0  0  0  0  0  0  0  0
  147.9018  138.2589  155.2865 H   0  0  0  0  0  0  0  0  0  0  0  0
  146.4046  139.9921  155.0587 H   0  0  0  0  0  0  0  0  0  0  0  0
  148.2976  140.5495  152.7903 H   0  0  0  0  0  0  0  0  0  0  0  0
  146.5465  140.3851  152.7783 H   0  0  0  0  0  0  0  0  0  0  0  0
  148.1720  142.8050  153.0781 H   0  0  0  0  0  0  0  0  0  0  0  0
  146.4237  142.7405  152.9373 H   0  0  0  0  0  0  0  0  0  0  0  0
  145.4454  143.7806  154.9639 H   0  0  0  0  0  0  0  0  0  0  0  0
  145.1621  142.0564  155.0207 H   0  0  0  0  0  0  0  0  0  0  0  0
  146.2632  143.7659  157.3048 H   0  0  0  0  0  0  0  0  0  0  0  0
  144.6677  143.0549  157.2207 H   0  0  0  0  0  0  0  0  0  0  0  0
  146.1811  141.6616  158.6302 H   0  0  0  0  0  0  0  0  0  0  0  0
  145.6433  140.7648  157.2283 H   0  0  0  0  0  0  0  0  0  0  0  0
  148.3056  142.2120  157.5630 H   0  0  0  0  0  0  0  0  0  0  0  0
  148.0962  140.4875  157.5171 H   0  0  0  0  0  0  0  0  0  0  0  0
  148.9629  141.6015  155.3896 H   0  0  0  0  0  0  0  0  0  0  0  0
  147.7315  143.4611  155.1340 H   0  0  0  0  0  0  0  0  0  0  0  0
  1  2  2  0  0  0  0
  2  3  1  0  0  0  0
  2  9  1  0  0  0  0
  3  4  1  0  0  0  0
  3 19  1  0  0  0  0
  3 20  1  0  0  0  0
  4  8  1  0  0  0  0
  4  5  1  0  0  0  0
  5  6  2  0  0  0  0
  5 21  1  0  0  0  0
  6  7  1  0  0  0  0
  7  8  2  0  0  0  0
  9 10  1  0  0  0  0
  9 22  1  0  0  0  0
 10 18  1  0  0  0  0
 10 11  1  0  0  0  0
 10 23  1  0  0  0  0
 11 12  1  0  0  0  0
 11 24  1  0  0  0  0
 11 25  1  0  0  0  0
 12 13  1  0  0  0  0
 12 26  1  0  0  0  0
 12 27  1  0  0  0  0
 13 18  1  0  0  0  0
 13 14  1  0  0  0  0
 13 37  1  0  0  0  0
 14 15  1  0  0  0  0
 14 28  1  0  0  0  0
 14 29  1  0  0  0  0
 15 16  1  0  0  0  0
 15 30  1  0  0  0  0
 15 31  1  0  0  0  0
 16 17  1  0  0  0  0
 16 32  1  0  0  0  0
 16 33  1  0  0  0  0
 17 18  1  0  0  0  0
 17 34  1  0  0  0  0
 17 35  1  0  0  0  0
 18 36  1  0  0  0  0
M  CHG  1  13   1
M  END
> <s_m_source_file>
AV-unprocessed.smi

> <i_m_source_file_index>
1260

> <i_lp_mmshare_version>
43012

> <i_f3d_flags>
0

> <s_epik_input>
bjFubltjSF1uMVtDSDJdQyg9TylbTkhdW0NASF0oW0NIMl1bQ0gyXTIpW0NAQEhdKE4yMylbQ0gyXVtDSDJdW0NIMl1bQ0gyXTM=

> <s_epik_cmdline>
J2VwaWtfcHl0aG9uJywgJy1waCcsICc3LjAnLCAnLXRuJywgJzgnLCAnLW1hJywgJzIwMCcsICctbWV0YWxfYmluZGluZycsICctaW1hZScsICc8aW5maWxlLm1hZT4nLCAnLW9tYWUnLCAnPG91dGZpbGUubWFlPic=

> <r_lp_tautomer_probability>
1

> <r_epik_Ionization_Penalty>
0.00234324

> <r_epik_Ionization_Penalty_Charging>
0.00233897

> <r_epik_Ionization_Penalty_Neutral>
4.26861e-06

> <r_epik_State_Penalty>
0.00161477

> <r_epik_Charging_Adjusted_Penalty>
0.00395374

> <i_epik_Tot_Q>
1

> <i_epik_Tot_abs_Q>
1

> <r_epik_Metal_State_Penalty>
-0

> <b_epik_Metal_Only>
0

> <s_lp_Force_Field>
OPLS_2005

> <r_lp_Energy>
39.6077

> <b_lp_Chiralities_Consistent>
1

> <s_lp_Variant>
AV-unprocessed.smi:1260-1

> <Gold.Version>
5.8.1

> <Gold.Id.Protein>
6NUR|6NUR_protein|mol2

> <Gold.PLP.Fitness>
40.6164

> <Gold.PLP.PLP>
-26.4913

> <Gold.PLP.part.hbond>
-4.8181

> <Gold.PLP.part.metal>
0.0000

> <Gold.PLP.part.buried>
-6.9517

> <Gold.PLP.part.nonpolar>
-16.6935

> <Gold.PLP.part.repulsive>
1.2235

> <Gold.PLP.ligand.clash>
0.0000

> <Gold.PLP.ligand.torsion>
0.1430

> <Gold.PLP.Chemscore.Hbond>
4.8000

> <Gold.PLP.Chemscore.CHOScore>
0.0000

> <Gold.PLP.Chemscore.Metal>
0.0000

> <Gold.Chemscore.Hbonds>
donor molecule, donor type, donor heavy atom, donor atom, acceptor molecule, acceptor atom, score
      L1  H    13    37       P1  8028  2.00
      P1  H  7989  7998       L1     1  1.00
      P1  H  7997  8010       L1     6  1.00
      P1  H 10752 10765       L1     8  0.90

> <Gold.PLP.Chemscore.Internal.Correction>
0.0112

> <Gold.Rescore>
     Score         DG    S(hbond)    S(metal)    S(lipo)     H(rot)  DE(clash)    DE(int)     intcor
     12.03     -15.17       3.16        0.00      35.88       1.98       0.57       2.57       ----

> <Gold.Chemscore.Fitness>
12.0276

> <Gold.Chemscore.DG>
-15.1694

> <Gold.Chemscore.ZeroCoef>
-5.4800

> <Gold.Chemscore.Hbond>
3.1583

> <Gold.Chemscore.Metal>
0.0000

> <Gold.Chemscore.Lipo>
35.8828

> <Gold.Chemscore.Internal_Hbond>
0.0000

> <Gold.Chemscore.DEClash>
0.5742

> <Gold.Chemscore.DEInternal>
2.5676

> <Gold.Chemscore.Rot>
1.9757

> <Gold.Chemscore.Internal.Correction>
   9.000000E+99

> <Gold.Chemscore.Hbonds>
donor molecule, donor type, donor heavy atom, donor atom, acceptor molecule, acceptor atom, score
      L1  H    13    37       P1  8028  0.30
      P1  H  7989  7998       L1     1  0.95
      P1  H  7997  8010       L1     6  0.79
      P1  H 10752 10765       L1     8  0.35

> <Gold.Chemscore.Hbond.Weighted>
-10.5489

> <Gold.Chemscore.Metal.Weighted>
-0.0000

> <Gold.Chemscore.Lipo.Weighted>
-4.1983

> <Gold.Chemscore.Internal_Hbond.Weighted>
0.0000

> <Gold.Chemscore.DEClash.Weighted>
0.5742

> <Gold.Chemscore.DEInternal.Weighted>
2.5676

> <Gold.Chemscore.Rot.Weighted>
5.0578

> <Gold.Chemscore.Internal.Correction.Weighted>
   9.000000E+99

> <Gold.Protein.RotatedTorsions>
[ 6907 6896 6895 6894 ] final -122.23 input  -60.11 | X-H torsion
[ 7974 7965 7964 7962 ] final  141.64 input  175.53 | X-H torsion
[ 8008 7997 7996 7995 ] final   70.75 input   59.86 | X-H torsion
[ 10167 10162 10161 10158 ] final  -23.37 input  -65.29 | X-H torsion
[ 10718 10713 10712 10709 ] final  121.13 input   66.30 | X-H torsion
[ 10763 10752 10751 10750 ] final -157.56 input  -60.55 | X-H torsion
[ 11005 11000 10999 10996 ] final   85.15 input  -57.11 | X-H torsion

> <Gold.Protein.ActiveResidues>
 VAL166  LYS551  ARG553  GLY616  TRP617  ASP618  TYR619  PRO620  LYS621  CYS622 
 ASP623  PHE694  ASN695  SER759  ASP760  ASP761  ALA762  ILE779  LEU786  VAL792 
 PHE793  MET794  SER795  GLU796  ALA797  LYS798  CYS799  TRP800  GLU811  SER814 

> <Gold.Protein.RotatedAtoms>
  150.8556  133.7720  159.3009 H   0  0  0  0  0  0  0  0  0  0  0  0  # atno 6907 bound_to 6896
  151.5378  135.1067  159.9928 H   0  0  0  0  0  0  0  0  0  0  0  0  # atno 6908 bound_to 6896
  152.4587  133.7734  159.6867 H   0  0  0  0  0  0  0  0  0  0  0  0  # atno 6909 bound_to 6896
  144.9078  139.5334  143.5723 H   0  0  0  0  0  0  0  0  0  0  0  0  # atno 7974 bound_to 7965
  155.7435  140.3490  155.5115 H   0  0  0  0  0  0  0  0  0  0  0  0  # atno 8008 bound_to 7997
  155.9072  140.1044  157.1328 H   0  0  0  0  0  0  0  0  0  0  0  0  # atno 8009 bound_to 7997
  154.4051  140.1275  156.4498 H   0  0  0  0  0  0  0  0  0  0  0  0  # atno 8010 bound_to 7997
  140.7288  143.4449  151.0601 H   0  0  0  0  0  0  0  0  0  0  0  0  # atno 10167 bound_to 10162
  157.5840  131.1072  150.8131 H   0  0  0  0  0  0  0  0  0  0  0  0  # atno 10718 bound_to 10713
  154.7626  135.3122  154.8348 H   0  0  0  0  0  0  0  0  0  0  0  0  # atno 10763 bound_to 10752
  153.9105  135.6806  153.4755 H   0  0  0  0  0  0  0  0  0  0  0  0  # atno 10764 bound_to 10752
  153.1228  135.4814  154.9156 H   0  0  0  0  0  0  0  0  0  0  0  0  # atno 10765 bound_to 10752
  139.8979  134.8267  156.2543 H   0  0  0  0  0  0  0  0  0  0  0  0  # atno 11005 bound_to 11000
  146.3143  139.7860  142.8996 LP  0  0  0  0  0  0  0  0  0  0  0  0  # atno 17320 bound_to 7965
  145.3506  141.0306  143.3341 LP  0  0  0  0  0  0  0  0  0  0  0  0  # atno 17321 bound_to 7965
  139.8120  143.7938  152.3172 LP  0  0  0  0  0  0  0  0  0  0  0  0  # atno 17342 bound_to 10162
  139.7990  144.7381  150.9850 LP  0  0  0  0  0  0  0  0  0  0  0  0  # atno 17343 bound_to 10162
  156.8570  130.5100  149.5307 LP  0  0  0  0  0  0  0  0  0  0  0  0  # atno 17370 bound_to 10713
  156.0888  130.5879  150.9696 LP  0  0  0  0  0  0  0  0  0  0  0  0  # atno 17371 bound_to 10713
  141.0203  133.7045  156.1258 LP  0  0  0  0  0  0  0  0  0  0  0  0  # atno 17394 bound_to 11000
  140.7242  134.4325  157.5572 LP  0  0  0  0  0  0  0  0  0  0  0  0  # atno 17395 bound_to 11000

$$$$
