AV-unprocessed.smi:1802|AV-procd|sdf|7271|dock6
  -GOLD-   22720 8533D 1   1.00000     0.00000
 Structure written by MMmdl.
 41 42  0  0  0  0  0  0  0  0  2 V2000
  147.0844  131.7725  152.6685 C   0  0  0  0  0  0  0  0  0  0  0  0
  145.8537  132.5736  152.2205 C   0  0  2  0  0  0  0  0  0  0  0  0
  145.2369  131.9849  150.9407 C   0  0  0  0  0  0  0  0  0  0  0  0
  144.0246  132.8167  150.5057 C   0  0  0  0  0  0  0  0  0  0  0  0
  144.4061  134.2958  150.3403 C   0  0  0  0  0  0  0  0  0  0  0  0
  144.9952  134.8419  151.5906 N   0  3  2  0  0  0  0  0  0  0  0  0
  145.2463  136.3025  151.4944 C   0  0  0  0  0  0  0  0  0  0  0  0
  145.9717  136.8645  152.7295 C   0  0  0  0  0  0  0  0  0  0  0  0
  146.2096  138.3800  152.6203 C   0  0  0  0  0  0  0  0  0  0  0  0
  147.6291  138.7121  152.6690 N   0  0  0  0  0  0  0  0  0  0  0  0
  148.4197  138.5413  153.7385 C   0  0  0  0  0  0  0  0  0  0  0  0
  148.0137  138.1052  154.8162 O   0  0  0  0  0  0  0  0  0  0  0  0
  149.6868  138.9050  153.4729 N   0  0  0  0  0  0  0  0  0  0  0  0
  150.8165  138.8468  154.3316 C   0  0  0  0  0  0  0  0  0  0  0  0
  151.5762  139.9109  154.6353 N   0  0  0  0  0  0  0  0  0  0  0  0
  152.6136  139.5796  155.4971 N   0  0  0  0  0  0  0  0  0  0  0  0
  152.5962  138.2805  155.8082 C   0  0  0  0  0  0  0  0  0  0  0  0
  151.3105  137.3343  155.0788 S   0  0  0  0  0  0  0  0  0  0  0  0
  146.1917  134.0646  152.0148 C   0  0  0  0  0  0  0  0  0  0  0  0
  147.8714  131.7978  151.9142 H   0  0  0  0  0  0  0  0  0  0  0  0
  146.8283  130.7278  152.8474 H   0  0  0  0  0  0  0  0  0  0  0  0
  147.4982  132.1720  153.5948 H   0  0  0  0  0  0  0  0  0  0  0  0
  145.1104  132.5038  153.0164 H   0  0  0  0  0  0  0  0  0  0  0  0
  145.9787  131.9712  150.1407 H   0  0  0  0  0  0  0  0  0  0  0  0
  144.9365  130.9494  151.1053 H   0  0  0  0  0  0  0  0  0  0  0  0
  143.6233  132.4284  149.5691 H   0  0  0  0  0  0  0  0  0  0  0  0
  143.2290  132.7227  151.2461 H   0  0  0  0  0  0  0  0  0  0  0  0
  145.1166  134.4132  149.5203 H   0  0  0  0  0  0  0  0  0  0  0  0
  143.5149  134.8645  150.0714 H   0  0  0  0  0  0  0  0  0  0  0  0
  145.8033  136.5244  150.5827 H   0  0  0  0  0  0  0  0  0  0  0  0
  144.2910  136.8217  151.4043 H   0  0  0  0  0  0  0  0  0  0  0  0
  145.3847  136.6541  153.6246 H   0  0  0  0  0  0  0  0  0  0  0  0
  146.9298  136.3630  152.8630 H   0  0  0  0  0  0  0  0  0  0  0  0
  145.7687  138.7710  151.7016 H   0  0  0  0  0  0  0  0  0  0  0  0
  145.7149  138.8948  153.4443 H   0  0  0  0  0  0  0  0  0  0  0  0
  148.0424  139.0760  151.8226 H   0  0  0  0  0  0  0  0  0  0  0  0
  149.8693  139.2509  152.5423 H   0  0  0  0  0  0  0  0  0  0  0  0
  153.3462  137.8767  156.4719 H   0  0  0  0  0  0  0  0  0  0  0  0
  146.5872  134.4656  152.9472 H   0  0  0  0  0  0  0  0  0  0  0  0
  146.9790  134.1739  151.2671 H   0  0  0  0  0  0  0  0  0  0  0  0
  144.2945  134.7185  152.3076 H   0  0  0  0  0  0  0  0  0  0  0  0
  1  2  1  0  0  0  0
  1 20  1  0  0  0  0
  1 21  1  0  0  0  0
  1 22  1  0  0  0  0
  2 19  1  0  0  0  0
  2  3  1  0  0  0  0
  2 23  1  0  0  0  0
  3  4  1  0  0  0  0
  3 24  1  0  0  0  0
  3 25  1  0  0  0  0
  4  5  1  0  0  0  0
  4 26  1  0  0  0  0
  4 27  1  0  0  0  0
  5  6  1  0  0  0  0
  5 28  1  0  0  0  0
  5 29  1  0  0  0  0
  6  7  1  0  0  0  0
  6 19  1  0  0  0  0
  6 41  1  0  0  0  0
  7  8  1  0  0  0  0
  7 30  1  0  0  0  0
  7 31  1  0  0  0  0
  8  9  1  0  0  0  0
  8 32  1  0  0  0  0
  8 33  1  0  0  0  0
  9 10  1  0  0  0  0
  9 34  1  0  0  0  0
  9 35  1  0  0  0  0
 10 11  1  0  0  0  0
 10 36  1  0  0  0  0
 11 12  2  0  0  0  0
 11 13  1  0  0  0  0
 13 14  1  0  0  0  0
 13 37  1  0  0  0  0
 14 18  1  0  0  0  0
 14 15  2  0  0  0  0
 15 16  1  0  0  0  0
 16 17  2  0  0  0  0
 17 18  1  0  0  0  0
 17 38  1  0  0  0  0
 19 39  1  0  0  0  0
 19 40  1  0  0  0  0
M  CHG  1   6   1
M  END
> <s_m_source_file>
AV-unprocessed.smi

> <i_m_source_file_index>
1802

> <i_lp_mmshare_version>
43012

> <i_f3d_flags>
0

> <s_epik_input>
W0NIM11bQ0BASF0xW0NIMl1bQ0gyXVtDSDJdTihbQ0gyXTEpW0NIMl1bQ0gyXVtDSDJdW05IXUMoPU8pW05IXWMybm5bY0hdczI=

> <s_epik_cmdline>
J2VwaWtfcHl0aG9uJywgJy1waCcsICc3LjAnLCAnLXRuJywgJzgnLCAnLW1hJywgJzIwMCcsICctbWV0YWxfYmluZGluZycsICctaW1hZScsICc8aW5maWxlLm1hZT4nLCAnLW9tYWUnLCAnPG91dGZpbGUubWFlPic=

> <r_lp_tautomer_probability>
1

> <r_epik_Ionization_Penalty>
0.00272894

> <r_epik_Ionization_Penalty_Charging>
0.000288442

> <r_epik_Ionization_Penalty_Neutral>
0.0024405

> <r_epik_State_Penalty>
-0

> <r_epik_Charging_Adjusted_Penalty>
0.000288442

> <i_epik_Tot_Q>
1

> <i_epik_Tot_abs_Q>
1

> <r_epik_Metal_State_Penalty>
0.350525

> <b_epik_Metal_Only>
0

> <s_lp_Force_Field>
OPLS_2005

> <r_lp_Energy>
15.5864

> <b_lp_Chiralities_Consistent>
1

> <s_lp_Variant>
AV-unprocessed.smi:1802-1

> <Gold.Version>
5.8.1

> <Gold.Id.Protein>
6NUR|6NUR_protein|mol2

> <Gold.PLP.Fitness>
42.8509

> <Gold.PLP.PLP>
-32.9643

> <Gold.PLP.part.hbond>
-5.4139

> <Gold.PLP.part.metal>
0.0000

> <Gold.PLP.part.buried>
-2.7618

> <Gold.PLP.part.nonpolar>
-25.1350

> <Gold.PLP.part.repulsive>
0.3373

> <Gold.PLP.ligand.clash>
0.0000

> <Gold.PLP.ligand.torsion>
0.9628

> <Gold.PLP.Chemscore.Hbond>
3.9120

> <Gold.PLP.Chemscore.CHOScore>
0.0000

> <Gold.PLP.Chemscore.Metal>
0.0000

> <Gold.Chemscore.Hbonds>
donor molecule, donor type, donor heavy atom, donor atom, acceptor molecule, acceptor atom, score
      L1  H    10    36       P1  7957  0.88
      L1  H    13    37       P1  7957  1.00
      P1  H  7989  7998       L1    15  0.88
      P1  H  7997  8008       L1    16  1.00

> <Gold.PLP.Chemscore.Internal.Correction>
0.0761

> <Gold.Rescore>
     Score         DG    S(hbond)    S(metal)    S(lipo)     H(rot)  DE(clash)    DE(int)     intcor
     19.12     -20.28       3.50        0.00      69.85       1.98       0.28       0.88       ----

> <Gold.Chemscore.Fitness>
19.1221

> <Gold.Chemscore.DG>
-20.2832

> <Gold.Chemscore.ZeroCoef>
-5.4800

> <Gold.Chemscore.Hbond>
3.5023

> <Gold.Chemscore.Metal>
0.0000

> <Gold.Chemscore.Lipo>
69.8513

> <Gold.Chemscore.Internal_Hbond>
0.0000

> <Gold.Chemscore.DEClash>
0.2766

> <Gold.Chemscore.DEInternal>
0.8846

> <Gold.Chemscore.Rot>
1.9793

> <Gold.Chemscore.Internal.Correction>
   9.000000E+99

> <Gold.Chemscore.Hbonds>
donor molecule, donor type, donor heavy atom, donor atom, acceptor molecule, acceptor atom, score
      L1  H    10    36       P1  7957  0.83
      L1  H    13    37       P1  7957  0.86
      P1  H  7989  7998       L1    15  0.66
      P1  H  7997  8008       L1    16  0.44

> <Gold.Chemscore.Hbond.Weighted>
-11.6976

> <Gold.Chemscore.Metal.Weighted>
-0.0000

> <Gold.Chemscore.Lipo.Weighted>
-8.1726

> <Gold.Chemscore.Internal_Hbond.Weighted>
0.0000

> <Gold.Chemscore.DEClash.Weighted>
0.2766

> <Gold.Chemscore.DEInternal.Weighted>
0.8846

> <Gold.Chemscore.Rot.Weighted>
5.0670

> <Gold.Chemscore.Internal.Correction.Weighted>
   9.000000E+99

> <Gold.Protein.RotatedTorsions>
[ 6907 6896 6895 6894 ] final   81.59 input  -60.11 | X-H torsion
[ 7974 7965 7964 7962 ] final   49.23 input  175.53 | X-H torsion
[ 8008 7997 7996 7995 ] final  -23.44 input   59.86 | X-H torsion
[ 10167 10162 10161 10158 ] final  -77.46 input  -65.29 | X-H torsion
[ 10718 10713 10712 10709 ] final  107.57 input   66.30 | X-H torsion
[ 10763 10752 10751 10750 ] final -116.50 input  -60.55 | X-H torsion
[ 11005 11000 10999 10996 ] final   55.07 input  -57.11 | X-H torsion

> <Gold.Protein.ActiveResidues>
 VAL166  LYS551  ARG553  GLY616  TRP617  ASP618  TYR619  PRO620  LYS621  CYS622 
 ASP623  PHE694  ASN695  SER759  ASP760  ASP761  ALA762  ILE779  LEU786  VAL792 
 PHE793  MET794  SER795  GLU796  ALA797  LYS798  CYS799  TRP800  GLU811  SER814 

> <Gold.Protein.RotatedAtoms>
  152.5273  134.3181  159.9137 H   0  0  0  0  0  0  0  0  0  0  0  0  # atno 6907 bound_to 6896
  151.3130  133.4066  159.2656 H   0  0  0  0  0  0  0  0  0  0  0  0  # atno 6908 bound_to 6896
  151.0022  134.9348  159.8018 H   0  0  0  0  0  0  0  0  0  0  0  0  # atno 6909 bound_to 6896
  146.0129  139.4563  142.9945 H   0  0  0  0  0  0  0  0  0  0  0  0  # atno 7974 bound_to 7965
  154.4585  140.1980  156.0311 H   0  0  0  0  0  0  0  0  0  0  0  0  # atno 8008 bound_to 7997
  156.0794  140.3273  155.7647 H   0  0  0  0  0  0  0  0  0  0  0  0  # atno 8009 bound_to 7997
  155.5136  140.0564  157.2910 H   0  0  0  0  0  0  0  0  0  0  0  0  # atno 8010 bound_to 7997
  140.4768  143.2412  151.8120 H   0  0  0  0  0  0  0  0  0  0  0  0  # atno 10167 bound_to 10162
  157.6623  131.0875  150.6176 H   0  0  0  0  0  0  0  0  0  0  0  0  # atno 10718 bound_to 10713
  154.8522  135.4343  154.1831 H   0  0  0  0  0  0  0  0  0  0  0  0  # atno 10763 bound_to 10752
  153.2917  135.6962  153.7292 H   0  0  0  0  0  0  0  0  0  0  0  0  # atno 10764 bound_to 10752
  153.6457  135.3460  155.3059 H   0  0  0  0  0  0  0  0  0  0  0  0  # atno 10765 bound_to 10752
  140.0636  134.5568  155.9124 H   0  0  0  0  0  0  0  0  0  0  0  0  # atno 11005 bound_to 11000
  145.7314  141.0041  143.1349 LP  0  0  0  0  0  0  0  0  0  0  0  0  # atno 17320 bound_to 7965
  144.6959  139.8989  143.7457 LP  0  0  0  0  0  0  0  0  0  0  0  0  # atno 17321 bound_to 7965
  139.4827  144.4823  151.9291 LP  0  0  0  0  0  0  0  0  0  0  0  0  # atno 17342 bound_to 10162
  140.3908  144.2618  150.5900 LP  0  0  0  0  0  0  0  0  0  0  0  0  # atno 17343 bound_to 10162
  156.6479  130.4477  149.5729 LP  0  0  0  0  0  0  0  0  0  0  0  0  # atno 17370 bound_to 10713
  156.2160  130.6708  151.1319 LP  0  0  0  0  0  0  0  0  0  0  0  0  # atno 17371 bound_to 10713
  141.1983  133.6601  156.5787 LP  0  0  0  0  0  0  0  0  0  0  0  0  # atno 17394 bound_to 11000
  140.3733  134.7587  157.4613 LP  0  0  0  0  0  0  0  0  0  0  0  0  # atno 17395 bound_to 11000

$$$$
