AV-unprocessed.smi:2842|AV-procd|sdf|10936|dock2
  -GOLD-   2272015383D 1   1.00000     0.00000
 Structure written by MMmdl.
 35 37  0  0  0  0  0  0  0  0  1 V2000
  148.1616  138.2562  155.2862 O   0  0  0  0  0  0  0  0  0  0  0  0
  148.7420  138.8824  154.3982 C   0  0  0  0  0  0  0  0  0  0  0  0
  150.2367  139.2150  154.5235 C   0  0  0  0  0  0  0  0  0  0  0  0
  150.5356  140.1468  155.6266 N   0  0  0  0  0  0  0  0  0  0  0  0
  149.5281  141.0718  155.9652 C   0  0  0  0  0  0  0  0  0  0  0  0
  149.6867  141.9344  156.9181 N   0  0  0  0  0  0  0  0  0  0  0  0
  150.8877  141.9652  157.6364 C   0  0  0  0  0  0  0  0  0  0  0  0
  151.0368  143.0175  158.7265 C   0  0  0  0  0  0  0  0  0  0  0  0
  151.1866  144.4750  158.2579 C   0  0  0  0  0  0  0  0  0  0  0  0
  152.2044  144.6636  159.3883 C   0  0  0  0  0  0  0  0  0  0  0  0
  152.4418  143.1501  159.3357 C   0  0  0  0  0  0  0  0  0  0  0  0
  151.8885  141.1018  157.3426 C   0  0  0  0  0  0  0  0  0  0  0  0
  151.7352  140.1103  156.2785 C   0  0  0  0  0  0  0  0  0  0  0  0
  152.6199  139.3037  155.9908 O   0  0  0  0  0  0  0  0  0  0  0  0
  148.1409  139.2970  153.2737 N   0  0  0  0  0  0  0  0  0  0  0  0
  146.7645  139.1038  152.9495 C   0  0  0  0  0  0  0  0  0  0  0  0
  146.2208  137.6924  152.9979 C   0  0  0  0  0  0  0  0  0  0  0  0
  146.4439  138.3620  151.6700 C   0  0  0  0  0  0  0  0  0  0  0  0
  150.7828  138.2759  154.6303 H   0  0  0  0  0  0  0  0  0  0  0  0
  150.5920  139.6414  153.5832 H   0  0  0  0  0  0  0  0  0  0  0  0
  148.6154  141.0117  155.3703 H   0  0  0  0  0  0  0  0  0  0  0  0
  150.2692  142.9144  159.4957 H   0  0  0  0  0  0  0  0  0  0  0  0
  151.6427  144.5752  157.2712 H   0  0  0  0  0  0  0  0  0  0  0  0
  150.2838  145.0795  158.3497 H   0  0  0  0  0  0  0  0  0  0  0  0
  153.0700  145.2732  159.1281 H   0  0  0  0  0  0  0  0  0  0  0  0
  151.7448  144.9881  160.3234 H   0  0  0  0  0  0  0  0  0  0  0  0
  152.5664  142.6719  160.3075 H   0  0  0  0  0  0  0  0  0  0  0  0
  153.2419  142.8771  158.6447 H   0  0  0  0  0  0  0  0  0  0  0  0
  152.8153  141.1387  157.8963 H   0  0  0  0  0  0  0  0  0  0  0  0
  148.6996  139.7982  152.5983 H   0  0  0  0  0  0  0  0  0  0  0  0
  146.0686  139.8935  153.2297 H   0  0  0  0  0  0  0  0  0  0  0  0
  146.9035  136.8923  153.2778 H   0  0  0  0  0  0  0  0  0  0  0  0
  145.1922  137.5626  153.3282 H   0  0  0  0  0  0  0  0  0  0  0  0
  145.5650  138.6813  151.1134 H   0  0  0  0  0  0  0  0  0  0  0  0
  147.2761  138.0098  151.0632 H   0  0  0  0  0  0  0  0  0  0  0  0
  1  2  2  0  0  0  0
  2  3  1  0  0  0  0
  2 15  1  0  0  0  0
  3  4  1  0  0  0  0
  3 19  1  0  0  0  0
  3 20  1  0  0  0  0
  4 13  1  0  0  0  0
  4  5  1  0  0  0  0
  5  6  2  0  0  0  0
  5 21  1  0  0  0  0
  6  7  1  0  0  0  0
  7  8  1  0  0  0  0
  7 12  2  0  0  0  0
  8 11  1  0  0  0  0
  8  9  1  0  0  0  0
  8 22  1  0  0  0  0
  9 10  1  0  0  0  0
  9 23  1  0  0  0  0
  9 24  1  0  0  0  0
 10 11  1  0  0  0  0
 10 25  1  0  0  0  0
 10 26  1  0  0  0  0
 11 27  1  0  0  0  0
 11 28  1  0  0  0  0
 12 13  1  0  0  0  0
 12 29  1  0  0  0  0
 13 14  2  0  0  0  0
 15 16  1  0  0  0  0
 15 30  1  0  0  0  0
 16 18  1  0  0  0  0
 16 17  1  0  0  0  0
 16 31  1  0  0  0  0
 17 18  1  0  0  0  0
 17 32  1  0  0  0  0
 17 33  1  0  0  0  0
 18 34  1  0  0  0  0
 18 35  1  0  0  0  0
M  END
> <s_m_source_file>
AV-unprocessed.smi

> <i_m_source_file_index>
2842

> <i_lp_mmshare_version>
43012

> <i_f3d_flags>
0

> <s_epik_input>
W0NIMl0xW0NIMl1bQ0hdMVtOSF1DKD1PKVtDSDJdbjJbY0hdbmMoW2NIXWMyPU8pW0NIXTNbQ0gyXVtDSDJdW0NIMl0z

> <s_epik_cmdline>
J2VwaWtfcHl0aG9uJywgJy1waCcsICc3LjAnLCAnLXRuJywgJzgnLCAnLW1hJywgJzIwMCcsICctbWV0YWxfYmluZGluZycsICctaW1hZScsICc8aW5maWxlLm1hZT4nLCAnLW9tYWUnLCAnPG91dGZpbGUubWFlPic=

> <r_lp_tautomer_probability>
1

> <r_epik_Ionization_Penalty>
7.30946e-06

> <r_epik_Ionization_Penalty_Charging>
8.23701e-09

> <r_epik_Ionization_Penalty_Neutral>
7.30122e-06

> <r_epik_State_Penalty>
-0

> <r_epik_Charging_Adjusted_Penalty>
8.23701e-09

> <i_epik_Tot_Q>
0

> <i_epik_Tot_abs_Q>
0

> <r_epik_Metal_State_Penalty>
-0

> <b_epik_Metal_Only>
0

> <s_lp_Force_Field>
OPLS_2005

> <r_lp_Energy>
30.4853

> <b_lp_Chiralities_Consistent>
1

> <s_lp_Variant>
AV-unprocessed.smi:2842-1

> <Gold.Version>
5.8.1

> <Gold.Id.Protein>
6NUR|6NUR_protein|mol2

> <Gold.PLP.Fitness>
44.3879

> <Gold.PLP.PLP>
-39.2240

> <Gold.PLP.part.hbond>
-1.7576

> <Gold.PLP.part.metal>
0.0000

> <Gold.PLP.part.buried>
-3.9501

> <Gold.PLP.part.nonpolar>
-35.7073

> <Gold.PLP.part.repulsive>
0.7641

> <Gold.PLP.ligand.clash>
0.0000

> <Gold.PLP.ligand.torsion>
0.6114

> <Gold.PLP.Chemscore.Hbond>
1.9920

> <Gold.PLP.Chemscore.CHOScore>
0.0000

> <Gold.PLP.Chemscore.Metal>
0.0000

> <Gold.Chemscore.Hbonds>
donor molecule, donor type, donor heavy atom, donor atom, acceptor molecule, acceptor atom, score
      L1  H    15    30       P1  7957  1.00
      P1  H  7997  8008       L1    14  1.00

> <Gold.PLP.Chemscore.Internal.Correction>
0.4108

> <Gold.Rescore>
     Score         DG    S(hbond)    S(metal)    S(lipo)     H(rot)  DE(clash)    DE(int)     intcor
     16.64     -17.24       1.78        0.00      87.47       1.73       0.05       0.55       ----

> <Gold.Chemscore.Fitness>
16.6425

> <Gold.Chemscore.DG>
-17.2369

> <Gold.Chemscore.ZeroCoef>
-5.4800

> <Gold.Chemscore.Hbond>
1.7822

> <Gold.Chemscore.Metal>
0.0000

> <Gold.Chemscore.Lipo>
87.4721

> <Gold.Chemscore.Internal_Hbond>
0.0000

> <Gold.Chemscore.DEClash>
0.0466

> <Gold.Chemscore.DEInternal>
0.5478

> <Gold.Chemscore.Rot>
1.7305

> <Gold.Chemscore.Internal.Correction>
   9.000000E+99

> <Gold.Chemscore.Hbonds>
donor molecule, donor type, donor heavy atom, donor atom, acceptor molecule, acceptor atom, score
      L1  H    15    30       P1  7957  0.99
      P1  H  7997  8008       L1    14  0.70

> <Gold.Chemscore.Hbond.Weighted>
-5.9527

> <Gold.Chemscore.Metal.Weighted>
-0.0000

> <Gold.Chemscore.Lipo.Weighted>
-10.2342

> <Gold.Chemscore.Internal_Hbond.Weighted>
0.0000

> <Gold.Chemscore.DEClash.Weighted>
0.0466

> <Gold.Chemscore.DEInternal.Weighted>
0.5478

> <Gold.Chemscore.Rot.Weighted>
4.4300

> <Gold.Chemscore.Internal.Correction.Weighted>
   9.000000E+99

> <Gold.Protein.RotatedTorsions>
[ 6907 6896 6895 6894 ] final -114.73 input  -60.11 | X-H torsion
[ 7974 7965 7964 7962 ] final   83.07 input  175.53 | X-H torsion
[ 8008 7997 7996 7995 ] final  -40.77 input   59.86 | X-H torsion
[ 10167 10162 10161 10158 ] final  -65.92 input  -65.29 | X-H torsion
[ 10718 10713 10712 10709 ] final  138.09 input   66.30 | X-H torsion
[ 10763 10752 10751 10750 ] final  179.86 input  -60.55 | X-H torsion
[ 11005 11000 10999 10996 ] final  151.52 input  -57.11 | X-H torsion

> <Gold.Protein.ActiveResidues>
 VAL166  LYS551  ARG553  GLY616  TRP617  ASP618  TYR619  PRO620  LYS621  CYS622 
 ASP623  PHE694  ASN695  SER759  ASP760  ASP761  ALA762  ILE779  LEU786  VAL792 
 PHE793  MET794  SER795  GLU796  ALA797  LYS798  CYS799  TRP800  GLU811  SER814 

> <Gold.Protein.RotatedAtoms>
  150.7924  133.8759  159.3271 H   0  0  0  0  0  0  0  0  0  0  0  0  # atno 6907 bound_to 6896
  151.6594  135.0989  160.0186 H   0  0  0  0  0  0  0  0  0  0  0  0  # atno 6908 bound_to 6896
  152.4000  133.6765  159.6344 H   0  0  0  0  0  0  0  0  0  0  0  0  # atno 6909 bound_to 6896
  145.6167  139.2378  143.2161 H   0  0  0  0  0  0  0  0  0  0  0  0  # atno 7974 bound_to 7965
  154.4009  140.1517  156.3081 H   0  0  0  0  0  0  0  0  0  0  0  0  # atno 8008 bound_to 7997
  155.8640  140.3452  155.5754 H   0  0  0  0  0  0  0  0  0  0  0  0  # atno 8009 bound_to 7997
  155.7849  140.0848  157.2030 H   0  0  0  0  0  0  0  0  0  0  0  0  # atno 8010 bound_to 7997
  140.5695  143.2317  151.6567 H   0  0  0  0  0  0  0  0  0  0  0  0  # atno 10167 bound_to 10162
  157.4290  131.1046  151.0270 H   0  0  0  0  0  0  0  0  0  0  0  0  # atno 10718 bound_to 10713
  154.5261  135.2797  155.1221 H   0  0  0  0  0  0  0  0  0  0  0  0  # atno 10763 bound_to 10752
  154.2759  135.6294  153.5332 H   0  0  0  0  0  0  0  0  0  0  0  0  # atno 10764 bound_to 10752
  152.9947  135.5639  154.5762 H   0  0  0  0  0  0  0  0  0  0  0  0  # atno 10765 bound_to 10752
  140.1226  134.8854  157.2093 H   0  0  0  0  0  0  0  0  0  0  0  0  # atno 11005 bound_to 11000
  146.1462  140.6989  142.9343 LP  0  0  0  0  0  0  0  0  0  0  0  0  # atno 17320 bound_to 7965
  144.7247  140.4488  143.6982 LP  0  0  0  0  0  0  0  0  0  0  0  0  # atno 17321 bound_to 7965
  139.5110  144.3524  152.0640 LP  0  0  0  0  0  0  0  0  0  0  0  0  # atno 17342 bound_to 10162
  140.2660  144.4016  150.6168 LP  0  0  0  0  0  0  0  0  0  0  0  0  # atno 17343 bound_to 10162
  157.1174  130.6047  149.5496 LP  0  0  0  0  0  0  0  0  0  0  0  0  # atno 17370 bound_to 10713
  155.9907  130.4958  150.7266 LP  0  0  0  0  0  0  0  0  0  0  0  0  # atno 17371 bound_to 10713
  140.2945  134.3202  155.7306 LP  0  0  0  0  0  0  0  0  0  0  0  0  # atno 17394 bound_to 11000
  141.2155  133.7554  156.9551 LP  0  0  0  0  0  0  0  0  0  0  0  0  # atno 17395 bound_to 11000

$$$$
