AV-unprocessed.smi:694|AV-procd|sdf|3379|dock1
  -GOLD-   22720 0363D 1   1.00000     0.00000
 Structure written by MMmdl.
 43 44  0  0  0  0  0  0  0  0  2 V2000
  151.5352  144.1081  157.2008 C   0  0  0  0  0  0  0  0  0  0  0  0
  151.5329  142.6760  157.4779 N   0  0  0  0  0  0  0  0  0  0  0  0
  152.1260  142.1628  158.7058 C   0  0  0  0  0  0  0  0  0  0  0  0
  150.9433  141.7841  156.5560 C   0  0  0  0  0  0  0  0  0  0  0  0
  151.4334  140.4767  156.3177 C   0  0  0  0  0  0  0  0  0  0  0  0
  150.7872  139.6453  155.3798 C   0  0  0  0  0  0  0  0  0  0  0  0
  149.6516  140.1150  154.6879 C   0  0  0  0  0  0  0  0  0  0  0  0
  149.0429  139.2423  153.7448 N   0  0  0  0  0  0  0  0  0  0  0  0
  147.7806  139.2532  153.2825 C   0  0  0  0  0  0  0  0  0  0  0  0
  146.9025  140.0418  153.6315 O   0  0  0  0  0  0  0  0  0  0  0  0
  147.5812  138.2691  152.3939 N   0  0  0  0  0  0  0  0  0  0  0  0
  146.3183  137.9803  151.7200 C   0  0  0  0  0  0  0  0  0  0  0  0
  146.0723  136.4642  151.5878 C   0  0  1  0  0  0  0  0  0  0  0  0
  145.8330  135.7375  152.9199 C   0  0  0  0  0  0  0  0  0  0  0  0
  145.0005  134.4906  152.5855 C   0  0  0  0  0  0  0  0  0  0  0  0
  144.5510  134.6477  151.1270 C   0  0  0  0  0  0  0  0  0  0  0  0
  144.8230  136.1120  150.7743 C   0  0  2  0  0  0  0  0  0  0  0  0
  145.0229  136.2802  149.3861 O   0  0  0  0  0  0  0  0  0  0  0  0
  149.2067  141.4322  154.9531 C   0  0  0  0  0  0  0  0  0  0  0  0
  149.8560  142.1948  155.8587 N   0  3  0  0  0  0  0  0  0  0  0  0
  152.0866  144.3193  156.2839 H   0  0  0  0  0  0  0  0  0  0  0  0
  152.0050  144.6690  158.0091 H   0  0  0  0  0  0  0  0  0  0  0  0
  150.5161  144.4789  157.0869 H   0  0  0  0  0  0  0  0  0  0  0  0
  151.3771  141.6458  159.3065 H   0  0  0  0  0  0  0  0  0  0  0  0
  152.5413  142.9678  159.3125 H   0  0  0  0  0  0  0  0  0  0  0  0
  152.9339  141.4665  158.4794 H   0  0  0  0  0  0  0  0  0  0  0  0
  152.2979  140.0948  156.8399 H   0  0  0  0  0  0  0  0  0  0  0  0
  151.1632  138.6488  155.1990 H   0  0  0  0  0  0  0  0  0  0  0  0
  149.6276  138.4896  153.4116 H   0  0  0  0  0  0  0  0  0  0  0  0
  148.3588  137.6654  152.1702 H   0  0  0  0  0  0  0  0  0  0  0  0
  145.4818  138.4618  152.2293 H   0  0  0  0  0  0  0  0  0  0  0  0
  146.3650  138.4292  150.7274 H   0  0  0  0  0  0  0  0  0  0  0  0
  146.9373  136.0042  151.1055 H   0  0  0  0  0  0  0  0  0  0  0  0
  146.7670  135.4867  153.4235 H   0  0  0  0  0  0  0  0  0  0  0  0
  145.2609  136.3751  153.5950 H   0  0  0  0  0  0  0  0  0  0  0  0
  145.5853  133.5786  152.7095 H   0  0  0  0  0  0  0  0  0  0  0  0
  144.1417  134.4200  153.2539 H   0  0  0  0  0  0  0  0  0  0  0  0
  145.1560  133.9929  150.4975 H   0  0  0  0  0  0  0  0  0  0  0  0
  143.5066  134.3713  150.9784 H   0  0  0  0  0  0  0  0  0  0  0  0
  143.9820  136.7282  151.0963 H   0  0  0  0  0  0  0  0  0  0  0  0
  144.7224  137.1424  149.1421 H   0  0  0  0  0  0  0  0  0  0  0  0
  148.3679  141.9165  154.4767 H   0  0  0  0  0  0  0  0  0  0  0  0
  149.5063  143.1385  156.0258 H   0  0  0  0  0  0  0  0  0  0  0  0
  1  2  1  0  0  0  0
  1 21  1  0  0  0  0
  1 22  1  0  0  0  0
  1 23  1  0  0  0  0
  2  3  1  0  0  0  0
  2  4  1  0  0  0  0
  3 24  1  0  0  0  0
  3 25  1  0  0  0  0
  3 26  1  0  0  0  0
  4 20  1  0  0  0  0
  4  5  2  0  0  0  0
  5  6  1  0  0  0  0
  5 27  1  0  0  0  0
  6  7  2  0  0  0  0
  6 28  1  0  0  0  0
  7  8  1  0  0  0  0
  7 19  1  0  0  0  0
  8  9  1  0  0  0  0
  8 29  1  0  0  0  0
  9 10  2  0  0  0  0
  9 11  1  0  0  0  0
 11 12  1  0  0  0  0
 11 30  1  0  0  0  0
 12 13  1  0  0  0  0
 12 31  1  0  0  0  0
 12 32  1  0  0  0  0
 13 17  1  0  0  0  0
 13 14  1  0  0  0  0
 13 33  1  0  0  0  0
 14 15  1  0  0  0  0
 14 34  1  0  0  0  0
 14 35  1  0  0  0  0
 15 16  1  0  0  0  0
 15 36  1  0  0  0  0
 15 37  1  0  0  0  0
 16 17  1  0  0  0  0
 16 38  1  0  0  0  0
 16 39  1  0  0  0  0
 17 18  1  0  0  0  0
 17 40  1  0  0  0  0
 18 41  1  0  0  0  0
 19 20  2  0  0  0  0
 19 42  1  0  0  0  0
 20 43  1  0  0  0  0
M  CHG  1  20   1
M  END
> <s_m_source_file>
AV-unprocessed.smi

> <i_m_source_file_index>
694

> <i_lp_mmshare_version>
43012

> <i_f3d_flags>
0

> <s_epik_input>
W0NIM11OKFtDSDNdKWMxW2NIXVtjSF1jKFtjSF1uMSlbTkhdQyg9TylbTkhdW0NIMl1bQ0BASF0yW0NIMl1bQ0gyXVtDSDJdW0NASF0yW09IXQ==

> <s_epik_cmdline>
J2VwaWtfcHl0aG9uJywgJy1waCcsICc3LjAnLCAnLXRuJywgJzgnLCAnLW1hJywgJzIwMCcsICctbWV0YWxfYmluZGluZycsICctaW1hZScsICc8aW5maWxlLm1hZT4nLCAnLW9tYWUnLCAnPG91dGZpbGUubWFlPic=

> <r_lp_tautomer_probability>
0.999994

> <r_epik_Ionization_Penalty>
0.266135

> <r_epik_Ionization_Penalty_Charging>
0.266113

> <r_epik_Ionization_Penalty_Neutral>
2.14137e-05

> <r_epik_State_Penalty>
0.258052

> <r_epik_Charging_Adjusted_Penalty>
0.524165

> <i_epik_Tot_Q>
1

> <i_epik_Tot_abs_Q>
1

> <r_epik_Metal_State_Penalty>
0.544313

> <b_epik_Metal_Only>
0

> <s_lp_Force_Field>
OPLS_2005

> <r_lp_Energy>
30.8894

> <b_lp_Chiralities_Consistent>
1

> <s_lp_Variant>
AV-unprocessed.smi:694-4

> <Gold.Version>
5.8.1

> <Gold.Id.Protein>
6NUR|6NUR_protein|mol2

> <Gold.PLP.Fitness>
47.0048

> <Gold.PLP.PLP>
-36.6771

> <Gold.PLP.part.hbond>
-5.9347

> <Gold.PLP.part.metal>
0.0000

> <Gold.PLP.part.buried>
2.8667

> <Gold.PLP.part.nonpolar>
-35.0647

> <Gold.PLP.part.repulsive>
0.4615

> <Gold.PLP.ligand.clash>
0.0000

> <Gold.PLP.ligand.torsion>
0.7606

> <Gold.PLP.Chemscore.Hbond>
3.9440

> <Gold.PLP.Chemscore.CHOScore>
0.0000

> <Gold.PLP.Chemscore.Metal>
0.0000

> <Gold.Chemscore.Hbonds>
donor molecule, donor type, donor heavy atom, donor atom, acceptor molecule, acceptor atom, score
      L1  H    11    30       P1  7948  1.00
      L1  H    18    41       P1 10171  0.86
      L1  H    20    43       P1  8028  2.00

> <Gold.PLP.Chemscore.Internal.Correction>
0.0170

> <Gold.Rescore>
     Score         DG    S(hbond)    S(metal)    S(lipo)     H(rot)  DE(clash)    DE(int)     intcor
     17.08     -20.02       2.92        0.00      79.07       1.75       1.17       1.78       ----

> <Gold.Chemscore.Fitness>
17.0767

> <Gold.Chemscore.DG>
-20.0242

> <Gold.Chemscore.ZeroCoef>
-5.4800

> <Gold.Chemscore.Hbond>
2.9248

> <Gold.Chemscore.Metal>
0.0000

> <Gold.Chemscore.Lipo>
79.0722

> <Gold.Chemscore.Internal_Hbond>
0.0000

> <Gold.Chemscore.DEClash>
1.1713

> <Gold.Chemscore.DEInternal>
1.7762

> <Gold.Chemscore.Rot>
1.7485

> <Gold.Chemscore.Internal.Correction>
   9.000000E+99

> <Gold.Chemscore.Hbonds>
donor molecule, donor type, donor heavy atom, donor atom, acceptor molecule, acceptor atom, score
      L1  H    11    30       P1  7948  0.92
      L1  H    18    41       P1 10171  0.85
      L1  H    20    43       P1  8028  0.99

> <Gold.Chemscore.Hbond.Weighted>
-9.7689

> <Gold.Chemscore.Metal.Weighted>
-0.0000

> <Gold.Chemscore.Lipo.Weighted>
-9.2514

> <Gold.Chemscore.Internal_Hbond.Weighted>
0.0000

> <Gold.Chemscore.DEClash.Weighted>
1.1713

> <Gold.Chemscore.DEInternal.Weighted>
1.7762

> <Gold.Chemscore.Rot.Weighted>
4.4762

> <Gold.Chemscore.Internal.Correction.Weighted>
   9.000000E+99

> <Gold.Protein.RotatedTorsions>
[ 6907 6896 6895 6894 ] final   80.23 input  -60.11 | X-H torsion
[ 7974 7965 7964 7962 ] final -107.02 input  175.53 | X-H torsion
[ 8008 7997 7996 7995 ] final  -44.76 input   59.86 | X-H torsion
[ 10167 10162 10161 10158 ] final  -96.81 input  -65.29 | X-H torsion
[ 10718 10713 10712 10709 ] final   27.02 input   66.30 | X-H torsion
[ 10763 10752 10751 10750 ] final  135.36 input  -60.55 | X-H torsion
[ 11005 11000 10999 10996 ] final  175.08 input  -57.11 | X-H torsion

> <Gold.Protein.ActiveResidues>
 VAL166  LYS551  ARG553  GLY616  TRP617  ASP618  TYR619  PRO620  LYS621  CYS622 
 ASP623  PHE694  ASN695  SER759  ASP760  ASP761  ALA762  ILE779  LEU786  VAL792 
 PHE793  MET794  SER795  GLU796  ALA797  LYS798  CYS799  TRP800  GLU811  SER814 

> <Gold.Protein.RotatedAtoms>
  152.5227  134.3389  159.9209 H   0  0  0  0  0  0  0  0  0  0  0  0  # atno 6907 bound_to 6896
  151.3339  133.3983  159.2672 H   0  0  0  0  0  0  0  0  0  0  0  0  # atno 6908 bound_to 6896
  150.9858  134.9222  159.7929 H   0  0  0  0  0  0  0  0  0  0  0  0  # atno 6909 bound_to 6896
  145.2106  140.9094  143.3316 H   0  0  0  0  0  0  0  0  0  0  0  0  # atno 7974 bound_to 7965
  154.3998  140.1414  156.3735 H   0  0  0  0  0  0  0  0  0  0  0  0  # atno 8008 bound_to 7997
  155.8070  140.3474  155.5415 H   0  0  0  0  0  0  0  0  0  0  0  0  # atno 8009 bound_to 7997
  155.8425  140.0929  157.1716 H   0  0  0  0  0  0  0  0  0  0  0  0  # atno 8010 bound_to 7997
  140.2899  143.3228  152.0356 H   0  0  0  0  0  0  0  0  0  0  0  0  # atno 10167 bound_to 10162
  157.2146  130.6950  149.6243 H   0  0  0  0  0  0  0  0  0  0  0  0  # atno 10718 bound_to 10713
  153.8387  135.3094  155.3424 H   0  0  0  0  0  0  0  0  0  0  0  0  # atno 10763 bound_to 10752
  154.7942  135.4765  154.0125 H   0  0  0  0  0  0  0  0  0  0  0  0  # atno 10764 bound_to 10752
  153.1589  135.6857  153.8863 H   0  0  0  0  0  0  0  0  0  0  0  0  # atno 10765 bound_to 10752
  140.3583  134.7135  157.4314 H   0  0  0  0  0  0  0  0  0  0  0  0  # atno 11005 bound_to 11000
  144.9859  139.3737  143.6239 LP  0  0  0  0  0  0  0  0  0  0  0  0  # atno 17320 bound_to 7965
  146.3398  139.9021  142.8793 LP  0  0  0  0  0  0  0  0  0  0  0  0  # atno 17321 bound_to 7965
  139.4940  144.6532  151.6630 LP  0  0  0  0  0  0  0  0  0  0  0  0  # atno 17342 bound_to 10162
  140.5741  144.0059  150.6232 LP  0  0  0  0  0  0  0  0  0  0  0  0  # atno 17343 bound_to 10162
  155.9687  130.4540  150.5832 LP  0  0  0  0  0  0  0  0  0  0  0  0  # atno 17370 bound_to 10713
  157.3638  131.0754  151.1615 LP  0  0  0  0  0  0  0  0  0  0  0  0  # atno 17371 bound_to 10713
  140.0647  134.5946  155.8708 LP  0  0  0  0  0  0  0  0  0  0  0  0  # atno 17394 bound_to 11000
  141.1992  133.6605  156.5830 LP  0  0  0  0  0  0  0  0  0  0  0  0  # atno 17395 bound_to 11000

$$$$
