AV-unprocessed.smi:2886|AV-procd|sdf|11094|dock10
  -GOLD-   2272015563D 1   1.00000     0.00000
 Structure written by MMmdl.
 28 30  0  0  0  0  0  0  0  0  3 V2000
  152.9383  136.7729  159.8681 O   0  0  0  0  0  0  0  0  0  0  0  0
  153.2216  137.9221  160.2009 C   0  0  0  0  0  0  0  0  0  0  0  0
  154.0546  138.2158  161.2434 N   0  5  0  0  0  0  0  0  0  0  0  0
  154.3402  139.4547  161.5774 N   0  3  0  0  0  0  0  0  0  0  0  0
  153.8548  140.5181  160.9444 C   0  0  0  0  0  0  0  0  0  0  0  0
  152.9694  140.3515  159.8432 C   0  0  0  0  0  0  0  0  0  0  0  0
  152.4395  141.4325  159.1496 N   0  0  0  0  0  0  0  0  0  0  0  0
  152.6559  142.8545  159.3781 C   0  0  1  0  0  0  0  0  0  0  0  0
  152.1745  143.7193  158.2104 C   0  0  0  0  0  0  0  0  0  0  0  0
  151.2002  144.6750  158.9108 C   0  0  2  0  0  0  0  0  0  0  0  0
  151.9188  145.6579  159.8463 C   0  0  0  0  0  0  0  0  0  0  0  0
  152.3037  144.7523  161.0163 C   0  0  0  0  0  0  0  0  0  0  0  0
  151.7968  143.3856  160.5373 C   0  0  1  0  0  0  0  0  0  0  0  0
  150.6214  143.7899  159.8534 O   0  0  0  0  0  0  0  0  0  0  0  0
  152.6611  139.0753  159.4724 C   0  0  0  0  0  0  0  0  0  0  0  0
  151.5963  138.7707  158.1397 Cl  0  0  0  0  0  0  0  0  0  0  0  0
  154.9770  139.6524  162.3652 H   0  0  0  0  0  0  0  0  0  0  0  0
  154.1685  141.4898  161.3040 H   0  0  0  0  0  0  0  0  0  0  0  0
  151.6980  141.2251  158.4950 H   0  0  0  0  0  0  0  0  0  0  0  0
  153.7071  143.0390  159.5991 H   0  0  0  0  0  0  0  0  0  0  0  0
  152.9895  144.2451  157.7121 H   0  0  0  0  0  0  0  0  0  0  0  0
  151.6477  143.1248  157.4623 H   0  0  0  0  0  0  0  0  0  0  0  0
  150.4834  145.1464  158.2379 H   0  0  0  0  0  0  0  0  0  0  0  0
  152.7816  146.1252  159.3705 H   0  0  0  0  0  0  0  0  0  0  0  0
  151.2423  146.4460  160.1792 H   0  0  0  0  0  0  0  0  0  0  0  0
  153.3746  144.7540  161.2216 H   0  0  0  0  0  0  0  0  0  0  0  0
  151.7822  145.0593  161.9236 H   0  0  0  0  0  0  0  0  0  0  0  0
  151.6328  142.6715  161.3453 H   0  0  0  0  0  0  0  0  0  0  0  0
  1  2  2  0  0  0  0
  2  3  1  0  0  0  0
  2 15  1  0  0  0  0
  3  4  1  0  0  0  0
  4  5  2  0  0  0  0
  4 17  1  0  0  0  0
  5  6  1  0  0  0  0
  5 18  1  0  0  0  0
  6 15  2  0  0  0  0
  6  7  1  0  0  0  0
  7  8  1  0  0  0  0
  7 19  1  0  0  0  0
  8 13  1  0  0  0  0
  8  9  1  0  0  0  0
  8 20  1  0  0  0  0
  9 10  1  0  0  0  0
  9 21  1  0  0  0  0
  9 22  1  0  0  0  0
 10 14  1  0  0  0  0
 10 11  1  0  0  0  0
 10 23  1  0  0  0  0
 11 12  1  0  0  0  0
 11 24  1  0  0  0  0
 11 25  1  0  0  0  0
 12 13  1  0  0  0  0
 12 26  1  0  0  0  0
 12 27  1  0  0  0  0
 13 14  1  0  0  0  0
 13 28  1  0  0  0  0
 15 16  1  0  0  0  0
M  CHG  1   3  -1
M  CHG  1   4   1
M  END
> <s_m_source_file>
AV-unprocessed.smi

> <i_m_source_file_index>
2886

> <i_lp_mmshare_version>
43012

> <i_f3d_flags>
0

> <s_epik_input>
Tz1jMVtuSF1uW2NIXWMoYzFDbClbTkhdW0NASF0oW0NIMl1bQ0BASF0yMylbQ0BASF0oTzMpW0NIMl1bQ0gyXTI=

> <s_epik_cmdline>
J2VwaWtfcHl0aG9uJywgJy1waCcsICc3LjAnLCAnLXRuJywgJzgnLCAnLW1hJywgJzIwMCcsICctbWV0YWxfYmluZGluZycsICctaW1hZScsICc8aW5maWxlLm1hZT4nLCAnLW9tYWUnLCAnPG91dGZpbGUubWFlPic=

> <r_lp_tautomer_probability>
0.0138196

> <r_epik_Ionization_Penalty>
2.43027

> <r_epik_Ionization_Penalty_Charging>
2.43027

> <r_epik_Ionization_Penalty_Neutral>
1.33267e-06

> <r_epik_State_Penalty>
2.7044

> <r_epik_Charging_Adjusted_Penalty>
5.13467

> <i_epik_Tot_Q>
0

> <i_epik_Tot_abs_Q>
2

> <r_epik_Metal_State_Penalty>
2.98589

> <b_epik_Metal_Only>
0

> <s_lp_Force_Field>
OPLS_2005

> <r_lp_Energy>
57.4962

> <b_lp_Chiralities_Consistent>
1

> <s_lp_Variant>
AV-unprocessed.smi:2886-8

> <Gold.Version>
5.8.1

> <Gold.Id.Protein>
6NUR|6NUR_protein|mol2

> <Gold.PLP.Fitness>
35.8104

> <Gold.PLP.PLP>
-33.3079

> <Gold.PLP.part.hbond>
-1.3280

> <Gold.PLP.part.metal>
0.0000

> <Gold.PLP.part.buried>
-5.6489

> <Gold.PLP.part.nonpolar>
-27.4929

> <Gold.PLP.part.repulsive>
0.2048

> <Gold.PLP.ligand.clash>
0.0000

> <Gold.PLP.ligand.torsion>
0.2207

> <Gold.PLP.Chemscore.Hbond>
0.9750

> <Gold.PLP.Chemscore.CHOScore>
0.0000

> <Gold.PLP.Chemscore.Metal>
0.0000

> <Gold.Chemscore.Hbonds>
donor molecule, donor type, donor heavy atom, donor atom, acceptor molecule, acceptor atom, score
      P1  H  6896  6908       L1     1  1.00

> <Gold.PLP.Chemscore.Internal.Correction>
0.0188

> <Gold.Rescore>
     Score         DG    S(hbond)    S(metal)    S(lipo)     H(rot)  DE(clash)    DE(int)     intcor
     17.65     -17.94       0.99        0.00     100.24       1.00       0.09       0.20       ----

> <Gold.Chemscore.Fitness>
17.6469

> <Gold.Chemscore.DG>
-17.9421

> <Gold.Chemscore.ZeroCoef>
-5.4800

> <Gold.Chemscore.Hbond>
0.9863

> <Gold.Chemscore.Metal>
0.0000

> <Gold.Chemscore.Lipo>
100.2367

> <Gold.Chemscore.Internal_Hbond>
0.0000

> <Gold.Chemscore.DEClash>
0.0930

> <Gold.Chemscore.DEInternal>
0.2022

> <Gold.Chemscore.Rot>
1.0000

> <Gold.Chemscore.Internal.Correction>
   9.000000E+99

> <Gold.Chemscore.Hbonds>
donor molecule, donor type, donor heavy atom, donor atom, acceptor molecule, acceptor atom, score
      P1  H  6896  6908       L1     1  0.99

> <Gold.Chemscore.Hbond.Weighted>
-3.2944

> <Gold.Chemscore.Metal.Weighted>
-0.0000

> <Gold.Chemscore.Lipo.Weighted>
-11.7277

> <Gold.Chemscore.Internal_Hbond.Weighted>
0.0000

> <Gold.Chemscore.DEClash.Weighted>
0.0930

> <Gold.Chemscore.DEInternal.Weighted>
0.2022

> <Gold.Chemscore.Rot.Weighted>
2.5600

> <Gold.Chemscore.Internal.Correction.Weighted>
   9.000000E+99

> <Gold.Protein.RotatedTorsions>
[ 6907 6896 6895 6894 ] final  -88.41 input  -60.11 | X-H torsion
[ 7974 7965 7964 7962 ] final  165.09 input  175.53 | X-H torsion
[ 8008 7997 7996 7995 ] final -113.64 input   59.86 | X-H torsion
[ 10167 10162 10161 10158 ] final   84.97 input  -65.29 | X-H torsion
[ 10718 10713 10712 10709 ] final  -82.06 input   66.30 | X-H torsion
[ 10763 10752 10751 10750 ] final -104.56 input  -60.55 | X-H torsion
[ 11005 11000 10999 10996 ] final   81.05 input  -57.11 | X-H torsion

> <Gold.Protein.ActiveResidues>
 VAL166  LYS551  ARG553  GLY616  TRP617  ASP618  TYR619  PRO620  LYS621  CYS622 
 ASP623  PHE694  ASN695  SER759  ASP760  ASP761  ALA762  ILE779  LEU786  VAL792 
 PHE793  MET794  SER795  GLU796  ALA797  LYS798  CYS799  TRP800  GLU811  SER814 

> <Gold.Protein.RotatedAtoms>
  150.6868  134.2746  159.4601 H   0  0  0  0  0  0  0  0  0  0  0  0  # atno 6907 bound_to 6896
  152.0665  134.9558  160.0584 H   0  0  0  0  0  0  0  0  0  0  0  0  # atno 6908 bound_to 6896
  152.0965  133.4192  159.4604 H   0  0  0  0  0  0  0  0  0  0  0  0  # atno 6909 bound_to 6896
  144.7517  139.8421  143.6364 H   0  0  0  0  0  0  0  0  0  0  0  0  # atno 7974 bound_to 7965
  155.0239  140.0393  157.2448 H   0  0  0  0  0  0  0  0  0  0  0  0  # atno 8008 bound_to 7997
  154.7354  140.2738  155.6396 H   0  0  0  0  0  0  0  0  0  0  0  0  # atno 8009 bound_to 7997
  156.2851  140.2676  156.2066 H   0  0  0  0  0  0  0  0  0  0  0  0  # atno 8010 bound_to 7997
  139.9025  144.6321  150.8622 H   0  0  0  0  0  0  0  0  0  0  0  0  # atno 10167 bound_to 10162
  156.0039  130.4623  150.4047 H   0  0  0  0  0  0  0  0  0  0  0  0  # atno 10718 bound_to 10713
  154.7887  135.4781  154.0003 H   0  0  0  0  0  0  0  0  0  0  0  0  # atno 10763 bound_to 10752
  153.1598  135.6806  153.8766 H   0  0  0  0  0  0  0  0  0  0  0  0  # atno 10764 bound_to 10752
  153.8383  135.3182  155.3402 H   0  0  0  0  0  0  0  0  0  0  0  0  # atno 10765 bound_to 10752
  139.9112  134.7967  156.1990 H   0  0  0  0  0  0  0  0  0  0  0  0  # atno 11005 bound_to 11000
  146.1475  139.4549  143.0069 LP  0  0  0  0  0  0  0  0  0  0  0  0  # atno 17320 bound_to 7965
  145.6921  141.0161  143.1549 LP  0  0  0  0  0  0  0  0  0  0  0  0  # atno 17321 bound_to 7965
  140.7703  143.3426  151.2177 LP  0  0  0  0  0  0  0  0  0  0  0  0  # atno 17342 bound_to 10162
  139.7012  143.9529  152.2906 LP  0  0  0  0  0  0  0  0  0  0  0  0  # atno 17343 bound_to 10162
  157.2114  131.0461  151.2597 LP  0  0  0  0  0  0  0  0  0  0  0  0  # atno 17370 bound_to 10713
  157.3885  130.7269  149.6680 LP  0  0  0  0  0  0  0  0  0  0  0  0  # atno 17371 bound_to 10713
  141.0537  133.6876  156.1819 LP  0  0  0  0  0  0  0  0  0  0  0  0  # atno 17394 bound_to 11000
  140.6771  134.4806  157.5588 LP  0  0  0  0  0  0  0  0  0  0  0  0  # atno 17395 bound_to 11000

$$$$
