AV-unprocessed.smi:1011|AV-procd|sdf|4419|dock5
  -GOLD-   22720 2363D 1   1.00000     0.00000
 Structure written by MMmdl.
 44 46  0  0  0  0  0  0  0  0  2 V2000
  150.6312  135.8457  154.8173 C   0  0  0  0  0  0  0  0  0  0  0  0
  150.5064  137.3390  154.7193 C   0  0  0  0  0  0  0  0  0  0  0  0
  151.5550  138.3010  154.6776 C   0  0  0  0  0  0  0  0  0  0  0  0
  151.1092  139.5432  154.5851 N   0  0  0  0  0  0  0  0  0  0  0  0
  149.7646  139.4192  154.5676 N   0  0  0  0  0  0  0  0  0  0  0  0
  148.9299  140.6027  154.4537 C   0  0  0  0  0  0  0  0  0  0  0  0
  148.8725  141.3896  155.7724 C   0  0  0  0  0  0  0  0  0  0  0  0
  150.1000  141.1896  156.5662 N   0  3  0  0  0  0  0  0  0  0  0  0
  150.9601  142.3820  156.6696 C   0  0  0  0  0  0  0  0  0  0  0  0
  151.6884  142.1615  157.9599 C   0  0  0  0  0  0  0  0  0  0  0  0
  152.4214  141.0684  158.1722 N   0  0  0  0  0  0  0  0  0  0  0  0
  152.9018  141.2676  159.4521 C   0  0  0  0  0  0  0  0  0  0  0  0
  153.7397  140.4608  160.2545 C   0  0  0  0  0  0  0  0  0  0  0  0
  154.1033  140.8780  161.5520 C   0  0  0  0  0  0  0  0  0  0  0  0
  155.1262  139.8802  162.5186 Cl  0  0  0  0  0  0  0  0  0  0  0  0
  153.6353  142.1062  162.0632 C   0  0  0  0  0  0  0  0  0  0  0  0
  152.8003  142.9259  161.2797 C   0  0  0  0  0  0  0  0  0  0  0  0
  152.4403  142.5041  159.9861 C   0  0  0  0  0  0  0  0  0  0  0  0
  151.6541  143.0578  158.9804 N   0  0  0  0  0  0  0  0  0  0  0  0
  150.9582  144.3376  159.0493 C   0  0  0  0  0  0  0  0  0  0  0  0
  151.9212  145.5219  159.2311 C   0  0  0  0  0  0  0  0  0  0  0  0
  151.6030  146.2608  160.3917 O   0  0  0  0  0  0  0  0  0  0  0  0
  149.3737  138.0995  154.6469 C   0  0  0  0  0  0  0  0  0  0  0  0
  151.4437  135.5521  155.4821 H   0  0  0  0  0  0  0  0  0  0  0  0
  150.8322  135.3955  153.8451 H   0  0  0  0  0  0  0  0  0  0  0  0
  149.7206  135.3865  155.2027 H   0  0  0  0  0  0  0  0  0  0  0  0
  152.6217  138.1336  154.7097 H   0  0  0  0  0  0  0  0  0  0  0  0
  149.3401  141.2332  153.6639 H   0  0  0  0  0  0  0  0  0  0  0  0
  147.9301  140.3075  154.1313 H   0  0  0  0  0  0  0  0  0  0  0  0
  148.7400  142.4507  155.5561 H   0  0  0  0  0  0  0  0  0  0  0  0
  148.0137  141.0749  156.3659 H   0  0  0  0  0  0  0  0  0  0  0  0
  149.8542  140.8748  157.4940 H   0  0  0  0  0  0  0  0  0  0  0  0
  151.6592  142.4549  155.8365 H   0  0  0  0  0  0  0  0  0  0  0  0
  150.3629  143.2938  156.7085 H   0  0  0  0  0  0  0  0  0  0  0  0
  154.1026  139.5186  159.8709 H   0  0  0  0  0  0  0  0  0  0  0  0
  153.9173  142.4196  163.0580 H   0  0  0  0  0  0  0  0  0  0  0  0
  152.4403  143.8662  161.6702 H   0  0  0  0  0  0  0  0  0  0  0  0
  150.3909  144.4649  158.1265 H   0  0  0  0  0  0  0  0  0  0  0  0
  150.2217  144.3210  159.8521 H   0  0  0  0  0  0  0  0  0  0  0  0
  152.9512  145.1717  159.3045 H   0  0  0  0  0  0  0  0  0  0  0  0
  151.8685  146.1846  158.3669 H   0  0  0  0  0  0  0  0  0  0  0  0
  151.9881  147.1208  160.3148 H   0  0  0  0  0  0  0  0  0  0  0  0
  148.3322  137.8125  154.6418 H   0  0  0  0  0  0  0  0  0  0  0  0
  150.6401  140.4638  156.1161 H   0  0  0  0  0  0  0  0  0  0  0  0
  1  2  1  0  0  0  0
  1 24  1  0  0  0  0
  1 25  1  0  0  0  0
  1 26  1  0  0  0  0
  2 23  2  0  0  0  0
  2  3  1  0  0  0  0
  3  4  2  0  0  0  0
  3 27  1  0  0  0  0
  4  5  1  0  0  0  0
  5  6  1  0  0  0  0
  5 23  1  0  0  0  0
  6  7  1  0  0  0  0
  6 28  1  0  0  0  0
  6 29  1  0  0  0  0
  7  8  1  0  0  0  0
  7 30  1  0  0  0  0
  7 31  1  0  0  0  0
  8  9  1  0  0  0  0
  8 32  1  0  0  0  0
  8 44  1  0  0  0  0
  9 10  1  0  0  0  0
  9 33  1  0  0  0  0
  9 34  1  0  0  0  0
 10 19  1  0  0  0  0
 10 11  2  0  0  0  0
 11 12  1  0  0  0  0
 12 18  2  0  0  0  0
 12 13  1  0  0  0  0
 13 14  2  0  0  0  0
 13 35  1  0  0  0  0
 14 15  1  0  0  0  0
 14 16  1  0  0  0  0
 16 17  2  0  0  0  0
 16 36  1  0  0  0  0
 17 18  1  0  0  0  0
 17 37  1  0  0  0  0
 18 19  1  0  0  0  0
 19 20  1  0  0  0  0
 20 21  1  0  0  0  0
 20 38  1  0  0  0  0
 20 39  1  0  0  0  0
 21 22  1  0  0  0  0
 21 40  1  0  0  0  0
 21 41  1  0  0  0  0
 22 42  1  0  0  0  0
 23 43  1  0  0  0  0
M  CHG  1   8   1
M  END
> <s_m_source_file>
AV-unprocessed.smi

> <i_m_source_file_index>
1011

> <i_lp_mmshare_version>
43012

> <i_f3d_flags>
0

> <s_epik_input>
W0NIM11jMVtjSF1ubihbY0hdMSlbQ0gyXVtDSDJdW05IXVtDSDJdYyhuMiluKFtDSDJdW0NIMl1bT0hdKWMoYzIzKVtjSF1bY0hdYyhDbClbY0hdMw==

> <s_epik_cmdline>
J2VwaWtfcHl0aG9uJywgJy1waCcsICc3LjAnLCAnLXRuJywgJzgnLCAnLW1hJywgJzIwMCcsICctbWV0YWxfYmluZGluZycsICctaW1hZScsICc8aW5maWxlLm1hZT4nLCAnLW9tYWUnLCAnPG91dGZpbGUubWFlPic=

> <r_lp_tautomer_probability>
1

> <r_epik_Ionization_Penalty>
0.234823

> <r_epik_Ionization_Penalty_Charging>
0.2345

> <r_epik_Ionization_Penalty_Neutral>
0.00032281

> <r_epik_State_Penalty>
0.238632

> <r_epik_Charging_Adjusted_Penalty>
0.473132

> <i_epik_Tot_Q>
1

> <i_epik_Tot_abs_Q>
1

> <r_epik_Metal_State_Penalty>
0.25397

> <b_epik_Metal_Only>
0

> <s_lp_Force_Field>
OPLS_2005

> <r_lp_Energy>
6.60255

> <b_lp_Chiralities_Consistent>
1

> <s_lp_Variant>
AV-unprocessed.smi:1011-1

> <Gold.Version>
5.8.1

> <Gold.Id.Protein>
6NUR|6NUR_protein|mol2

> <Gold.PLP.Fitness>
56.9032

> <Gold.PLP.PLP>
-56.3638

> <Gold.PLP.part.hbond>
-4.0425

> <Gold.PLP.part.metal>
0.0000

> <Gold.PLP.part.buried>
-6.1636

> <Gold.PLP.part.nonpolar>
-46.9603

> <Gold.PLP.part.repulsive>
0.1373

> <Gold.PLP.ligand.clash>
0.0000

> <Gold.PLP.ligand.torsion>
1.2788

> <Gold.PLP.Chemscore.Hbond>
1.0000

> <Gold.PLP.Chemscore.CHOScore>
0.0000

> <Gold.PLP.Chemscore.Metal>
0.0000

> <Gold.Chemscore.Hbonds>
donor molecule, donor type, donor heavy atom, donor atom, acceptor molecule, acceptor atom, score
      P1  H  7989  7998       L1     4  1.00

> <Gold.PLP.Chemscore.Internal.Correction>
0.0970

> <Gold.Rescore>
     Score         DG    S(hbond)    S(metal)    S(lipo)     H(rot)  DE(clash)    DE(int)     intcor
     15.48     -17.14       0.98        0.00     135.90       2.94       0.22       1.43       ----

> <Gold.Chemscore.Fitness>
15.4843

> <Gold.Chemscore.DG>
-17.1379

> <Gold.Chemscore.ZeroCoef>
-5.4800

> <Gold.Chemscore.Hbond>
0.9814

> <Gold.Chemscore.Metal>
0.0000

> <Gold.Chemscore.Lipo>
135.9045

> <Gold.Chemscore.Internal_Hbond>
0.0000

> <Gold.Chemscore.DEClash>
0.2249

> <Gold.Chemscore.DEInternal>
1.4288

> <Gold.Chemscore.Rot>
2.9378

> <Gold.Chemscore.Internal.Correction>
   9.000000E+99

> <Gold.Chemscore.Hbonds>
donor molecule, donor type, donor heavy atom, donor atom, acceptor molecule, acceptor atom, score
      P1  H  7989  7998       L1     4  0.78

> <Gold.Chemscore.Hbond.Weighted>
-3.2780

> <Gold.Chemscore.Metal.Weighted>
-0.0000

> <Gold.Chemscore.Lipo.Weighted>
-15.9008

> <Gold.Chemscore.Internal_Hbond.Weighted>
0.0000

> <Gold.Chemscore.DEClash.Weighted>
0.2249

> <Gold.Chemscore.DEInternal.Weighted>
1.4288

> <Gold.Chemscore.Rot.Weighted>
7.5209

> <Gold.Chemscore.Internal.Correction.Weighted>
   9.000000E+99

> <Gold.Protein.RotatedTorsions>
[ 6907 6896 6895 6894 ] final -176.80 input  -60.11 | X-H torsion
[ 7974 7965 7964 7962 ] final   54.18 input  175.53 | X-H torsion
[ 8008 7997 7996 7995 ] final   35.92 input   59.86 | X-H torsion
[ 10167 10162 10161 10158 ] final  -47.24 input  -65.29 | X-H torsion
[ 10718 10713 10712 10709 ] final   27.00 input   66.30 | X-H torsion
[ 10763 10752 10751 10750 ] final   40.68 input  -60.55 | X-H torsion
[ 11005 11000 10999 10996 ] final  -24.95 input  -57.11 | X-H torsion

> <Gold.Protein.ActiveResidues>
 VAL166  LYS551  ARG553  GLY616  TRP617  ASP618  TYR619  PRO620  LYS621  CYS622 
 ASP623  PHE694  ASN695  SER759  ASP760  ASP761  ALA762  ILE779  LEU786  VAL792 
 PHE793  MET794  SER795  GLU796  ALA797  LYS798  CYS799  TRP800  GLU811  SER814 

> <Gold.Protein.RotatedAtoms>
  151.6106  133.3347  159.3066 H   0  0  0  0  0  0  0  0  0  0  0  0  # atno 6907 bound_to 6896
  150.8158  134.7343  159.6740 H   0  0  0  0  0  0  0  0  0  0  0  0  # atno 6908 bound_to 6896
  152.4254  134.5883  160.0018 H   0  0  0  0  0  0  0  0  0  0  0  0  # atno 6909 bound_to 6896
  145.9636  139.4082  143.0233 H   0  0  0  0  0  0  0  0  0  0  0  0  # atno 7974 bound_to 7965
  155.1789  140.3298  155.4379 H   0  0  0  0  0  0  0  0  0  0  0  0  # atno 8008 bound_to 7997
  156.2484  140.1930  156.6839 H   0  0  0  0  0  0  0  0  0  0  0  0  # atno 8009 bound_to 7997
  154.6285  140.0586  156.9689 H   0  0  0  0  0  0  0  0  0  0  0  0  # atno 8010 bound_to 7997
  140.6783  143.2793  151.3898 H   0  0  0  0  0  0  0  0  0  0  0  0  # atno 10167 bound_to 10162
  157.2143  130.6949  149.6242 H   0  0  0  0  0  0  0  0  0  0  0  0  # atno 10718 bound_to 10713
  152.9929  135.6184  154.2666 H   0  0  0  0  0  0  0  0  0  0  0  0  # atno 10763 bound_to 10752
  154.2400  135.2789  155.2859 H   0  0  0  0  0  0  0  0  0  0  0  0  # atno 10764 bound_to 10752
  154.5377  135.5770  153.6870 H   0  0  0  0  0  0  0  0  0  0  0  0  # atno 10765 bound_to 10752
  140.8893  133.7600  156.0400 H   0  0  0  0  0  0  0  0  0  0  0  0  # atno 11005 bound_to 11000
  145.8006  140.9773  143.1001 LP  0  0  0  0  0  0  0  0  0  0  0  0  # atno 17320 bound_to 7965
  144.6820  139.9796  143.7483 LP  0  0  0  0  0  0  0  0  0  0  0  0  # atno 17321 bound_to 7965
  139.6089  144.1139  152.2278 LP  0  0  0  0  0  0  0  0  0  0  0  0  # atno 17342 bound_to 10162
  140.0547  144.5905  150.7309 LP  0  0  0  0  0  0  0  0  0  0  0  0  # atno 17343 bound_to 10162
  155.9688  130.4541  150.5836 LP  0  0  0  0  0  0  0  0  0  0  0  0  # atno 17370 bound_to 10713
  157.3640  131.0754  151.1613 LP  0  0  0  0  0  0  0  0  0  0  0  0  # atno 17371 bound_to 10713
  140.8367  134.3115  157.5329 LP  0  0  0  0  0  0  0  0  0  0  0  0  # atno 17394 bound_to 11000
  139.8728  134.9393  156.3739 LP  0  0  0  0  0  0  0  0  0  0  0  0  # atno 17395 bound_to 11000

$$$$
