AV-unprocessed.smi:213|AV-procd|sdf|1647|dock8
  -GOLD-   2262020 23D 1   1.00000     0.00000
 Structure written by MMmdl.
 58 61  0  0  0  0  0  0  0  0  1 V2000
  145.7625  138.1916  154.9341 C   0  0  0  0  0  0  0  0  0  0  0  0
  145.6697  138.2893  153.4012 C   0  0  2  0  0  0  0  0  0  0  0  0
  145.6329  136.8990  152.7279 C   0  0  0  0  0  0  0  0  0  0  0  0
  144.2971  136.3694  152.4503 N   0  0  0  0  0  0  0  0  0  0  0  0
  143.3323  136.8405  153.4384 C   0  0  0  0  0  0  0  0  0  0  0  0
  141.9182  136.3004  153.1646 C   0  0  0  0  0  0  0  0  0  0  0  0
  141.9502  134.8776  153.1342 O   0  0  0  0  0  0  0  0  0  0  0  0
  142.8481  134.3703  152.1527 C   0  0  0  0  0  0  0  0  0  0  0  0
  144.2653  134.9079  152.4185 C   0  0  0  0  0  0  0  0  0  0  0  0
  146.7627  139.1025  152.8608 N   0  0  0  0  0  0  0  0  0  0  0  0
  146.9428  139.2679  151.4201 C   0  0  0  0  0  0  0  0  0  0  0  0
  147.5770  139.8014  153.6956 C   0  0  0  0  0  0  0  0  0  0  0  0
  147.1415  141.0017  154.1629 N   0  0  0  0  0  0  0  0  0  0  0  0
  147.9006  141.7241  154.9913 C   0  0  0  0  0  0  0  0  0  0  0  0
  149.1131  141.4431  155.4698 N   0  0  0  0  0  0  0  0  0  0  0  0
  149.5672  140.2489  154.9935 C   0  0  0  0  0  0  0  0  0  0  0  0
  148.8729  139.3715  154.1110 C   0  0  0  0  0  0  0  0  0  0  0  0
  149.6680  138.2627  153.8375 N   0  0  0  0  0  0  0  0  0  0  0  0
  150.7577  138.4663  154.5250 C   0  0  0  0  0  0  0  0  0  0  0  0
  150.7823  139.6366  155.2464 N   0  0  0  0  0  0  0  0  0  0  0  0
  151.8686  140.1143  156.0837 C   0  0  0  0  0  0  0  0  0  0  0  0
  151.3854  140.5484  157.4816 C   0  0  1  0  0  0  0  0  0  0  0  0
  150.7232  139.4816  158.1348 O   0  0  0  0  0  0  0  0  0  0  0  0
  152.5232  141.1067  158.3616 C   0  0  1  0  0  0  0  0  0  0  0  0
  152.1055  141.8133  159.6548 C   0  0  0  0  0  0  0  0  0  0  0  0
  153.3662  141.6856  160.4807 C   0  0  0  0  0  0  0  0  0  0  0  0
  153.8463  140.2875  160.0995 C   0  0  0  0  0  0  0  0  0  0  0  0
  153.4520  140.0949  158.7438 O   0  0  0  0  0  0  0  0  0  0  0  0
  144.8969  137.6726  155.3461 H   0  0  0  0  0  0  0  0  0  0  0  0
  145.7943  139.1814  155.3896 H   0  0  0  0  0  0  0  0  0  0  0  0
  146.6529  137.6500  155.2529 H   0  0  0  0  0  0  0  0  0  0  0  0
  144.7331  138.7831  153.1557 H   0  0  0  0  0  0  0  0  0  0  0  0
  146.2033  136.9341  151.7982 H   0  0  0  0  0  0  0  0  0  0  0  0
  146.1625  136.1965  153.3728 H   0  0  0  0  0  0  0  0  0  0  0  0
  143.6472  136.5366  154.4380 H   0  0  0  0  0  0  0  0  0  0  0  0
  143.3052  137.9308  153.4388 H   0  0  0  0  0  0  0  0  0  0  0  0
  141.2302  136.6255  153.9451 H   0  0  0  0  0  0  0  0  0  0  0  0
  141.5341  136.6837  152.2177 H   0  0  0  0  0  0  0  0  0  0  0  0
  142.8422  133.2808  152.1930 H   0  0  0  0  0  0  0  0  0  0  0  0
  142.5080  134.6557  151.1559 H   0  0  0  0  0  0  0  0  0  0  0  0
  144.9283  134.5271  151.6429 H   0  0  0  0  0  0  0  0  0  0  0  0
  144.6302  134.5087  153.3661 H   0  0  0  0  0  0  0  0  0  0  0  0
  148.0021  139.2921  151.1607 H   0  0  0  0  0  0  0  0  0  0  0  0
  146.4839  140.1983  151.0844 H   0  0  0  0  0  0  0  0  0  0  0  0
  146.4861  138.4481  150.8666 H   0  0  0  0  0  0  0  0  0  0  0  0
  147.4752  142.6615  155.3179 H   0  0  0  0  0  0  0  0  0  0  0  0
  151.5812  137.7671  154.5200 H   0  0  0  0  0  0  0  0  0  0  0  0
  152.6204  139.3279  156.1628 H   0  0  0  0  0  0  0  0  0  0  0  0
  152.3472  140.9517  155.5746 H   0  0  0  0  0  0  0  0  0  0  0  0
  150.6445  141.3395  157.3588 H   0  0  0  0  0  0  0  0  0  0  0  0
  151.2723  139.1727  158.8389 H   0  0  0  0  0  0  0  0  0  0  0  0
  153.0947  141.8202  157.7654 H   0  0  0  0  0  0  0  0  0  0  0  0
  151.8009  142.8480  159.4953 H   0  0  0  0  0  0  0  0  0  0  0  0
  151.2901  141.2915  160.1568 H   0  0  0  0  0  0  0  0  0  0  0  0
  154.0970  142.4333  160.1689 H   0  0  0  0  0  0  0  0  0  0  0  0
  153.1938  141.8001  161.5512 H   0  0  0  0  0  0  0  0  0  0  0  0
  154.9227  140.1669  160.2233 H   0  0  0  0  0  0  0  0  0  0  0  0
  153.3488  139.5355  160.7130 H   0  0  0  0  0  0  0  0  0  0  0  0
  1  2  1  0  0  0  0
  1 29  1  0  0  0  0
  1 30  1  0  0  0  0
  1 31  1  0  0  0  0
  2  3  1  0  0  0  0
  2 10  1  0  0  0  0
  2 32  1  0  0  0  0
  3  4  1  0  0  0  0
  3 33  1  0  0  0  0
  3 34  1  0  0  0  0
  4  9  1  0  0  0  0
  4  5  1  0  0  0  0
  5  6  1  0  0  0  0
  5 35  1  0  0  0  0
  5 36  1  0  0  0  0
  6  7  1  0  0  0  0
  6 37  1  0  0  0  0
  6 38  1  0  0  0  0
  7  8  1  0  0  0  0
  8  9  1  0  0  0  0
  8 39  1  0  0  0  0
  8 40  1  0  0  0  0
  9 41  1  0  0  0  0
  9 42  1  0  0  0  0
 10 11  1  0  0  0  0
 10 12  1  0  0  0  0
 11 43  1  0  0  0  0
 11 44  1  0  0  0  0
 11 45  1  0  0  0  0
 12 17  1  0  0  0  0
 12 13  2  0  0  0  0
 13 14  1  0  0  0  0
 14 15  2  0  0  0  0
 14 46  1  0  0  0  0
 15 16  1  0  0  0  0
 16 20  1  0  0  0  0
 16 17  2  0  0  0  0
 17 18  1  0  0  0  0
 18 19  2  0  0  0  0
 19 20  1  0  0  0  0
 19 47  1  0  0  0  0
 20 21  1  0  0  0  0
 21 22  1  0  0  0  0
 21 48  1  0  0  0  0
 21 49  1  0  0  0  0
 22 23  1  0  0  0  0
 22 24  1  0  0  0  0
 22 50  1  0  0  0  0
 23 51  1  0  0  0  0
 24 28  1  0  0  0  0
 24 25  1  0  0  0  0
 24 52  1  0  0  0  0
 25 26  1  0  0  0  0
 25 53  1  0  0  0  0
 25 54  1  0  0  0  0
 26 27  1  0  0  0  0
 26 55  1  0  0  0  0
 26 56  1  0  0  0  0
 27 28  1  0  0  0  0
 27 57  1  0  0  0  0
 27 58  1  0  0  0  0
M  END
> <s_m_source_file>
AV-unprocessed.smi

> <i_m_source_file_index>
213

> <i_lp_mmshare_version>
43012

> <i_f3d_flags>
0

> <s_epik_input>
W0NIMl0xW0NIMl1PW0NIMl1bQ0gyXU4xW0NIMl1bQ0BASF0oW0NIM10pTihbQ0gzXSljKG5bY0hdbjIpYyhjMjMpbltjSF1uM1tDSDJdW0NASF0oW09IXSlbQ0BASF00W0NIMl1bQ0gyXVtDSDJdTzQ=

> <s_epik_cmdline>
J2VwaWtfcHl0aG9uJywgJy1waCcsICc3LjAnLCAnLXRuJywgJzgnLCAnLW1hJywgJzIwMCcsICctbWV0YWxfYmluZGluZycsICctaW1hZScsICc8aW5maWxlLm1hZT4nLCAnLW9tYWUnLCAnPG91dGZpbGUubWFlPic=

> <r_lp_tautomer_probability>
1

> <r_epik_Ionization_Penalty>
0.423322

> <r_epik_Ionization_Penalty_Charging>
0

> <r_epik_Ionization_Penalty_Neutral>
0.423322

> <r_epik_State_Penalty>
0.569486

> <r_epik_Charging_Adjusted_Penalty>
0.569486

> <i_epik_Tot_Q>
0

> <i_epik_Tot_abs_Q>
0

> <r_epik_Metal_State_Penalty>
0.568671

> <b_epik_Metal_Only>
0

> <s_lp_Force_Field>
OPLS_2005

> <r_lp_Energy>
53.6453

> <b_lp_Chiralities_Consistent>
1

> <s_lp_Variant>
AV-unprocessed.smi:213-15

> <Gold.Version>
5.8.1

> <Gold.Id.Protein>
6NUR|6NUR_protein|mol2

> <Gold.PLP.Fitness>
41.1372

> <Gold.PLP.PLP>
-41.8898

> <Gold.PLP.part.hbond>
-1.0000

> <Gold.PLP.part.metal>
0.0000

> <Gold.PLP.part.buried>
-2.6883

> <Gold.PLP.part.nonpolar>
-40.0061

> <Gold.PLP.part.repulsive>
2.1894

> <Gold.PLP.ligand.clash>
0.9576

> <Gold.PLP.ligand.torsion>
2.6575

> <Gold.PLP.Chemscore.Hbond>
0.9440

> <Gold.PLP.Chemscore.CHOScore>
0.8353

> <Gold.PLP.Chemscore.Metal>
0.0000

> <Gold.Chemscore.Hbonds>
donor molecule, donor type, donor heavy atom, donor atom, acceptor molecule, acceptor atom, score
      P1  H  7997  8008       L1    28  0.99
      L1  C    14    46       P1  8028  0.86

> <Gold.PLP.Chemscore.Internal.Correction>
0.1821

> <Gold.Rescore>
     Score         DG    S(hbond)    S(metal)    S(lipo)     H(rot)  DE(clash)    DE(int)     intcor
      7.74     -11.47       0.82        0.00      87.68       2.74       1.54       2.19       ----

> <Gold.Chemscore.Fitness>
7.7416

> <Gold.Chemscore.DG>
-11.4716

> <Gold.Chemscore.ZeroCoef>
-5.4800

> <Gold.Chemscore.Hbond>
0.8210

> <Gold.Chemscore.Metal>
0.0000

> <Gold.Chemscore.Lipo>
87.6774

> <Gold.Chemscore.Internal_Hbond>
0.0000

> <Gold.Chemscore.DEClash>
1.5397

> <Gold.Chemscore.DEInternal>
2.1903

> <Gold.Chemscore.Rot>
2.7378

> <Gold.Chemscore.Internal.Correction>
   9.000000E+99

> <Gold.Chemscore.Hbonds>
donor molecule, donor type, donor heavy atom, donor atom, acceptor molecule, acceptor atom, score
      P1  H  7997  8008       L1    28  0.34

> <Gold.Chemscore.Hbond.Weighted>
-2.7420

> <Gold.Chemscore.Metal.Weighted>
-0.0000

> <Gold.Chemscore.Lipo.Weighted>
-10.2583

> <Gold.Chemscore.Internal_Hbond.Weighted>
0.0000

> <Gold.Chemscore.DEClash.Weighted>
1.5397

> <Gold.Chemscore.DEInternal.Weighted>
2.1903

> <Gold.Chemscore.Rot.Weighted>
7.0087

> <Gold.Chemscore.Internal.Correction.Weighted>
   9.000000E+99

> <Gold.Protein.RotatedTorsions>
[ 6907 6896 6895 6894 ] final  -57.98 input  -60.11 | X-H torsion
[ 7974 7965 7964 7962 ] final  172.60 input  175.53 | X-H torsion
[ 8008 7997 7996 7995 ] final  -96.87 input   59.86 | X-H torsion
[ 10167 10162 10161 10158 ] final  -35.19 input  -65.29 | X-H torsion
[ 10718 10713 10712 10709 ] final -117.75 input   66.30 | X-H torsion
[ 10763 10752 10751 10750 ] final   23.53 input  -60.55 | X-H torsion
[ 11005 11000 10999 10996 ] final   22.34 input  -57.11 | X-H torsion

> <Gold.Protein.ActiveResidues>
 VAL166  LYS551  ARG553  GLY616  TRP617  ASP618  TYR619  PRO620  LYS621  CYS622 
 ASP623  PHE694  ASN695  SER759  ASP760  ASP761  ALA762  ILE779  LEU786  VAL792 
 PHE793  MET794  SER795  GLU796  ALA797  LYS798  CYS799  TRP800  GLU811  SER814 

> <Gold.Protein.RotatedAtoms>
  150.8043  134.7157  159.6628 H   0  0  0  0  0  0  0  0  0  0  0  0  # atno 6907 bound_to 6896
  152.4161  134.6035  160.0016 H   0  0  0  0  0  0  0  0  0  0  0  0  # atno 6908 bound_to 6896
  151.6264  133.3298  159.3135 H   0  0  0  0  0  0  0  0  0  0  0  0  # atno 6909 bound_to 6896
  144.7264  139.9523  143.6432 H   0  0  0  0  0  0  0  0  0  0  0  0  # atno 7974 bound_to 7965
  154.7801  140.0468  157.1120 H   0  0  0  0  0  0  0  0  0  0  0  0  # atno 8008 bound_to 7997
  154.9715  140.3090  155.4966 H   0  0  0  0  0  0  0  0  0  0  0  0  # atno 8009 bound_to 7997
  156.2935  140.2252  156.4807 H   0  0  0  0  0  0  0  0  0  0  0  0  # atno 8010 bound_to 7997
  140.7170  143.3495  151.2186 H   0  0  0  0  0  0  0  0  0  0  0  0  # atno 10167 bound_to 10162
  156.1056  130.6208  150.9204 H   0  0  0  0  0  0  0  0  0  0  0  0  # atno 10718 bound_to 10713
  153.0831  135.6625  154.0003 H   0  0  0  0  0  0  0  0  0  0  0  0  # atno 10763 bound_to 10752
  153.9620  135.2973  155.3434 H   0  0  0  0  0  0  0  0  0  0  0  0  # atno 10764 bound_to 10752
  154.7235  135.5154  153.8921 H   0  0  0  0  0  0  0  0  0  0  0  0  # atno 10765 bound_to 10752
  140.3817  134.1914  155.7663 H   0  0  0  0  0  0  0  0  0  0  0  0  # atno 11005 bound_to 11000
  146.0701  139.3691  143.0528 LP  0  0  0  0  0  0  0  0  0  0  0  0  # atno 17320 bound_to 7965
  145.7979  140.9785  143.1014 LP  0  0  0  0  0  0  0  0  0  0  0  0  # atno 17321 bound_to 7965
  139.7022  143.9514  152.2910 LP  0  0  0  0  0  0  0  0  0  0  0  0  # atno 17342 bound_to 10162
  139.9211  144.6799  150.8461 LP  0  0  0  0  0  0  0  0  0  0  0  0  # atno 17343 bound_to 10162
  157.6233  131.0928  150.8582 LP  0  0  0  0  0  0  0  0  0  0  0  0  # atno 17370 bound_to 10713
  156.8702  130.5143  149.5297 LP  0  0  0  0  0  0  0  0  0  0  0  0  # atno 17371 bound_to 10713
  141.1921  133.8180  157.0852 LP  0  0  0  0  0  0  0  0  0  0  0  0  # atno 17394 bound_to 11000
  140.0474  134.9823  157.1073 LP  0  0  0  0  0  0  0  0  0  0  0  0  # atno 17395 bound_to 11000

$$$$
