#       Name:                AV-unprocessed.smi:1097
#       Creating user name   scv26
#       Creation time:       Fri Mar 27 03:28:49 2020


#       File generated by GOLD software.
#

@<TRIPOS>MOLECULE
AV-unprocessed.smi:1097
    49    50     1
SMALL
NO_CHARGES


@<TRIPOS>ATOM
      1 ****        -6.1382   2.9004  -0.2229 C.3            1 S1                 0.0000
      2 ****        -5.7074   1.5507  -0.2286 O.3            1 S1                 0.0000
      3 ****        -4.3031   1.4290  -0.0775 C.3            1 S1                 0.0000
      4 ****        -3.9238  -0.0539  -0.1089 C.3            1 S1                 0.0000
      5 ****        -2.5086  -0.1620   0.0081 O.3            1 S1                 0.0000
      6 ****        -1.9297  -1.4175  -0.0000 C.ar           1 S1                 0.0000
      7 ****        -2.7478  -2.4930  -0.1313 N.ar           1 S1                 0.0000
      8 ****        -2.2014  -3.7255  -0.1532 C.ar           1 S1                 0.0000
      9 ****        -0.8183  -3.9552  -0.0453 C.ar           1 S1                 0.0000
     10 ****         0.0337  -2.8442   0.0913 C.ar           1 S1                 0.0000
     11 ****        -0.5199  -1.5430   0.1087 C.ar           1 S1                 0.0000
     12 ****         0.3681  -0.3412   0.2774 C.2            1 S1                 0.0000
     13 ****         0.0171   0.6248   0.9554 O.2            1 S1                 0.0000
     14 ****         1.5330  -0.3926  -0.3886 N.am           1 S1                 0.0000
     15 ****         2.5421   0.6625  -0.3911 C.3            1 S1                 0.0000
     16 ****         3.5627   0.4693  -1.5238 C.3            1 S1                 0.0000
     17 ****         4.9034   0.6622  -0.8355 C.2            1 S1                 0.0000
     18 ****         5.9702   0.6907  -1.4471 O.2            1 S1                 0.0000
     19 ****         4.7494   0.7941   0.4853 N.am           1 S1                 0.0000
     20 ****         5.8208   0.9891   1.4522 C.3            1 S1                 0.0000
     21 ****         3.3668   0.6716   0.9119 C.3            1 S1                 0.0000
     22 ****        -7.2198   2.9402  -0.3511 H              1 S1                 0.0000
     23 ****        -5.6824   3.4631  -1.0387 H              1 S1                 0.0000
     24 ****        -5.8923   3.3895   0.7206 H              1 S1                 0.0000
     25 ****        -3.7936   1.9595  -0.8835 H              1 S1                 0.0000
     26 ****        -3.9853   1.8765   0.8655 H              1 S1                 0.0000
     27 ****        -4.4162  -0.5778   0.7121 H              1 S1                 0.0000
     28 ****        -4.2614  -0.4982  -1.0469 H              1 S1                 0.0000
     29 ****        -2.8871  -4.5531  -0.2591 H              1 S1                 0.0000
     30 ****        -0.4212  -4.9594  -0.0628 H              1 S1                 0.0000
     31 ****         1.0987  -2.9988   0.1863 H              1 S1                 0.0000
     32 ****         1.7320  -1.2176  -0.9357 H              1 S1                 0.0000
     33 ****         2.0583   1.6324  -0.5228 H              1 S1                 0.0000
     34 ****         3.5238  -0.5328  -1.9533 H              1 S1                 0.0000
     35 ****         3.4251   1.1956  -2.3256 H              1 S1                 0.0000
     36 ****         6.4052   1.8760   1.2036 H              1 S1                 0.0000
     37 ****         6.4892   0.1274   1.4596 H              1 S1                 0.0000
     38 ****         5.4229   1.1180   2.4595 H              1 S1                 0.0000
     39 ****         3.0790   1.4998   1.5608 H              1 S1                 0.0000
     40 ****         3.2544  -0.2557   1.4763 H              1 S1                 0.0000
     41 ****        -5.9740   1.1325  -1.0970 LP             1 S1                 0.0000
     42 ****        -6.1541   1.0682   0.5248 LP             1 S1                 0.0000
     43 ****        -2.2516   0.2736   0.8707 LP             1 S1                 0.0000
     44 ****        -2.1115   0.3487  -0.7545 LP             1 S1                 0.0000
     45 ****        -3.7374  -2.3733  -0.2104 LP             1 S1                 0.0000
     46 ****        -0.8748   0.6206   1.4076 LP             1 S1                 0.0000
     47 ****         0.6240   1.4135   1.0538 LP             1 S1                 0.0000
     48 ****         5.9796   0.5843  -2.4414 LP             1 S1                 0.0000
     49 ****         6.8282   0.8202  -0.9501 LP             1 S1                 0.0000
@<TRIPOS>BOND
    1    1    2 1     
    2    1   22 1     
    3    1   23 1     
    4    1   24 1     
    5    2    3 1     
    6    3    4 1     
    7    3   25 1     
    8    3   26 1     
    9    4    5 1     
   10    4   27 1     
   11    4   28 1     
   12    5    6 1     
   13    6   11 ar    
   14    6    7 ar    
   15    7    8 ar    
   16    8    9 ar    
   17    8   29 1     
   18    9   10 ar    
   19    9   30 1     
   20   10   11 ar    
   21   10   31 1     
   22   11   12 1     
   23   12   13 2     
   24   12   14 am    
   25   14   15 1     
   26   14   32 1     
   27   15   21 1     
   28   15   16 1     
   29   15   33 1     
   30   16   17 1     
   31   16   34 1     
   32   16   35 1     
   33   17   18 2     
   34   17   19 am    
   35   19   20 1     
   36   19   21 1     
   37   20   36 1     
   38   20   37 1     
   39   20   38 1     
   40   21   39 1     
   41   21   40 1     
   42    2   41 1     
   43    2   42 1     
   44    5   43 1     
   45    5   44 1     
   46    7   45 1     
   47   13   46 1     
   48   13   47 1     
   49   18   48 1     
   50   18   49 1     
@<TRIPOS>SUBSTRUCTURE
      1 S1             1
@<TRIPOS>SET
LONE_PAIRS      STATIC     ATOMS    <user>   **** ""
9 41 42 43 44 45 46 47 48 49
DONOR_HYDROGENS      STATIC     ATOMS    <user>   **** ""
1 32
ATOM$BLUE        STATIC     ATOMS    COLORGROUP SYSTEM
9 41 42 43 44 45 46 47 48 49
ATOM$RED        STATIC     ATOMS    COLORGROUP SYSTEM
1 32
