AV-unprocessed.smi:130|AV-procd|sdf|1160|dock10
  -GOLD-   2262018303D 1   1.00000     0.00000
 Structure written by MMmdl.
 44 47  0  0  0  0  0  0  0  0  1 V2000
  150.5745  140.7999  157.6983 O   0  0  0  0  0  0  0  0  0  0  0  0
  151.4641  140.5387  158.5089 C   0  0  0  0  0  0  0  0  0  0  0  0
  151.9765  139.0847  158.6095 C   0  0  0  0  0  0  0  0  0  0  0  0
  151.5710  138.2309  157.4702 N   0  0  0  0  0  0  0  0  0  0  0  0
  151.8648  138.6659  156.1537 C   0  0  0  0  0  0  0  0  0  0  0  0
  152.4601  139.7247  155.9488 O   0  0  0  0  0  0  0  0  0  0  0  0
  151.4069  137.7876  155.0829 C   0  0  0  0  0  0  0  0  0  0  0  0
  151.6359  138.1242  153.8022 F   0  0  0  0  0  0  0  0  0  0  0  0
  150.7508  136.6413  155.3571 C   0  0  0  0  0  0  0  0  0  0  0  0
  150.4749  136.2268  156.6474 N   0  0  0  0  0  0  0  0  0  0  0  0
  149.7263  134.9407  156.9199 C   0  0  1  0  0  0  0  0  0  0  0  0
  149.1239  134.3914  155.6216 C   0  0  0  0  0  0  0  0  0  0  0  0
  150.1946  133.4235  155.1672 C   0  0  0  0  0  0  0  0  0  0  0  0
  150.7074  132.8871  156.4989 C   0  0  0  0  0  0  0  0  0  0  0  0
  150.6225  133.9830  157.4062 O   0  0  0  0  0  0  0  0  0  0  0  0
  150.8712  137.0299  157.7386 C   0  0  0  0  0  0  0  0  0  0  0  0
  150.6028  136.6969  158.8950 O   0  0  0  0  0  0  0  0  0  0  0  0
  152.0244  141.4669  159.3240 N   0  0  0  0  0  0  0  0  0  0  0  0
  153.0908  141.1600  160.2934 C   0  0  0  0  0  0  0  0  0  0  0  0
  153.4345  142.4911  160.9977 C   0  0  0  0  0  0  0  0  0  0  0  0
  152.5033  143.4699  160.3459 C   0  0  0  0  0  0  0  0  0  0  0  0
  152.4020  144.8445  160.6215 C   0  0  0  0  0  0  0  0  0  0  0  0
  151.4573  145.6025  159.8982 C   0  0  0  0  0  0  0  0  0  0  0  0
  150.6397  144.9835  158.9250 C   0  0  0  0  0  0  0  0  0  0  0  0
  150.7549  143.6010  158.6607 C   0  0  0  0  0  0  0  0  0  0  0  0
  151.7050  142.8495  159.3894 C   0  0  0  0  0  0  0  0  0  0  0  0
  153.0626  139.1014  158.7076 H   0  0  0  0  0  0  0  0  0  0  0  0
  151.6290  138.6469  159.5460 H   0  0  0  0  0  0  0  0  0  0  0  0
  150.4286  136.0354  154.5237 H   0  0  0  0  0  0  0  0  0  0  0  0
  148.9878  135.1752  157.6881 H   0  0  0  0  0  0  0  0  0  0  0  0
  148.2041  133.8576  155.8640 H   0  0  0  0  0  0  0  0  0  0  0  0
  148.8973  135.1772  154.9000 H   0  0  0  0  0  0  0  0  0  0  0  0
  149.8151  132.6409  154.5098 H   0  0  0  0  0  0  0  0  0  0  0  0
  150.9879  133.9573  154.6426 H   0  0  0  0  0  0  0  0  0  0  0  0
  150.0610  132.0856  156.8586 H   0  0  0  0  0  0  0  0  0  0  0  0
  151.7245  132.5000  156.4333 H   0  0  0  0  0  0  0  0  0  0  0  0
  152.7509  140.4239  161.0229 H   0  0  0  0  0  0  0  0  0  0  0  0
  153.9706  140.7608  159.7873 H   0  0  0  0  0  0  0  0  0  0  0  0
  153.2463  142.4431  162.0707 H   0  0  0  0  0  0  0  0  0  0  0  0
  154.4722  142.7828  160.8335 H   0  0  0  0  0  0  0  0  0  0  0  0
  153.0303  145.3090  161.3673 H   0  0  0  0  0  0  0  0  0  0  0  0
  151.3581  146.6609  160.0890 H   0  0  0  0  0  0  0  0  0  0  0  0
  149.9197  145.5736  158.3776 H   0  0  0  0  0  0  0  0  0  0  0  0
  150.1166  143.1583  157.9129 H   0  0  0  0  0  0  0  0  0  0  0  0
  1  2  2  0  0  0  0
  2  3  1  0  0  0  0
  2 18  1  0  0  0  0
  3  4  1  0  0  0  0
  3 27  1  0  0  0  0
  3 28  1  0  0  0  0
  4 16  1  0  0  0  0
  4  5  1  0  0  0  0
  5  6  2  0  0  0  0
  5  7  1  0  0  0  0
  7  8  1  0  0  0  0
  7  9  2  0  0  0  0
  9 10  1  0  0  0  0
  9 29  1  0  0  0  0
 10 11  1  0  0  0  0
 10 16  1  0  0  0  0
 11 15  1  0  0  0  0
 11 12  1  0  0  0  0
 11 30  1  0  0  0  0
 12 13  1  0  0  0  0
 12 31  1  0  0  0  0
 12 32  1  0  0  0  0
 13 14  1  0  0  0  0
 13 33  1  0  0  0  0
 13 34  1  0  0  0  0
 14 15  1  0  0  0  0
 14 35  1  0  0  0  0
 14 36  1  0  0  0  0
 16 17  2  0  0  0  0
 18 26  1  0  0  0  0
 18 19  1  0  0  0  0
 19 20  1  0  0  0  0
 19 37  1  0  0  0  0
 19 38  1  0  0  0  0
 20 21  1  0  0  0  0
 20 39  1  0  0  0  0
 20 40  1  0  0  0  0
 21 26  2  0  0  0  0
 21 22  1  0  0  0  0
 22 23  2  0  0  0  0
 22 41  1  0  0  0  0
 23 24  1  0  0  0  0
 23 42  1  0  0  0  0
 24 25  2  0  0  0  0
 24 43  1  0  0  0  0
 25 26  1  0  0  0  0
 25 44  1  0  0  0  0
M  END
> <s_m_source_file>
AV-unprocessed.smi

> <i_m_source_file_index>
130

> <i_lp_mmshare_version>
43012

> <i_f3d_flags>
0

> <s_epik_input>
W2NIXTFbY0hdW2NIXVtjSF1jKGMxMilOKFtDSDJdW0NIMl0yKUMoPU8pW0NIMl1uM2MoPU8pYyhGKVtjSF1uKGMzPU8pW0NAQEhdNFtDSDJdW0NIMl1bQ0gyXU80

> <s_epik_cmdline>
J2VwaWtfcHl0aG9uJywgJy1waCcsICc3LjAnLCAnLXRuJywgJzgnLCAnLW1hJywgJzIwMCcsICctbWV0YWxfYmluZGluZycsICctaW1hZScsICc8aW5maWxlLm1hZT4nLCAnLW9tYWUnLCAnPG91dGZpbGUubWFlPic=

> <r_lp_tautomer_probability>
1

> <r_epik_Ionization_Penalty>
1.67926e-06

> <r_epik_Ionization_Penalty_Charging>
3.62822e-09

> <r_epik_Ionization_Penalty_Neutral>
1.67563e-06

> <r_epik_State_Penalty>
-0

> <r_epik_Charging_Adjusted_Penalty>
3.62822e-09

> <i_epik_Tot_Q>
0

> <i_epik_Tot_abs_Q>
0

> <r_epik_Metal_State_Penalty>
-0

> <b_epik_Metal_Only>
0

> <s_epik_Chemistry_Notes>
This compound contains an acetal/aminal-like group ( X-CH(R)-Y where X, Y are N, S, or O) that may be acid/base labile, releasing an aldehyde.

> <s_lp_Force_Field>
OPLS_2005

> <r_lp_Energy>
53.4438

> <b_lp_Chiralities_Consistent>
1

> <s_lp_Variant>
AV-unprocessed.smi:130-2

> <Gold.Version>
5.8.1

> <Gold.Id.Protein>
6NUR|6NUR_protein|mol2

> <Gold.PLP.Fitness>
53.9568

> <Gold.PLP.PLP>
-47.4852

> <Gold.PLP.part.hbond>
-3.0000

> <Gold.PLP.part.metal>
0.0000

> <Gold.PLP.part.buried>
-8.4116

> <Gold.PLP.part.nonpolar>
-35.4748

> <Gold.PLP.part.repulsive>
0.0092

> <Gold.PLP.ligand.clash>
0.0000

> <Gold.PLP.ligand.torsion>
0.5133

> <Gold.PLP.Chemscore.Hbond>
2.4960

> <Gold.PLP.Chemscore.CHOScore>
0.0000

> <Gold.PLP.Chemscore.Metal>
0.0000

> <Gold.Chemscore.Hbonds>
donor molecule, donor type, donor heavy atom, donor atom, acceptor molecule, acceptor atom, score
      P1  H  6896  6907       L1    15  0.50
      P1  H  6896  6908       L1    17  1.00
      P1  H  7997  8009       L1     6  1.00

> <Gold.PLP.Chemscore.Internal.Correction>
0.0103

> <Gold.Rescore>
     Score         DG    S(hbond)    S(metal)    S(lipo)     H(rot)  DE(clash)    DE(int)     intcor
     17.69     -23.38       2.65        0.00     111.73       1.57       0.10       5.59       ----

> <Gold.Chemscore.Fitness>
17.6942

> <Gold.Chemscore.DG>
-23.3803

> <Gold.Chemscore.ZeroCoef>
-5.4800

> <Gold.Chemscore.Hbond>
2.6492

> <Gold.Chemscore.Metal>
0.0000

> <Gold.Chemscore.Lipo>
111.7288

> <Gold.Chemscore.Internal_Hbond>
0.0000

> <Gold.Chemscore.DEClash>
0.1010

> <Gold.Chemscore.DEInternal>
5.5852

> <Gold.Chemscore.Rot>
1.5704

> <Gold.Chemscore.Internal.Correction>
   9.000000E+99

> <Gold.Chemscore.Hbonds>
donor molecule, donor type, donor heavy atom, donor atom, acceptor molecule, acceptor atom, score
      P1  H  6896  6907       L1    15  0.39
      P1  H  6896  6908       L1    17  0.98
      P1  H  7997  8009       L1     6  0.95

> <Gold.Chemscore.Hbond.Weighted>
-8.8483

> <Gold.Chemscore.Metal.Weighted>
-0.0000

> <Gold.Chemscore.Lipo.Weighted>
-13.0723

> <Gold.Chemscore.Internal_Hbond.Weighted>
0.0000

> <Gold.Chemscore.DEClash.Weighted>
0.1010

> <Gold.Chemscore.DEInternal.Weighted>
5.5852

> <Gold.Chemscore.Rot.Weighted>
4.0203

> <Gold.Chemscore.Internal.Correction.Weighted>
   9.000000E+99

> <Gold.Protein.RotatedTorsions>
[ 6907 6896 6895 6894 ] final -151.85 input  -60.11 | X-H torsion
[ 7974 7965 7964 7962 ] final  157.36 input  175.53 | X-H torsion
[ 8008 7997 7996 7995 ] final -172.34 input   59.86 | X-H torsion
[ 10167 10162 10161 10158 ] final   28.78 input  -65.29 | X-H torsion
[ 10718 10713 10712 10709 ] final -155.05 input   66.30 | X-H torsion
[ 10763 10752 10751 10750 ] final  -59.61 input  -60.55 | X-H torsion
[ 11005 11000 10999 10996 ] final  -63.47 input  -57.11 | X-H torsion

> <Gold.Protein.ActiveResidues>
 VAL166  LYS551  ARG553  GLY616  TRP617  ASP618  TYR619  PRO620  LYS621  CYS622 
 ASP623  PHE694  ASN695  SER759  ASP760  ASP761  ALA762  ILE779  LEU786  VAL792 
 PHE793  MET794  SER795  GLU796  ALA797  LYS798  CYS799  TRP800  GLU811  SER814 

> <Gold.Protein.RotatedAtoms>
  151.2192  133.4512  159.2600 H   0  0  0  0  0  0  0  0  0  0  0  0  # atno 6907 bound_to 6896
  151.0901  134.9911  159.8409 H   0  0  0  0  0  0  0  0  0  0  0  0  # atno 6908 bound_to 6896
  152.5433  134.2126  159.8809 H   0  0  0  0  0  0  0  0  0  0  0  0  # atno 6909 bound_to 6896
  144.7908  139.7329  143.6222 H   0  0  0  0  0  0  0  0  0  0  0  0  # atno 7974 bound_to 7965
  155.9433  140.1112  157.1038 H   0  0  0  0  0  0  0  0  0  0  0  0  # atno 8008 bound_to 7997
  154.4094  140.1215  156.5021 H   0  0  0  0  0  0  0  0  0  0  0  0  # atno 8009 bound_to 7997
  155.6935  140.3472  155.4905 H   0  0  0  0  0  0  0  0  0  0  0  0  # atno 8010 bound_to 7997
  140.4823  144.0597  150.6269 H   0  0  0  0  0  0  0  0  0  0  0  0  # atno 10167 bound_to 10162
  156.5075  130.8420  151.2633 H   0  0  0  0  0  0  0  0  0  0  0  0  # atno 10718 bound_to 10713
  154.2564  135.6316  153.5259 H   0  0  0  0  0  0  0  0  0  0  0  0  # atno 10763 bound_to 10752
  152.9903  135.5577  154.5751 H   0  0  0  0  0  0  0  0  0  0  0  0  # atno 10764 bound_to 10752
  154.5291  135.2887  155.1171 H   0  0  0  0  0  0  0  0  0  0  0  0  # atno 10765 bound_to 10752
  141.1394  133.6652  156.5685 H   0  0  0  0  0  0  0  0  0  0  0  0  # atno 11005 bound_to 11000
  146.2159  139.5548  142.9650 LP  0  0  0  0  0  0  0  0  0  0  0  0  # atno 17320 bound_to 7965
  145.5799  141.0384  143.2127 LP  0  0  0  0  0  0  0  0  0  0  0  0  # atno 17321 bound_to 7965
  140.3842  143.2786  152.0135 LP  0  0  0  0  0  0  0  0  0  0  0  0  # atno 17342 bound_to 10162
  139.4835  144.6130  151.7399 LP  0  0  0  0  0  0  0  0  0  0  0  0  # atno 17343 bound_to 10162
  157.7455  130.9961  150.2766 LP  0  0  0  0  0  0  0  0  0  0  0  0  # atno 17370 bound_to 10713
  156.3272  130.3795  149.7523 LP  0  0  0  0  0  0  0  0  0  0  0  0  # atno 17371 bound_to 10713
  140.3932  134.7422  157.4734 LP  0  0  0  0  0  0  0  0  0  0  0  0  # atno 17394 bound_to 11000
  140.0551  134.6075  155.8815 LP  0  0  0  0  0  0  0  0  0  0  0  0  # atno 17395 bound_to 11000

$$$$
