AV-unprocessed.smi:502|AV-procd|sdf|2745|dock2
  -GOLD-   2262023203D 1   1.00000     0.00000
 Structure written by MMmdl.
 49 51  0  0  0  0  0  0  0  0  2 V2000
  147.0201  133.5738  158.1093 C   0  0  0  0  0  0  0  0  0  0  0  0
  148.3929  133.7554  157.4711 C   0  0  0  0  0  0  0  0  0  0  0  0
  149.4124  133.5137  158.1170 O   0  0  0  0  0  0  0  0  0  0  0  0
  148.4057  134.1831  156.1997 N   0  0  0  0  0  0  0  0  0  0  0  0
  149.6089  134.4382  155.4164 C   0  0  0  0  0  0  0  0  0  0  0  0
  150.0161  133.2141  154.5795 C   0  0  0  0  0  0  0  0  0  0  0  0
  148.8836  132.7263  153.7348 C   0  0  0  0  0  0  0  0  0  0  0  0
  148.1718  133.4851  152.8537 N   0  3  0  0  0  0  0  0  0  0  0  0
  147.1832  132.7079  152.2495 C   0  0  0  0  0  0  0  0  0  0  0  0
  146.2233  133.0330  151.2960 C   0  0  0  0  0  0  0  0  0  0  0  0
  145.3579  131.9957  150.8901 C   0  0  0  0  0  0  0  0  0  0  0  0
  145.4666  130.6963  151.4270 C   0  0  0  0  0  0  0  0  0  0  0  0
  146.4441  130.3789  152.3930 C   0  0  0  0  0  0  0  0  0  0  0  0
  147.2943  131.4108  152.7900 C   0  0  0  0  0  0  0  0  0  0  0  0
  148.3502  131.4696  153.7067 N   0  0  0  0  0  0  0  0  0  0  0  0
  148.7103  130.2562  154.4535 C   0  0  0  0  0  0  0  0  0  0  0  0
  150.1542  129.8137  154.1809 C   0  0  0  0  0  0  0  0  0  0  0  0
  150.9989  130.4152  155.1508 O   0  0  0  0  0  0  0  0  0  0  0  0
  152.3468  130.1206  155.1219 C   0  0  0  0  0  0  0  0  0  0  0  0
  152.9259  129.1678  154.2446 C   0  0  0  0  0  0  0  0  0  0  0  0
  154.3113  128.9189  154.2714 C   0  0  0  0  0  0  0  0  0  0  0  0
  155.1361  129.6164  155.1713 C   0  0  0  0  0  0  0  0  0  0  0  0
  154.5738  130.5634  156.0460 C   0  0  0  0  0  0  0  0  0  0  0  0
  153.1860  130.8161  156.0239 C   0  0  0  0  0  0  0  0  0  0  0  0
  152.5966  131.8416  156.9743 C   0  0  0  0  0  0  0  0  0  0  0  0
  146.4286  132.8528  157.5447 H   0  0  0  0  0  0  0  0  0  0  0  0
  146.4820  134.5218  158.1309 H   0  0  0  0  0  0  0  0  0  0  0  0
  147.1130  133.2116  159.1336 H   0  0  0  0  0  0  0  0  0  0  0  0
  147.5192  134.3575  155.7479 H   0  0  0  0  0  0  0  0  0  0  0  0
  149.4101  135.2878  154.7641 H   0  0  0  0  0  0  0  0  0  0  0  0
  150.4239  134.7381  156.0775 H   0  0  0  0  0  0  0  0  0  0  0  0
  150.8529  133.4633  153.9259 H   0  0  0  0  0  0  0  0  0  0  0  0
  150.3614  132.4068  155.2254 H   0  0  0  0  0  0  0  0  0  0  0  0
  146.1383  134.0276  150.8834 H   0  0  0  0  0  0  0  0  0  0  0  0
  144.5953  132.2008  150.1526 H   0  0  0  0  0  0  0  0  0  0  0  0
  144.7857  129.9271  151.0920 H   0  0  0  0  0  0  0  0  0  0  0  0
  146.5186  129.3812  152.7998 H   0  0  0  0  0  0  0  0  0  0  0  0
  148.5518  130.4421  155.5164 H   0  0  0  0  0  0  0  0  0  0  0  0
  148.0174  129.4640  154.1711 H   0  0  0  0  0  0  0  0  0  0  0  0
  150.2269  128.7272  154.2398 H   0  0  0  0  0  0  0  0  0  0  0  0
  150.4578  130.1204  153.1790 H   0  0  0  0  0  0  0  0  0  0  0  0
  152.3285  128.6112  153.5388 H   0  0  0  0  0  0  0  0  0  0  0  0
  154.7413  128.1909  153.5995 H   0  0  0  0  0  0  0  0  0  0  0  0
  156.1989  129.4257  155.1908 H   0  0  0  0  0  0  0  0  0  0  0  0
  155.2137  131.0957  156.7346 H   0  0  0  0  0  0  0  0  0  0  0  0
  153.3674  132.3047  157.5911 H   0  0  0  0  0  0  0  0  0  0  0  0
  151.8704  131.3702  157.6369 H   0  0  0  0  0  0  0  0  0  0  0  0
  152.0920  132.6299  156.4149 H   0  0  0  0  0  0  0  0  0  0  0  0
  148.3529  134.4656  152.6800 H   0  0  0  0  0  0  0  0  0  0  0  0
  1  2  1  0  0  0  0
  1 26  1  0  0  0  0
  1 27  1  0  0  0  0
  1 28  1  0  0  0  0
  2  3  2  0  0  0  0
  2  4  1  0  0  0  0
  4  5  1  0  0  0  0
  4 29  1  0  0  0  0
  5  6  1  0  0  0  0
  5 30  1  0  0  0  0
  5 31  1  0  0  0  0
  6  7  1  0  0  0  0
  6 32  1  0  0  0  0
  6 33  1  0  0  0  0
  7 15  1  0  0  0  0
  7  8  2  0  0  0  0
  8  9  1  0  0  0  0
  8 49  1  0  0  0  0
  9 14  2  0  0  0  0
  9 10  1  0  0  0  0
 10 11  2  0  0  0  0
 10 34  1  0  0  0  0
 11 12  1  0  0  0  0
 11 35  1  0  0  0  0
 12 13  2  0  0  0  0
 12 36  1  0  0  0  0
 13 14  1  0  0  0  0
 13 37  1  0  0  0  0
 14 15  1  0  0  0  0
 15 16  1  0  0  0  0
 16 17  1  0  0  0  0
 16 38  1  0  0  0  0
 16 39  1  0  0  0  0
 17 18  1  0  0  0  0
 17 40  1  0  0  0  0
 17 41  1  0  0  0  0
 18 19  1  0  0  0  0
 19 24  1  0  0  0  0
 19 20  2  0  0  0  0
 20 21  1  0  0  0  0
 20 42  1  0  0  0  0
 21 22  2  0  0  0  0
 21 43  1  0  0  0  0
 22 23  1  0  0  0  0
 22 44  1  0  0  0  0
 23 24  2  0  0  0  0
 23 45  1  0  0  0  0
 24 25  1  0  0  0  0
 25 46  1  0  0  0  0
 25 47  1  0  0  0  0
 25 48  1  0  0  0  0
M  CHG  1   8   1
M  END
> <s_m_source_file>
AV-unprocessed.smi

> <i_m_source_file_index>
502

> <i_lp_mmshare_version>
43012

> <i_f3d_flags>
0

> <s_epik_input>
W0NIM11DKD1PKVtOSF1bQ0gyXVtDSDJdYyhuMSluKGMoYzEyKVtjSF1bY0hdW2NIXVtjSF0yKVtDSDJdW0NIMl1PYzNbY0hdW2NIXVtjSF1bY0hdYzNbQ0gzXQ==

> <s_epik_cmdline>
J2VwaWtfcHl0aG9uJywgJy1waCcsICc3LjAnLCAnLXRuJywgJzgnLCAnLW1hJywgJzIwMCcsICctbWV0YWxfYmluZGluZycsICctaW1hZScsICc8aW5maWxlLm1hZT4nLCAnLW9tYWUnLCAnPG91dGZpbGUubWFlPic=

> <r_lp_tautomer_probability>
1

> <r_epik_Ionization_Penalty>
1.10789

> <r_epik_Ionization_Penalty_Charging>
1.10789

> <r_epik_Ionization_Penalty_Neutral>
3.05925e-07

> <r_epik_State_Penalty>
1.16562

> <r_epik_Charging_Adjusted_Penalty>
2.27351

> <i_epik_Tot_Q>
1

> <i_epik_Tot_abs_Q>
1

> <r_epik_Metal_State_Penalty>
1.2518

> <b_epik_Metal_Only>
0

> <s_lp_Force_Field>
OPLS_2005

> <r_lp_Energy>
20.1677

> <b_lp_Chiralities_Consistent>
1

> <s_lp_Variant>
AV-unprocessed.smi:502-2

> <Gold.Version>
5.8.1

> <Gold.Id.Protein>
6NUR|6NUR_protein|mol2

> <Gold.PLP.Fitness>
50.6038

> <Gold.PLP.PLP>
-42.3852

> <Gold.PLP.part.hbond>
-2.0000

> <Gold.PLP.part.metal>
0.0000

> <Gold.PLP.part.buried>
-4.2414

> <Gold.PLP.part.nonpolar>
-34.4534

> <Gold.PLP.part.repulsive>
0.0178

> <Gold.PLP.ligand.clash>
0.0000

> <Gold.PLP.ligand.torsion>
0.4472

> <Gold.PLP.Chemscore.Hbond>
3.0000

> <Gold.PLP.Chemscore.CHOScore>
0.0000

> <Gold.PLP.Chemscore.Metal>
0.0000

> <Gold.Chemscore.Hbonds>
donor molecule, donor type, donor heavy atom, donor atom, acceptor molecule, acceptor atom, score
      L1  H     8    49       P1  7948  1.90
      P1  H  6896  6907       L1     3  1.00

> <Gold.PLP.Chemscore.Internal.Correction>
0.1130

> <Gold.Rescore>
     Score         DG    S(hbond)    S(metal)    S(lipo)     H(rot)  DE(clash)    DE(int)     intcor
     15.47     -16.43       1.45        0.00      99.97       2.18       0.36       0.60       ----

> <Gold.Chemscore.Fitness>
15.4742

> <Gold.Chemscore.DG>
-16.4275

> <Gold.Chemscore.ZeroCoef>
-5.4800

> <Gold.Chemscore.Hbond>
1.4461

> <Gold.Chemscore.Metal>
0.0000

> <Gold.Chemscore.Lipo>
99.9722

> <Gold.Chemscore.Internal_Hbond>
0.0000

> <Gold.Chemscore.DEClash>
0.3551

> <Gold.Chemscore.DEInternal>
0.5981

> <Gold.Chemscore.Rot>
2.1793

> <Gold.Chemscore.Internal.Correction>
   9.000000E+99

> <Gold.Chemscore.Hbonds>
donor molecule, donor type, donor heavy atom, donor atom, acceptor molecule, acceptor atom, score
      L1  H     8    49       P1  7948  0.21
      P1  H  6896  6907       L1     3  1.00

> <Gold.Chemscore.Hbond.Weighted>
-4.8298

> <Gold.Chemscore.Metal.Weighted>
-0.0000

> <Gold.Chemscore.Lipo.Weighted>
-11.6967

> <Gold.Chemscore.Internal_Hbond.Weighted>
0.0000

> <Gold.Chemscore.DEClash.Weighted>
0.3551

> <Gold.Chemscore.DEInternal.Weighted>
0.5981

> <Gold.Chemscore.Rot.Weighted>
5.5791

> <Gold.Chemscore.Internal.Correction.Weighted>
   9.000000E+99

> <Gold.Protein.RotatedTorsions>
[ 6907 6896 6895 6894 ] final -116.82 input  -60.11 | X-H torsion
[ 7974 7965 7964 7962 ] final -179.74 input  175.53 | X-H torsion
[ 8008 7997 7996 7995 ] final  -27.56 input   59.86 | X-H torsion
[ 10167 10162 10161 10158 ] final  -85.24 input  -65.29 | X-H torsion
[ 10718 10713 10712 10709 ] final -108.69 input   66.30 | X-H torsion
[ 10763 10752 10751 10750 ] final  152.16 input  -60.55 | X-H torsion
[ 11005 11000 10999 10996 ] final -102.68 input  -57.11 | X-H torsion

> <Gold.Protein.ActiveResidues>
 VAL166  LYS551  ARG553  GLY616  TRP617  ASP618  TYR619  PRO620  LYS621  CYS622 
 ASP623  PHE694  ASN695  SER759  ASP760  ASP761  ALA762  ILE779  LEU786  VAL792 
 PHE793  MET794  SER795  GLU796  ALA797  LYS798  CYS799  TRP800  GLU811  SER814 

> <Gold.Protein.RotatedAtoms>
  150.8086  133.8463  159.3192 H   0  0  0  0  0  0  0  0  0  0  0  0  # atno 6907 bound_to 6896
  151.6255  135.1026  160.0120 H   0  0  0  0  0  0  0  0  0  0  0  0  # atno 6908 bound_to 6896
  152.4178  133.7026  159.6489 H   0  0  0  0  0  0  0  0  0  0  0  0  # atno 6909 bound_to 6896
  144.7139  140.0673  143.6430 H   0  0  0  0  0  0  0  0  0  0  0  0  # atno 7974 bound_to 7965
  154.4372  140.1869  156.0951 H   0  0  0  0  0  0  0  0  0  0  0  0  # atno 8008 bound_to 7997
  156.0335  140.3328  155.7140 H   0  0  0  0  0  0  0  0  0  0  0  0  # atno 8009 bound_to 7997
  155.5804  140.0621  157.2775 H   0  0  0  0  0  0  0  0  0  0  0  0  # atno 8010 bound_to 7997
  140.4056  143.2644  151.9085 H   0  0  0  0  0  0  0  0  0  0  0  0  # atno 10167 bound_to 10162
  156.0498  130.5726  150.7996 H   0  0  0  0  0  0  0  0  0  0  0  0  # atno 10718 bound_to 10713
  154.1154  135.2836  155.3221 H   0  0  0  0  0  0  0  0  0  0  0  0  # atno 10763 bound_to 10752
  154.6460  135.5385  153.7848 H   0  0  0  0  0  0  0  0  0  0  0  0  # atno 10764 bound_to 10752
  153.0331  135.6498  154.1311 H   0  0  0  0  0  0  0  0  0  0  0  0  # atno 10765 bound_to 10752
  141.1179  133.8578  157.1390 H   0  0  0  0  0  0  0  0  0  0  0  0  # atno 11005 bound_to 11000
  145.9813  139.2944  143.1040 LP  0  0  0  0  0  0  0  0  0  0  0  0  # atno 17320 bound_to 7965
  145.9007  140.9245  143.0504 LP  0  0  0  0  0  0  0  0  0  0  0  0  # atno 17321 bound_to 7965
  139.4783  144.5589  151.8270 LP  0  0  0  0  0  0  0  0  0  0  0  0  # atno 17342 bound_to 10162
  140.4693  144.1610  150.5916 LP  0  0  0  0  0  0  0  0  0  0  0  0  # atno 17343 bound_to 10162
  157.5413  131.0941  150.9824 LP  0  0  0  0  0  0  0  0  0  0  0  0  # atno 17370 bound_to 10713
  157.0106  130.5635  149.5320 LP  0  0  0  0  0  0  0  0  0  0  0  0  # atno 17371 bound_to 10713
  140.0114  134.9986  157.0403 LP  0  0  0  0  0  0  0  0  0  0  0  0  # atno 17394 bound_to 11000
  140.4593  134.1500  155.7189 LP  0  0  0  0  0  0  0  0  0  0  0  0  # atno 17395 bound_to 11000

$$$$
