AV-unprocessed.smi:2819|AV-procd|sdf|10850|dock5
  -GOLD-   2272015293D 1   1.00000     0.00000
 Structure written by MMmdl.
 50 51  0  0  0  0  0  0  0  0  2 V2000
  147.6547  129.0591  153.1418 C   0  0  0  0  0  0  0  0  0  0  0  0
  146.4539  129.5189  152.4504 N   0  0  0  0  0  0  0  0  0  0  0  0
  145.4527  128.5554  152.0104 C   0  0  0  0  0  0  0  0  0  0  0  0
  146.3231  130.8818  152.1023 C   0  0  0  0  0  0  0  0  0  0  0  0
  145.3652  131.3316  151.1687 C   0  0  0  0  0  0  0  0  0  0  0  0
  145.3286  132.7105  150.8963 C   0  0  0  0  0  0  0  0  0  0  0  0
  146.1859  133.5570  151.5156 N   0  3  0  0  0  0  0  0  0  0  0  0
  147.0762  133.0802  152.3995 C   0  0  0  0  0  0  0  0  0  0  0  0
  147.9150  134.0009  152.9898 N   0  0  0  0  0  0  0  0  0  0  0  0
  148.4535  134.0247  154.2241 C   0  0  0  0  0  0  0  0  0  0  0  0
  148.2684  133.1767  155.0984 O   0  0  0  0  0  0  0  0  0  0  0  0
  149.2247  135.1084  154.3961 N   0  0  0  0  0  0  0  0  0  0  0  0
  149.9432  135.4609  155.6211 C   0  0  0  0  0  0  0  0  0  0  0  0
  150.2437  136.9854  155.7312 C   0  0  0  0  0  0  0  0  0  0  0  0
  151.0737  137.3657  154.4787 C   0  0  0  0  0  0  0  0  0  0  0  0
  148.8886  137.7253  155.6186 C   0  0  0  0  0  0  0  0  0  0  0  0
  150.9839  137.3114  156.9832 N   0  0  0  0  0  0  0  0  0  0  0  0
  150.2478  137.0409  158.2241 C   0  0  0  0  0  0  0  0  0  0  0  0
  151.0199  137.5076  159.4701 C   0  0  0  0  0  0  0  0  0  0  0  0
  152.2998  136.8881  159.5021 O   0  0  0  0  0  0  0  0  0  0  0  0
  153.0705  137.1750  158.3420 C   0  0  0  0  0  0  0  0  0  0  0  0
  152.3154  136.7023  157.0885 C   0  0  0  0  0  0  0  0  0  0  0  0
  147.1520  131.7724  152.6928 N   0  0  0  0  0  0  0  0  0  0  0  0
  147.7820  129.5902  154.0857 H   0  0  0  0  0  0  0  0  0  0  0  0
  148.5394  129.2283  152.5273 H   0  0  0  0  0  0  0  0  0  0  0  0
  147.6016  127.9935  153.3660 H   0  0  0  0  0  0  0  0  0  0  0  0
  145.3667  128.5606  150.9234 H   0  0  0  0  0  0  0  0  0  0  0  0
  144.4783  128.7909  152.4395 H   0  0  0  0  0  0  0  0  0  0  0  0
  145.7150  127.5428  152.3179 H   0  0  0  0  0  0  0  0  0  0  0  0
  144.6773  130.6645  150.6709 H   0  0  0  0  0  0  0  0  0  0  0  0
  144.6392  133.1659  150.2004 H   0  0  0  0  0  0  0  0  0  0  0  0
  148.1614  134.7827  152.4015 H   0  0  0  0  0  0  0  0  0  0  0  0
  149.3120  135.7574  153.6276 H   0  0  0  0  0  0  0  0  0  0  0  0
  149.3930  135.1192  156.4998 H   0  0  0  0  0  0  0  0  0  0  0  0
  150.8656  134.8810  155.6411 H   0  0  0  0  0  0  0  0  0  0  0  0
  150.6291  136.9650  153.5668 H   0  0  0  0  0  0  0  0  0  0  0  0
  152.0934  136.9840  154.5384 H   0  0  0  0  0  0  0  0  0  0  0  0
  151.1353  138.4447  154.3364 H   0  0  0  0  0  0  0  0  0  0  0  0
  148.3816  137.4723  154.6866 H   0  0  0  0  0  0  0  0  0  0  0  0
  149.0075  138.8084  155.6254 H   0  0  0  0  0  0  0  0  0  0  0  0
  148.2066  137.4619  156.4269 H   0  0  0  0  0  0  0  0  0  0  0  0
  149.2844  137.5476  158.2243 H   0  0  0  0  0  0  0  0  0  0  0  0
  150.0448  135.9740  158.3176 H   0  0  0  0  0  0  0  0  0  0  0  0
  151.1322  138.5928  159.4710 H   0  0  0  0  0  0  0  0  0  0  0  0
  150.4737  137.2418  160.3753 H   0  0  0  0  0  0  0  0  0  0  0  0
  153.2772  138.2449  158.2876 H   0  0  0  0  0  0  0  0  0  0  0  0
  154.0318  136.6667  158.4187 H   0  0  0  0  0  0  0  0  0  0  0  0
  152.2318  135.6159  157.1195 H   0  0  0  0  0  0  0  0  0  0  0  0
  152.9266  136.9477  156.2222 H   0  0  0  0  0  0  0  0  0  0  0  0
  146.1420  134.5537  151.3018 H   0  0  0  0  0  0  0  0  0  0  0  0
  1  2  1  0  0  0  0
  1 24  1  0  0  0  0
  1 25  1  0  0  0  0
  1 26  1  0  0  0  0
  2  3  1  0  0  0  0
  2  4  1  0  0  0  0
  3 27  1  0  0  0  0
  3 28  1  0  0  0  0
  3 29  1  0  0  0  0
  4 23  1  0  0  0  0
  4  5  2  0  0  0  0
  5  6  1  0  0  0  0
  5 30  1  0  0  0  0
  6  7  2  0  0  0  0
  6 31  1  0  0  0  0
  7  8  1  0  0  0  0
  7 50  1  0  0  0  0
  8  9  1  0  0  0  0
  8 23  2  0  0  0  0
  9 10  1  0  0  0  0
  9 32  1  0  0  0  0
 10 11  2  0  0  0  0
 10 12  1  0  0  0  0
 12 13  1  0  0  0  0
 12 33  1  0  0  0  0
 13 14  1  0  0  0  0
 13 34  1  0  0  0  0
 13 35  1  0  0  0  0
 14 15  1  0  0  0  0
 14 16  1  0  0  0  0
 14 17  1  0  0  0  0
 15 36  1  0  0  0  0
 15 37  1  0  0  0  0
 15 38  1  0  0  0  0
 16 39  1  0  0  0  0
 16 40  1  0  0  0  0
 16 41  1  0  0  0  0
 17 22  1  0  0  0  0
 17 18  1  0  0  0  0
 18 19  1  0  0  0  0
 18 42  1  0  0  0  0
 18 43  1  0  0  0  0
 19 20  1  0  0  0  0
 19 44  1  0  0  0  0
 19 45  1  0  0  0  0
 20 21  1  0  0  0  0
 21 22  1  0  0  0  0
 21 46  1  0  0  0  0
 21 47  1  0  0  0  0
 22 48  1  0  0  0  0
 22 49  1  0  0  0  0
M  CHG  1   7   1
M  END
> <s_m_source_file>
AV-unprocessed.smi

> <i_m_source_file_index>
2819

> <i_lp_mmshare_version>
43012

> <i_f3d_flags>
0

> <s_epik_input>
W0NIM11OKFtDSDNdKWMxW2NIXVtjSF1uYyhuMSlbTkhdQyg9TylbTkhdW0NIMl1DKFtDSDNdKShbQ0gzXSlOMltDSDJdW0NIMl1PW0NIMl1bQ0gyXTI=

> <s_epik_cmdline>
J2VwaWtfcHl0aG9uJywgJy1waCcsICc3LjAnLCAnLXRuJywgJzgnLCAnLW1hJywgJzIwMCcsICctbWV0YWxfYmluZGluZycsICctaW1hZScsICc8aW5maWxlLm1hZT4nLCAnLW9tYWUnLCAnPG91dGZpbGUubWFlPic=

> <r_lp_tautomer_probability>
0.999336

> <r_epik_Ionization_Penalty>
0.36245

> <r_epik_Ionization_Penalty_Charging>
0.09642

> <r_epik_Ionization_Penalty_Neutral>
0.26603

> <r_epik_State_Penalty>
0.34182

> <r_epik_Charging_Adjusted_Penalty>
0.43824

> <i_epik_Tot_Q>
1

> <i_epik_Tot_abs_Q>
1

> <r_epik_Metal_State_Penalty>
0.680072

> <b_epik_Metal_Only>
0

> <s_lp_Force_Field>
OPLS_2005

> <r_lp_Energy>
46.6514

> <b_lp_Chiralities_Consistent>
1

> <s_lp_Variant>
AV-unprocessed.smi:2819-1

> <Gold.Version>
5.8.1

> <Gold.Id.Protein>
6NUR|6NUR_protein|mol2

> <Gold.PLP.Fitness>
40.5519

> <Gold.PLP.PLP>
-32.3977

> <Gold.PLP.part.hbond>
-3.0000

> <Gold.PLP.part.metal>
0.0000

> <Gold.PLP.part.buried>
-5.0503

> <Gold.PLP.part.nonpolar>
-24.9878

> <Gold.PLP.part.repulsive>
0.1844

> <Gold.PLP.ligand.clash>
0.0000

> <Gold.PLP.ligand.torsion>
0.4913

> <Gold.PLP.Chemscore.Hbond>
3.0000

> <Gold.PLP.Chemscore.CHOScore>
0.0000

> <Gold.PLP.Chemscore.Metal>
0.0000

> <Gold.Chemscore.Hbonds>
donor molecule, donor type, donor heavy atom, donor atom, acceptor molecule, acceptor atom, score
      L1  H     9    32       P1  7948  1.00
      L1  H    12    33       P1  7948  1.00
      P1  H  6896  6907       L1    20  1.00

> <Gold.PLP.Chemscore.Internal.Correction>
0.1367

> <Gold.Rescore>
     Score         DG    S(hbond)    S(metal)    S(lipo)     H(rot)  DE(clash)    DE(int)     intcor
     16.29     -17.85       2.57        0.00      65.70       1.53       0.02       1.54       ----

> <Gold.Chemscore.Fitness>
16.2927

> <Gold.Chemscore.DG>
-17.8469

> <Gold.Chemscore.ZeroCoef>
-5.4800

> <Gold.Chemscore.Hbond>
2.5725

> <Gold.Chemscore.Metal>
0.0000

> <Gold.Chemscore.Lipo>
65.7008

> <Gold.Chemscore.Internal_Hbond>
0.0000

> <Gold.Chemscore.DEClash>
0.0163

> <Gold.Chemscore.DEInternal>
1.5378

> <Gold.Chemscore.Rot>
1.5282

> <Gold.Chemscore.Internal.Correction>
   9.000000E+99

> <Gold.Chemscore.Hbonds>
donor molecule, donor type, donor heavy atom, donor atom, acceptor molecule, acceptor atom, score
      L1  H     9    32       P1  7948  0.45
      L1  H    12    33       P1  7948  0.52
      P1  H  6896  6907       L1    20  0.25

> <Gold.Chemscore.Hbond.Weighted>
-8.5920

> <Gold.Chemscore.Metal.Weighted>
-0.0000

> <Gold.Chemscore.Lipo.Weighted>
-7.6870

> <Gold.Chemscore.Internal_Hbond.Weighted>
0.0000

> <Gold.Chemscore.DEClash.Weighted>
0.0163

> <Gold.Chemscore.DEInternal.Weighted>
1.5378

> <Gold.Chemscore.Rot.Weighted>
3.9121

> <Gold.Chemscore.Internal.Correction.Weighted>
   9.000000E+99

> <Gold.Protein.RotatedTorsions>
[ 6907 6896 6895 6894 ] final   14.40 input  -60.11 | X-H torsion
[ 7974 7965 7964 7962 ] final  -37.18 input  175.53 | X-H torsion
[ 8008 7997 7996 7995 ] final  123.12 input   59.86 | X-H torsion
[ 10167 10162 10161 10158 ] final  137.07 input  -65.29 | X-H torsion
[ 10718 10713 10712 10709 ] final   84.25 input   66.30 | X-H torsion
[ 10763 10752 10751 10750 ] final   58.78 input  -60.55 | X-H torsion
[ 11005 11000 10999 10996 ] final -124.96 input  -57.11 | X-H torsion

> <Gold.Protein.ActiveResidues>
 VAL166  LYS551  ARG553  GLY616  TRP617  ASP618  TYR619  PRO620  LYS621  CYS622 
 ASP623  PHE694  ASN695  SER759  ASP760  ASP761  ALA762  ILE779  LEU786  VAL792 
 PHE793  MET794  SER795  GLU796  ALA797  LYS798  CYS799  TRP800  GLU811  SER814 

> <Gold.Protein.RotatedAtoms>
  151.8017  135.0707  160.0400 H   0  0  0  0  0  0  0  0  0  0  0  0  # atno 6907 bound_to 6896
  152.3084  133.5723  159.5673 H   0  0  0  0  0  0  0  0  0  0  0  0  # atno 6908 bound_to 6896
  150.7308  134.0104  159.3710 H   0  0  0  0  0  0  0  0  0  0  0  0  # atno 6909 bound_to 6896
  146.0597  140.6366  142.9003 H   0  0  0  0  0  0  0  0  0  0  0  0  # atno 7974 bound_to 7965
  156.2754  140.2770  156.1577 H   0  0  0  0  0  0  0  0  0  0  0  0  # atno 8008 bound_to 7997
  155.0787  140.0387  157.2650 H   0  0  0  0  0  0  0  0  0  0  0  0  # atno 8009 bound_to 7997
  154.6982  140.2643  155.6751 H   0  0  0  0  0  0  0  0  0  0  0  0  # atno 8010 bound_to 7997
  139.5157  144.6430  151.5518 H   0  0  0  0  0  0  0  0  0  0  0  0  # atno 10167 bound_to 10162
  157.6894  131.0125  150.2645 H   0  0  0  0  0  0  0  0  0  0  0  0  # atno 10718 bound_to 10713
  152.9878  135.5595  154.5607 H   0  0  0  0  0  0  0  0  0  0  0  0  # atno 10763 bound_to 10752
  154.5026  135.2798  155.1410 H   0  0  0  0  0  0  0  0  0  0  0  0  # atno 10764 bound_to 10752
  154.2834  135.6340  153.5409 H   0  0  0  0  0  0  0  0  0  0  0  0  # atno 10765 bound_to 10752
  140.9800  134.0687  157.3776 H   0  0  0  0  0  0  0  0  0  0  0  0  # atno 11005 bound_to 11000
  144.7168  140.4237  143.7038 LP  0  0  0  0  0  0  0  0  0  0  0  0  # atno 17320 bound_to 7965
  145.6581  139.1576  143.2824 LP  0  0  0  0  0  0  0  0  0  0  0  0  # atno 17321 bound_to 7965
  140.6204  143.9270  150.6521 LP  0  0  0  0  0  0  0  0  0  0  0  0  # atno 17342 bound_to 10162
  140.2541  143.3571  152.1380 LP  0  0  0  0  0  0  0  0  0  0  0  0  # atno 17343 bound_to 10162
  156.3218  130.3787  149.7568 LP  0  0  0  0  0  0  0  0  0  0  0  0  # atno 17370 bound_to 10713
  156.5136  130.8183  151.3178 LP  0  0  0  0  0  0  0  0  0  0  0  0  # atno 17371 bound_to 10713
  139.8946  135.0137  156.6960 LP  0  0  0  0  0  0  0  0  0  0  0  0  # atno 17394 bound_to 11000
  140.7201  133.9148  155.8141 LP  0  0  0  0  0  0  0  0  0  0  0  0  # atno 17395 bound_to 11000

$$$$
