AV-unprocessed.smi:3184|AV-procd|sdf|12164|dock2
  -GOLD-   2272018 03D 1   1.00000     0.00000
 Structure written by MMmdl.
 34 35  0  0  0  0  0  0  0  0  1 V2000
  149.0040  139.4921  156.6866 C   0  0  0  0  0  0  0  0  0  0  0  0
  150.2453  140.3036  156.2900 C   0  0  1  0  0  0  0  0  0  0  0  0
  149.8944  141.4481  155.3202 C   0  0  0  0  0  0  0  0  0  0  0  0
  148.6182  141.2355  154.6618 N   0  0  0  0  0  0  0  0  0  0  0  0
  147.4578  141.9806  154.8223 C   0  0  0  0  0  0  0  0  0  0  0  0
  146.5060  141.4051  154.0111 C   0  0  0  0  0  0  0  0  0  0  0  0
  147.0560  140.3126  153.3447 N   0  0  0  0  0  0  0  0  0  0  0  0
  148.3090  140.2756  153.7791 C   0  0  0  0  0  0  0  0  0  0  0  0
  150.8797  140.8455  157.4899 N   0  0  0  0  0  0  0  0  0  0  0  0
  152.0893  140.5040  157.9661 C   0  0  0  0  0  0  0  0  0  0  0  0
  152.7884  139.6259  157.4593 O   0  0  0  0  0  0  0  0  0  0  0  0
  152.4766  141.2220  159.0427 N   0  0  0  0  0  0  0  0  0  0  0  0
  151.9461  142.5236  159.4605 C   0  0  0  0  0  0  0  0  0  0  0  0
  152.5650  142.8053  160.8298 C   0  0  0  0  0  0  0  0  0  0  0  0
  153.8539  141.9960  160.8301 C   0  0  0  0  0  0  0  0  0  0  0  0
  153.5359  140.7865  159.9510 C   0  0  0  0  0  0  0  0  0  0  0  0
  148.5196  139.0639  155.8086 H   0  0  0  0  0  0  0  0  0  0  0  0
  148.2704  140.1131  157.2019 H   0  0  0  0  0  0  0  0  0  0  0  0
  149.2687  138.6681  157.3501 H   0  0  0  0  0  0  0  0  0  0  0  0
  150.9327  139.6298  155.7752 H   0  0  0  0  0  0  0  0  0  0  0  0
  149.8421  142.3952  155.8586 H   0  0  0  0  0  0  0  0  0  0  0  0
  150.6690  141.5620  154.5602 H   0  0  0  0  0  0  0  0  0  0  0  0
  147.4059  142.8317  155.4850 H   0  0  0  0  0  0  0  0  0  0  0  0
  145.4758  141.6905  153.8575 H   0  0  0  0  0  0  0  0  0  0  0  0
  149.0169  139.5278  153.4527 H   0  0  0  0  0  0  0  0  0  0  0  0
  150.3765  141.5724  157.9776 H   0  0  0  0  0  0  0  0  0  0  0  0
  152.2551  143.2816  158.7389 H   0  0  0  0  0  0  0  0  0  0  0  0
  150.8565  142.5281  159.5160 H   0  0  0  0  0  0  0  0  0  0  0  0
  152.7317  143.8680  161.0083 H   0  0  0  0  0  0  0  0  0  0  0  0
  151.9029  142.4348  161.6136 H   0  0  0  0  0  0  0  0  0  0  0  0
  154.6518  142.5816  160.3714 H   0  0  0  0  0  0  0  0  0  0  0  0
  154.1788  141.7163  161.8328 H   0  0  0  0  0  0  0  0  0  0  0  0
  153.1643  139.9589  160.5568 H   0  0  0  0  0  0  0  0  0  0  0  0
  154.4226  140.4433  159.4154 H   0  0  0  0  0  0  0  0  0  0  0  0
  1  2  1  0  0  0  0
  1 17  1  0  0  0  0
  1 18  1  0  0  0  0
  1 19  1  0  0  0  0
  2  3  1  0  0  0  0
  2  9  1  0  0  0  0
  2 20  1  0  0  0  0
  3  4  1  0  0  0  0
  3 21  1  0  0  0  0
  3 22  1  0  0  0  0
  4  8  1  0  0  0  0
  4  5  1  0  0  0  0
  5  6  2  0  0  0  0
  5 23  1  0  0  0  0
  6  7  1  0  0  0  0
  6 24  1  0  0  0  0
  7  8  2  0  0  0  0
  8 25  1  0  0  0  0
  9 10  1  0  0  0  0
  9 26  1  0  0  0  0
 10 11  2  0  0  0  0
 10 12  1  0  0  0  0
 12 16  1  0  0  0  0
 12 13  1  0  0  0  0
 13 14  1  0  0  0  0
 13 27  1  0  0  0  0
 13 28  1  0  0  0  0
 14 15  1  0  0  0  0
 14 29  1  0  0  0  0
 14 30  1  0  0  0  0
 15 16  1  0  0  0  0
 15 31  1  0  0  0  0
 15 32  1  0  0  0  0
 16 33  1  0  0  0  0
 16 34  1  0  0  0  0
M  END
> <s_m_source_file>
AV-unprocessed.smi

> <i_m_source_file_index>
3184

> <i_lp_mmshare_version>
43012

> <i_f3d_flags>
0

> <s_epik_input>
W2NIXTFuW2NIXVtjSF1uMVtDSDJdW0NAQEhdKFtDSDNdKVtOSF1DKD1PKU4yW0NIMl1bQ0gyXVtDSDJdW0NIMl0y

> <s_epik_cmdline>
J2VwaWtfcHl0aG9uJywgJy1waCcsICc3LjAnLCAnLXRuJywgJzgnLCAnLW1hJywgJzIwMCcsICctbWV0YWxfYmluZGluZycsICctaW1hZScsICc8aW5maWxlLm1hZT4nLCAnLW9tYWUnLCAnPG91dGZpbGUubWFlPic=

> <r_lp_tautomer_probability>
1

> <r_epik_Ionization_Penalty>
0.625774

> <r_epik_Ionization_Penalty_Charging>
0.625709

> <r_epik_Ionization_Penalty_Neutral>
6.46152e-05

> <r_epik_State_Penalty>
0.642123

> <r_epik_Charging_Adjusted_Penalty>
1.26783

> <i_epik_Tot_Q>
0

> <i_epik_Tot_abs_Q>
0

> <r_epik_Metal_State_Penalty>
0.307922

> <b_epik_Metal_Only>
0

> <s_lp_Force_Field>
OPLS_2005

> <r_lp_Energy>
35.7196

> <b_lp_Chiralities_Consistent>
1

> <s_lp_Variant>
AV-unprocessed.smi:3184-4

> <Gold.Version>
5.8.1

> <Gold.Id.Protein>
6NUR|6NUR_protein|mol2

> <Gold.PLP.Fitness>
39.6964

> <Gold.PLP.PLP>
-30.9717

> <Gold.PLP.part.hbond>
-1.0000

> <Gold.PLP.part.metal>
0.0000

> <Gold.PLP.part.buried>
-1.6941

> <Gold.PLP.part.nonpolar>
-29.0631

> <Gold.PLP.part.repulsive>
0.2275

> <Gold.PLP.ligand.clash>
0.0000

> <Gold.PLP.ligand.torsion>
0.7947

> <Gold.PLP.Chemscore.Hbond>
1.0000

> <Gold.PLP.Chemscore.CHOScore>
2.4189

> <Gold.PLP.Chemscore.Metal>
0.0000

> <Gold.Chemscore.Hbonds>
donor molecule, donor type, donor heavy atom, donor atom, acceptor molecule, acceptor atom, score
      P1  H  7997  8010       L1    11  1.00
      L1  C     5    23       P1  8028  1.00
      L1  C     6    24       P1 10175  0.82
      L1  C     8    25       P1  7957  0.55

> <Gold.PLP.Chemscore.Internal.Correction>
0.0574

> <Gold.Rescore>
     Score         DG    S(hbond)    S(metal)    S(lipo)     H(rot)  DE(clash)    DE(int)     intcor
     11.57     -12.57       0.99        0.00      67.44       1.60       0.16       0.84       ----

> <Gold.Chemscore.Fitness>
11.5681

> <Gold.Chemscore.DG>
-12.5732

> <Gold.Chemscore.ZeroCoef>
-5.4800

> <Gold.Chemscore.Hbond>
0.9882

> <Gold.Chemscore.Metal>
0.0000

> <Gold.Chemscore.Lipo>
67.4433

> <Gold.Chemscore.Internal_Hbond>
0.0000

> <Gold.Chemscore.DEClash>
0.1610

> <Gold.Chemscore.DEInternal>
0.8441

> <Gold.Chemscore.Rot>
1.6009

> <Gold.Chemscore.Internal.Correction>
   9.000000E+99

> <Gold.Chemscore.Hbonds>
donor molecule, donor type, donor heavy atom, donor atom, acceptor molecule, acceptor atom, score
      P1  H  7997  8010       L1    11  0.97

> <Gold.Chemscore.Hbond.Weighted>
-3.3007

> <Gold.Chemscore.Metal.Weighted>
-0.0000

> <Gold.Chemscore.Lipo.Weighted>
-7.8909

> <Gold.Chemscore.Internal_Hbond.Weighted>
0.0000

> <Gold.Chemscore.DEClash.Weighted>
0.1610

> <Gold.Chemscore.DEInternal.Weighted>
0.8441

> <Gold.Chemscore.Rot.Weighted>
4.0983

> <Gold.Chemscore.Internal.Correction.Weighted>
   9.000000E+99

> <Gold.Protein.RotatedTorsions>
[ 6907 6896 6895 6894 ] final   61.53 input  -60.11 | X-H torsion
[ 7974 7965 7964 7962 ] final   51.74 input  175.53 | X-H torsion
[ 8008 7997 7996 7995 ] final   45.99 input   59.86 | X-H torsion
[ 10167 10162 10161 10158 ] final  163.53 input  -65.29 | X-H torsion
[ 10718 10713 10712 10709 ] final  149.58 input   66.30 | X-H torsion
[ 10763 10752 10751 10750 ] final  102.35 input  -60.55 | X-H torsion
[ 11005 11000 10999 10996 ] final   32.99 input  -57.11 | X-H torsion

> <Gold.Protein.ActiveResidues>
 VAL166  LYS551  ARG553  GLY616  TRP617  ASP618  TYR619  PRO620  LYS621  CYS622 
 ASP623  PHE694  ASN695  SER759  ASP760  ASP761  ALA762  ILE779  LEU786  VAL792 
 PHE793  MET794  SER795  GLU796  ALA797  LYS798  CYS799  TRP800  GLU811  SER814 

> <Gold.Protein.RotatedAtoms>
  152.4096  134.6147  160.0034 H   0  0  0  0  0  0  0  0  0  0  0  0  # atno 6907 bound_to 6896
  151.6328  133.3325  159.3120 H   0  0  0  0  0  0  0  0  0  0  0  0  # atno 6908 bound_to 6896
  150.7988  134.7108  159.6647 H   0  0  0  0  0  0  0  0  0  0  0  0  # atno 6909 bound_to 6896
  145.9883  139.4313  143.0089 H   0  0  0  0  0  0  0  0  0  0  0  0  # atno 7974 bound_to 7965
  155.3450  140.3410  155.4239 H   0  0  0  0  0  0  0  0  0  0  0  0  # atno 8008 bound_to 7997
  156.1794  140.1658  156.8339 H   0  0  0  0  0  0  0  0  0  0  0  0  # atno 8009 bound_to 7997
  154.5317  140.0744  156.8339 H   0  0  0  0  0  0  0  0  0  0  0  0  # atno 8010 bound_to 7997
  139.4875  144.4327  151.9050 H   0  0  0  0  0  0  0  0  0  0  0  0  # atno 10167 bound_to 10162
  157.2943  131.0859  151.1438 H   0  0  0  0  0  0  0  0  0  0  0  0  # atno 10718 bound_to 10713
  153.3385  135.4013  155.1552 H   0  0  0  0  0  0  0  0  0  0  0  0  # atno 10763 bound_to 10752
  154.8638  135.3628  154.5377 H   0  0  0  0  0  0  0  0  0  0  0  0  # atno 10764 bound_to 10752
  153.5820  135.7076  153.5519 H   0  0  0  0  0  0  0  0  0  0  0  0  # atno 10765 bound_to 10752
  140.2678  134.3118  155.7837 H   0  0  0  0  0  0  0  0  0  0  0  0  # atno 11005 bound_to 11000
  145.7667  140.9913  143.1171 LP  0  0  0  0  0  0  0  0  0  0  0  0  # atno 17320 bound_to 7965
  144.6881  139.9397  143.7474 LP  0  0  0  0  0  0  0  0  0  0  0  0  # atno 17321 bound_to 7965
  140.3776  144.2777  150.5912 LP  0  0  0  0  0  0  0  0  0  0  0  0  # atno 17342 bound_to 10162
  140.5263  143.2254  151.8310 LP  0  0  0  0  0  0  0  0  0  0  0  0  # atno 17343 bound_to 10162
  157.2822  130.6755  149.6072 LP  0  0  0  0  0  0  0  0  0  0  0  0  # atno 17370 bound_to 10713
  155.9668  130.4446  150.5469 LP  0  0  0  0  0  0  0  0  0  0  0  0  # atno 17371 bound_to 10713
  141.2182  133.7448  156.9287 LP  0  0  0  0  0  0  0  0  0  0  0  0  # atno 17394 bound_to 11000
  140.1403  134.9298  157.2457 LP  0  0  0  0  0  0  0  0  0  0  0  0  # atno 17395 bound_to 11000

$$$$
