AV-unprocessed.smi:2252|AV-procd|sdf|9105|dock9
  -GOLD-   2272012303D 1   1.00000     0.00000
 Structure written by MMmdl.
 45 47  0  0  0  0  0  0  0  0  2 V2000
  149.9802  130.5030  154.4522 C   0  0  0  0  0  0  0  0  0  0  0  0
  150.5993  131.4515  155.3579 N   0  0  0  0  0  0  0  0  0  0  0  0
  151.7946  131.2669  156.0401 C   0  0  0  0  0  0  0  0  0  0  0  0
  152.0087  132.4072  156.7762 C   0  0  0  0  0  0  0  0  0  0  0  0
  150.9628  133.2981  156.5605 N   0  0  0  0  0  0  0  0  0  0  0  0
  150.1525  132.6717  155.7128 C   0  0  0  0  0  0  0  0  0  0  0  0
  148.8884  133.2713  155.1806 C   0  0  0  0  0  0  0  0  0  0  0  0
  148.7739  133.1342  153.6532 C   0  0  0  0  0  0  0  0  0  0  0  0
  147.9308  134.1752  153.0775 N   0  0  0  0  0  0  0  0  0  0  0  0
  146.6306  134.3549  153.3571 C   0  0  0  0  0  0  0  0  0  0  0  0
  146.0056  133.6488  154.1489 O   0  0  0  0  0  0  0  0  0  0  0  0
  145.9265  135.5187  152.6437 C   0  0  2  0  0  0  0  0  0  0  0  0
  145.7664  135.1587  151.1512 C   0  0  0  0  0  0  0  0  0  0  0  0
  144.4477  135.3509  150.4341 C   0  0  0  0  0  0  0  0  0  0  0  0
  144.9467  133.9590  150.7255 C   0  0  0  0  0  0  0  0  0  0  0  0
  146.6688  136.7994  152.8200 N   0  3  0  0  0  0  0  0  0  0  0  0
  146.1991  137.9227  151.9812 C   0  0  0  0  0  0  0  0  0  0  0  0
  146.7215  139.2000  152.6467 C   0  0  0  0  0  0  0  0  0  0  0  0
  147.1007  138.7955  154.0748 C   0  0  0  0  0  0  0  0  0  0  0  0
  146.6909  137.3276  154.2016 C   0  0  0  0  0  0  0  0  0  0  0  0
  150.6437  129.6542  154.2848 H   0  0  0  0  0  0  0  0  0  0  0  0
  149.7742  130.9825  153.4949 H   0  0  0  0  0  0  0  0  0  0  0  0
  149.0461  130.1404  154.8819 H   0  0  0  0  0  0  0  0  0  0  0  0
  152.3801  130.3641  155.9469 H   0  0  0  0  0  0  0  0  0  0  0  0
  152.8265  132.6537  157.4371 H   0  0  0  0  0  0  0  0  0  0  0  0
  148.0294  132.8107  155.6688 H   0  0  0  0  0  0  0  0  0  0  0  0
  148.8687  134.3240  155.4657 H   0  0  0  0  0  0  0  0  0  0  0  0
  149.7623  133.1575  153.1907 H   0  0  0  0  0  0  0  0  0  0  0  0
  148.3357  132.1685  153.3995 H   0  0  0  0  0  0  0  0  0  0  0  0
  148.3710  134.8075  152.4245 H   0  0  0  0  0  0  0  0  0  0  0  0
  144.9343  135.6429  153.0824 H   0  0  0  0  0  0  0  0  0  0  0  0
  146.6624  135.3403  150.5594 H   0  0  0  0  0  0  0  0  0  0  0  0
  143.5988  135.7087  151.0135 H   0  0  0  0  0  0  0  0  0  0  0  0
  144.4848  135.6938  149.4022 H   0  0  0  0  0  0  0  0  0  0  0  0
  145.3146  133.3708  149.8873 H   0  0  0  0  0  0  0  0  0  0  0  0
  144.4289  133.3943  151.4985 H   0  0  0  0  0  0  0  0  0  0  0  0
  146.5409  137.8287  150.9499 H   0  0  0  0  0  0  0  0  0  0  0  0
  145.1082  137.9396  151.9745 H   0  0  0  0  0  0  0  0  0  0  0  0
  147.5991  139.5765  152.1200 H   0  0  0  0  0  0  0  0  0  0  0  0
  145.9672  139.9878  152.6328 H   0  0  0  0  0  0  0  0  0  0  0  0
  148.1781  138.8954  154.2115 H   0  0  0  0  0  0  0  0  0  0  0  0
  146.6148  139.4186  154.8263 H   0  0  0  0  0  0  0  0  0  0  0  0
  145.6902  137.2644  154.6324 H   0  0  0  0  0  0  0  0  0  0  0  0
  147.3700  136.7689  154.8467 H   0  0  0  0  0  0  0  0  0  0  0  0
  147.6304  136.6285  152.5615 H   0  0  0  0  0  0  0  0  0  0  0  0
  1  2  1  0  0  0  0
  1 21  1  0  0  0  0
  1 22  1  0  0  0  0
  1 23  1  0  0  0  0
  2  6  1  0  0  0  0
  2  3  1  0  0  0  0
  3  4  2  0  0  0  0
  3 24  1  0  0  0  0
  4  5  1  0  0  0  0
  4 25  1  0  0  0  0
  5  6  2  0  0  0  0
  6  7  1  0  0  0  0
  7  8  1  0  0  0  0
  7 26  1  0  0  0  0
  7 27  1  0  0  0  0
  8  9  1  0  0  0  0
  8 28  1  0  0  0  0
  8 29  1  0  0  0  0
  9 10  1  0  0  0  0
  9 30  1  0  0  0  0
 10 11  2  0  0  0  0
 10 12  1  0  0  0  0
 12 13  1  0  0  0  0
 12 16  1  0  0  0  0
 12 31  1  0  0  0  0
 13 15  1  0  0  0  0
 13 14  1  0  0  0  0
 13 32  1  0  0  0  0
 14 15  1  0  0  0  0
 14 33  1  0  0  0  0
 14 34  1  0  0  0  0
 15 35  1  0  0  0  0
 15 36  1  0  0  0  0
 16 20  1  0  0  0  0
 16 17  1  0  0  0  0
 16 45  1  0  0  0  0
 17 18  1  0  0  0  0
 17 37  1  0  0  0  0
 17 38  1  0  0  0  0
 18 19  1  0  0  0  0
 18 39  1  0  0  0  0
 18 40  1  0  0  0  0
 19 20  1  0  0  0  0
 19 41  1  0  0  0  0
 19 42  1  0  0  0  0
 20 43  1  0  0  0  0
 20 44  1  0  0  0  0
M  CHG  1  16   1
M  END
> <s_m_source_file>
AV-unprocessed.smi

> <i_m_source_file_index>
2252

> <i_lp_mmshare_version>
43012

> <i_f3d_flags>
0

> <s_epik_input>
W0NIM11uMVtjSF1bY0hdbmMxW0NIMl1bQ0gyXVtOSF1DKD1PKVtDQEhdKFtDSF0yW0NIMl1bQ0gyXTIpTjNbQ0gyXVtDSDJdW0NIMl1bQ0gyXTM=

> <s_epik_cmdline>
J2VwaWtfcHl0aG9uJywgJy1waCcsICc3LjAnLCAnLXRuJywgJzgnLCAnLW1hJywgJzIwMCcsICctbWV0YWxfYmluZGluZycsICctaW1hZScsICc8aW5maWxlLm1hZT4nLCAnLW9tYWUnLCAnPG91dGZpbGUubWFlPic=

> <r_lp_tautomer_probability>
1

> <r_epik_Ionization_Penalty>
1.07437

> <r_epik_Ionization_Penalty_Charging>
1.07435

> <r_epik_Ionization_Penalty_Neutral>
2.35578e-05

> <r_epik_State_Penalty>
1.18204

> <r_epik_Charging_Adjusted_Penalty>
2.25639

> <i_epik_Tot_Q>
1

> <i_epik_Tot_abs_Q>
1

> <r_epik_Metal_State_Penalty>
0.433434

> <b_epik_Metal_Only>
0

> <s_lp_Force_Field>
OPLS_2005

> <r_lp_Energy>
33.5931

> <b_lp_Chiralities_Consistent>
1

> <s_lp_Variant>
AV-unprocessed.smi:2252-3

> <Gold.Version>
5.8.1

> <Gold.Id.Protein>
6NUR|6NUR_protein|mol2

> <Gold.PLP.Fitness>
40.6872

> <Gold.PLP.PLP>
-32.9485

> <Gold.PLP.part.hbond>
-2.0000

> <Gold.PLP.part.metal>
0.0000

> <Gold.PLP.part.buried>
-1.9461

> <Gold.PLP.part.nonpolar>
-29.2723

> <Gold.PLP.part.repulsive>
0.1110

> <Gold.PLP.ligand.clash>
0.0000

> <Gold.PLP.ligand.torsion>
1.1906

> <Gold.PLP.Chemscore.Hbond>
3.0000

> <Gold.PLP.Chemscore.CHOScore>
0.0000

> <Gold.PLP.Chemscore.Metal>
0.0000

> <Gold.Chemscore.Hbonds>
donor molecule, donor type, donor heavy atom, donor atom, acceptor molecule, acceptor atom, score
      L1  H     9    30       P1  7948  1.00
      L1  H    16    45       P1  7948  2.00

> <Gold.PLP.Chemscore.Internal.Correction>
1.1199

> <Gold.Rescore>
     Score         DG    S(hbond)    S(metal)    S(lipo)     H(rot)  DE(clash)    DE(int)     intcor
     13.10     -14.23       1.78        0.00      66.68       1.95       0.03       1.10       ----

> <Gold.Chemscore.Fitness>
13.1025

> <Gold.Chemscore.DG>
-14.2259

> <Gold.Chemscore.ZeroCoef>
-5.4800

> <Gold.Chemscore.Hbond>
1.7762

> <Gold.Chemscore.Metal>
0.0000

> <Gold.Chemscore.Lipo>
66.6804

> <Gold.Chemscore.Internal_Hbond>
0.0000

> <Gold.Chemscore.DEClash>
0.0251

> <Gold.Chemscore.DEInternal>
1.0984

> <Gold.Chemscore.Rot>
1.9485

> <Gold.Chemscore.Internal.Correction>
   9.000000E+99

> <Gold.Chemscore.Hbonds>
donor molecule, donor type, donor heavy atom, donor atom, acceptor molecule, acceptor atom, score
      L1  H     9    30       P1  7948  0.25
      L1  H    16    45       P1  7948  0.94

> <Gold.Chemscore.Hbond.Weighted>
-5.9325

> <Gold.Chemscore.Metal.Weighted>
-0.0000

> <Gold.Chemscore.Lipo.Weighted>
-7.8016

> <Gold.Chemscore.Internal_Hbond.Weighted>
0.0000

> <Gold.Chemscore.DEClash.Weighted>
0.0251

> <Gold.Chemscore.DEInternal.Weighted>
1.0984

> <Gold.Chemscore.Rot.Weighted>
4.9881

> <Gold.Chemscore.Internal.Correction.Weighted>
   9.000000E+99

> <Gold.Protein.RotatedTorsions>
[ 6907 6896 6895 6894 ] final   44.31 input  -60.11 | X-H torsion
[ 7974 7965 7964 7962 ] final  159.67 input  175.53 | X-H torsion
[ 8008 7997 7996 7995 ] final  167.05 input   59.86 | X-H torsion
[ 10167 10162 10161 10158 ] final  101.82 input  -65.29 | X-H torsion
[ 10718 10713 10712 10709 ] final  -92.67 input   66.30 | X-H torsion
[ 10763 10752 10751 10750 ] final -173.60 input  -60.55 | X-H torsion
[ 11005 11000 10999 10996 ] final  142.15 input  -57.11 | X-H torsion

> <Gold.Protein.ActiveResidues>
 VAL166  LYS551  ARG553  GLY616  TRP617  ASP618  TYR619  PRO620  LYS621  CYS622 
 ASP623  PHE694  ASN695  SER759  ASP760  ASP761  ALA762  ILE779  LEU786  VAL792 
 PHE793  MET794  SER795  GLU796  ALA797  LYS798  CYS799  TRP800  GLU811  SER814 

> <Gold.Protein.RotatedAtoms>
  152.2310  134.8322  160.0473 H   0  0  0  0  0  0  0  0  0  0  0  0  # atno 6907 bound_to 6896
  151.9071  133.3547  159.3859 H   0  0  0  0  0  0  0  0  0  0  0  0  # atno 6908 bound_to 6896
  150.7025  134.4695  159.5463 H   0  0  0  0  0  0  0  0  0  0  0  0  # atno 6909 bound_to 6896
  144.7778  139.7649  143.6272 H   0  0  0  0  0  0  0  0  0  0  0  0  # atno 7974 bound_to 7965
  156.1666  140.1627  156.8520 H   0  0  0  0  0  0  0  0  0  0  0  0  # atno 8008 bound_to 7997
  154.5214  140.0777  156.8214 H   0  0  0  0  0  0  0  0  0  0  0  0  # atno 8009 bound_to 7997
  155.3598  140.3394  155.4243 H   0  0  0  0  0  0  0  0  0  0  0  0  # atno 8010 bound_to 7997
  139.7404  144.7012  151.0583 H   0  0  0  0  0  0  0  0  0  0  0  0  # atno 10167 bound_to 10162
  156.0005  130.4996  150.5660 H   0  0  0  0  0  0  0  0  0  0  0  0  # atno 10718 bound_to 10713
  154.6060  135.2859  155.0484 H   0  0  0  0  0  0  0  0  0  0  0  0  # atno 10763 bound_to 10752
  154.1732  135.6469  153.5018 H   0  0  0  0  0  0  0  0  0  0  0  0  # atno 10764 bound_to 10752
  153.0175  135.5406  154.6796 H   0  0  0  0  0  0  0  0  0  0  0  0  # atno 10765 bound_to 10752
  140.0455  134.9283  157.0921 H   0  0  0  0  0  0  0  0  0  0  0  0  # atno 11005 bound_to 11000
  146.1968  139.5239  142.9769 LP  0  0  0  0  0  0  0  0  0  0  0  0  # atno 17320 bound_to 7965
  145.6137  141.0335  143.1953 LP  0  0  0  0  0  0  0  0  0  0  0  0  # atno 17321 bound_to 7965
  140.7785  143.4931  150.9867 LP  0  0  0  0  0  0  0  0  0  0  0  0  # atno 17342 bound_to 10162
  139.8619  143.7303  152.3173 LP  0  0  0  0  0  0  0  0  0  0  0  0  # atno 17343 bound_to 10162
  157.3562  131.0742  151.1673 LP  0  0  0  0  0  0  0  0  0  0  0  0  # atno 17370 bound_to 10713
  157.2473  130.6597  149.5916 LP  0  0  0  0  0  0  0  0  0  0  0  0  # atno 17371 bound_to 10713
  140.4001  134.2092  155.7163 LP  0  0  0  0  0  0  0  0  0  0  0  0  # atno 17394 bound_to 11000
  141.1904  133.8217  157.0918 LP  0  0  0  0  0  0  0  0  0  0  0  0  # atno 17395 bound_to 11000

$$$$
