AV-unprocessed.smi:3085|AV-procd|sdf|11759|dock3
  -GOLD-   2272017143D 1   1.00000     0.00000
 Structure written by MMmdl.
 28 29  0  0  0  0  0  0  0  0  2 V2000
  152.4286  143.5006  158.9453 C   0  0  0  0  0  0  0  0  0  0  0  0
  151.3086  143.7414  157.9271 C   0  0  0  0  0  0  0  0  0  0  0  0
  151.0210  142.5357  157.0939 C   0  0  0  0  0  0  0  0  0  0  0  0
  150.1353  142.5613  156.0874 N   0  0  0  0  0  0  0  0  0  0  0  0
  150.1632  141.3003  155.6309 C   0  0  0  0  0  0  0  0  0  0  0  0
  149.3225  140.8562  154.4754 C   0  0  1  0  0  0  0  0  0  0  0  0
  149.5404  139.3709  154.1269 C   0  0  0  0  0  0  0  0  0  0  0  0
  148.6129  138.9625  153.0540 N   0  3  0  0  0  0  0  0  0  0  0  0
  147.2105  139.2544  153.4116 C   0  0  0  0  0  0  0  0  0  0  0  0
  147.0582  140.7384  153.7899 C   0  0  0  0  0  0  0  0  0  0  0  0
  147.9605  141.0621  154.8428 O   0  0  0  0  0  0  0  0  0  0  0  0
  151.0158  140.5200  156.3037 N   0  0  0  0  0  0  0  0  0  0  0  0
  151.5775  141.3340  157.2721 N   0  0  0  0  0  0  0  0  0  0  0  0
  149.5819  143.3397  155.7595 H   0  0  0  0  0  0  0  0  0  0  0  0
  152.6133  144.3962  159.5386 H   0  0  0  0  0  0  0  0  0  0  0  0
  153.3614  143.2330  158.4479 H   0  0  0  0  0  0  0  0  0  0  0  0
  152.1702  142.6934  159.6311 H   0  0  0  0  0  0  0  0  0  0  0  0
  150.3964  144.0454  158.4416 H   0  0  0  0  0  0  0  0  0  0  0  0
  151.5811  144.5651  157.2662 H   0  0  0  0  0  0  0  0  0  0  0  0
  149.5601  141.4823  153.6127 H   0  0  0  0  0  0  0  0  0  0  0  0
  150.5671  139.1964  153.8041 H   0  0  0  0  0  0  0  0  0  0  0  0
  149.3669  138.7436  155.0027 H   0  0  0  0  0  0  0  0  0  0  0  0
  148.8453  139.4715  152.2131 H   0  0  0  0  0  0  0  0  0  0  0  0
  146.5621  139.0027  152.5720 H   0  0  0  0  0  0  0  0  0  0  0  0
  146.9140  138.6212  154.2489 H   0  0  0  0  0  0  0  0  0  0  0  0
  147.2428  141.3814  152.9278 H   0  0  0  0  0  0  0  0  0  0  0  0
  146.0399  140.9383  154.1235 H   0  0  0  0  0  0  0  0  0  0  0  0
  148.7158  137.9727  152.8793 H   0  0  0  0  0  0  0  0  0  0  0  0
  1  2  1  0  0  0  0
  1 15  1  0  0  0  0
  1 16  1  0  0  0  0
  1 17  1  0  0  0  0
  2 18  1  0  0  0  0
  2 19  1  0  0  0  0
  2  3  1  0  0  0  0
  3  4  1  0  0  0  0
  3 13  2  0  0  0  0
  4 14  1  0  0  0  0
  4  5  1  0  0  0  0
  5 12  2  0  0  0  0
  5  6  1  0  0  0  0
  6 11  1  0  0  0  0
  6  7  1  0  0  0  0
  6 20  1  0  0  0  0
  7  8  1  0  0  0  0
  7 21  1  0  0  0  0
  7 22  1  0  0  0  0
  8  9  1  0  0  0  0
  8 23  1  0  0  0  0
  8 28  1  0  0  0  0
  9 10  1  0  0  0  0
  9 24  1  0  0  0  0
  9 25  1  0  0  0  0
 10 11  1  0  0  0  0
 10 26  1  0  0  0  0
 10 27  1  0  0  0  0
 12 13  1  0  0  0  0
M  CHG  1   8   1
M  END
> <s_m_source_file>
AV-unprocessed.smi

> <i_m_source_file_index>
3085

> <i_lp_mmshare_version>
43012

> <i_f3d_flags>
0

> <s_epik_input>
W0NIM11bQ0gyXWMxbmMobltuSF0xKVtDQEBIXTJbQ0gyXVtOSF1bQ0gyXVtDSDJdTzI=

> <s_epik_cmdline>
J2VwaWtfcHl0aG9uJywgJy1waCcsICc3LjAnLCAnLXRuJywgJzgnLCAnLW1hJywgJzIwMCcsICctbWV0YWxfYmluZGluZycsICctaW1hZScsICc8aW5maWxlLm1hZT4nLCAnLW9tYWUnLCAnPG91dGZpbGUubWFlPic=

> <r_lp_tautomer_probability>
0.0517155

> <r_epik_Ionization_Penalty>
0.290065

> <r_epik_Ionization_Penalty_Charging>
0.125708

> <r_epik_Ionization_Penalty_Neutral>
0.164357

> <r_epik_State_Penalty>
2.26879

> <r_epik_Charging_Adjusted_Penalty>
2.39449

> <i_epik_Tot_Q>
1

> <i_epik_Tot_abs_Q>
1

> <r_epik_Metal_State_Penalty>
2.49092

> <b_epik_Metal_Only>
0

> <s_lp_Force_Field>
OPLS_2005

> <r_lp_Energy>
12.4164

> <b_lp_Chiralities_Consistent>
1

> <s_lp_Variant>
AV-unprocessed.smi:3085-10

> <Gold.Version>
5.8.1

> <Gold.Id.Protein>
6NUR|6NUR_protein|mol2

> <Gold.PLP.Fitness>
38.3443

> <Gold.PLP.PLP>
-26.4683

> <Gold.PLP.part.hbond>
-2.9633

> <Gold.PLP.part.metal>
0.0000

> <Gold.PLP.part.buried>
-3.2867

> <Gold.PLP.part.nonpolar>
-21.6983

> <Gold.PLP.part.repulsive>
0.3477

> <Gold.PLP.ligand.clash>
0.0000

> <Gold.PLP.ligand.torsion>
0.0256

> <Gold.PLP.Chemscore.Hbond>
3.9753

> <Gold.PLP.Chemscore.CHOScore>
0.0000

> <Gold.PLP.Chemscore.Metal>
0.0000

> <Gold.Chemscore.Hbonds>
donor molecule, donor type, donor heavy atom, donor atom, acceptor molecule, acceptor atom, score
      L1  H     4    14       P1  8028  1.00
      L1  H     8    23       P1  7957  0.70
      L1  H     8    28       P1  7948  2.00

> <Gold.PLP.Chemscore.Internal.Correction>
0.0015

> <Gold.Rescore>
     Score         DG    S(hbond)    S(metal)    S(lipo)     H(rot)  DE(clash)    DE(int)     intcor
     17.84     -17.92       2.91        0.00      51.83       1.30       0.03       0.05       ----

> <Gold.Chemscore.Fitness>
17.8371

> <Gold.Chemscore.DG>
-17.9211

> <Gold.Chemscore.ZeroCoef>
-5.4800

> <Gold.Chemscore.Hbond>
2.9066

> <Gold.Chemscore.Metal>
0.0000

> <Gold.Chemscore.Lipo>
51.8291

> <Gold.Chemscore.Internal_Hbond>
0.0000

> <Gold.Chemscore.DEClash>
0.0349

> <Gold.Chemscore.DEInternal>
0.0491

> <Gold.Chemscore.Rot>
1.3011

> <Gold.Chemscore.Internal.Correction>
   9.000000E+99

> <Gold.Chemscore.Hbonds>
donor molecule, donor type, donor heavy atom, donor atom, acceptor molecule, acceptor atom, score
      L1  H     4    14       P1  8028  0.95
      L1  H     8    23       P1  7957  0.69
      L1  H     8    28       P1  7948  0.95

> <Gold.Chemscore.Hbond.Weighted>
-9.7079

> <Gold.Chemscore.Metal.Weighted>
-0.0000

> <Gold.Chemscore.Lipo.Weighted>
-6.0640

> <Gold.Chemscore.Internal_Hbond.Weighted>
0.0000

> <Gold.Chemscore.DEClash.Weighted>
0.0349

> <Gold.Chemscore.DEInternal.Weighted>
0.0491

> <Gold.Chemscore.Rot.Weighted>
3.3308

> <Gold.Chemscore.Internal.Correction.Weighted>
   9.000000E+99

> <Gold.Protein.RotatedTorsions>
[ 6907 6896 6895 6894 ] final   27.86 input  -60.11 | X-H torsion
[ 7974 7965 7964 7962 ] final   17.65 input  175.53 | X-H torsion
[ 8008 7997 7996 7995 ] final  -45.72 input   59.86 | X-H torsion
[ 10167 10162 10161 10158 ] final  -16.36 input  -65.29 | X-H torsion
[ 10718 10713 10712 10709 ] final  166.66 input   66.30 | X-H torsion
[ 10763 10752 10751 10750 ] final -125.50 input  -60.55 | X-H torsion
[ 11005 11000 10999 10996 ] final   45.92 input  -57.11 | X-H torsion

> <Gold.Protein.ActiveResidues>
 VAL166  LYS551  ARG553  GLY616  TRP617  ASP618  TYR619  PRO620  LYS621  CYS622 
 ASP623  PHE694  ASN695  SER759  ASP760  ASP761  ALA762  ILE779  LEU786  VAL792 
 PHE793  MET794  SER795  GLU796  ALA797  LYS798  CYS799  TRP800  GLU811  SER814 

> <Gold.Protein.RotatedAtoms>
  152.0085  134.9889  160.0567 H   0  0  0  0  0  0  0  0  0  0  0  0  # atno 6907 bound_to 6896
  152.1451  133.4483  159.4794 H   0  0  0  0  0  0  0  0  0  0  0  0  # atno 6908 bound_to 6896
  150.6869  134.2175  159.4427 H   0  0  0  0  0  0  0  0  0  0  0  0  # atno 6909 bound_to 6896
  146.2211  139.8571  142.8611 H   0  0  0  0  0  0  0  0  0  0  0  0  # atno 7974 bound_to 7965
  154.4002  140.1389  156.3894 H   0  0  0  0  0  0  0  0  0  0  0  0  # atno 8008 bound_to 7997
  155.7929  140.3478  155.5339 H   0  0  0  0  0  0  0  0  0  0  0  0  # atno 8009 bound_to 7997
  155.8561  140.0949  157.1634 H   0  0  0  0  0  0  0  0  0  0  0  0  # atno 8010 bound_to 7997
  140.7232  143.5124  150.9733 H   0  0  0  0  0  0  0  0  0  0  0  0  # atno 10167 bound_to 10162
  157.0627  131.0344  151.2641 H   0  0  0  0  0  0  0  0  0  0  0  0  # atno 10718 bound_to 10713
  154.8736  135.4027  154.3279 H   0  0  0  0  0  0  0  0  0  0  0  0  # atno 10763 bound_to 10752
  153.4097  135.7020  153.6373 H   0  0  0  0  0  0  0  0  0  0  0  0  # atno 10764 bound_to 10752
  153.5081  135.3713  155.2543 H   0  0  0  0  0  0  0  0  0  0  0  0  # atno 10765 bound_to 10752
  140.1416  134.4576  155.8446 H   0  0  0  0  0  0  0  0  0  0  0  0  # atno 11005 bound_to 11000
  145.2742  141.0118  143.3754 LP  0  0  0  0  0  0  0  0  0  0  0  0  # atno 17320 bound_to 7965
  144.9199  139.4424  143.6546 LP  0  0  0  0  0  0  0  0  0  0  0  0  # atno 17321 bound_to 7965
  139.8838  143.7038  152.3154 LP  0  0  0  0  0  0  0  0  0  0  0  0  # atno 17342 bound_to 10162
  139.7330  144.7578  151.0772 LP  0  0  0  0  0  0  0  0  0  0  0  0  # atno 17343 bound_to 10162
  157.4942  130.7840  149.7538 LP  0  0  0  0  0  0  0  0  0  0  0  0  # atno 17370 bound_to 10713
  155.9974  130.3900  150.2743 LP  0  0  0  0  0  0  0  0  0  0  0  0  # atno 17371 bound_to 10713
  141.2186  133.6835  156.7257 LP  0  0  0  0  0  0  0  0  0  0  0  0  # atno 17394 bound_to 11000
  140.2715  134.8388  157.3851 LP  0  0  0  0  0  0  0  0  0  0  0  0  # atno 17395 bound_to 11000

$$$$
