AV-unprocessed.smi:1669|AV-procd|sdf|6690|dock3
  -GOLD-   22720 7413D 1   1.00000     0.00000
 Structure written by MMmdl.
 49 51  0  0  0  0  0  0  0  0  3 V2000
  147.0253  137.9977  156.6713 C   0  0  0  0  0  0  0  0  0  0  0  0
  147.6310  137.4120  157.8932 N   0  3  2  0  0  0  0  0  0  0  0  0
  146.7323  137.4939  159.0729 C   0  0  0  0  0  0  0  0  0  0  0  0
  147.0468  136.4309  160.1109 C   0  0  0  0  0  0  0  0  0  0  0  0
  147.0815  135.0670  159.7498 C   0  0  0  0  0  0  0  0  0  0  0  0
  147.3752  134.0866  160.7173 C   0  0  0  0  0  0  0  0  0  0  0  0
  147.6335  134.4655  162.0488 C   0  0  0  0  0  0  0  0  0  0  0  0
  147.5976  135.8251  162.4135 C   0  0  0  0  0  0  0  0  0  0  0  0
  147.3039  136.8062  161.4466 C   0  0  0  0  0  0  0  0  0  0  0  0
  148.9873  137.9498  158.1800 C   0  0  0  0  0  0  0  0  0  0  0  0
  149.7603  138.3220  156.8987 C   0  0  2  0  0  0  0  0  0  0  0  0
  150.0846  137.1333  156.2038 O   0  0  0  0  0  0  0  0  0  0  0  0
  151.0502  139.1074  157.2122 C   0  0  0  0  0  0  0  0  0  0  0  0
  150.8904  140.5608  157.0379 N   0  0  0  0  0  0  0  0  0  0  0  0
  150.1933  141.2580  156.0938 C   0  0  0  0  0  0  0  0  0  0  0  0
  149.3845  140.6869  154.9727 C   0  0  0  0  0  0  0  0  0  0  0  0
  150.1600  139.9442  154.0564 O   0  0  0  0  0  0  0  0  0  0  0  0
  150.3603  142.5831  156.3669 N   0  3  0  0  0  0  0  0  0  0  0  0
  151.1706  142.7378  157.4913 C   0  0  0  0  0  0  0  0  0  0  0  0
  151.6174  143.8849  158.1396 C   0  0  0  0  0  0  0  0  0  0  0  0
  152.4390  143.6936  159.2696 C   0  0  0  0  0  0  0  0  0  0  0  0
  152.7846  142.4014  159.7149 C   0  0  0  0  0  0  0  0  0  0  0  0
  152.3240  141.2459  159.0500 C   0  0  0  0  0  0  0  0  0  0  0  0
  151.5133  141.4425  157.9314 C   0  0  0  0  0  0  0  0  0  0  0  0
  146.8306  139.0625  156.8048 H   0  0  0  0  0  0  0  0  0  0  0  0
  146.0824  137.5100  156.4253 H   0  0  0  0  0  0  0  0  0  0  0  0
  147.6736  137.8793  155.8044 H   0  0  0  0  0  0  0  0  0  0  0  0
  146.8418  138.4624  159.5628 H   0  0  0  0  0  0  0  0  0  0  0  0
  145.6907  137.4231  158.7551 H   0  0  0  0  0  0  0  0  0  0  0  0
  146.8850  134.7680  158.7304 H   0  0  0  0  0  0  0  0  0  0  0  0
  147.4017  133.0434  160.4384 H   0  0  0  0  0  0  0  0  0  0  0  0
  147.8578  133.7131  162.7907 H   0  0  0  0  0  0  0  0  0  0  0  0
  147.7948  136.1151  163.4351 H   0  0  0  0  0  0  0  0  0  0  0  0
  147.2778  137.8476  161.7331 H   0  0  0  0  0  0  0  0  0  0  0  0
  148.8977  138.8139  158.8403 H   0  0  0  0  0  0  0  0  0  0  0  0
  149.5767  137.2128  158.7277 H   0  0  0  0  0  0  0  0  0  0  0  0
  149.1377  138.9319  156.2453 H   0  0  0  0  0  0  0  0  0  0  0  0
  150.9948  136.9301  156.3569 H   0  0  0  0  0  0  0  0  0  0  0  0
  151.3428  138.9402  158.2495 H   0  0  0  0  0  0  0  0  0  0  0  0
  151.8867  138.7596  156.6057 H   0  0  0  0  0  0  0  0  0  0  0  0
  148.6055  140.0388  155.3740 H   0  0  0  0  0  0  0  0  0  0  0  0
  148.8888  141.5001  154.4422 H   0  0  0  0  0  0  0  0  0  0  0  0
  149.6779  139.8651  153.2471 H   0  0  0  0  0  0  0  0  0  0  0  0
  151.3537  144.8758  157.7998 H   0  0  0  0  0  0  0  0  0  0  0  0
  152.8111  144.5551  159.8053 H   0  0  0  0  0  0  0  0  0  0  0  0
  153.4166  142.2943  160.5845 H   0  0  0  0  0  0  0  0  0  0  0  0
  152.5993  140.2634  159.4020 H   0  0  0  0  0  0  0  0  0  0  0  0
  147.7585  136.4256  157.7150 H   0  0  0  0  0  0  0  0  0  0  0  0
  149.9486  143.3256  155.8158 H   0  0  0  0  0  0  0  0  0  0  0  0
  1  2  1  0  0  0  0
  1 25  1  0  0  0  0
  1 26  1  0  0  0  0
  1 27  1  0  0  0  0
  2  3  1  0  0  0  0
  2 10  1  0  0  0  0
  2 48  1  0  0  0  0
  3  4  1  0  0  0  0
  3 28  1  0  0  0  0
  3 29  1  0  0  0  0
  4  9  1  0  0  0  0
  4  5  2  0  0  0  0
  5  6  1  0  0  0  0
  5 30  1  0  0  0  0
  6  7  2  0  0  0  0
  6 31  1  0  0  0  0
  7  8  1  0  0  0  0
  7 32  1  0  0  0  0
  8  9  2  0  0  0  0
  8 33  1  0  0  0  0
  9 34  1  0  0  0  0
 10 11  1  0  0  0  0
 10 35  1  0  0  0  0
 10 36  1  0  0  0  0
 11 12  1  0  0  0  0
 11 13  1  0  0  0  0
 11 37  1  0  0  0  0
 12 38  1  0  0  0  0
 13 14  1  0  0  0  0
 13 39  1  0  0  0  0
 13 40  1  0  0  0  0
 14 24  1  0  0  0  0
 14 15  1  0  0  0  0
 15 16  1  0  0  0  0
 15 18  2  0  0  0  0
 16 17  1  0  0  0  0
 16 41  1  0  0  0  0
 16 42  1  0  0  0  0
 17 43  1  0  0  0  0
 18 19  1  0  0  0  0
 18 49  1  0  0  0  0
 19 24  2  0  0  0  0
 19 20  1  0  0  0  0
 20 21  2  0  0  0  0
 20 44  1  0  0  0  0
 21 22  1  0  0  0  0
 21 45  1  0  0  0  0
 22 23  2  0  0  0  0
 22 46  1  0  0  0  0
 23 24  1  0  0  0  0
 23 47  1  0  0  0  0
M  CHG  1   2   1
M  CHG  1  18   1
M  END
> <s_m_source_file>
AV-unprocessed.smi

> <i_m_source_file_index>
1669

> <i_lp_mmshare_version>
43012

> <i_f3d_flags>
0

> <s_epik_input>
W2NIXTFbY0hdW2NIXVtjSF1bY0hdYzFbQ0gyXU4oW0NIM10pW0NIMl1bQ0BIXShbT0hdKVtDSDJdbihjKG4yKVtDSDJdW09IXSljKGMyMylbY0hdW2NIXVtjSF1bY0hdMw==

> <s_epik_cmdline>
J2VwaWtfcHl0aG9uJywgJy1waCcsICc3LjAnLCAnLXRuJywgJzgnLCAnLW1hJywgJzIwMCcsICctbWV0YWxfYmluZGluZycsICctaW1hZScsICc8aW5maWxlLm1hZT4nLCAnLW9tYWUnLCAnPG91dGZpbGUubWFlPic=

> <r_epik_Ionization_Penalty>
1.57484

> <r_epik_Ionization_Penalty_Charging>
1.57398

> <r_epik_Ionization_Penalty_Neutral>
0.000858917

> <r_epik_State_Penalty>
1.64997

> <r_epik_Charging_Adjusted_Penalty>
3.22395

> <i_epik_Tot_Q>
2

> <i_epik_Tot_abs_Q>
2

> <r_epik_Metal_State_Penalty>
5.70481

> <b_epik_Metal_Only>
0

> <s_lp_Force_Field>
OPLS_2005

> <r_lp_Energy>
22.9184

> <b_lp_Chiralities_Consistent>
1

> <s_lp_Variant>
AV-unprocessed.smi:1669-8

> <Gold.Version>
5.8.1

> <Gold.Id.Protein>
6NUR|6NUR_protein|mol2

> <Gold.PLP.Fitness>
53.3658

> <Gold.PLP.PLP>
-43.8131

> <Gold.PLP.part.hbond>
-3.0000

> <Gold.PLP.part.metal>
0.0000

> <Gold.PLP.part.buried>
-5.2067

> <Gold.PLP.part.nonpolar>
-36.1581

> <Gold.PLP.part.repulsive>
0.1441

> <Gold.PLP.ligand.clash>
0.0000

> <Gold.PLP.ligand.torsion>
1.4097

> <Gold.PLP.Chemscore.Hbond>
3.9833

> <Gold.PLP.Chemscore.CHOScore>
0.0000

> <Gold.PLP.Chemscore.Metal>
0.0000

> <Gold.Chemscore.Hbonds>
donor molecule, donor type, donor heavy atom, donor atom, acceptor molecule, acceptor atom, score
      L1  H    17    43       P1  7957  0.84
      L1  H    18    49       P1  8028  2.00
      P1  H  7989  7998       L1    17  0.99

> <Gold.PLP.Chemscore.Internal.Correction>
0.4224

> <Gold.Rescore>
     Score         DG    S(hbond)    S(metal)    S(lipo)     H(rot)  DE(clash)    DE(int)     intcor
     17.31     -18.73       2.48        0.00     114.06       3.27       0.03       1.39       ----

> <Gold.Chemscore.Fitness>
17.3054

> <Gold.Chemscore.DG>
-18.7324

> <Gold.Chemscore.ZeroCoef>
-5.4800

> <Gold.Chemscore.Hbond>
2.4800

> <Gold.Chemscore.Metal>
0.0000

> <Gold.Chemscore.Lipo>
114.0605

> <Gold.Chemscore.Internal_Hbond>
0.0000

> <Gold.Chemscore.DEClash>
0.0341

> <Gold.Chemscore.DEInternal>
1.3928

> <Gold.Chemscore.Rot>
3.2718

> <Gold.Chemscore.Internal.Correction>
   9.000000E+99

> <Gold.Chemscore.Hbonds>
donor molecule, donor type, donor heavy atom, donor atom, acceptor molecule, acceptor atom, score
      L1  H    17    43       P1  7957  0.77
      L1  H    18    49       P1  8028  0.96
      P1  H  7989  7998       L1    17  0.20

> <Gold.Chemscore.Hbond.Weighted>
-8.2832

> <Gold.Chemscore.Metal.Weighted>
-0.0000

> <Gold.Chemscore.Lipo.Weighted>
-13.3451

> <Gold.Chemscore.Internal_Hbond.Weighted>
0.0000

> <Gold.Chemscore.DEClash.Weighted>
0.0341

> <Gold.Chemscore.DEInternal.Weighted>
1.3928

> <Gold.Chemscore.Rot.Weighted>
8.3759

> <Gold.Chemscore.Internal.Correction.Weighted>
   9.000000E+99

> <Gold.Protein.RotatedTorsions>
[ 6907 6896 6895 6894 ] final  -78.86 input  -60.11 | X-H torsion
[ 7974 7965 7964 7962 ] final   99.81 input  175.53 | X-H torsion
[ 8008 7997 7996 7995 ] final -152.82 input   59.86 | X-H torsion
[ 10167 10162 10161 10158 ] final   14.97 input  -65.29 | X-H torsion
[ 10718 10713 10712 10709 ] final  -72.24 input   66.30 | X-H torsion
[ 10763 10752 10751 10750 ] final -128.05 input  -60.55 | X-H torsion
[ 11005 11000 10999 10996 ] final -133.24 input  -57.11 | X-H torsion

> <Gold.Protein.ActiveResidues>
 VAL166  LYS551  ARG553  GLY616  TRP617  ASP618  TYR619  PRO620  LYS621  CYS622 
 ASP623  PHE694  ASN695  SER759  ASP760  ASP761  ALA762  ILE779  LEU786  VAL792 
 PHE793  MET794  SER795  GLU796  ALA797  LYS798  CYS799  TRP800  GLU811  SER814 

> <Gold.Protein.RotatedAtoms>
  150.6963  134.4209  159.5204 H   0  0  0  0  0  0  0  0  0  0  0  0  # atno 6907 bound_to 6896
  152.1952  134.8634  160.0523 H   0  0  0  0  0  0  0  0  0  0  0  0  # atno 6908 bound_to 6896
  151.9575  133.3650  159.4060 H   0  0  0  0  0  0  0  0  0  0  0  0  # atno 6909 bound_to 6896
  145.3939  139.2358  143.3337 H   0  0  0  0  0  0  0  0  0  0  0  0  # atno 7974 bound_to 7965
  155.6612  140.0723  157.2553 H   0  0  0  0  0  0  0  0  0  0  0  0  # atno 8008 bound_to 7997
  154.4142  140.1716  156.1829 H   0  0  0  0  0  0  0  0  0  0  0  0  # atno 8009 bound_to 7997
  155.9696  140.3363  155.6566 H   0  0  0  0  0  0  0  0  0  0  0  0  # atno 8010 bound_to 7997
  140.5899  143.8815  150.6864 H   0  0  0  0  0  0  0  0  0  0  0  0  # atno 10167 bound_to 10162
  156.0329  130.4368  150.2563 H   0  0  0  0  0  0  0  0  0  0  0  0  # atno 10718 bound_to 10713
  154.8755  135.3941  154.3693 H   0  0  0  0  0  0  0  0  0  0  0  0  # atno 10763 bound_to 10752
  153.4455  135.7027  153.6147 H   0  0  0  0  0  0  0  0  0  0  0  0  # atno 10764 bound_to 10752
  153.4709  135.3790  155.2359 H   0  0  0  0  0  0  0  0  0  0  0  0  # atno 10765 bound_to 10752
  140.9098  134.1582  157.4398 H   0  0  0  0  0  0  0  0  0  0  0  0  # atno 11005 bound_to 11000
  146.2784  140.4626  142.8786 LP  0  0  0  0  0  0  0  0  0  0  0  0  # atno 17320 bound_to 7965
  144.8421  140.6873  143.6223 LP  0  0  0  0  0  0  0  0  0  0  0  0  # atno 17321 bound_to 7965
  140.2336  143.3717  152.1545 LP  0  0  0  0  0  0  0  0  0  0  0  0  # atno 17342 bound_to 10162
  139.5221  144.7054  151.5368 LP  0  0  0  0  0  0  0  0  0  0  0  0  # atno 17343 bound_to 10162
  157.0664  131.0104  151.3205 LP  0  0  0  0  0  0  0  0  0  0  0  0  # atno 17370 bound_to 10713
  157.5032  130.7893  149.7626 LP  0  0  0  0  0  0  0  0  0  0  0  0  # atno 17371 bound_to 10713
  139.8755  134.9931  156.5629 LP  0  0  0  0  0  0  0  0  0  0  0  0  # atno 17394 bound_to 11000
  140.8124  133.8418  155.8822 LP  0  0  0  0  0  0  0  0  0  0  0  0  # atno 17395 bound_to 11000

$$$$
