AV-unprocessed.smi:837|AV-procd|sdf|3900|dock3
  -GOLD-   22720 1363D 1   1.00000     0.00000
 Structure written by MMmdl.
 48 50  0  0  0  0  0  0  0  0  2 V2000
  150.4368  142.6201  157.6096 C   0  0  0  0  0  0  0  0  0  0  0  0
  151.1925  141.6436  158.5374 C   0  0  2  0  0  0  0  0  0  0  0  0
  152.3987  142.3410  159.2028 C   0  0  0  0  0  0  0  0  0  0  0  0
  153.0970  141.4262  160.2200 C   0  0  0  0  0  0  0  0  0  0  0  0
  153.5371  140.1077  159.5704 C   0  0  0  0  0  0  0  0  0  0  0  0
  152.3509  139.3910  158.9016 C   0  0  0  0  0  0  0  0  0  0  0  0
  151.6107  140.2893  157.8765 C   0  0  2  0  0  0  0  0  0  0  0  0
  152.4403  140.4960  156.6996 N   0  5  0  0  0  0  0  0  0  0  0  0
  151.8214  139.9555  155.6249 C   0  0  0  0  0  0  0  0  0  0  0  0
  152.2314  139.9540  154.4645 O   0  0  0  0  0  0  0  0  0  0  0  0
  150.6483  139.3934  155.9732 N   0  0  0  0  0  0  0  0  0  0  0  0
  149.7198  138.7453  155.0375 C   0  0  0  0  0  0  0  0  0  0  0  0
  149.4979  137.2604  155.3540 C   0  0  0  0  0  0  0  0  0  0  0  0
  149.9920  136.7503  156.3603 O   0  0  0  0  0  0  0  0  0  0  0  0
  148.7697  136.5702  154.4637 N   0  0  0  0  0  0  0  0  0  0  0  0
  148.4528  135.1491  154.5629 C   0  0  0  0  0  0  0  0  0  0  0  0
  148.8237  134.3732  153.2853 C   0  0  0  0  0  0  0  0  0  0  0  0
  147.6480  133.6346  152.6696 C   0  0  0  0  0  0  0  0  0  0  0  0
  147.5125  132.2379  152.8111 C   0  0  0  0  0  0  0  0  0  0  0  0
  146.4075  131.6003  152.2146 C   0  0  0  0  0  0  0  0  0  0  0  0
  145.4836  132.3885  151.4999 C   0  0  0  0  0  0  0  0  0  0  0  0
  145.6038  133.7261  151.3575 N   0  0  0  0  0  0  0  0  0  0  0  0
  146.6649  134.3300  151.9342 C   0  0  0  0  0  0  0  0  0  0  0  0
  150.4255  139.5391  157.2841 C   0  0  0  0  0  0  0  0  0  0  0  0
  149.4466  139.1561  157.9267 O   0  0  0  0  0  0  0  0  0  0  0  0
  151.0526  142.9304  156.7651 H   0  0  0  0  0  0  0  0  0  0  0  0
  150.1462  143.5212  158.1497 H   0  0  0  0  0  0  0  0  0  0  0  0
  149.5231  142.1793  157.2111 H   0  0  0  0  0  0  0  0  0  0  0  0
  150.4984  141.4006  159.3440 H   0  0  0  0  0  0  0  0  0  0  0  0
  153.1136  142.6540  158.4406 H   0  0  0  0  0  0  0  0  0  0  0  0
  152.0714  143.2517  159.7051 H   0  0  0  0  0  0  0  0  0  0  0  0
  153.9614  141.9367  160.6451 H   0  0  0  0  0  0  0  0  0  0  0  0
  152.4207  141.2180  161.0499 H   0  0  0  0  0  0  0  0  0  0  0  0
  154.3137  140.3052  158.8307 H   0  0  0  0  0  0  0  0  0  0  0  0
  153.9871  139.4570  160.3204 H   0  0  0  0  0  0  0  0  0  0  0  0
  152.7006  138.4717  158.4281 H   0  0  0  0  0  0  0  0  0  0  0  0
  151.6543  139.0782  159.6812 H   0  0  0  0  0  0  0  0  0  0  0  0
  148.7651  139.2744  155.0451 H   0  0  0  0  0  0  0  0  0  0  0  0
  150.0923  138.8243  154.0151 H   0  0  0  0  0  0  0  0  0  0  0  0
  148.4077  137.0653  153.6617 H   0  0  0  0  0  0  0  0  0  0  0  0
  148.9478  134.7103  155.4305 H   0  0  0  0  0  0  0  0  0  0  0  0
  147.3815  135.0620  154.7456 H   0  0  0  0  0  0  0  0  0  0  0  0
  149.2426  135.0574  152.5460 H   0  0  0  0  0  0  0  0  0  0  0  0
  149.6115  133.6534  153.5098 H   0  0  0  0  0  0  0  0  0  0  0  0
  148.2428  131.6638  153.3625 H   0  0  0  0  0  0  0  0  0  0  0  0
  146.2719  130.5324  152.3014 H   0  0  0  0  0  0  0  0  0  0  0  0
  144.6259  131.9320  151.0286 H   0  0  0  0  0  0  0  0  0  0  0  0
  146.7343  135.3995  151.8006 H   0  0  0  0  0  0  0  0  0  0  0  0
  1  2  1  0  0  0  0
  1 26  1  0  0  0  0
  1 27  1  0  0  0  0
  1 28  1  0  0  0  0
  2  7  1  0  0  0  0
  2  3  1  0  0  0  0
  2 29  1  0  0  0  0
  3  4  1  0  0  0  0
  3 30  1  0  0  0  0
  3 31  1  0  0  0  0
  4  5  1  0  0  0  0
  4 32  1  0  0  0  0
  4 33  1  0  0  0  0
  5  6  1  0  0  0  0
  5 34  1  0  0  0  0
  5 35  1  0  0  0  0
  6  7  1  0  0  0  0
  6 36  1  0  0  0  0
  6 37  1  0  0  0  0
  7 24  1  0  0  0  0
  7  8  1  0  0  0  0
  8  9  1  0  0  0  0
  9 10  2  0  0  0  0
  9 11  1  0  0  0  0
 11 12  1  0  0  0  0
 11 24  1  0  0  0  0
 12 13  1  0  0  0  0
 12 38  1  0  0  0  0
 12 39  1  0  0  0  0
 13 14  2  0  0  0  0
 13 15  1  0  0  0  0
 15 16  1  0  0  0  0
 15 40  1  0  0  0  0
 16 17  1  0  0  0  0
 16 41  1  0  0  0  0
 16 42  1  0  0  0  0
 17 18  1  0  0  0  0
 17 43  1  0  0  0  0
 17 44  1  0  0  0  0
 18 23  1  0  0  0  0
 18 19  2  0  0  0  0
 19 20  1  0  0  0  0
 19 45  1  0  0  0  0
 20 21  2  0  0  0  0
 20 46  1  0  0  0  0
 21 22  1  0  0  0  0
 21 47  1  0  0  0  0
 22 23  2  0  0  0  0
 23 48  1  0  0  0  0
 24 25  2  0  0  0  0
M  CHG  1   8  -1
M  END
> <s_m_source_file>
AV-unprocessed.smi

> <i_m_source_file_index>
837

> <i_lp_mmshare_version>
43012

> <i_f3d_flags>
0

> <s_epik_input>
W0NIMl0xW0NIMl1bQ0gyXVtDSDJdW0NAQEhdKFtDSDNdKVtDQEBdMTJbTkhdQyg9TylOKEMyPU8pW0NIMl1DKD1PKVtOSF1bQ0gyXVtDSDJdYzNbY0hdW2NIXVtjSF1uW2NIXTM=

> <s_epik_cmdline>
J2VwaWtfcHl0aG9uJywgJy1waCcsICc3LjAnLCAnLXRuJywgJzgnLCAnLW1hJywgJzIwMCcsICctbWV0YWxfYmluZGluZycsICctaW1hZScsICc8aW5maWxlLm1hZT4nLCAnLW9tYWUnLCAnPG91dGZpbGUubWFlPic=

> <r_lp_tautomer_probability>
1

> <r_epik_Ionization_Penalty>
6.03002

> <r_epik_Ionization_Penalty_Charging>
6.01728

> <r_epik_Ionization_Penalty_Neutral>
0.0127382

> <r_epik_State_Penalty>
6.02713

> <r_epik_Charging_Adjusted_Penalty>
12.0444

> <i_epik_Tot_Q>
-1

> <i_epik_Tot_abs_Q>
1

> <r_epik_Metal_State_Penalty>
1.99078

> <b_epik_Metal_Only>
1

> <s_lp_Force_Field>
OPLS_2005

> <r_lp_Energy>
20.4671

> <b_lp_Chiralities_Consistent>
1

> <s_lp_Variant>
AV-unprocessed.smi:837-9

> <Gold.Version>
5.8.1

> <Gold.Id.Protein>
6NUR|6NUR_protein|mol2

> <Gold.PLP.Fitness>
52.9121

> <Gold.PLP.PLP>
-40.6313

> <Gold.PLP.part.hbond>
-3.0000

> <Gold.PLP.part.metal>
0.0000

> <Gold.PLP.part.buried>
-2.5790

> <Gold.PLP.part.nonpolar>
-34.3767

> <Gold.PLP.part.repulsive>
0.1953

> <Gold.PLP.ligand.clash>
0.0000

> <Gold.PLP.ligand.torsion>
0.6516

> <Gold.PLP.Chemscore.Hbond>
3.5193

> <Gold.PLP.Chemscore.CHOScore>
1.0000

> <Gold.PLP.Chemscore.Metal>
0.0000

> <Gold.Chemscore.Hbonds>
donor molecule, donor type, donor heavy atom, donor atom, acceptor molecule, acceptor atom, score
      L1  H    15    40       P1  7948  0.26
      P1  H  7989  7998       L1    10  0.51
      P1  H  7997  8008       L1     8  1.76
      L1  C    23    48       P1  7948  0.67

> <Gold.PLP.Chemscore.Internal.Correction>
0.0261

> <Gold.Rescore>
     Score         DG    S(hbond)    S(metal)    S(lipo)     H(rot)  DE(clash)    DE(int)     intcor
     13.00     -16.74       1.65        0.00      88.80       1.81       0.01       3.74       ----

> <Gold.Chemscore.Fitness>
12.9985

> <Gold.Chemscore.DG>
-16.7445

> <Gold.Chemscore.ZeroCoef>
-5.4800

> <Gold.Chemscore.Hbond>
1.6484

> <Gold.Chemscore.Metal>
0.0000

> <Gold.Chemscore.Lipo>
88.8007

> <Gold.Chemscore.Internal_Hbond>
0.0000

> <Gold.Chemscore.DEClash>
0.0088

> <Gold.Chemscore.DEInternal>
3.7371

> <Gold.Chemscore.Rot>
1.8090

> <Gold.Chemscore.Internal.Correction>
   9.000000E+99

> <Gold.Chemscore.Hbonds>
donor molecule, donor type, donor heavy atom, donor atom, acceptor molecule, acceptor atom, score
      L1  H    15    40       P1  7948  0.24
      P1  H  7989  7998       L1    10  0.50
      P1  H  7997  8008       L1     8  0.60

> <Gold.Chemscore.Hbond.Weighted>
-5.5058

> <Gold.Chemscore.Metal.Weighted>
-0.0000

> <Gold.Chemscore.Lipo.Weighted>
-10.3897

> <Gold.Chemscore.Internal_Hbond.Weighted>
0.0000

> <Gold.Chemscore.DEClash.Weighted>
0.0088

> <Gold.Chemscore.DEInternal.Weighted>
3.7371

> <Gold.Chemscore.Rot.Weighted>
4.6310

> <Gold.Chemscore.Internal.Correction.Weighted>
   9.000000E+99

> <Gold.Protein.RotatedTorsions>
[ 6907 6896 6895 6894 ] final  116.47 input  -60.11 | X-H torsion
[ 7974 7965 7964 7962 ] final  -60.49 input  175.53 | X-H torsion
[ 8008 7997 7996 7995 ] final  -58.43 input   59.86 | X-H torsion
[ 10167 10162 10161 10158 ] final  -39.53 input  -65.29 | X-H torsion
[ 10718 10713 10712 10709 ] final -106.60 input   66.30 | X-H torsion
[ 10763 10752 10751 10750 ] final -104.40 input  -60.55 | X-H torsion
[ 11005 11000 10999 10996 ] final  -10.78 input  -57.11 | X-H torsion

> <Gold.Protein.ActiveResidues>
 VAL166  LYS551  ARG553  GLY616  TRP617  ASP618  TYR619  PRO620  LYS621  CYS622 
 ASP623  PHE694  ASN695  SER759  ASP760  ASP761  ALA762  ILE779  LEU786  VAL792 
 PHE793  MET794  SER795  GLU796  ALA797  LYS798  CYS799  TRP800  GLU811  SER814 

> <Gold.Protein.RotatedAtoms>
  152.4675  133.7956  159.6925 H   0  0  0  0  0  0  0  0  0  0  0  0  # atno 6907 bound_to 6896
  150.8647  133.7582  159.2987 H   0  0  0  0  0  0  0  0  0  0  0  0  # atno 6908 bound_to 6896
  151.5136  135.1069  159.9912 H   0  0  0  0  0  0  0  0  0  0  0  0  # atno 6909 bound_to 6896
  145.8149  140.8576  143.0162 H   0  0  0  0  0  0  0  0  0  0  0  0  # atno 7974 bound_to 7965
  154.4309  140.1084  156.5956 H   0  0  0  0  0  0  0  0  0  0  0  0  # atno 8008 bound_to 7997
  155.5965  140.3493  155.4562 H   0  0  0  0  0  0  0  0  0  0  0  0  # atno 8009 bound_to 7997
  156.0206  140.1239  157.0351 H   0  0  0  0  0  0  0  0  0  0  0  0  # atno 8010 bound_to 7997
  140.7061  143.3208  151.2796 H   0  0  0  0  0  0  0  0  0  0  0  0  # atno 10167 bound_to 10162
  156.0397  130.5621  150.7704 H   0  0  0  0  0  0  0  0  0  0  0  0  # atno 10718 bound_to 10713
  154.7876  135.4787  153.9980 H   0  0  0  0  0  0  0  0  0  0  0  0  # atno 10763 bound_to 10752
  153.1582  135.6804  153.8788 H   0  0  0  0  0  0  0  0  0  0  0  0  # atno 10764 bound_to 10752
  153.8410  135.3179  155.3404 H   0  0  0  0  0  0  0  0  0  0  0  0  # atno 10765 bound_to 10752
  140.7483  133.8613  155.9024 H   0  0  0  0  0  0  0  0  0  0  0  0  # atno 11005 bound_to 11000
  144.6753  140.0449  143.7480 LP  0  0  0  0  0  0  0  0  0  0  0  0  # atno 17320 bound_to 7965
  145.9737  139.2889  143.1083 LP  0  0  0  0  0  0  0  0  0  0  0  0  # atno 17321 bound_to 7965
  139.6662  144.0101  152.2724 LP  0  0  0  0  0  0  0  0  0  0  0  0  # atno 17342 bound_to 10162
  139.9685  144.6510  150.8012 LP  0  0  0  0  0  0  0  0  0  0  0  0  # atno 17343 bound_to 10162
  157.5199  131.0931  151.0092 LP  0  0  0  0  0  0  0  0  0  0  0  0  # atno 17370 bound_to 10713
  157.0425  130.5755  149.5358 LP  0  0  0  0  0  0  0  0  0  0  0  0  # atno 17371 bound_to 10713
  140.9774  134.1451  157.4524 LP  0  0  0  0  0  0  0  0  0  0  0  0  # atno 17394 bound_to 11000
  139.8792  134.9999  156.5980 LP  0  0  0  0  0  0  0  0  0  0  0  0  # atno 17395 bound_to 11000

$$$$
