#       Name:                AV-unprocessed.smi:1934
#       Creating user name   scv26
#       Creation time:       Fri Mar 27 09:57:10 2020


#       File generated by GOLD software.
#

@<TRIPOS>MOLECULE
AV-unprocessed.smi:1934
    49    50     1
SMALL
NO_CHARGES


@<TRIPOS>ATOM
      1 ****        -6.0844   3.7107   1.1466 C.3            1 S1                 0.0000
      2 ****        -5.4649   2.3628   0.9218 C.2            1 S1                 0.0000
      3 ****        -4.0812   2.0223   0.9170 C.2            1 S1                 0.0000
      4 ****        -4.1018   0.6770   0.6676 C.2            1 S1                 0.0000
      5 ****        -3.0564  -0.1859   0.5593 N.am           1 S1                 0.0000
      6 ****        -1.7393   0.0740   0.6318 C.2            1 S1                 0.0000
      7 ****        -1.2351   1.1887   0.7708 O.2            1 S1                 0.0000
      8 ****        -1.0167  -1.0504   0.5254 N.am           1 S1                 0.0000
      9 ****         0.4392  -1.1132   0.5784 C.3            1 S1                 0.0000
     10 ****         1.0699  -0.7192  -0.7707 C.3            1 S1                 0.0000
     11 ****         2.5510  -0.8134  -0.7463 N.4            1 S1                 1.0000
     12 ****         3.1259  -1.0290  -2.0991 C.3            1 S1                 0.0000
     13 ****         4.6397  -1.2834  -2.0230 C.3            1 S1                 0.0000
     14 ****         5.3558  -0.1354  -1.2979 C.3            1 S1                 0.0000
     15 ****         4.7223   0.1391   0.0788 C.3            1 S1                 0.0000
     16 ****         5.0818  -0.9298   1.1255 C.3            1 S1                 0.0000
     17 ****         3.1977   0.3352  -0.0548 C.3            1 S1                 0.0000
     18 ****        -5.4123   0.2689   0.5394 N.pl3          1 S1                 0.0000
     19 ****        -5.9598  -1.0474   0.2718 C.3            1 S1                 0.0000
     20 ****        -6.2502   1.3164   0.6939 N.2            1 S1                 0.0000
     21 ****        -5.3380   4.4402   1.4616 H              1 S1                 0.0000
     22 ****        -6.8516   3.6676   1.9200 H              1 S1                 0.0000
     23 ****        -6.5501   4.0846   0.2347 H              1 S1                 0.0000
     24 ****        -3.2340   2.6722   1.0752 H              1 S1                 0.0000
     25 ****        -3.3122  -1.1523   0.4197 H              1 S1                 0.0000
     26 ****        -1.5086  -1.9249   0.4113 H              1 S1                 0.0000
     27 ****         0.7974  -0.4791   1.3900 H              1 S1                 0.0000
     28 ****         0.7236  -2.1336   0.8365 H              1 S1                 0.0000
     29 ****         0.6761  -1.3937  -1.5325 H              1 S1                 0.0000
     30 ****         0.7719   0.2873  -1.0691 H              1 S1                 0.0000
     31 ****         2.6466  -1.8859  -2.5740 H              1 S1                 0.0000
     32 ****         2.9183  -0.1607  -2.7270 H              1 S1                 0.0000
     33 ****         4.8297  -2.2257  -1.5082 H              1 S1                 0.0000
     34 ****         5.0477  -1.3976  -3.0277 H              1 S1                 0.0000
     35 ****         6.4188  -0.3562  -1.1943 H              1 S1                 0.0000
     36 ****         5.2900   0.7657  -1.9093 H              1 S1                 0.0000
     37 ****         5.1403   1.0776   0.4451 H              1 S1                 0.0000
     38 ****         4.6854  -1.9100   0.8612 H              1 S1                 0.0000
     39 ****         4.6818  -0.6666   2.1051 H              1 S1                 0.0000
     40 ****         6.1627  -1.0266   1.2307 H              1 S1                 0.0000
     41 ****         2.9931   1.2480  -0.6168 H              1 S1                 0.0000
     42 ****         2.7659   0.4814   0.9348 H              1 S1                 0.0000
     43 ****        -5.2056  -1.8171   0.4350 H              1 S1                 0.0000
     44 ****        -6.3011  -1.0981  -0.7623 H              1 S1                 0.0000
     45 ****        -6.8035  -1.2406   0.9353 H              1 S1                 0.0000
     46 ****         2.7739  -1.6417  -0.2131 H              1 S1                 0.0000
     47 ****        -1.8199   1.9969   0.8399 LP             1 S1                 0.0000
     48 ****        -0.2408   1.2857   0.8147 LP             1 S1                 0.0000
     49 ****        -7.2490   1.3063   0.6468 LP             1 S1                 0.0000
@<TRIPOS>BOND
    1    1    2 1     
    2    1   21 1     
    3    1   22 1     
    4    1   23 1     
    5    2   20 2     
    6    2    3 1     
    7    3    4 2     
    8    3   24 1     
    9    4    5 1     
   10    4   18 1     
   11    5    6 am    
   12    5   25 1     
   13    6    7 2     
   14    6    8 am    
   15    8    9 1     
   16    8   26 1     
   17    9   10 1     
   18    9   27 1     
   19    9   28 1     
   20   10   11 1     
   21   10   29 1     
   22   10   30 1     
   23   11   17 1     
   24   11   12 1     
   25   11   46 1     
   26   12   13 1     
   27   12   31 1     
   28   12   32 1     
   29   13   14 1     
   30   13   33 1     
   31   13   34 1     
   32   14   15 1     
   33   14   35 1     
   34   14   36 1     
   35   15   16 1     
   36   15   17 1     
   37   15   37 1     
   38   16   38 1     
   39   16   39 1     
   40   16   40 1     
   41   17   41 1     
   42   17   42 1     
   43   18   19 1     
   44   18   20 1     
   45   19   43 1     
   46   19   44 1     
   47   19   45 1     
   48    7   47 1     
   49    7   48 1     
   50   20   49 1     
@<TRIPOS>SUBSTRUCTURE
      1 S1             1
@<TRIPOS>SET
LONE_PAIRS      STATIC     ATOMS    <user>   **** ""
3 47 48 49
DONOR_HYDROGENS      STATIC     ATOMS    <user>   **** ""
3 25 26 46
ATOM$BLUE        STATIC     ATOMS    COLORGROUP SYSTEM
3 47 48 49
ATOM$RED        STATIC     ATOMS    COLORGROUP SYSTEM
3 25 26 46
