AV-unprocessed.smi:1351|AV-procd|sdf|5526|dock3
  -GOLD-   22720 5113D 1   1.00000     0.00000
 Structure written by MMmdl.
 35 36  0  0  0  0  0  0  0  0  2 V2000
  152.6584  143.8508  161.7247 C   0  0  0  0  0  0  0  0  0  0  0  0
  152.9249  142.6515  160.9380 N   0  0  0  0  0  0  0  0  0  0  0  0
  153.8654  141.6497  161.4225 C   0  0  0  0  0  0  0  0  0  0  0  0
  152.1799  142.4038  159.7645 C   0  0  0  0  0  0  0  0  0  0  0  0
  152.3744  141.2624  158.9483 C   0  0  0  0  0  0  0  0  0  0  0  0
  151.5851  141.0824  157.7937 C   0  0  0  0  0  0  0  0  0  0  0  0
  150.6134  142.0449  157.4498 C   0  0  0  0  0  0  0  0  0  0  0  0
  149.8267  141.8096  156.2901 N   0  0  0  0  0  0  0  0  0  0  0  0
  150.0262  140.9164  155.3019 C   0  0  0  0  0  0  0  0  0  0  0  0
  150.9285  140.0795  155.2978 O   0  0  0  0  0  0  0  0  0  0  0  0
  149.0132  140.9357  154.1464 C   0  0  2  0  0  0  0  0  0  0  0  0
  147.9457  142.0420  154.2597 C   0  0  0  0  0  0  0  0  0  0  0  0
  146.6267  141.2885  154.2408 C   0  0  0  0  0  0  0  0  0  0  0  0
  147.0003  139.9756  153.5676 C   0  0  0  0  0  0  0  0  0  0  0  0
  148.2819  139.7100  154.1104 O   0  0  0  0  0  0  0  0  0  0  0  0
  150.4519  143.1644  158.3000 C   0  0  0  0  0  0  0  0  0  0  0  0
  151.2272  143.2958  159.3980 N   0  3  0  0  0  0  0  0  0  0  0  0
  151.6263  143.8564  162.0768 H   0  0  0  0  0  0  0  0  0  0  0  0
  152.8272  144.7472  161.1272 H   0  0  0  0  0  0  0  0  0  0  0  0
  153.3095  143.9060  162.5972 H   0  0  0  0  0  0  0  0  0  0  0  0
  154.6532  141.4777  160.6887 H   0  0  0  0  0  0  0  0  0  0  0  0
  153.3548  140.7058  161.6155 H   0  0  0  0  0  0  0  0  0  0  0  0
  154.3399  141.9670  162.3511 H   0  0  0  0  0  0  0  0  0  0  0  0
  153.1166  140.5164  159.1898 H   0  0  0  0  0  0  0  0  0  0  0  0
  151.7310  140.2086  157.1753 H   0  0  0  0  0  0  0  0  0  0  0  0
  148.9908  142.3708  156.2074 H   0  0  0  0  0  0  0  0  0  0  0  0
  149.5549  141.0426  153.2055 H   0  0  0  0  0  0  0  0  0  0  0  0
  148.0320  142.6542  155.1586 H   0  0  0  0  0  0  0  0  0  0  0  0
  148.0140  142.7112  153.4012 H   0  0  0  0  0  0  0  0  0  0  0  0
  146.2939  141.0965  155.2617 H   0  0  0  0  0  0  0  0  0  0  0  0
  145.8343  141.8258  153.7193 H   0  0  0  0  0  0  0  0  0  0  0  0
  146.2943  139.1735  153.7840 H   0  0  0  0  0  0  0  0  0  0  0  0
  147.0735  140.0942  152.4855 H   0  0  0  0  0  0  0  0  0  0  0  0
  149.7284  143.9533  158.1609 H   0  0  0  0  0  0  0  0  0  0  0  0
  151.0828  144.1147  159.9889 H   0  0  0  0  0  0  0  0  0  0  0  0
  1  2  1  0  0  0  0
  1 18  1  0  0  0  0
  1 19  1  0  0  0  0
  1 20  1  0  0  0  0
  2  3  1  0  0  0  0
  2  4  1  0  0  0  0
  3 21  1  0  0  0  0
  3 22  1  0  0  0  0
  3 23  1  0  0  0  0
  4 17  1  0  0  0  0
  4  5  2  0  0  0  0
  5  6  1  0  0  0  0
  5 24  1  0  0  0  0
  6  7  2  0  0  0  0
  6 25  1  0  0  0  0
  7  8  1  0  0  0  0
  7 16  1  0  0  0  0
  8  9  1  0  0  0  0
  8 26  1  0  0  0  0
  9 10  2  0  0  0  0
  9 11  1  0  0  0  0
 11 15  1  0  0  0  0
 11 12  1  0  0  0  0
 11 27  1  0  0  0  0
 12 13  1  0  0  0  0
 12 28  1  0  0  0  0
 12 29  1  0  0  0  0
 13 14  1  0  0  0  0
 13 30  1  0  0  0  0
 13 31  1  0  0  0  0
 14 15  1  0  0  0  0
 14 32  1  0  0  0  0
 14 33  1  0  0  0  0
 16 17  2  0  0  0  0
 16 34  1  0  0  0  0
 17 35  1  0  0  0  0
M  CHG  1  17   1
M  END
> <s_m_source_file>
AV-unprocessed.smi

> <i_m_source_file_index>
1351

> <i_lp_mmshare_version>
43012

> <i_f3d_flags>
0

> <s_epik_input>
W0NIM11OKFtDSDNdKWMxW2NIXVtjSF1jKFtjSF1uMSlbTkhdQyg9TylbQ0BASF0yW0NIMl1bQ0gyXVtDSDJdTzI=

> <s_epik_cmdline>
J2VwaWtfcHl0aG9uJywgJy1waCcsICc3LjAnLCAnLXRuJywgJzgnLCAnLW1hJywgJzIwMCcsICctbWV0YWxfYmluZGluZycsICctaW1hZScsICc8aW5maWxlLm1hZT4nLCAnLW9tYWUnLCAnPG91dGZpbGUubWFlPic=

> <r_lp_tautomer_probability>
0.999994

> <r_epik_Ionization_Penalty>
0.682441

> <r_epik_Ionization_Penalty_Charging>
0.68244

> <r_epik_Ionization_Penalty_Neutral>
1.70545e-06

> <r_epik_State_Penalty>
0.703594

> <r_epik_Charging_Adjusted_Penalty>
1.38603

> <i_epik_Tot_Q>
1

> <i_epik_Tot_abs_Q>
1

> <r_epik_Metal_State_Penalty>
0.869714

> <b_epik_Metal_Only>
0

> <s_lp_Force_Field>
OPLS_2005

> <r_lp_Energy>
29.3142

> <b_lp_Chiralities_Consistent>
1

> <s_lp_Variant>
AV-unprocessed.smi:1351-3

> <Gold.Version>
5.8.1

> <Gold.Id.Protein>
6NUR|6NUR_protein|mol2

> <Gold.PLP.Fitness>
40.0031

> <Gold.PLP.PLP>
-37.1100

> <Gold.PLP.part.hbond>
-1.8842

> <Gold.PLP.part.metal>
0.0000

> <Gold.PLP.part.buried>
-1.5255

> <Gold.PLP.part.nonpolar>
-32.2594

> <Gold.PLP.part.repulsive>
0.8289

> <Gold.PLP.ligand.clash>
0.0000

> <Gold.PLP.ligand.torsion>
0.0636

> <Gold.PLP.Chemscore.Hbond>
1.0000

> <Gold.PLP.Chemscore.CHOScore>
0.0000

> <Gold.PLP.Chemscore.Metal>
0.0000

> <Gold.Chemscore.Hbonds>
donor molecule, donor type, donor heavy atom, donor atom, acceptor molecule, acceptor atom, score
      L1  H     8    26       P1  8028  0.03
      P1  H  7989  7998       L1    10  0.43

> <Gold.PLP.Chemscore.Internal.Correction>
0.0203

> <Gold.Rescore>
     Score         DG    S(hbond)    S(metal)    S(lipo)     H(rot)  DE(clash)    DE(int)     intcor
     13.39     -15.04       0.90        0.00      78.02       1.00       0.09       1.56       ----

> <Gold.Chemscore.Fitness>
13.3916

> <Gold.Chemscore.DG>
-15.0421

> <Gold.Chemscore.ZeroCoef>
-5.4800

> <Gold.Chemscore.Hbond>
0.8963

> <Gold.Chemscore.Metal>
0.0000

> <Gold.Chemscore.Lipo>
78.0222

> <Gold.Chemscore.Internal_Hbond>
0.0000

> <Gold.Chemscore.DEClash>
0.0919

> <Gold.Chemscore.DEInternal>
1.5586

> <Gold.Chemscore.Rot>
1.0000

> <Gold.Chemscore.Internal.Correction>
   9.000000E+99

> <Gold.Chemscore.Hbonds>
donor molecule, donor type, donor heavy atom, donor atom, acceptor molecule, acceptor atom, score
      L1  H     8    26       P1  8028  0.05
      P1  H  7989  7998       L1    10  0.02

> <Gold.Chemscore.Hbond.Weighted>
-2.9935

> <Gold.Chemscore.Metal.Weighted>
-0.0000

> <Gold.Chemscore.Lipo.Weighted>
-9.1286

> <Gold.Chemscore.Internal_Hbond.Weighted>
0.0000

> <Gold.Chemscore.DEClash.Weighted>
0.0919

> <Gold.Chemscore.DEInternal.Weighted>
1.5586

> <Gold.Chemscore.Rot.Weighted>
2.5600

> <Gold.Chemscore.Internal.Correction.Weighted>
   9.000000E+99

> <Gold.Protein.RotatedTorsions>
[ 6907 6896 6895 6894 ] final -165.56 input  -60.11 | X-H torsion
[ 7974 7965 7964 7962 ] final  -65.99 input  175.53 | X-H torsion
[ 8008 7997 7996 7995 ] final -148.33 input   59.86 | X-H torsion
[ 10167 10162 10161 10158 ] final   81.85 input  -65.29 | X-H torsion
[ 10718 10713 10712 10709 ] final  -70.15 input   66.30 | X-H torsion
[ 10763 10752 10751 10750 ] final  175.13 input  -60.55 | X-H torsion
[ 11005 11000 10999 10996 ] final  -40.84 input  -57.11 | X-H torsion

> <Gold.Protein.ActiveResidues>
 VAL166  LYS551  ARG553  GLY616  TRP617  ASP618  TYR619  PRO620  LYS621  CYS622 
 ASP623  PHE694  ASN695  SER759  ASP760  ASP761  ALA762  ILE779  LEU786  VAL792 
 PHE793  MET794  SER795  GLU796  ALA797  LYS798  CYS799  TRP800  GLU811  SER814 

> <Gold.Protein.RotatedAtoms>
  151.4296  133.3674  159.2766 H   0  0  0  0  0  0  0  0  0  0  0  0  # atno 6907 bound_to 6896
  150.9235  134.8653  159.7515 H   0  0  0  0  0  0  0  0  0  0  0  0  # atno 6908 bound_to 6896
  152.4993  134.4235  159.9540 H   0  0  0  0  0  0  0  0  0  0  0  0  # atno 6909 bound_to 6896
  145.7473  140.8925  143.0498 H   0  0  0  0  0  0  0  0  0  0  0  0  # atno 7974 bound_to 7965
  155.5898  140.0651  157.2761 H   0  0  0  0  0  0  0  0  0  0  0  0  # atno 8008 bound_to 7997
  154.4308  140.1837  156.1110 H   0  0  0  0  0  0  0  0  0  0  0  0  # atno 8009 bound_to 7997
  156.0241  140.3313  155.7073 H   0  0  0  0  0  0  0  0  0  0  0  0  # atno 8010 bound_to 7997
  139.9349  144.6128  150.8308 H   0  0  0  0  0  0  0  0  0  0  0  0  # atno 10167 bound_to 10162
  156.0421  130.4326  150.2254 H   0  0  0  0  0  0  0  0  0  0  0  0  # atno 10718 bound_to 10713
  154.4634  135.2768  155.1696 H   0  0  0  0  0  0  0  0  0  0  0  0  # atno 10763 bound_to 10752
  154.3475  135.6157  153.5630 H   0  0  0  0  0  0  0  0  0  0  0  0  # atno 10764 bound_to 10752
  152.9857  135.5803  154.5001 H   0  0  0  0  0  0  0  0  0  0  0  0  # atno 10765 bound_to 10752
  141.0203  133.6866  156.2376 H   0  0  0  0  0  0  0  0  0  0  0  0  # atno 11005 bound_to 11000
  144.6857  139.9543  143.7479 LP  0  0  0  0  0  0  0  0  0  0  0  0  # atno 17320 bound_to 7965
  146.0390  139.3404  143.0709 LP  0  0  0  0  0  0  0  0  0  0  0  0  # atno 17321 bound_to 7965
  140.7627  143.3205  151.2633 LP  0  0  0  0  0  0  0  0  0  0  0  0  # atno 17342 bound_to 10162
  139.6752  143.9951  152.2776 LP  0  0  0  0  0  0  0  0  0  0  0  0  # atno 17343 bound_to 10162
  157.0347  131.0018  151.3301 LP  0  0  0  0  0  0  0  0  0  0  0  0  # atno 17370 bound_to 10713
  157.5252  130.8023  149.7854 LP  0  0  0  0  0  0  0  0  0  0  0  0  # atno 17371 bound_to 10713
  140.6584  134.4994  157.5582 LP  0  0  0  0  0  0  0  0  0  0  0  0  # atno 17394 bound_to 11000
  139.9142  134.8281  156.1423 LP  0  0  0  0  0  0  0  0  0  0  0  0  # atno 17395 bound_to 11000

$$$$
