AV-unprocessed.smi:104|AV-procd|sdf|1006|dock6
  -GOLD-   2262018 03D 1   1.00000     0.00000
 Structure written by MMmdl.
 47 49  0  0  0  0  0  0  0  0  1 V2000
  151.8592  130.5549  155.8397 C   0  0  0  0  0  0  0  0  0  0  0  0
  150.3712  130.8774  155.8705 C   0  0  0  0  0  0  0  0  0  0  0  0
  149.6101  130.4893  154.9844 O   0  0  0  0  0  0  0  0  0  0  0  0
  150.0274  131.6046  156.9418 O   0  0  0  0  0  0  0  0  0  0  0  0
  148.6695  131.9632  157.1457 C   0  0  0  0  0  0  0  0  0  0  0  0
  148.5208  132.8545  158.3884 C   0  0  1  0  0  0  0  0  0  0  0  0
  149.2985  134.0458  158.2664 O   0  0  0  0  0  0  0  0  0  0  0  0
  148.4794  135.1742  158.3376 C   0  0  1  0  0  0  0  0  0  0  0  0
  148.1509  135.5634  156.9152 N   0  0  0  0  0  0  0  0  0  0  0  0
  148.8595  135.1916  155.7936 C   0  0  0  0  0  0  0  0  0  0  0  0
  150.4078  134.0870  155.8935 Br  0  0  0  0  0  0  0  0  0  0  0  0
  148.4353  135.6159  154.6389 N   0  0  0  0  0  0  0  0  0  0  0  0
  147.3250  136.3704  154.9842 C   0  0  0  0  0  0  0  0  0  0  0  0
  146.3806  137.1124  154.2311 C   0  0  0  0  0  0  0  0  0  0  0  0
  146.4243  137.2069  152.8953 N   0  0  0  0  0  0  0  0  0  0  0  0
  145.3861  137.7522  154.8864 N   0  0  0  0  0  0  0  0  0  0  0  0
  145.3214  137.6723  156.2174 C   0  0  0  0  0  0  0  0  0  0  0  0
  146.1309  137.0180  157.0525 N   0  0  0  0  0  0  0  0  0  0  0  0
  147.1358  136.3613  156.3998 C   0  0  0  0  0  0  0  0  0  0  0  0
  147.2801  134.7332  159.1855 C   0  0  2  0  0  0  0  0  0  0  0  0
  147.6414  134.7750  160.5633 O   0  0  0  0  0  0  0  0  0  0  0  0
  147.7100  135.9490  161.2142 C   0  0  0  0  0  0  0  0  0  0  0  0
  147.7184  135.7728  162.7267 C   0  0  0  0  0  0  0  0  0  0  0  0
  147.7668  137.0637  160.6952 O   0  0  0  0  0  0  0  0  0  0  0  0
  147.0867  133.2949  158.7116 C   0  0  2  0  0  0  0  0  0  0  0  0
  146.4717  132.4704  159.6945 O   0  0  0  0  0  0  0  0  0  0  0  0
  145.2496  132.7795  160.1623 C   0  0  0  0  0  0  0  0  0  0  0  0
  144.7884  131.8258  161.2562 C   0  0  0  0  0  0  0  0  0  0  0  0
  144.5465  133.7185  159.7883 O   0  0  0  0  0  0  0  0  0  0  0  0
  152.4447  131.4262  156.1345 H   0  0  0  0  0  0  0  0  0  0  0  0
  152.1660  130.2573  154.8370 H   0  0  0  0  0  0  0  0  0  0  0  0
  152.0825  129.7385  156.5264 H   0  0  0  0  0  0  0  0  0  0  0  0
  148.3061  132.4965  156.2665 H   0  0  0  0  0  0  0  0  0  0  0  0
  148.0590  131.0661  157.2581 H   0  0  0  0  0  0  0  0  0  0  0  0
  148.9332  132.3221  159.2463 H   0  0  0  0  0  0  0  0  0  0  0  0
  149.0111  136.0426  158.7283 H   0  0  0  0  0  0  0  0  0  0  0  0
  147.1547  136.7362  152.3809 H   0  0  0  0  0  0  0  0  0  0  0  0
  145.7291  137.7518  152.4063 H   0  0  0  0  0  0  0  0  0  0  0  0
  144.5049  138.2068  156.6803 H   0  0  0  0  0  0  0  0  0  0  0  0
  146.4051  135.3590  159.0232 H   0  0  0  0  0  0  0  0  0  0  0  0
  146.7787  135.3327  163.0609 H   0  0  0  0  0  0  0  0  0  0  0  0
  147.8462  136.7343  163.2244 H   0  0  0  0  0  0  0  0  0  0  0  0
  148.5350  135.1167  163.0277 H   0  0  0  0  0  0  0  0  0  0  0  0
  146.4969  133.2841  157.7958 H   0  0  0  0  0  0  0  0  0  0  0  0
  144.7180  130.8097  160.8683 H   0  0  0  0  0  0  0  0  0  0  0  0
  143.8091  132.1205  161.6340 H   0  0  0  0  0  0  0  0  0  0  0  0
  145.4948  131.8327  162.0865 H   0  0  0  0  0  0  0  0  0  0  0  0
  1  2  1  0  0  0  0
  1 30  1  0  0  0  0
  1 31  1  0  0  0  0
  1 32  1  0  0  0  0
  2  3  2  0  0  0  0
  2  4  1  0  0  0  0
  4  5  1  0  0  0  0
  5  6  1  0  0  0  0
  5 33  1  0  0  0  0
  5 34  1  0  0  0  0
  6 25  1  0  0  0  0
  6  7  1  0  0  0  0
  6 35  1  0  0  0  0
  7  8  1  0  0  0  0
  8  9  1  0  0  0  0
  8 20  1  0  0  0  0
  8 36  1  0  0  0  0
  9 19  1  0  0  0  0
  9 10  1  0  0  0  0
 10 11  1  0  0  0  0
 10 12  2  0  0  0  0
 12 13  1  0  0  0  0
 13 19  2  0  0  0  0
 13 14  1  0  0  0  0
 14 15  1  0  0  0  0
 14 16  2  0  0  0  0
 15 37  1  0  0  0  0
 15 38  1  0  0  0  0
 16 17  1  0  0  0  0
 17 18  2  0  0  0  0
 17 39  1  0  0  0  0
 18 19  1  0  0  0  0
 20 21  1  0  0  0  0
 20 25  1  0  0  0  0
 20 40  1  0  0  0  0
 21 22  1  0  0  0  0
 22 23  1  0  0  0  0
 22 24  2  0  0  0  0
 23 41  1  0  0  0  0
 23 42  1  0  0  0  0
 23 43  1  0  0  0  0
 25 26  1  0  0  0  0
 25 44  1  0  0  0  0
 26 27  1  0  0  0  0
 27 28  1  0  0  0  0
 27 29  2  0  0  0  0
 28 45  1  0  0  0  0
 28 46  1  0  0  0  0
 28 47  1  0  0  0  0
M  END
> <s_m_source_file>
AV-unprocessed.smi

> <i_m_source_file_index>
104

> <i_lp_mmshare_version>
43012

> <i_f3d_flags>
0

> <s_epik_input>
W0NIM11DKD1PKU9bQ0gyXVtDQEBIXTFPW0NASF0oW0NAQEhdKE9DKD1PKVtDSDNdKVtDQEhdMU9DKD1PKVtDSDNdKW4oYyhCciluMiljKGMyMyluW2NIXW5jM1tOSDJd

> <s_epik_cmdline>
J2VwaWtfcHl0aG9uJywgJy1waCcsICc3LjAnLCAnLXRuJywgJzgnLCAnLW1hJywgJzIwMCcsICctbWV0YWxfYmluZGluZycsICctaW1hZScsICc8aW5maWxlLm1hZT4nLCAnLW9tYWUnLCAnPG91dGZpbGUubWFlPic=

> <r_lp_tautomer_probability>
1

> <r_epik_Ionization_Penalty>
7.36622e-05

> <r_epik_Ionization_Penalty_Charging>
0

> <r_epik_Ionization_Penalty_Neutral>
7.36622e-05

> <r_epik_State_Penalty>
-0

> <r_epik_Charging_Adjusted_Penalty>
0

> <i_epik_Tot_Q>
0

> <i_epik_Tot_abs_Q>
0

> <r_epik_Metal_State_Penalty>
-0

> <b_epik_Metal_Only>
0

> <s_epik_Chemistry_Notes>
This compound has an ester and may undergo hydrolysis at high or low pH. This compound contains an acetal/aminal-like group ( X-CH(R)-Y where X, Y are N, S, or O) that may be acid/base labile, releasing an aldehyde.

> <s_lp_Force_Field>
OPLS_2005

> <r_lp_Energy>
17.7308

> <b_lp_Chiralities_Consistent>
1

> <s_lp_Variant>
AV-unprocessed.smi:104-14

> <Gold.Version>
5.8.1

> <Gold.Id.Protein>
6NUR|6NUR_protein|mol2

> <Gold.PLP.Fitness>
33.3342

> <Gold.PLP.PLP>
-23.5473

> <Gold.PLP.part.hbond>
-4.0000

> <Gold.PLP.part.metal>
0.0000

> <Gold.PLP.part.buried>
-4.5096

> <Gold.PLP.part.nonpolar>
-16.3451

> <Gold.PLP.part.repulsive>
1.8196

> <Gold.PLP.ligand.clash>
0.0000

> <Gold.PLP.ligand.torsion>
0.7756

> <Gold.PLP.Chemscore.Hbond>
3.7440

> <Gold.PLP.Chemscore.CHOScore>
0.0000

> <Gold.PLP.Chemscore.Metal>
0.0000

> <Gold.Chemscore.Hbonds>
donor molecule, donor type, donor heavy atom, donor atom, acceptor molecule, acceptor atom, score
      L1  H    15    37       P1  7948  1.00
      P1  H  6896  6909       L1     7  1.00
      P1  H  6931  6943       L1    24  0.69
      P1  H  6934  6947       L1    24  0.84

> <Gold.PLP.Chemscore.Internal.Correction>
0.1060

> <Gold.Rescore>
     Score         DG    S(hbond)    S(metal)    S(lipo)     H(rot)  DE(clash)    DE(int)     intcor
      8.11     -10.51       3.57        0.00      35.31       4.31       0.00       2.40       ----

> <Gold.Chemscore.Fitness>
8.1067

> <Gold.Chemscore.DG>
-10.5123

> <Gold.Chemscore.ZeroCoef>
-5.4800

> <Gold.Chemscore.Hbond>
3.5708

> <Gold.Chemscore.Metal>
0.0000

> <Gold.Chemscore.Lipo>
35.3137

> <Gold.Chemscore.Internal_Hbond>
0.0000

> <Gold.Chemscore.DEClash>
0.0029

> <Gold.Chemscore.DEInternal>
2.4026

> <Gold.Chemscore.Rot>
4.3070

> <Gold.Chemscore.Internal.Correction>
   9.000000E+99

> <Gold.Chemscore.Hbonds>
donor molecule, donor type, donor heavy atom, donor atom, acceptor molecule, acceptor atom, score
      L1  H    15    37       P1  7948  0.99
      P1  H  6896  6909       L1     7  0.69
      P1  H  6931  6943       L1    24  0.44
      P1  H  6934  6947       L1    24  0.79

> <Gold.Chemscore.Hbond.Weighted>
-11.9264

> <Gold.Chemscore.Metal.Weighted>
-0.0000

> <Gold.Chemscore.Lipo.Weighted>
-4.1317

> <Gold.Chemscore.Internal_Hbond.Weighted>
0.0000

> <Gold.Chemscore.DEClash.Weighted>
0.0029

> <Gold.Chemscore.DEInternal.Weighted>
2.4026

> <Gold.Chemscore.Rot.Weighted>
11.0259

> <Gold.Chemscore.Internal.Correction.Weighted>
   9.000000E+99

> <Gold.Protein.RotatedTorsions>
[ 6907 6896 6895 6894 ] final   27.58 input  -60.11 | X-H torsion
[ 7974 7965 7964 7962 ] final   18.82 input  175.53 | X-H torsion
[ 8008 7997 7996 7995 ] final  133.64 input   59.86 | X-H torsion
[ 10167 10162 10161 10158 ] final  126.33 input  -65.29 | X-H torsion
[ 10718 10713 10712 10709 ] final   98.60 input   66.30 | X-H torsion
[ 10763 10752 10751 10750 ] final  -11.26 input  -60.55 | X-H torsion
[ 11005 11000 10999 10996 ] final -104.17 input  -57.11 | X-H torsion

> <Gold.Protein.ActiveResidues>
 VAL166  LYS551  ARG553  GLY616  TRP617  ASP618  TYR619  PRO620  LYS621  CYS622 
 ASP623  PHE694  ASN695  SER759  ASP760  ASP761  ALA762  ILE779  LEU786  VAL792 
 PHE793  MET794  SER795  GLU796  ALA797  LYS798  CYS799  TRP800  GLU811  SER814 

> <Gold.Protein.RotatedAtoms>
  152.0044  134.9911  160.0565 H   0  0  0  0  0  0  0  0  0  0  0  0  # atno 6907 bound_to 6896
  152.1488  133.4504  159.4811 H   0  0  0  0  0  0  0  0  0  0  0  0  # atno 6908 bound_to 6896
  150.6873  134.2132  159.4410 H   0  0  0  0  0  0  0  0  0  0  0  0  # atno 6909 bound_to 6896
  146.2171  139.8402  142.8642 H   0  0  0  0  0  0  0  0  0  0  0  0  # atno 7974 bound_to 7965
  156.2994  140.2516  156.3286 H   0  0  0  0  0  0  0  0  0  0  0  0  # atno 8008 bound_to 7997
  154.9166  140.0402  157.1994 H   0  0  0  0  0  0  0  0  0  0  0  0  # atno 8009 bound_to 7997
  154.8352  140.2882  155.5700 H   0  0  0  0  0  0  0  0  0  0  0  0  # atno 8010 bound_to 7997
  139.5637  144.6898  151.3971 H   0  0  0  0  0  0  0  0  0  0  0  0  # atno 10167 bound_to 10162
  157.6892  131.0645  150.4820 H   0  0  0  0  0  0  0  0  0  0  0  0  # atno 10718 bound_to 10713
  153.4812  135.7017  153.5937 H   0  0  0  0  0  0  0  0  0  0  0  0  # atno 10763 bound_to 10752
  153.4149  135.3839  155.2074 H   0  0  0  0  0  0  0  0  0  0  0  0  # atno 10764 bound_to 10752
  154.8721  135.3913  154.4262 H   0  0  0  0  0  0  0  0  0  0  0  0  # atno 10765 bound_to 10752
  141.1113  133.8701  157.1577 H   0  0  0  0  0  0  0  0  0  0  0  0  # atno 11005 bound_to 11000
  145.2907  141.0166  143.3665 LP  0  0  0  0  0  0  0  0  0  0  0  0  # atno 17320 bound_to 7965
  144.9080  139.4565  143.6601 LP  0  0  0  0  0  0  0  0  0  0  0  0  # atno 17321 bound_to 7965
  140.6919  143.7841  150.7268 LP  0  0  0  0  0  0  0  0  0  0  0  0  # atno 17342 bound_to 10162
  140.1326  143.4512  152.2244 LP  0  0  0  0  0  0  0  0  0  0  0  0  # atno 17343 bound_to 10162
  156.5152  130.4149  149.6280 LP  0  0  0  0  0  0  0  0  0  0  0  0  # atno 17370 bound_to 10713
  156.3204  130.7277  151.2188 LP  0  0  0  0  0  0  0  0  0  0  0  0  # atno 17371 bound_to 10713
  140.0008  135.0028  157.0185 LP  0  0  0  0  0  0  0  0  0  0  0  0  # atno 17394 bound_to 11000
  140.4768  134.1330  155.7211 LP  0  0  0  0  0  0  0  0  0  0  0  0  # atno 17395 bound_to 11000

$$$$
