AV-unprocessed.smi:2684|AV-procd|sdf|10379|dock2
  -GOLD-   2272014413D 1   1.00000     0.00000
 Structure written by MMmdl.
 45 46  0  0  0  0  0  0  0  0  2 V2000
  144.0551  131.5609  150.4614 C   0  0  0  0  0  0  0  0  0  0  0  0
  144.8524  132.8265  150.5896 C   0  0  0  0  0  0  0  0  0  0  0  0
  146.2393  132.9602  150.8829 C   0  0  0  0  0  0  0  0  0  0  0  0
  146.6345  134.2221  150.9332 N   0  0  0  0  0  0  0  0  0  0  0  0
  145.5175  134.9361  150.6796 N   0  0  0  0  0  0  0  0  0  0  0  0
  145.5725  136.3870  150.6745 C   0  0  0  0  0  0  0  0  0  0  0  0
  145.5340  137.0082  152.0899 C   0  0  1  0  0  0  0  0  0  0  0  0
  144.1534  136.8047  152.7279 C   0  0  0  0  0  0  0  0  0  0  0  0
  146.5699  136.4186  152.9697 N   0  3  0  0  0  0  0  0  0  0  0  0
  146.6852  137.0369  154.3081 C   0  0  0  0  0  0  0  0  0  0  0  0
  147.7779  138.1132  154.3454 C   0  0  0  0  0  0  0  0  0  0  0  0
  147.4600  139.2961  154.2384 O   0  0  0  0  0  0  0  0  0  0  0  0
  149.0697  137.7589  154.4705 N   0  0  0  0  0  0  0  0  0  0  0  0
  150.2490  138.6225  154.5256 C   0  0  0  0  0  0  0  0  0  0  0  0
  151.5197  137.7657  154.4219 C   0  0  0  0  0  0  0  0  0  0  0  0
  152.7772  138.6327  154.5975 C   0  0  0  0  0  0  0  0  0  0  0  0
  152.7220  139.3223  155.8413 O   0  0  0  0  0  0  0  0  0  0  0  0
  151.6193  140.2176  155.9306 C   0  0  0  0  0  0  0  0  0  0  0  0
  150.2986  139.4375  155.8312 C   0  0  0  0  0  0  0  0  0  0  0  0
  144.4293  134.1185  150.4574 C   0  0  0  0  0  0  0  0  0  0  0  0
  144.6632  130.7364  150.0892 H   0  0  0  0  0  0  0  0  0  0  0  0
  143.2180  131.6776  149.7728 H   0  0  0  0  0  0  0  0  0  0  0  0
  143.6408  131.2490  151.4197 H   0  0  0  0  0  0  0  0  0  0  0  0
  146.9655  132.1812  151.0633 H   0  0  0  0  0  0  0  0  0  0  0  0
  146.4881  136.6838  150.1603 H   0  0  0  0  0  0  0  0  0  0  0  0
  144.7450  136.7637  150.0715 H   0  0  0  0  0  0  0  0  0  0  0  0
  145.6987  138.0847  152.0187 H   0  0  0  0  0  0  0  0  0  0  0  0
  143.3695  137.2588  152.1207 H   0  0  0  0  0  0  0  0  0  0  0  0
  144.1063  137.2608  153.7174 H   0  0  0  0  0  0  0  0  0  0  0  0
  143.9166  135.7457  152.8375 H   0  0  0  0  0  0  0  0  0  0  0  0
  146.3472  135.4438  153.1134 H   0  0  0  0  0  0  0  0  0  0  0  0
  145.7232  137.4465  154.5978 H   0  0  0  0  0  0  0  0  0  0  0  0
  146.9313  136.2629  155.0356 H   0  0  0  0  0  0  0  0  0  0  0  0
  149.2583  136.7672  154.5123 H   0  0  0  0  0  0  0  0  0  0  0  0
  150.2466  139.2992  153.6712 H   0  0  0  0  0  0  0  0  0  0  0  0
  151.5104  136.9908  155.1899 H   0  0  0  0  0  0  0  0  0  0  0  0
  151.5531  137.2527  153.4599 H   0  0  0  0  0  0  0  0  0  0  0  0
  153.6693  138.0062  154.5816 H   0  0  0  0  0  0  0  0  0  0  0  0
  152.8766  139.3476  153.7796 H   0  0  0  0  0  0  0  0  0  0  0  0
  151.6712  140.7460  156.8826 H   0  0  0  0  0  0  0  0  0  0  0  0
  151.6842  140.9716  155.1442 H   0  0  0  0  0  0  0  0  0  0  0  0
  149.4612  140.1321  155.8914 H   0  0  0  0  0  0  0  0  0  0  0  0
  150.2106  138.7692  156.6889 H   0  0  0  0  0  0  0  0  0  0  0  0
  143.4508  134.5185  150.2364 H   0  0  0  0  0  0  0  0  0  0  0  0
  147.4623  136.4728  152.5002 H   0  0  0  0  0  0  0  0  0  0  0  0
  1  2  1  0  0  0  0
  1 21  1  0  0  0  0
  1 22  1  0  0  0  0
  1 23  1  0  0  0  0
  2 20  2  0  0  0  0
  2  3  1  0  0  0  0
  3  4  2  0  0  0  0
  3 24  1  0  0  0  0
  4  5  1  0  0  0  0
  5  6  1  0  0  0  0
  5 20  1  0  0  0  0
  6  7  1  0  0  0  0
  6 25  1  0  0  0  0
  6 26  1  0  0  0  0
  7  8  1  0  0  0  0
  7  9  1  0  0  0  0
  7 27  1  0  0  0  0
  8 28  1  0  0  0  0
  8 29  1  0  0  0  0
  8 30  1  0  0  0  0
  9 10  1  0  0  0  0
  9 31  1  0  0  0  0
  9 45  1  0  0  0  0
 10 11  1  0  0  0  0
 10 32  1  0  0  0  0
 10 33  1  0  0  0  0
 11 12  2  0  0  0  0
 11 13  1  0  0  0  0
 13 14  1  0  0  0  0
 13 34  1  0  0  0  0
 14 19  1  0  0  0  0
 14 15  1  0  0  0  0
 14 35  1  0  0  0  0
 15 16  1  0  0  0  0
 15 36  1  0  0  0  0
 15 37  1  0  0  0  0
 16 17  1  0  0  0  0
 16 38  1  0  0  0  0
 16 39  1  0  0  0  0
 17 18  1  0  0  0  0
 18 19  1  0  0  0  0
 18 40  1  0  0  0  0
 18 41  1  0  0  0  0
 19 42  1  0  0  0  0
 19 43  1  0  0  0  0
 20 44  1  0  0  0  0
M  CHG  1   9   1
M  END
> <s_m_source_file>
AV-unprocessed.smi

> <i_m_source_file_index>
2684

> <i_lp_mmshare_version>
43012

> <i_f3d_flags>
0

> <s_epik_input>
W0NIM11jMVtjSF1ubihbY0hdMSlbQ0gyXVtDQEhdKFtDSDNdKVtOSF1bQ0gyXUMoPU8pW05IXVtDSF0yW0NIMl1bQ0gyXU9bQ0gyXVtDSDJdMg==

> <s_epik_cmdline>
J2VwaWtfcHl0aG9uJywgJy1waCcsICc3LjAnLCAnLXRuJywgJzgnLCAnLW1hJywgJzIwMCcsICctbWV0YWxfYmluZGluZycsICctaW1hZScsICc8aW5maWxlLm1hZT4nLCAnLW9tYWUnLCAnPG91dGZpbGUubWFlPic=

> <r_lp_tautomer_probability>
1

> <r_epik_Ionization_Penalty>
0.128576

> <r_epik_Ionization_Penalty_Charging>
0.128567

> <r_epik_Ionization_Penalty_Neutral>
8.60003e-06

> <r_epik_State_Penalty>
0.117991

> <r_epik_Charging_Adjusted_Penalty>
0.246558

> <i_epik_Tot_Q>
1

> <i_epik_Tot_abs_Q>
1

> <r_epik_Metal_State_Penalty>
0.118015

> <b_epik_Metal_Only>
0

> <s_lp_Force_Field>
OPLS_2005

> <r_lp_Energy>
10.4868

> <b_lp_Chiralities_Consistent>
1

> <s_lp_Variant>
AV-unprocessed.smi:2684-2

> <Gold.Version>
5.8.1

> <Gold.Id.Protein>
6NUR|6NUR_protein|mol2

> <Gold.PLP.Fitness>
48.5749

> <Gold.PLP.PLP>
-36.0269

> <Gold.PLP.part.hbond>
-3.0000

> <Gold.PLP.part.metal>
0.0000

> <Gold.PLP.part.buried>
-2.2169

> <Gold.PLP.part.nonpolar>
-31.0203

> <Gold.PLP.part.repulsive>
0.3856

> <Gold.PLP.ligand.clash>
0.0000

> <Gold.PLP.ligand.torsion>
0.9460

> <Gold.PLP.Chemscore.Hbond>
3.0000

> <Gold.PLP.Chemscore.CHOScore>
1.7870

> <Gold.PLP.Chemscore.Metal>
0.0000

> <Gold.Chemscore.Hbonds>
donor molecule, donor type, donor heavy atom, donor atom, acceptor molecule, acceptor atom, score
      L1  H     9    45       P1  7948  2.00
      P1  H  7997  8010       L1    17  1.00
      L1  C     3    24       P1 10747  0.99
      L1  C    20    44       P1 10186  1.00

> <Gold.PLP.Chemscore.Internal.Correction>
0.0789

> <Gold.Rescore>
     Score         DG    S(hbond)    S(metal)    S(lipo)     H(rot)  DE(clash)    DE(int)     intcor
     15.76     -17.08       1.89        0.00      89.89       2.04       0.62       0.70       ----

> <Gold.Chemscore.Fitness>
15.7626

> <Gold.Chemscore.DG>
-17.0777

> <Gold.Chemscore.ZeroCoef>
-5.4800

> <Gold.Chemscore.Hbond>
1.8901

> <Gold.Chemscore.Metal>
0.0000

> <Gold.Chemscore.Lipo>
89.8863

> <Gold.Chemscore.Internal_Hbond>
0.0000

> <Gold.Chemscore.DEClash>
0.6192

> <Gold.Chemscore.DEInternal>
0.6960

> <Gold.Chemscore.Rot>
2.0437

> <Gold.Chemscore.Internal.Correction>
   9.000000E+99

> <Gold.Chemscore.Hbonds>
donor molecule, donor type, donor heavy atom, donor atom, acceptor molecule, acceptor atom, score
      L1  H     9    45       P1  7948  1.00
      P1  H  7997  8010       L1    17  0.67

> <Gold.Chemscore.Hbond.Weighted>
-6.3129

> <Gold.Chemscore.Metal.Weighted>
-0.0000

> <Gold.Chemscore.Lipo.Weighted>
-10.5167

> <Gold.Chemscore.Internal_Hbond.Weighted>
0.0000

> <Gold.Chemscore.DEClash.Weighted>
0.6192

> <Gold.Chemscore.DEInternal.Weighted>
0.6960

> <Gold.Chemscore.Rot.Weighted>
5.2318

> <Gold.Chemscore.Internal.Correction.Weighted>
   9.000000E+99

> <Gold.Protein.RotatedTorsions>
[ 6907 6896 6895 6894 ] final  -74.37 input  -60.11 | X-H torsion
[ 7974 7965 7964 7962 ] final  -64.35 input  175.53 | X-H torsion
[ 8008 7997 7996 7995 ] final   82.99 input   59.86 | X-H torsion
[ 10167 10162 10161 10158 ] final -163.66 input  -65.29 | X-H torsion
[ 10718 10713 10712 10709 ] final -109.77 input   66.30 | X-H torsion
[ 10763 10752 10751 10750 ] final -165.79 input  -60.55 | X-H torsion
[ 11005 11000 10999 10996 ] final -171.28 input  -57.11 | X-H torsion

> <Gold.Protein.ActiveResidues>
 VAL166  LYS551  ARG553  GLY616  TRP617  ASP618  TYR619  PRO620  LYS621  CYS622 
 ASP623  PHE694  ASN695  SER759  ASP760  ASP761  ALA762  ILE779  LEU786  VAL792 
 PHE793  MET794  SER795  GLU796  ALA797  LYS798  CYS799  TRP800  GLU811  SER814 

> <Gold.Protein.RotatedAtoms>
  150.7095  134.4878  159.5501 H   0  0  0  0  0  0  0  0  0  0  0  0  # atno 6907 bound_to 6896
  152.2502  134.8137  160.0456 H   0  0  0  0  0  0  0  0  0  0  0  0  # atno 6908 bound_to 6896
  151.8887  133.3476  159.3828 H   0  0  0  0  0  0  0  0  0  0  0  0  # atno 6909 bound_to 6896
  145.7678  140.8828  143.0396 H   0  0  0  0  0  0  0  0  0  0  0  0  # atno 7974 bound_to 7965
  155.9180  140.3423  155.6150 H   0  0  0  0  0  0  0  0  0  0  0  0  # atno 8008 bound_to 7997
  155.7308  140.0795  157.2308 H   0  0  0  0  0  0  0  0  0  0  0  0  # atno 8009 bound_to 7997
  154.4065  140.1588  156.2493 H   0  0  0  0  0  0  0  0  0  0  0  0  # atno 8010 bound_to 7997
  139.6305  144.0449  152.2011 H   0  0  0  0  0  0  0  0  0  0  0  0  # atno 10167 bound_to 10162
  156.0555  130.5781  150.8145 H   0  0  0  0  0  0  0  0  0  0  0  0  # atno 10718 bound_to 10713
  154.6897  135.2968  154.9497 H   0  0  0  0  0  0  0  0  0  0  0  0  # atno 10763 bound_to 10752
  154.0465  135.6650  153.4799 H   0  0  0  0  0  0  0  0  0  0  0  0  # atno 10764 bound_to 10752
  153.0603  135.5119  154.7983 H   0  0  0  0  0  0  0  0  0  0  0  0  # atno 10765 bound_to 10752
  140.5100  134.5810  157.5016 H   0  0  0  0  0  0  0  0  0  0  0  0  # atno 11005 bound_to 11000
  144.6818  139.9812  143.7483 LP  0  0  0  0  0  0  0  0  0  0  0  0  # atno 17320 bound_to 7965
  146.0200  139.3243  143.0818 LP  0  0  0  0  0  0  0  0  0  0  0  0  # atno 17321 bound_to 7965
  140.0113  144.6221  150.7645 LP  0  0  0  0  0  0  0  0  0  0  0  0  # atno 17342 bound_to 10162
  140.7436  143.2849  151.3493 LP  0  0  0  0  0  0  0  0  0  0  0  0  # atno 17343 bound_to 10162
  157.5520  131.0944  150.9682 LP  0  0  0  0  0  0  0  0  0  0  0  0  # atno 17370 bound_to 10713
  156.9939  130.5574  149.5305 LP  0  0  0  0  0  0  0  0  0  0  0  0  # atno 17371 bound_to 10713
  139.9664  134.7366  156.0130 LP  0  0  0  0  0  0  0  0  0  0  0  0  # atno 17394 bound_to 11000
  141.1390  133.6568  156.3676 LP  0  0  0  0  0  0  0  0  0  0  0  0  # atno 17395 bound_to 11000

$$$$
