AV-unprocessed.smi:351|AV-procd|sdf|2400|dock7
  -GOLD-   2262022333D 1   1.00000     0.00000
 Structure written by MMmdl.
 39 40  0  0  0  0  0  0  0  0  1 V2000
  153.2403  141.5730  160.4110 C   0  0  0  0  0  0  0  0  0  0  0  0
  152.4861  142.8474  160.0807 C   0  0  0  0  0  0  0  0  0  0  0  0
  152.4751  143.9101  161.0085 C   0  0  0  0  0  0  0  0  0  0  0  0
  151.7797  145.0977  160.7181 C   0  0  0  0  0  0  0  0  0  0  0  0
  151.0916  145.2247  159.4985 C   0  0  0  0  0  0  0  0  0  0  0  0
  151.0986  144.1669  158.5696 C   0  0  0  0  0  0  0  0  0  0  0  0
  151.7970  142.9645  158.8508 C   0  0  0  0  0  0  0  0  0  0  0  0
  151.8466  141.8876  157.9895 O   0  0  0  0  0  0  0  0  0  0  0  0
  150.7716  141.6947  157.0818 C   0  0  0  0  0  0  0  0  0  0  0  0
  151.3003  140.9111  155.8664 C   0  0  0  0  0  0  0  0  0  0  0  0
  150.2719  140.0127  155.2920 N   0  0  0  0  0  0  0  0  0  0  0  0
  150.4610  138.5951  155.3176 C   0  0  0  0  0  0  0  0  0  0  0  0
  151.7495  138.0143  155.9179 C   0  0  0  0  0  0  0  0  0  0  0  0
  151.7644  136.6832  155.8309 F   0  0  0  0  0  0  0  0  0  0  0  0
  152.8374  138.4474  155.2819 F   0  0  0  0  0  0  0  0  0  0  0  0
  151.8470  138.3182  157.2126 F   0  0  0  0  0  0  0  0  0  0  0  0
  149.5205  137.7858  154.7963 C   0  0  0  0  0  0  0  0  0  0  0  0
  148.3259  138.3407  154.2229 C   0  0  0  0  0  0  0  0  0  0  0  0
  148.1309  139.6786  154.1929 C   0  0  0  0  0  0  0  0  0  0  0  0
  146.9186  140.2970  153.6086 C   0  0  0  0  0  0  0  0  0  0  0  0
  146.0967  139.4312  153.0022 N   0  0  0  0  0  0  0  0  0  0  0  0
  146.6104  141.4886  153.6299 O   0  0  0  0  0  0  0  0  0  0  0  0
  149.1501  140.6025  154.7548 C   0  0  0  0  0  0  0  0  0  0  0  0
  149.0347  141.8321  154.7591 O   0  0  0  0  0  0  0  0  0  0  0  0
  153.7935  141.6667  161.3459 H   0  0  0  0  0  0  0  0  0  0  0  0
  153.9522  141.3358  159.6200 H   0  0  0  0  0  0  0  0  0  0  0  0
  152.5451  140.7390  160.5091 H   0  0  0  0  0  0  0  0  0  0  0  0
  152.9997  143.8183  161.9480 H   0  0  0  0  0  0  0  0  0  0  0  0
  151.7730  145.9092  161.4306 H   0  0  0  0  0  0  0  0  0  0  0  0
  150.5561  146.1354  159.2740 H   0  0  0  0  0  0  0  0  0  0  0  0
  150.5576  144.3041  157.6461 H   0  0  0  0  0  0  0  0  0  0  0  0
  149.9697  141.1396  157.5700 H   0  0  0  0  0  0  0  0  0  0  0  0
  150.3694  142.6578  156.7663 H   0  0  0  0  0  0  0  0  0  0  0  0
  151.7074  141.6066  155.1392 H   0  0  0  0  0  0  0  0  0  0  0  0
  152.1811  140.3392  156.1647 H   0  0  0  0  0  0  0  0  0  0  0  0
  149.6444  136.7131  154.7995 H   0  0  0  0  0  0  0  0  0  0  0  0
  147.6041  137.6452  153.8208 H   0  0  0  0  0  0  0  0  0  0  0  0
  145.2443  139.7589  152.5720 H   0  0  0  0  0  0  0  0  0  0  0  0
  146.3354  138.4503  152.9767 H   0  0  0  0  0  0  0  0  0  0  0  0
  1  2  1  0  0  0  0
  1 25  1  0  0  0  0
  1 26  1  0  0  0  0
  1 27  1  0  0  0  0
  2  7  1  0  0  0  0
  2  3  2  0  0  0  0
  3  4  1  0  0  0  0
  3 28  1  0  0  0  0
  4  5  2  0  0  0  0
  4 29  1  0  0  0  0
  5  6  1  0  0  0  0
  5 30  1  0  0  0  0
  6  7  2  0  0  0  0
  6 31  1  0  0  0  0
  7  8  1  0  0  0  0
  8  9  1  0  0  0  0
  9 10  1  0  0  0  0
  9 32  1  0  0  0  0
  9 33  1  0  0  0  0
 10 11  1  0  0  0  0
 10 34  1  0  0  0  0
 10 35  1  0  0  0  0
 11 23  1  0  0  0  0
 11 12  1  0  0  0  0
 12 13  1  0  0  0  0
 12 17  2  0  0  0  0
 13 14  1  0  0  0  0
 13 15  1  0  0  0  0
 13 16  1  0  0  0  0
 17 18  1  0  0  0  0
 17 36  1  0  0  0  0
 18 19  2  0  0  0  0
 18 37  1  0  0  0  0
 19 20  1  0  0  0  0
 19 23  1  0  0  0  0
 20 21  1  0  0  0  0
 20 22  2  0  0  0  0
 21 38  1  0  0  0  0
 21 39  1  0  0  0  0
 23 24  2  0  0  0  0
M  END
> <s_m_source_file>
AV-unprocessed.smi

> <i_m_source_file_index>
351

> <i_lp_mmshare_version>
43012

> <i_f3d_flags>
0

> <s_epik_input>
W0NIM11jMVtjSF1bY0hdW2NIXVtjSF1jMU9bQ0gyXVtDSDJdbjJjKEMoRikoRilGKVtjSF1bY0hdYyhjMj1PKUMoPU8pW05IMl0=

> <s_epik_cmdline>
J2VwaWtfcHl0aG9uJywgJy1waCcsICc3LjAnLCAnLXRuJywgJzgnLCAnLW1hJywgJzIwMCcsICctbWV0YWxfYmluZGluZycsICctaW1hZScsICc8aW5maWxlLm1hZT4nLCAnLW9tYWUnLCAnPG91dGZpbGUubWFlPic=

> <r_lp_tautomer_probability>
1

> <r_epik_Ionization_Penalty>
1.75286e-06

> <r_epik_Ionization_Penalty_Charging>
1.15608e-09

> <r_epik_Ionization_Penalty_Neutral>
1.7517e-06

> <r_epik_State_Penalty>
-0

> <r_epik_Charging_Adjusted_Penalty>
1.15608e-09

> <i_epik_Tot_Q>
0

> <i_epik_Tot_abs_Q>
0

> <r_epik_Metal_State_Penalty>
-0

> <b_epik_Metal_Only>
0

> <s_lp_Force_Field>
OPLS_2005

> <r_lp_Energy>
33.8975

> <b_lp_Chiralities_Consistent>
1

> <s_lp_Variant>
AV-unprocessed.smi:351-1

> <Gold.Version>
5.8.1

> <Gold.Id.Protein>
6NUR|6NUR_protein|mol2

> <Gold.PLP.Fitness>
48.1384

> <Gold.PLP.PLP>
-46.7041

> <Gold.PLP.part.hbond>
-2.2273

> <Gold.PLP.part.metal>
0.0000

> <Gold.PLP.part.buried>
-4.1296

> <Gold.PLP.part.nonpolar>
-40.9542

> <Gold.PLP.part.repulsive>
0.4334

> <Gold.PLP.ligand.clash>
3.7714

> <Gold.PLP.ligand.torsion>
0.7682

> <Gold.PLP.Chemscore.Hbond>
0.9682

> <Gold.PLP.Chemscore.CHOScore>
0.0000

> <Gold.PLP.Chemscore.Metal>
0.0000

> <Gold.Chemscore.Hbonds>
donor molecule, donor type, donor heavy atom, donor atom, acceptor molecule, acceptor atom, score
      L1  H    21    38       P1 10175  1.00

> <Gold.PLP.Chemscore.Internal.Correction>
3.8376

> <Gold.Rescore>
     Score         DG    S(hbond)    S(metal)    S(lipo)     H(rot)  DE(clash)    DE(int)     intcor
     12.36     -17.55       0.99        0.00     115.21       1.84       0.21       4.98       ----

> <Gold.Chemscore.Fitness>
12.3571

> <Gold.Chemscore.DG>
-17.5527

> <Gold.Chemscore.ZeroCoef>
-5.4800

> <Gold.Chemscore.Hbond>
0.9901

> <Gold.Chemscore.Metal>
0.0000

> <Gold.Chemscore.Lipo>
115.2067

> <Gold.Chemscore.Internal_Hbond>
0.0000

> <Gold.Chemscore.DEClash>
0.2128

> <Gold.Chemscore.DEInternal>
4.9828

> <Gold.Chemscore.Rot>
1.8412

> <Gold.Chemscore.Internal.Correction>
   9.000000E+99

> <Gold.Chemscore.Hbonds>
donor molecule, donor type, donor heavy atom, donor atom, acceptor molecule, acceptor atom, score
      L1  H    21    38       P1 10175  0.99

> <Gold.Chemscore.Hbond.Weighted>
-3.3069

> <Gold.Chemscore.Metal.Weighted>
-0.0000

> <Gold.Chemscore.Lipo.Weighted>
-13.4792

> <Gold.Chemscore.Internal_Hbond.Weighted>
0.0000

> <Gold.Chemscore.DEClash.Weighted>
0.2128

> <Gold.Chemscore.DEInternal.Weighted>
4.9828

> <Gold.Chemscore.Rot.Weighted>
4.7134

> <Gold.Chemscore.Internal.Correction.Weighted>
   9.000000E+99

> <Gold.Protein.RotatedTorsions>
[ 6907 6896 6895 6894 ] final    4.31 input  -60.11 | X-H torsion
[ 7974 7965 7964 7962 ] final -146.62 input  175.53 | X-H torsion
[ 8008 7997 7996 7995 ] final   22.62 input   59.86 | X-H torsion
[ 10167 10162 10161 10158 ] final   84.08 input  -65.29 | X-H torsion
[ 10718 10713 10712 10709 ] final -168.37 input   66.30 | X-H torsion
[ 10763 10752 10751 10750 ] final -155.81 input  -60.55 | X-H torsion
[ 11005 11000 10999 10996 ] final   99.99 input  -57.11 | X-H torsion

> <Gold.Protein.ActiveResidues>
 VAL166  LYS551  ARG553  GLY616  TRP617  ASP618  TYR619  PRO620  LYS621  CYS622 
 ASP623  PHE694  ASN695  SER759  ASP760  ASP761  ALA762  ILE779  LEU786  VAL792 
 PHE793  MET794  SER795  GLU796  ALA797  LYS798  CYS799  TRP800  GLU811  SER814 

> <Gold.Protein.RotatedAtoms>
  151.6392  135.1014  160.0137 H   0  0  0  0  0  0  0  0  0  0  0  0  # atno 6907 bound_to 6896
  152.4064  133.6891  159.6368 H   0  0  0  0  0  0  0  0  0  0  0  0  # atno 6908 bound_to 6896
  150.7958  133.8619  159.3275 H   0  0  0  0  0  0  0  0  0  0  0  0  # atno 6909 bound_to 6896
  144.8147  140.5433  143.5618 H   0  0  0  0  0  0  0  0  0  0  0  0  # atno 7974 bound_to 7965
  154.9685  140.3087  155.4999 H   0  0  0  0  0  0  0  0  0  0  0  0  # atno 8008 bound_to 7997
  156.2969  140.2288  156.4714 H   0  0  0  0  0  0  0  0  0  0  0  0  # atno 8009 bound_to 7997
  154.7899  140.0440  157.1181 H   0  0  0  0  0  0  0  0  0  0  0  0  # atno 8010 bound_to 7997
  139.9117  144.6267  150.8530 H   0  0  0  0  0  0  0  0  0  0  0  0  # atno 10167 bound_to 10162
  156.6959  130.9177  151.3074 H   0  0  0  0  0  0  0  0  0  0  0  0  # atno 10718 bound_to 10713
  154.7759  135.3159  154.8092 H   0  0  0  0  0  0  0  0  0  0  0  0  # atno 10763 bound_to 10752
  153.8816  135.6834  153.4771 H   0  0  0  0  0  0  0  0  0  0  0  0  # atno 10764 bound_to 10752
  153.1383  135.4750  154.9392 H   0  0  0  0  0  0  0  0  0  0  0  0  # atno 10765 bound_to 10752
  139.8771  134.9120  156.4689 H   0  0  0  0  0  0  0  0  0  0  0  0  # atno 11005 bound_to 11000
  145.5241  139.1476  143.3536 LP  0  0  0  0  0  0  0  0  0  0  0  0  # atno 17320 bound_to 7965
  146.2449  140.5382  142.8918 LP  0  0  0  0  0  0  0  0  0  0  0  0  # atno 17321 bound_to 7965
  140.7684  143.3361  151.2307 LP  0  0  0  0  0  0  0  0  0  0  0  0  # atno 17342 bound_to 10162
  139.6937  143.9649  152.2872 LP  0  0  0  0  0  0  0  0  0  0  0  0  # atno 17343 bound_to 10162
  157.6991  130.9314  150.0732 LP  0  0  0  0  0  0  0  0  0  0  0  0  # atno 17370 bound_to 10713
  156.1764  130.3648  149.9095 LP  0  0  0  0  0  0  0  0  0  0  0  0  # atno 17371 bound_to 10713
  140.8810  133.7918  155.9467 LP  0  0  0  0  0  0  0  0  0  0  0  0  # atno 17394 bound_to 11000
  140.8854  134.2560  157.5122 LP  0  0  0  0  0  0  0  0  0  0  0  0  # atno 17395 bound_to 11000

$$$$
