AV-unprocessed.smi:583|AV-procd|sdf|2997|dock8
  -GOLD-   2262023503D 1   1.00000     0.00000
 Structure written by MMmdl.
 35 36  0  0  0  0  0  0  0  0  1 V2000
  151.9766  137.2339  159.5985 O   0  0  0  0  0  0  0  0  0  0  0  0
  151.6544  138.0728  158.7582 C   0  0  0  0  0  0  0  0  0  0  0  0
  152.6956  139.1109  158.3046 C   0  0  0  0  0  0  0  0  0  0  0  0
  152.9429  140.2060  159.2603 N   0  0  0  0  0  0  0  0  0  0  0  0
  152.4321  141.4755  158.9247 C   0  0  0  0  0  0  0  0  0  0  0  0
  152.5764  142.5562  159.7156 C   0  0  0  0  0  0  0  0  0  0  0  0
  152.0574  143.9249  159.3030 C   0  0  0  0  0  0  0  0  0  0  0  0
  150.7453  143.8618  159.0808 F   0  0  0  0  0  0  0  0  0  0  0  0
  152.2747  144.8290  160.2586 F   0  0  0  0  0  0  0  0  0  0  0  0
  152.6480  144.3470  158.1839 F   0  0  0  0  0  0  0  0  0  0  0  0
  153.3283  142.3637  160.9400 C   0  0  0  0  0  0  0  0  0  0  0  0
  153.8271  141.1575  161.2740 C   0  0  0  0  0  0  0  0  0  0  0  0
  153.6367  139.9851  160.4173 C   0  0  0  0  0  0  0  0  0  0  0  0
  154.0688  138.8736  160.7222 O   0  0  0  0  0  0  0  0  0  0  0  0
  150.4262  138.1204  158.2146 N   0  0  0  0  0  0  0  0  0  0  0  0
  149.3263  137.2180  158.5364 C   0  0  2  0  0  0  0  0  0  0  0  0
  147.9861  137.7008  157.9450 C   0  0  0  0  0  0  0  0  0  0  0  0
  146.8446  136.9358  158.6253 C   0  0  0  0  0  0  0  0  0  0  0  0
  147.4245  136.5588  160.3226 S   0  0  0  0  0  0  0  0  0  0  0  0
  146.7805  137.4724  161.2784 O   0  0  0  0  0  0  0  0  0  0  0  0
  147.3892  135.1023  160.5253 O   0  0  0  0  0  0  0  0  0  0  0  0
  149.1559  137.0962  160.0566 C   0  0  0  0  0  0  0  0  0  0  0  0
  153.6264  138.5881  158.0775 H   0  0  0  0  0  0  0  0  0  0  0  0
  152.3667  139.5187  157.3477 H   0  0  0  0  0  0  0  0  0  0  0  0
  151.9088  141.5129  157.9799 H   0  0  0  0  0  0  0  0  0  0  0  0
  153.4912  143.1999  161.6042 H   0  0  0  0  0  0  0  0  0  0  0  0
  154.3801  141.0505  162.1957 H   0  0  0  0  0  0  0  0  0  0  0  0
  150.2404  138.8391  157.5301 H   0  0  0  0  0  0  0  0  0  0  0  0
  149.5420  136.2234  158.1416 H   0  0  0  0  0  0  0  0  0  0  0  0
  147.8653  138.7650  158.1532 H   0  0  0  0  0  0  0  0  0  0  0  0
  147.9520  137.5837  156.8613 H   0  0  0  0  0  0  0  0  0  0  0  0
  145.9139  137.5022  158.6609 H   0  0  0  0  0  0  0  0  0  0  0  0
  146.6575  135.9898  158.1168 H   0  0  0  0  0  0  0  0  0  0  0  0
  149.8454  136.3830  160.5085 H   0  0  0  0  0  0  0  0  0  0  0  0
  149.2809  138.0614  160.5487 H   0  0  0  0  0  0  0  0  0  0  0  0
  1  2  2  0  0  0  0
  2  3  1  0  0  0  0
  2 15  1  0  0  0  0
  3  4  1  0  0  0  0
  3 23  1  0  0  0  0
  3 24  1  0  0  0  0
  4 13  1  0  0  0  0
  4  5  1  0  0  0  0
  5  6  2  0  0  0  0
  5 25  1  0  0  0  0
  6  7  1  0  0  0  0
  6 11  1  0  0  0  0
  7  8  1  0  0  0  0
  7  9  1  0  0  0  0
  7 10  1  0  0  0  0
 11 12  2  0  0  0  0
 11 26  1  0  0  0  0
 12 13  1  0  0  0  0
 12 27  1  0  0  0  0
 13 14  2  0  0  0  0
 15 16  1  0  0  0  0
 15 28  1  0  0  0  0
 16 22  1  0  0  0  0
 16 17  1  0  0  0  0
 16 29  1  0  0  0  0
 17 18  1  0  0  0  0
 17 30  1  0  0  0  0
 17 31  1  0  0  0  0
 18 19  1  0  0  0  0
 18 32  1  0  0  0  0
 18 33  1  0  0  0  0
 19 20  2  0  0  0  0
 19 21  2  0  0  0  0
 19 22  1  0  0  0  0
 22 34  1  0  0  0  0
 22 35  1  0  0  0  0
M  END
> <s_m_source_file>
AV-unprocessed.smi

> <i_m_source_file_index>
583

> <i_lp_mmshare_version>
43012

> <i_f3d_flags>
0

> <s_epik_input>
Tz1TMSg9TylbQ0gyXVtDSDJdW0NASF0oW0NIMl0xKVtOSF1DKD1PKVtDSDJdbjJbY0hdYyhDKEYpKEYpRilbY0hdW2NIXWMyPU8=

> <s_epik_cmdline>
J2VwaWtfcHl0aG9uJywgJy1waCcsICc3LjAnLCAnLXRuJywgJzgnLCAnLW1hJywgJzIwMCcsICctbWV0YWxfYmluZGluZycsICctaW1hZScsICc8aW5maWxlLm1hZT4nLCAnLW9tYWUnLCAnPG91dGZpbGUubWFlPic=

> <r_lp_tautomer_probability>
1

> <r_epik_Ionization_Penalty>
1.22016e-07

> <r_epik_Ionization_Penalty_Charging>
1.48237e-08

> <r_epik_Ionization_Penalty_Neutral>
1.07193e-07

> <r_epik_State_Penalty>
-0

> <r_epik_Charging_Adjusted_Penalty>
1.48237e-08

> <i_epik_Tot_Q>
0

> <i_epik_Tot_abs_Q>
0

> <r_epik_Metal_State_Penalty>
-0

> <b_epik_Metal_Only>
0

> <s_lp_Force_Field>
OPLS_2005

> <r_lp_Energy>
16.6381

> <b_lp_Chiralities_Consistent>
1

> <s_lp_Variant>
AV-unprocessed.smi:583-1

> <Gold.Version>
5.8.1

> <Gold.Id.Protein>
6NUR|6NUR_protein|mol2

> <Gold.PLP.Fitness>
47.7874

> <Gold.PLP.PLP>
-42.7663

> <Gold.PLP.part.hbond>
-2.5329

> <Gold.PLP.part.metal>
0.0000

> <Gold.PLP.part.buried>
-3.9850

> <Gold.PLP.part.nonpolar>
-36.8303

> <Gold.PLP.part.repulsive>
0.1116

> <Gold.PLP.ligand.clash>
0.0000

> <Gold.PLP.ligand.torsion>
0.5247

> <Gold.PLP.Chemscore.Hbond>
2.0123

> <Gold.PLP.Chemscore.CHOScore>
0.0000

> <Gold.PLP.Chemscore.Metal>
0.0000

> <Gold.Chemscore.Hbonds>
donor molecule, donor type, donor heavy atom, donor atom, acceptor molecule, acceptor atom, score
      P1  H  6896  6909       L1     1  0.71
      P1  H  6934  6947       L1    20  1.00

> <Gold.PLP.Chemscore.Internal.Correction>
0.0335

> <Gold.Rescore>
     Score         DG    S(hbond)    S(metal)    S(lipo)     H(rot)  DE(clash)    DE(int)     intcor
     14.79     -15.41       1.99        0.00      66.06       1.73       0.00       0.62       ----

> <Gold.Chemscore.Fitness>
14.7878

> <Gold.Chemscore.DG>
-15.4116

> <Gold.Chemscore.ZeroCoef>
-5.4800

> <Gold.Chemscore.Hbond>
1.9864

> <Gold.Chemscore.Metal>
0.0000

> <Gold.Chemscore.Lipo>
66.0634

> <Gold.Chemscore.Internal_Hbond>
0.0000

> <Gold.Chemscore.DEClash>
0.0028

> <Gold.Chemscore.DEInternal>
0.6210

> <Gold.Chemscore.Rot>
1.7314

> <Gold.Chemscore.Internal.Correction>
   9.000000E+99

> <Gold.Chemscore.Hbonds>
donor molecule, donor type, donor heavy atom, donor atom, acceptor molecule, acceptor atom, score
      P1  H  6896  6909       L1     1  0.73
      P1  H  6934  6947       L1    20  0.78

> <Gold.Chemscore.Hbond.Weighted>
-6.6346

> <Gold.Chemscore.Metal.Weighted>
-0.0000

> <Gold.Chemscore.Lipo.Weighted>
-7.7294

> <Gold.Chemscore.Internal_Hbond.Weighted>
0.0000

> <Gold.Chemscore.DEClash.Weighted>
0.0028

> <Gold.Chemscore.DEInternal.Weighted>
0.6210

> <Gold.Chemscore.Rot.Weighted>
4.4324

> <Gold.Chemscore.Internal.Correction.Weighted>
   9.000000E+99

> <Gold.Protein.RotatedTorsions>
[ 6907 6896 6895 6894 ] final  132.79 input  -60.11 | X-H torsion
[ 7974 7965 7964 7962 ] final   25.95 input  175.53 | X-H torsion
[ 8008 7997 7996 7995 ] final   52.26 input   59.86 | X-H torsion
[ 10167 10162 10161 10158 ] final  132.45 input  -65.29 | X-H torsion
[ 10718 10713 10712 10709 ] final  -20.56 input   66.30 | X-H torsion
[ 10763 10752 10751 10750 ] final  -76.94 input  -60.55 | X-H torsion
[ 11005 11000 10999 10996 ] final -155.24 input  -57.11 | X-H torsion

> <Gold.Protein.ActiveResidues>
 VAL166  LYS551  ARG553  GLY616  TRP617  ASP618  TYR619  PRO620  LYS621  CYS622 
 ASP623  PHE694  ASN695  SER759  ASP760  ASP761  ALA762  ILE779  LEU786  VAL792 
 PHE793  MET794  SER795  GLU796  ALA797  LYS798  CYS799  TRP800  GLU811  SER814 

> <Gold.Protein.RotatedAtoms>
  152.3287  133.5934  159.5794 H   0  0  0  0  0  0  0  0  0  0  0  0  # atno 6907 bound_to 6896
  150.7411  133.9900  159.3613 H   0  0  0  0  0  0  0  0  0  0  0  0  # atno 6908 bound_to 6896
  151.7777  135.0770  160.0420 H   0  0  0  0  0  0  0  0  0  0  0  0  # atno 6909 bound_to 6896
  146.1862  139.7395  142.8865 H   0  0  0  0  0  0  0  0  0  0  0  0  # atno 7974 bound_to 7965
  155.4488  140.3457  155.4298 H   0  0  0  0  0  0  0  0  0  0  0  0  # atno 8008 bound_to 7997
  156.1233  140.1493  156.9203 H   0  0  0  0  0  0  0  0  0  0  0  0  # atno 8009 bound_to 7997
  154.4839  140.0861  156.7422 H   0  0  0  0  0  0  0  0  0  0  0  0  # atno 8010 bound_to 7997
  139.5339  144.6661  151.4853 H   0  0  0  0  0  0  0  0  0  0  0  0  # atno 10167 bound_to 10162
  156.5302  130.4653  149.6551 H   0  0  0  0  0  0  0  0  0  0  0  0  # atno 10718 bound_to 10713
  154.5065  135.5780  153.6571 H   0  0  0  0  0  0  0  0  0  0  0  0  # atno 10763 bound_to 10752
  152.9888  135.6148  154.2935 H   0  0  0  0  0  0  0  0  0  0  0  0  # atno 10764 bound_to 10752
  154.2846  135.2850  155.2661 H   0  0  0  0  0  0  0  0  0  0  0  0  # atno 10765 bound_to 10752
  140.6886  134.4066  157.5221 H   0  0  0  0  0  0  0  0  0  0  0  0  # atno 11005 bound_to 11000
  145.3930  141.0375  143.3113 LP  0  0  0  0  0  0  0  0  0  0  0  0  # atno 17320 bound_to 7965
  144.8402  139.5484  143.6903 LP  0  0  0  0  0  0  0  0  0  0  0  0  # atno 17321 bound_to 7965
  140.6534  143.8649  150.6810 LP  0  0  0  0  0  0  0  0  0  0  0  0  # atno 17342 bound_to 10162
  140.2021  143.3951  152.1784 LP  0  0  0  0  0  0  0  0  0  0  0  0  # atno 17343 bound_to 10162
  156.3067  130.7207  151.2090 LP  0  0  0  0  0  0  0  0  0  0  0  0  # atno 17370 bound_to 10713
  157.7423  131.0492  150.5034 LP  0  0  0  0  0  0  0  0  0  0  0  0  # atno 17371 bound_to 10713
  139.8930  134.8741  156.2244 LP  0  0  0  0  0  0  0  0  0  0  0  0  # atno 17394 bound_to 11000
  141.0259  133.7015  156.1347 LP  0  0  0  0  0  0  0  0  0  0  0  0  # atno 17395 bound_to 11000

$$$$
