AV-unprocessed.smi:3233|AV-procd|sdf|12347|dock1
  -GOLD-   2272018213D 1   1.00000     0.00000
 Structure written by MMmdl.
 36 37  0  0  0  0  0  0  0  0  1 V2000
  154.8058  140.1432  161.4151 C   0  0  0  0  0  0  0  0  0  0  0  0
  153.8535  141.1595  160.9600 N   0  0  0  0  0  0  0  0  0  0  0  0
  153.4990  142.1711  161.8683 C   0  0  0  0  0  0  0  0  0  0  0  0
  152.6377  143.1428  161.5371 C   0  0  0  0  0  0  0  0  0  0  0  0
  152.0701  143.1346  160.2101 C   0  0  0  0  0  0  0  0  0  0  0  0
  152.3945  142.1643  159.3182 C   0  0  0  0  0  0  0  0  0  0  0  0
  151.8986  142.0787  158.0050 N   0  0  0  0  0  0  0  0  0  0  0  0
  151.3905  141.0241  157.3357 C   0  0  0  0  0  0  0  0  0  0  0  0
  151.2792  139.8823  157.7791 O   0  0  0  0  0  0  0  0  0  0  0  0
  150.9203  141.3144  155.9108 C   0  0  0  0  0  0  0  0  0  0  0  0
  150.2076  140.1888  155.4160 O   0  0  0  0  0  0  0  0  0  0  0  0
  149.3410  140.4918  154.3327 C   0  0  0  0  0  0  0  0  0  0  0  0
  148.3724  141.6402  154.6336 C   0  0  0  0  0  0  0  0  0  0  0  0
  147.1613  141.3966  153.7232 C   0  0  0  0  0  0  0  0  0  0  0  0
  147.2431  139.9290  153.2742 C   0  0  0  0  0  0  0  0  0  0  0  0
  148.4108  139.3141  154.0499 C   0  0  0  0  0  0  0  0  0  0  0  0
  153.3497  141.1021  159.6912 C   0  0  0  0  0  0  0  0  0  0  0  0
  153.6848  140.2060  158.9125 O   0  0  0  0  0  0  0  0  0  0  0  0
  155.0943  140.2724  162.4588 H   0  0  0  0  0  0  0  0  0  0  0  0
  155.7176  140.1809  160.8175 H   0  0  0  0  0  0  0  0  0  0  0  0
  154.3780  139.1441  161.3203 H   0  0  0  0  0  0  0  0  0  0  0  0
  153.9665  142.1088  162.8401 H   0  0  0  0  0  0  0  0  0  0  0  0
  152.3745  143.9142  162.2458 H   0  0  0  0  0  0  0  0  0  0  0  0
  151.3935  143.9362  159.9652 H   0  0  0  0  0  0  0  0  0  0  0  0
  151.9612  142.9397  157.4803 H   0  0  0  0  0  0  0  0  0  0  0  0
  150.2874  142.2030  155.9091 H   0  0  0  0  0  0  0  0  0  0  0  0
  151.7905  141.5219  155.2866 H   0  0  0  0  0  0  0  0  0  0  0  0
  149.9145  140.7108  153.4299 H   0  0  0  0  0  0  0  0  0  0  0  0
  148.0555  141.5871  155.6762 H   0  0  0  0  0  0  0  0  0  0  0  0
  148.8214  142.6215  154.4753 H   0  0  0  0  0  0  0  0  0  0  0  0
  146.2302  141.6039  154.2518 H   0  0  0  0  0  0  0  0  0  0  0  0
  147.1952  142.0550  152.8545 H   0  0  0  0  0  0  0  0  0  0  0  0
  146.3114  139.3903  153.4494 H   0  0  0  0  0  0  0  0  0  0  0  0
  147.4488  139.8860  152.2039 H   0  0  0  0  0  0  0  0  0  0  0  0
  148.9040  138.5100  153.5029 H   0  0  0  0  0  0  0  0  0  0  0  0
  148.0443  138.8995  154.9902 H   0  0  0  0  0  0  0  0  0  0  0  0
  1  2  1  0  0  0  0
  1 19  1  0  0  0  0
  1 20  1  0  0  0  0
  1 21  1  0  0  0  0
  2 17  1  0  0  0  0
  2  3  1  0  0  0  0
  3  4  2  0  0  0  0
  3 22  1  0  0  0  0
  4  5  1  0  0  0  0
  4 23  1  0  0  0  0
  5  6  2  0  0  0  0
  5 24  1  0  0  0  0
  6  7  1  0  0  0  0
  6 17  1  0  0  0  0
  7  8  1  0  0  0  0
  7 25  1  0  0  0  0
  8  9  2  0  0  0  0
  8 10  1  0  0  0  0
 10 11  1  0  0  0  0
 10 26  1  0  0  0  0
 10 27  1  0  0  0  0
 11 12  1  0  0  0  0
 12 16  1  0  0  0  0
 12 13  1  0  0  0  0
 12 28  1  0  0  0  0
 13 14  1  0  0  0  0
 13 29  1  0  0  0  0
 13 30  1  0  0  0  0
 14 15  1  0  0  0  0
 14 31  1  0  0  0  0
 14 32  1  0  0  0  0
 15 16  1  0  0  0  0
 15 33  1  0  0  0  0
 15 34  1  0  0  0  0
 16 35  1  0  0  0  0
 16 36  1  0  0  0  0
 17 18  2  0  0  0  0
M  END
> <s_m_source_file>
AV-unprocessed.smi

> <i_m_source_file_index>
3233

> <i_lp_mmshare_version>
43012

> <i_f3d_flags>
0

> <s_epik_input>
W0NIM11uMVtjSF1bY0hdW2NIXWMoYzE9TylbTkhdQyg9TylbQ0gyXU9bQ0hdMltDSDJdW0NIMl1bQ0gyXVtDSDJdMg==

> <s_epik_cmdline>
J2VwaWtfcHl0aG9uJywgJy1waCcsICc3LjAnLCAnLXRuJywgJzgnLCAnLW1hJywgJzIwMCcsICctbWV0YWxfYmluZGluZycsICctaW1hZScsICc8aW5maWxlLm1hZT4nLCAnLW9tYWUnLCAnPG91dGZpbGUubWFlPic=

> <r_lp_tautomer_probability>
1

> <r_epik_Ionization_Penalty>
8.96518e-07

> <r_epik_Ionization_Penalty_Charging>
8.5061e-07

> <r_epik_Ionization_Penalty_Neutral>
4.59088e-08

> <r_epik_State_Penalty>
-0

> <r_epik_Charging_Adjusted_Penalty>
8.5061e-07

> <i_epik_Tot_Q>
0

> <i_epik_Tot_abs_Q>
0

> <r_epik_Metal_State_Penalty>
-0

> <b_epik_Metal_Only>
0

> <s_lp_Force_Field>
OPLS_2005

> <r_lp_Energy>
37.0761

> <b_lp_Chiralities_Consistent>
1

> <s_lp_Variant>
AV-unprocessed.smi:3233-1

> <Gold.Version>
5.8.1

> <Gold.Id.Protein>
6NUR|6NUR_protein|mol2

> <Gold.PLP.Fitness>
43.6869

> <Gold.PLP.PLP>
-42.2110

> <Gold.PLP.part.hbond>
-1.0000

> <Gold.PLP.part.metal>
0.0000

> <Gold.PLP.part.buried>
-2.0244

> <Gold.PLP.part.nonpolar>
-36.8403

> <Gold.PLP.part.repulsive>
0.1133

> <Gold.PLP.ligand.clash>
0.0000

> <Gold.PLP.ligand.torsion>
0.6473

> <Gold.PLP.Chemscore.Hbond>
0.9120

> <Gold.PLP.Chemscore.CHOScore>
0.0000

> <Gold.PLP.Chemscore.Metal>
0.0000

> <Gold.Chemscore.Hbonds>
donor molecule, donor type, donor heavy atom, donor atom, acceptor molecule, acceptor atom, score
      P1  H  7997  8008       L1    18  0.89

> <Gold.PLP.Chemscore.Internal.Correction>
0.0345

> <Gold.Rescore>
     Score         DG    S(hbond)    S(metal)    S(lipo)     H(rot)  DE(clash)    DE(int)     intcor
     12.78     -16.09       0.90        0.00      95.72       1.40       0.11       3.20       ----

> <Gold.Chemscore.Fitness>
12.7796

> <Gold.Chemscore.DG>
-16.0932

> <Gold.Chemscore.ZeroCoef>
-5.4800

> <Gold.Chemscore.Hbond>
0.8996

> <Gold.Chemscore.Metal>
0.0000

> <Gold.Chemscore.Lipo>
95.7227

> <Gold.Chemscore.Internal_Hbond>
0.0000

> <Gold.Chemscore.DEClash>
0.1147

> <Gold.Chemscore.DEInternal>
3.1989

> <Gold.Chemscore.Rot>
1.4027

> <Gold.Chemscore.Internal.Correction>
   9.000000E+99

> <Gold.Chemscore.Hbonds>
donor molecule, donor type, donor heavy atom, donor atom, acceptor molecule, acceptor atom, score
      P1  H  7997  8008       L1    18  0.82

> <Gold.Chemscore.Hbond.Weighted>
-3.0045

> <Gold.Chemscore.Metal.Weighted>
-0.0000

> <Gold.Chemscore.Lipo.Weighted>
-11.1996

> <Gold.Chemscore.Internal_Hbond.Weighted>
0.0000

> <Gold.Chemscore.DEClash.Weighted>
0.1147

> <Gold.Chemscore.DEInternal.Weighted>
3.1989

> <Gold.Chemscore.Rot.Weighted>
3.5909

> <Gold.Chemscore.Internal.Correction.Weighted>
   9.000000E+99

> <Gold.Protein.RotatedTorsions>
[ 6907 6896 6895 6894 ] final  115.68 input  -60.11 | X-H torsion
[ 7974 7965 7964 7962 ] final  -89.21 input  175.53 | X-H torsion
[ 8008 7997 7996 7995 ] final -105.21 input   59.86 | X-H torsion
[ 10167 10162 10161 10158 ] final -134.49 input  -65.29 | X-H torsion
[ 10718 10713 10712 10709 ] final  173.23 input   66.30 | X-H torsion
[ 10763 10752 10751 10750 ] final -131.59 input  -60.55 | X-H torsion
[ 11005 11000 10999 10996 ] final   51.96 input  -57.11 | X-H torsion

> <Gold.Protein.ActiveResidues>
 VAL166  LYS551  ARG553  GLY616  TRP617  ASP618  TYR619  PRO620  LYS621  CYS622 
 ASP623  PHE694  ASN695  SER759  ASP760  ASP761  ALA762  ILE779  LEU786  VAL792 
 PHE793  MET794  SER795  GLU796  ALA797  LYS798  CYS799  TRP800  GLU811  SER814 

> <Gold.Protein.RotatedAtoms>
  152.4726  133.8064  159.6980 H   0  0  0  0  0  0  0  0  0  0  0  0  # atno 6907 bound_to 6896
  150.8724  133.7477  159.2963 H   0  0  0  0  0  0  0  0  0  0  0  0  # atno 6908 bound_to 6896
  151.5008  135.1065  159.9880 H   0  0  0  0  0  0  0  0  0  0  0  0  # atno 6909 bound_to 6896
  145.4429  140.9559  143.2065 H   0  0  0  0  0  0  0  0  0  0  0  0  # atno 7974 bound_to 7965
  154.8965  140.0414  157.1869 H   0  0  0  0  0  0  0  0  0  0  0  0  # atno 8008 bound_to 7997
  154.8487  140.2926  155.5591 H   0  0  0  0  0  0  0  0  0  0  0  0  # atno 8009 bound_to 7997
  156.2995  140.2469  156.3442 H   0  0  0  0  0  0  0  0  0  0  0  0  # atno 8010 bound_to 7997
  139.8875  143.6763  152.2617 H   0  0  0  0  0  0  0  0  0  0  0  0  # atno 10167 bound_to 10162
  156.9674  131.0079  151.2913 H   0  0  0  0  0  0  0  0  0  0  0  0  # atno 10718 bound_to 10713
  154.8749  135.3825  154.4271 H   0  0  0  0  0  0  0  0  0  0  0  0  # atno 10763 bound_to 10752
  153.4969  135.7030  153.5858 H   0  0  0  0  0  0  0  0  0  0  0  0  # atno 10764 bound_to 10752
  153.4207  135.3902  155.2076 H   0  0  0  0  0  0  0  0  0  0  0  0  # atno 10765 bound_to 10752
  140.0889  134.5236  155.8871 H   0  0  0  0  0  0  0  0  0  0  0  0  # atno 11005 bound_to 11000
  144.8110  139.5962  143.7029 LP  0  0  0  0  0  0  0  0  0  0  0  0  # atno 17320 bound_to 7965
  146.2546  139.6275  142.9403 LP  0  0  0  0  0  0  0  0  0  0  0  0  # atno 17321 bound_to 7965
  139.7140  144.7615  151.1065 LP  0  0  0  0  0  0  0  0  0  0  0  0  # atno 17342 bound_to 10162
  140.7733  143.5294  150.9442 LP  0  0  0  0  0  0  0  0  0  0  0  0  # atno 17343 bound_to 10162
  157.5616  130.8250  149.8273 LP  0  0  0  0  0  0  0  0  0  0  0  0  # atno 17370 bound_to 10713
  156.0297  130.3768  150.1723 LP  0  0  0  0  0  0  0  0  0  0  0  0  # atno 17371 bound_to 10713
  141.2071  133.6661  156.6287 LP  0  0  0  0  0  0  0  0  0  0  0  0  # atno 17394 bound_to 11000
  140.3380  134.7873  157.4376 LP  0  0  0  0  0  0  0  0  0  0  0  0  # atno 17395 bound_to 11000

$$$$
