AV-unprocessed.smi:255|AV-procd|sdf|1951|dock5
  -GOLD-   2262021 93D 1   1.00000     0.00000
 Structure written by MMmdl.
 44 47  0  0  0  0  0  0  0  0  1 V2000
  153.6928  139.4993  158.7724 O   0  0  0  0  0  0  0  0  0  0  0  0
  153.0452  140.3478  159.6971 C   0  0  0  0  0  0  0  0  0  0  0  0
  152.6767  141.6909  159.0367 C   0  0  2  0  0  0  0  0  0  0  0  0
  152.6484  142.8537  160.0297 C   0  0  0  0  0  0  0  0  0  0  0  0
  151.8155  143.8958  159.2903 C   0  0  1  0  0  0  0  0  0  0  0  0
  152.5939  144.5700  158.4424 F   0  0  0  0  0  0  0  0  0  0  0  0
  150.8086  143.0572  158.4951 C   0  0  0  0  0  0  0  0  0  0  0  0
  151.3376  141.6938  158.4521 N   0  0  0  0  0  0  0  0  0  0  0  0
  151.2456  141.0514  157.2654 C   0  0  0  0  0  0  0  0  0  0  0  0
  152.2403  140.2190  156.8580 N   0  0  0  0  0  0  0  0  0  0  0  0
  152.1330  139.5707  155.6942 C   0  0  0  0  0  0  0  0  0  0  0  0
  151.1355  139.6052  154.8076 N   0  0  0  0  0  0  0  0  0  0  0  0
  150.1321  140.4316  155.2215 C   0  0  0  0  0  0  0  0  0  0  0  0
  150.1098  141.1893  156.4252 C   0  0  0  0  0  0  0  0  0  0  0  0
  148.9310  141.9194  156.5092 N   0  0  0  0  0  0  0  0  0  0  0  0
  148.2897  141.6079  155.4158 C   0  0  0  0  0  0  0  0  0  0  0  0
  148.9343  140.7149  154.5888 N   0  0  0  0  0  0  0  0  0  0  0  0
  148.4491  140.1968  153.3189 C   0  0  0  0  0  0  0  0  0  0  0  0
  147.1259  139.4052  153.4411 C   0  0  1  0  0  0  0  0  0  0  0  0
  146.0678  140.3085  153.7089 O   0  0  0  0  0  0  0  0  0  0  0  0
  146.7654  138.5952  152.1979 C   0  0  0  0  0  0  0  0  0  0  0  0
  146.0627  137.3751  152.7764 C   0  0  0  0  0  0  0  0  0  0  0  0
  146.8312  137.1025  153.9351 O   0  0  0  0  0  0  0  0  0  0  0  0
  147.1531  138.3417  154.5577 C   0  0  0  0  0  0  0  0  0  0  0  0
  153.4111  141.9316  158.2651 H   0  0  0  0  0  0  0  0  0  0  0  0
  151.3440  144.6229  159.9516 H   0  0  0  0  0  0  0  0  0  0  0  0
  153.2824  138.6489  158.8069 H   0  0  0  0  0  0  0  0  0  0  0  0
  152.1709  139.8552  160.1238 H   0  0  0  0  0  0  0  0  0  0  0  0
  153.7465  140.5153  160.5149 H   0  0  0  0  0  0  0  0  0  0  0  0
  152.1363  142.5562  160.9462 H   0  0  0  0  0  0  0  0  0  0  0  0
  153.6432  143.2109  160.2978 H   0  0  0  0  0  0  0  0  0  0  0  0
  149.8576  143.0212  159.0271 H   0  0  0  0  0  0  0  0  0  0  0  0
  150.6093  143.4918  157.5147 H   0  0  0  0  0  0  0  0  0  0  0  0
  152.9640  138.9304  155.4379 H   0  0  0  0  0  0  0  0  0  0  0  0
  147.3197  142.0221  155.1830 H   0  0  0  0  0  0  0  0  0  0  0  0
  148.3177  141.0409  152.6403 H   0  0  0  0  0  0  0  0  0  0  0  0
  149.2272  139.5712  152.8796 H   0  0  0  0  0  0  0  0  0  0  0  0
  145.4601  140.2828  152.9858 H   0  0  0  0  0  0  0  0  0  0  0  0
  146.1575  139.1416  151.4752 H   0  0  0  0  0  0  0  0  0  0  0  0
  147.6704  138.2647  151.6869 H   0  0  0  0  0  0  0  0  0  0  0  0
  145.0351  137.6083  153.0597 H   0  0  0  0  0  0  0  0  0  0  0  0
  146.0508  136.5279  152.0906 H   0  0  0  0  0  0  0  0  0  0  0  0
  148.1296  138.2625  155.0364 H   0  0  0  0  0  0  0  0  0  0  0  0
  146.4231  138.5512  155.3415 H   0  0  0  0  0  0  0  0  0  0  0  0
  1  2  1  0  0  0  0
  1 27  1  0  0  0  0
  2  3  1  0  0  0  0
  2 28  1  0  0  0  0
  2 29  1  0  0  0  0
  3 25  1  0  0  0  0
  3  8  1  0  0  0  0
  3  4  1  0  0  0  0
  4  5  1  0  0  0  0
  4 30  1  0  0  0  0
  4 31  1  0  0  0  0
  5 26  1  0  0  0  0
  5  6  1  0  0  0  0
  5  7  1  0  0  0  0
  7  8  1  0  0  0  0
  7 32  1  0  0  0  0
  7 33  1  0  0  0  0
  8  9  1  0  0  0  0
  9 14  1  0  0  0  0
  9 10  2  0  0  0  0
 10 11  1  0  0  0  0
 11 12  2  0  0  0  0
 11 34  1  0  0  0  0
 12 13  1  0  0  0  0
 13 17  1  0  0  0  0
 13 14  2  0  0  0  0
 14 15  1  0  0  0  0
 15 16  2  0  0  0  0
 16 17  1  0  0  0  0
 16 35  1  0  0  0  0
 17 18  1  0  0  0  0
 18 19  1  0  0  0  0
 18 36  1  0  0  0  0
 18 37  1  0  0  0  0
 19 24  1  0  0  0  0
 19 20  1  0  0  0  0
 19 21  1  0  0  0  0
 20 38  1  0  0  0  0
 21 22  1  0  0  0  0
 21 39  1  0  0  0  0
 21 40  1  0  0  0  0
 22 23  1  0  0  0  0
 22 41  1  0  0  0  0
 22 42  1  0  0  0  0
 23 24  1  0  0  0  0
 24 43  1  0  0  0  0
 24 44  1  0  0  0  0
M  END
> <s_m_source_file>
AV-unprocessed.smi

> <i_m_source_file_index>
255

> <i_lp_mmshare_version>
43012

> <i_f3d_flags>
0

> <s_epik_input>
W09IXVtDSDJdW0NAQEhdMVtDSDJdW0NASF0oRilbQ0gyXU4xYyhuW2NIXW4yKWMoYzIzKW5bY0hdbjNbQ0gyXVtDQEBdNChbT0hdKVtDSDJdW0NIMl1PW0NIMl00

> <s_epik_cmdline>
J2VwaWtfcHl0aG9uJywgJy1waCcsICc3LjAnLCAnLXRuJywgJzgnLCAnLW1hJywgJzIwMCcsICctbWV0YWxfYmluZGluZycsICctaW1hZScsICc8aW5maWxlLm1hZT4nLCAnLW9tYWUnLCAnPG91dGZpbGUubWFlPic=

> <r_lp_tautomer_probability>
1

> <r_epik_Ionization_Penalty>
0.0058098

> <r_epik_Ionization_Penalty_Charging>
0

> <r_epik_Ionization_Penalty_Neutral>
0.0058098

> <r_epik_State_Penalty>
0.00411166

> <r_epik_Charging_Adjusted_Penalty>
0.00411166

> <i_epik_Tot_Q>
0

> <i_epik_Tot_abs_Q>
0

> <r_epik_Metal_State_Penalty>
-0

> <b_epik_Metal_Only>
0

> <s_lp_Force_Field>
OPLS_2005

> <r_lp_Energy>
53.4607

> <b_lp_Chiralities_Consistent>
1

> <s_lp_Variant>
AV-unprocessed.smi:255-3

> <Gold.Version>
5.8.1

> <Gold.Id.Protein>
6NUR|6NUR_protein|mol2

> <Gold.PLP.Fitness>
50.5908

> <Gold.PLP.PLP>
-43.4545

> <Gold.PLP.part.hbond>
-3.8217

> <Gold.PLP.part.metal>
0.0000

> <Gold.PLP.part.buried>
0.3537

> <Gold.PLP.part.nonpolar>
-42.3340

> <Gold.PLP.part.repulsive>
2.0871

> <Gold.PLP.ligand.clash>
0.0000

> <Gold.PLP.ligand.torsion>
0.9778

> <Gold.PLP.Chemscore.Hbond>
3.0000

> <Gold.PLP.Chemscore.CHOScore>
0.0000

> <Gold.PLP.Chemscore.Metal>
0.0000

> <Gold.Chemscore.Hbonds>
donor molecule, donor type, donor heavy atom, donor atom, acceptor molecule, acceptor atom, score
      L1  H    20    38       P1 10175  0.91
      P1  H  7989  7998       L1    12  0.50
      P1  H  7997  8008       L1     1  1.00

> <Gold.PLP.Chemscore.Internal.Correction>
0.0920

> <Gold.Rescore>
     Score         DG    S(hbond)    S(metal)    S(lipo)     H(rot)  DE(clash)    DE(int)     intcor
      9.45     -13.05       2.08        0.00      77.96       3.33       0.38       3.21       ----

> <Gold.Chemscore.Fitness>
9.4508

> <Gold.Chemscore.DG>
-13.0467

> <Gold.Chemscore.ZeroCoef>
-5.4800

> <Gold.Chemscore.Hbond>
2.0849

> <Gold.Chemscore.Metal>
0.0000

> <Gold.Chemscore.Lipo>
77.9595

> <Gold.Chemscore.Internal_Hbond>
0.0000

> <Gold.Chemscore.DEClash>
0.3845

> <Gold.Chemscore.DEInternal>
3.2114

> <Gold.Chemscore.Rot>
3.3273

> <Gold.Chemscore.Internal.Correction>
   9.000000E+99

> <Gold.Chemscore.Hbonds>
donor molecule, donor type, donor heavy atom, donor atom, acceptor molecule, acceptor atom, score
      L1  H    20    38       P1 10175  0.87
      P1  H  7989  7998       L1    12  0.01
      P1  H  7997  8008       L1     1  0.94

> <Gold.Chemscore.Hbond.Weighted>
-6.9634

> <Gold.Chemscore.Metal.Weighted>
-0.0000

> <Gold.Chemscore.Lipo.Weighted>
-9.1213

> <Gold.Chemscore.Internal_Hbond.Weighted>
0.0000

> <Gold.Chemscore.DEClash.Weighted>
0.3845

> <Gold.Chemscore.DEInternal.Weighted>
3.2114

> <Gold.Chemscore.Rot.Weighted>
8.5179

> <Gold.Chemscore.Internal.Correction.Weighted>
   9.000000E+99

> <Gold.Protein.RotatedTorsions>
[ 6907 6896 6895 6894 ] final   93.73 input  -60.11 | X-H torsion
[ 7974 7965 7964 7962 ] final   55.92 input  175.53 | X-H torsion
[ 8008 7997 7996 7995 ] final -110.14 input   59.86 | X-H torsion
[ 10167 10162 10161 10158 ] final  -55.26 input  -65.29 | X-H torsion
[ 10718 10713 10712 10709 ] final  -88.98 input   66.30 | X-H torsion
[ 10763 10752 10751 10750 ] final  134.77 input  -60.55 | X-H torsion
[ 11005 11000 10999 10996 ] final  171.54 input  -57.11 | X-H torsion

> <Gold.Protein.ActiveResidues>
 VAL166  LYS551  ARG553  GLY616  TRP617  ASP618  TYR619  PRO620  LYS621  CYS622 
 ASP623  PHE694  ASN695  SER759  ASP760  ASP761  ALA762  ILE779  LEU786  VAL792 
 PHE793  MET794  SER795  GLU796  ALA797  LYS798  CYS799  TRP800  GLU811  SER814 

> <Gold.Protein.RotatedAtoms>
  152.5452  134.1303  159.8436 H   0  0  0  0  0  0  0  0  0  0  0  0  # atno 6907 bound_to 6896
  151.1350  133.5003  159.2605 H   0  0  0  0  0  0  0  0  0  0  0  0  # atno 6908 bound_to 6896
  151.1635  135.0294  159.8775 H   0  0  0  0  0  0  0  0  0  0  0  0  # atno 6909 bound_to 6896
  145.9452  139.3923  143.0339 H   0  0  0  0  0  0  0  0  0  0  0  0  # atno 7974 bound_to 7965
  154.9699  140.0398  157.2230 H   0  0  0  0  0  0  0  0  0  0  0  0  # atno 8008 bound_to 7997
  154.7810  140.2819  155.6041 H   0  0  0  0  0  0  0  0  0  0  0  0  # atno 8009 bound_to 7997
  156.2936  140.2591  156.2636 H   0  0  0  0  0  0  0  0  0  0  0  0  # atno 8010 bound_to 7997
  140.6385  143.2494  151.5054 H   0  0  0  0  0  0  0  0  0  0  0  0  # atno 10167 bound_to 10162
  155.9984  130.4855  150.5102 H   0  0  0  0  0  0  0  0  0  0  0  0  # atno 10718 bound_to 10713
  153.8291  135.3106  155.3417 H   0  0  0  0  0  0  0  0  0  0  0  0  # atno 10763 bound_to 10752
  154.7981  135.4743  154.0211 H   0  0  0  0  0  0  0  0  0  0  0  0  # atno 10764 bound_to 10752
  153.1645  135.6867  153.8785 H   0  0  0  0  0  0  0  0  0  0  0  0  # atno 10765 bound_to 10752
  140.3201  134.7445  157.4057 H   0  0  0  0  0  0  0  0  0  0  0  0  # atno 11005 bound_to 11000
  145.8245  140.9662  143.0881 LP  0  0  0  0  0  0  0  0  0  0  0  0  # atno 17320 bound_to 7965
  144.6786  140.0084  143.7484 LP  0  0  0  0  0  0  0  0  0  0  0  0  # atno 17321 bound_to 7965
  139.5594  144.2194  152.1666 LP  0  0  0  0  0  0  0  0  0  0  0  0  # atno 17342 bound_to 10162
  140.1457  144.5161  150.6717 LP  0  0  0  0  0  0  0  0  0  0  0  0  # atno 17343 bound_to 10162
  157.3076  131.0657  151.2024 LP  0  0  0  0  0  0  0  0  0  0  0  0  # atno 17370 bound_to 10713
  157.2982  130.6829  149.6150 LP  0  0  0  0  0  0  0  0  0  0  0  0  # atno 17371 bound_to 10713
  140.0949  134.5550  155.8408 LP  0  0  0  0  0  0  0  0  0  0  0  0  # atno 17394 bound_to 11000
  141.2088  133.6678  156.6399 LP  0  0  0  0  0  0  0  0  0  0  0  0  # atno 17395 bound_to 11000

$$$$
