#       Name:                AV-unprocessed.smi:628
#       Creating user name   scv26
#       Creation time:       Fri Mar 27 00:03:52 2020


#       File generated by GOLD software.
#

@<TRIPOS>MOLECULE
AV-unprocessed.smi:628
    38    39     1
SMALL
NO_CHARGES


@<TRIPOS>ATOM
      1 ****        -0.4378   1.2308  -0.4267 O.2            1 S1                 0.0000
      2 ****         0.2197   0.1887  -0.4334 C.2            1 S1                 0.0000
      3 ****         1.7515   0.2099  -0.3548 C.3            1 S1                 0.0000
      4 ****         2.3013   1.5552  -0.3244 N.pl3          1 S1                 0.0000
      5 ****         2.5159   2.3632   0.7766 C.2            1 S1                 0.0000
      6 ****         3.0420   3.5166   0.2786 C.2            1 S1                 0.0000
      7 ****         3.4550   4.7216   1.0628 C.2            1 S1                 0.0000
      8 ****         3.9127   5.7069   0.4433 O.co2          1 S1                 0.0000
      9 ****         3.3275   4.6949   2.3069 O.co2          1 S1                -1.0000
     10 ****         3.1216   3.3516  -1.1285 C.2            1 S1                 0.0000
     11 ****         2.6724   2.1562  -1.4858 N.2            1 S1                 0.0000
     12 ****        -0.3404  -1.0285  -0.5030 N.am           1 S1                 0.0000
     13 ****        -1.7748  -1.2907  -0.5887 C.3            1 S1                 0.0000
     14 ****        -2.4569  -1.1818   0.7903 C.3            1 S1                 0.0000
     15 ****        -2.8115  -2.6114   1.1988 C.3            1 S1                 0.0000
     16 ****        -3.0715  -3.3226  -0.1251 C.3            1 S1                 0.0000
     17 ****        -2.0405  -2.7254  -1.0847 C.3            1 S1                 0.0000
     18 ****         2.0725  -0.3149   0.5459 H              1 S1                 0.0000
     19 ****         2.1700  -0.3280  -1.2069 H              1 S1                 0.0000
     20 ****         2.2818   2.0560   1.7851 H              1 S1                 0.0000
     21 ****         3.4818   4.0368  -1.8817 H              1 S1                 0.0000
     22 ****         0.2711  -1.8320  -0.5013 H              1 S1                 0.0000
     23 ****        -2.2331  -0.5782  -1.2776 H              1 S1                 0.0000
     24 ****        -1.8451  -0.6824   1.5427 H              1 S1                 0.0000
     25 ****        -3.3741  -0.6001   0.6893 H              1 S1                 0.0000
     26 ****        -1.9609  -3.0721   1.7027 H              1 S1                 0.0000
     27 ****        -3.6651  -2.6558   1.8756 H              1 S1                 0.0000
     28 ****        -2.9907  -4.4068  -0.0432 H              1 S1                 0.0000
     29 ****        -4.0781  -3.0891  -0.4745 H              1 S1                 0.0000
     30 ****        -2.3872  -2.7456  -2.1184 H              1 S1                 0.0000
     31 ****        -1.1289  -3.3240  -1.0408 H              1 S1                 0.0000
     32 ****         0.0265   2.1146  -0.3691 LP             1 S1                 0.0000
     33 ****        -1.4357   1.1928  -0.4788 LP             1 S1                 0.0000
     34 ****         4.1972   6.5243   0.9442 LP             1 S1                 0.0000
     35 ****         3.9941   5.6774  -0.5529 LP             1 S1                 0.0000
     36 ****         3.5974   5.4871   2.8543 LP             1 S1                 0.0000
     37 ****         2.9556   3.8814   2.7541 LP             1 S1                 0.0000
     38 ****         2.6183   1.7784  -2.4101 LP             1 S1                 0.0000
@<TRIPOS>BOND
    1    1    2 2     
    2    2    3 1     
    3    2   12 am    
    4    3    4 1     
    5    3   18 1     
    6    3   19 1     
    7    4   11 1     
    8    4    5 1     
    9    5    6 2     
   10    5   20 1     
   11    6    7 1     
   12    6   10 1     
   13    7    8 ar    
   14    7    9 ar    
   15   10   11 2     
   16   10   21 1     
   17   12   13 1     
   18   12   22 1     
   19   13   17 1     
   20   13   14 1     
   21   13   23 1     
   22   14   15 1     
   23   14   24 1     
   24   14   25 1     
   25   15   16 1     
   26   15   26 1     
   27   15   27 1     
   28   16   17 1     
   29   16   28 1     
   30   16   29 1     
   31   17   30 1     
   32   17   31 1     
   33    1   32 1     
   34    1   33 1     
   35    8   34 1     
   36    8   35 1     
   37    9   36 1     
   38    9   37 1     
   39   11   38 1     
@<TRIPOS>SUBSTRUCTURE
      1 S1             1
@<TRIPOS>SET
LONE_PAIRS      STATIC     ATOMS    <user>   **** ""
7 32 33 34 35 36 37 38
DONOR_HYDROGENS      STATIC     ATOMS    <user>   **** ""
1 22
ATOM$BLUE        STATIC     ATOMS    COLORGROUP SYSTEM
7 32 33 34 35 36 37 38
ATOM$RED        STATIC     ATOMS    COLORGROUP SYSTEM
1 22
