AV-unprocessed.smi:2313|AV-procd|sdf|9265|dock5
  -GOLD-   2272012493D 1   1.00000     0.00000
 Structure written by MMmdl.
 37 38  0  0  0  0  0  0  0  0  1 V2000
  153.7828  142.2616  162.5566 C   0  0  0  0  0  0  0  0  0  0  0  0
  153.1533  142.4232  161.1855 C   0  0  0  0  0  0  0  0  0  0  0  0
  152.3674  143.6012  160.8823 C   0  0  0  0  0  0  0  0  0  0  0  0
  151.8154  143.7276  159.6663 C   0  0  0  0  0  0  0  0  0  0  0  0
  151.9777  142.7482  158.6708 N   0  0  0  0  0  0  0  0  0  0  0  0
  151.3192  142.9872  157.3756 C   0  0  0  0  0  0  0  0  0  0  0  0
  150.3607  141.8543  156.9867 C   0  0  0  0  0  0  0  0  0  0  0  0
  150.2871  140.8407  157.6810 O   0  0  0  0  0  0  0  0  0  0  0  0
  149.6404  142.0521  155.8696 N   0  0  0  0  0  0  0  0  0  0  0  0
  148.6941  141.1365  155.2198 C   0  0  2  0  0  0  0  0  0  0  0  0
  147.9714  141.9645  154.1447 C   0  0  0  0  0  0  0  0  0  0  0  0
  147.6738  140.6398  156.1640 C   0  0  0  0  0  0  0  0  0  0  0  0
  146.8737  140.2478  156.9028 N   0  0  0  0  0  0  0  0  0  0  0  0
  149.3332  139.9190  154.5463 C   0  0  0  0  0  0  0  0  0  0  0  0
  149.6431  138.6186  155.2564 C   0  0  0  0  0  0  0  0  0  0  0  0
  150.7696  139.5172  154.7980 C   0  0  0  0  0  0  0  0  0  0  0  0
  152.7072  141.6116  158.8856 C   0  0  0  0  0  0  0  0  0  0  0  0
  152.8467  140.7571  158.0081 O   0  0  0  0  0  0  0  0  0  0  0  0
  153.3052  141.4816  160.2238 C   0  0  0  0  0  0  0  0  0  0  0  0
  154.0601  140.2914  160.4491 C   0  0  0  0  0  0  0  0  0  0  0  0
  154.6639  139.3244  160.6500 N   0  0  0  0  0  0  0  0  0  0  0  0
  153.5588  143.1153  163.1968 H   0  0  0  0  0  0  0  0  0  0  0  0
  154.8666  142.1787  162.4715 H   0  0  0  0  0  0  0  0  0  0  0  0
  153.4050  141.3636  163.0461 H   0  0  0  0  0  0  0  0  0  0  0  0
  152.2197  144.3705  161.6259 H   0  0  0  0  0  0  0  0  0  0  0  0
  151.2127  144.5785  159.3837 H   0  0  0  0  0  0  0  0  0  0  0  0
  150.7525  143.9190  157.3905 H   0  0  0  0  0  0  0  0  0  0  0  0
  152.0740  143.1223  156.5983 H   0  0  0  0  0  0  0  0  0  0  0  0
  149.7858  142.9300  155.3926 H   0  0  0  0  0  0  0  0  0  0  0  0
  147.2200  141.3694  153.6244 H   0  0  0  0  0  0  0  0  0  0  0  0
  148.6693  142.3403  153.3953 H   0  0  0  0  0  0  0  0  0  0  0  0
  147.4599  142.8234  154.5814 H   0  0  0  0  0  0  0  0  0  0  0  0
  148.9929  139.7920  153.5199 H   0  0  0  0  0  0  0  0  0  0  0  0
  149.4779  138.5418  156.3271 H   0  0  0  0  0  0  0  0  0  0  0  0
  149.4817  137.6971  154.7010 H   0  0  0  0  0  0  0  0  0  0  0  0
  151.3556  139.1917  153.9410 H   0  0  0  0  0  0  0  0  0  0  0  0
  151.3286  140.0467  155.5668 H   0  0  0  0  0  0  0  0  0  0  0  0
  1  2  1  0  0  0  0
  1 22  1  0  0  0  0
  1 23  1  0  0  0  0
  1 24  1  0  0  0  0
  2 19  2  0  0  0  0
  2  3  1  0  0  0  0
  3  4  2  0  0  0  0
  3 25  1  0  0  0  0
  4  5  1  0  0  0  0
  4 26  1  0  0  0  0
  5  6  1  0  0  0  0
  5 17  1  0  0  0  0
  6  7  1  0  0  0  0
  6 27  1  0  0  0  0
  6 28  1  0  0  0  0
  7  8  2  0  0  0  0
  7  9  1  0  0  0  0
  9 10  1  0  0  0  0
  9 29  1  0  0  0  0
 10 11  1  0  0  0  0
 10 12  1  0  0  0  0
 10 14  1  0  0  0  0
 11 30  1  0  0  0  0
 11 31  1  0  0  0  0
 11 32  1  0  0  0  0
 12 13  3  0  0  0  0
 14 16  1  0  0  0  0
 14 15  1  0  0  0  0
 14 33  1  0  0  0  0
 15 16  1  0  0  0  0
 15 34  1  0  0  0  0
 15 35  1  0  0  0  0
 16 36  1  0  0  0  0
 16 37  1  0  0  0  0
 17 18  2  0  0  0  0
 17 19  1  0  0  0  0
 19 20  1  0  0  0  0
 20 21  3  0  0  0  0
M  END
> <s_m_source_file>
AV-unprocessed.smi

> <i_m_source_file_index>
2313

> <i_lp_mmshare_version>
43012

> <i_f3d_flags>
0

> <s_epik_input>
W0NIM11jMVtjSF1bY0hdbihjKD1PKWMxQyNOKVtDSDJdQyg9TylbTkhdW0NAQF0oW0NIM10pKEMjTilbQ0hdMltDSDJdW0NIMl0y

> <s_epik_cmdline>
J2VwaWtfcHl0aG9uJywgJy1waCcsICc3LjAnLCAnLXRuJywgJzgnLCAnLW1hJywgJzIwMCcsICctbWV0YWxfYmluZGluZycsICctaW1hZScsICc8aW5maWxlLm1hZT4nLCAnLW9tYWUnLCAnPG91dGZpbGUubWFlPic=

> <r_lp_tautomer_probability>
1

> <r_epik_Ionization_Penalty>
4.65501e-07

> <r_epik_Ionization_Penalty_Charging>
2.39086e-10

> <r_epik_Ionization_Penalty_Neutral>
4.65262e-07

> <r_epik_State_Penalty>
-0

> <r_epik_Charging_Adjusted_Penalty>
2.39086e-10

> <i_epik_Tot_Q>
0

> <i_epik_Tot_abs_Q>
0

> <r_epik_Metal_State_Penalty>
-0

> <b_epik_Metal_Only>
0

> <s_lp_Force_Field>
OPLS_2005

> <r_lp_Energy>
23.1169

> <b_lp_Chiralities_Consistent>
1

> <s_lp_Variant>
AV-unprocessed.smi:2313-2

> <Gold.Version>
5.8.1

> <Gold.Id.Protein>
6NUR|6NUR_protein|mol2

> <Gold.PLP.Fitness>
45.5817

> <Gold.PLP.PLP>
-43.9535

> <Gold.PLP.part.hbond>
-2.0000

> <Gold.PLP.part.metal>
0.0000

> <Gold.PLP.part.buried>
-0.7218

> <Gold.PLP.part.nonpolar>
-38.8437

> <Gold.PLP.part.repulsive>
0.1448

> <Gold.PLP.ligand.clash>
0.0000

> <Gold.PLP.ligand.torsion>
1.6001

> <Gold.PLP.Chemscore.Hbond>
1.1111

> <Gold.PLP.Chemscore.CHOScore>
0.0000

> <Gold.PLP.Chemscore.Metal>
0.0000

> <Gold.Chemscore.Hbonds>
donor molecule, donor type, donor heavy atom, donor atom, acceptor molecule, acceptor atom, score
      L1  H     9    29       P1  8028  0.61
      P1  H  7997  8010       L1    18  0.57

> <Gold.PLP.Chemscore.Internal.Correction>
1.4951

> <Gold.Rescore>
     Score         DG    S(hbond)    S(metal)    S(lipo)     H(rot)  DE(clash)    DE(int)     intcor
     10.85     -16.26       1.32        0.00      93.62       1.80       0.08       5.33       ----

> <Gold.Chemscore.Fitness>
10.8521

> <Gold.Chemscore.DG>
-16.2613

> <Gold.Chemscore.ZeroCoef>
-5.4800

> <Gold.Chemscore.Hbond>
1.3246

> <Gold.Chemscore.Metal>
0.0000

> <Gold.Chemscore.Lipo>
93.6195

> <Gold.Chemscore.Internal_Hbond>
0.0000

> <Gold.Chemscore.DEClash>
0.0756

> <Gold.Chemscore.DEInternal>
5.3335

> <Gold.Chemscore.Rot>
1.7955

> <Gold.Chemscore.Internal.Correction>
   9.000000E+99

> <Gold.Chemscore.Hbonds>
donor molecule, donor type, donor heavy atom, donor atom, acceptor molecule, acceptor atom, score
      L1  H     9    29       P1  8028  0.59
      P1  H  7997  8010       L1    18  0.56

> <Gold.Chemscore.Hbond.Weighted>
-4.4243

> <Gold.Chemscore.Metal.Weighted>
-0.0000

> <Gold.Chemscore.Lipo.Weighted>
-10.9535

> <Gold.Chemscore.Internal_Hbond.Weighted>
0.0000

> <Gold.Chemscore.DEClash.Weighted>
0.0756

> <Gold.Chemscore.DEInternal.Weighted>
5.3335

> <Gold.Chemscore.Rot.Weighted>
4.5965

> <Gold.Chemscore.Internal.Correction.Weighted>
   9.000000E+99

> <Gold.Protein.RotatedTorsions>
[ 6907 6896 6895 6894 ] final  -20.47 input  -60.11 | X-H torsion
[ 7974 7965 7964 7962 ] final -103.42 input  175.53 | X-H torsion
[ 8008 7997 7996 7995 ] final   48.03 input   59.86 | X-H torsion
[ 10167 10162 10161 10158 ] final  -83.26 input  -65.29 | X-H torsion
[ 10718 10713 10712 10709 ] final  -39.55 input   66.30 | X-H torsion
[ 10763 10752 10751 10750 ] final   78.31 input  -60.55 | X-H torsion
[ 11005 11000 10999 10996 ] final  -11.61 input  -57.11 | X-H torsion

> <Gold.Protein.ActiveResidues>
 VAL166  LYS551  ARG553  GLY616  TRP617  ASP618  TYR619  PRO620  LYS621  CYS622 
 ASP623  PHE694  ASN695  SER759  ASP760  ASP761  ALA762  ILE779  LEU786  VAL792 
 PHE793  MET794  SER795  GLU796  ALA797  LYS798  CYS799  TRP800  GLU811  SER814 

> <Gold.Protein.RotatedAtoms>
  151.2476  135.0611  159.9049 H   0  0  0  0  0  0  0  0  0  0  0  0  # atno 6907 bound_to 6896
  152.5384  134.0366  159.8059 H   0  0  0  0  0  0  0  0  0  0  0  0  # atno 6908 bound_to 6896
  151.0570  133.5527  159.2669 H   0  0  0  0  0  0  0  0  0  0  0  0  # atno 6909 bound_to 6896
  145.2562  140.9254  143.3067 H   0  0  0  0  0  0  0  0  0  0  0  0  # atno 7974 bound_to 7965
  155.3788  140.3427  155.4246 H   0  0  0  0  0  0  0  0  0  0  0  0  # atno 8008 bound_to 7997
  156.1622  140.1604  156.8627 H   0  0  0  0  0  0  0  0  0  0  0  0  # atno 8009 bound_to 7997
  154.5150  140.0780  156.8046 H   0  0  0  0  0  0  0  0  0  0  0  0  # atno 8010 bound_to 7997
  140.4243  143.2572  151.8847 H   0  0  0  0  0  0  0  0  0  0  0  0  # atno 10167 bound_to 10162
  156.2912  130.4228  149.8237 H   0  0  0  0  0  0  0  0  0  0  0  0  # atno 10718 bound_to 10713
  153.0864  135.4882  154.8605 H   0  0  0  0  0  0  0  0  0  0  0  0  # atno 10763 bound_to 10752
  154.7216  135.3040  154.9041 H   0  0  0  0  0  0  0  0  0  0  0  0  # atno 10764 bound_to 10752
  153.9703  135.6802  153.4800 H   0  0  0  0  0  0  0  0  0  0  0  0  # atno 10765 bound_to 10752
  140.7570  133.8545  155.9093 H   0  0  0  0  0  0  0  0  0  0  0  0  # atno 11005 bound_to 11000
  144.9459  139.4136  143.6426 LP  0  0  0  0  0  0  0  0  0  0  0  0  # atno 17320 bound_to 7965
  146.3288  139.8442  142.8885 LP  0  0  0  0  0  0  0  0  0  0  0  0  # atno 17321 bound_to 7965
  139.4783  144.5404  151.8537 LP  0  0  0  0  0  0  0  0  0  0  0  0  # atno 17342 bound_to 10162
  140.4499  144.1870  150.5896 LP  0  0  0  0  0  0  0  0  0  0  0  0  # atno 17343 bound_to 10162
  156.5649  130.8400  151.3340 LP  0  0  0  0  0  0  0  0  0  0  0  0  # atno 17370 bound_to 10713
  157.7343  130.9743  150.2020 LP  0  0  0  0  0  0  0  0  0  0  0  0  # atno 17371 bound_to 10713
  140.9698  134.1546  157.4586 LP  0  0  0  0  0  0  0  0  0  0  0  0  # atno 17394 bound_to 11000
  139.8777  134.9974  156.5847 LP  0  0  0  0  0  0  0  0  0  0  0  0  # atno 17395 bound_to 11000

$$$$
