AV-unprocessed.smi:1013|AV-procd|sdf|4426|dock6
  -GOLD-   22720 2383D 1   1.00000     0.00000
 Structure written by MMmdl.
 30 31  0  0  0  0  0  0  0  0  3 V2000
  151.9893  137.4268  154.7949 O   0  0  0  0  0  0  0  0  0  0  0  0
  152.0546  138.6705  154.9063 C   0  0  0  0  0  0  0  0  0  0  0  0
  153.0960  139.3528  154.7734 O   0  5  0  0  0  0  0  0  0  0  0  0
  150.7466  139.4092  155.2470 C   0  0  2  0  0  0  0  0  0  0  0  0
  150.5126  139.4492  156.7745 C   0  0  0  0  0  0  0  0  0  0  0  0
  150.7557  140.7634  157.3453 N   0  0  0  0  0  0  0  0  0  0  0  0
  150.0944  141.9451  157.0894 C   0  0  0  0  0  0  0  0  0  0  0  0
  150.6759  142.9102  157.8602 C   0  0  0  0  0  0  0  0  0  0  0  0
  151.6980  142.2166  158.5714 C   0  0  0  0  0  0  0  0  0  0  0  0
  152.6756  142.7668  159.5762 C   0  0  0  0  0  0  0  0  0  0  0  0
  153.5086  141.8085  159.9824 F   0  0  0  0  0  0  0  0  0  0  0  0
  153.3889  143.7488  159.0254 F   0  0  0  0  0  0  0  0  0  0  0  0
  152.0222  143.2444  160.6351 F   0  0  0  0  0  0  0  0  0  0  0  0
  151.7324  140.9274  158.2620 N   0  0  0  0  0  0  0  0  0  0  0  0
  149.6125  138.7295  154.5833 N   0  3  0  0  0  0  0  0  0  0  0  0
  148.3001  139.3760  154.7897 C   0  0  0  0  0  0  0  0  0  0  0  0
  147.5101  139.5713  153.5191 C   0  0  0  0  0  0  0  0  0  0  0  0
  148.2108  140.7474  154.1675 C   0  0  0  0  0  0  0  0  0  0  0  0
  150.7865  140.4350  154.8743 H   0  0  0  0  0  0  0  0  0  0  0  0
  149.4780  139.1848  156.9961 H   0  0  0  0  0  0  0  0  0  0  0  0
  151.1313  138.7108  157.2885 H   0  0  0  0  0  0  0  0  0  0  0  0
  149.2785  142.0021  156.3844 H   0  0  0  0  0  0  0  0  0  0  0  0
  150.4126  143.9563  157.9081 H   0  0  0  0  0  0  0  0  0  0  0  0
  149.8110  138.6900  153.5933 H   0  0  0  0  0  0  0  0  0  0  0  0
  147.8020  139.1775  155.7369 H   0  0  0  0  0  0  0  0  0  0  0  0
  147.9265  139.1843  152.5907 H   0  0  0  0  0  0  0  0  0  0  0  0
  146.4251  139.5339  153.5936 H   0  0  0  0  0  0  0  0  0  0  0  0
  147.5859  141.4855  154.6663 H   0  0  0  0  0  0  0  0  0  0  0  0
  149.0909  141.1463  153.6657 H   0  0  0  0  0  0  0  0  0  0  0  0
  149.5541  137.7881  154.9425 H   0  0  0  0  0  0  0  0  0  0  0  0
  1  2  2  0  0  0  0
  2  3  1  0  0  0  0
  2  4  1  0  0  0  0
  4  5  1  0  0  0  0
  4 15  1  0  0  0  0
  4 19  1  0  0  0  0
  5  6  1  0  0  0  0
  5 20  1  0  0  0  0
  5 21  1  0  0  0  0
  6 14  1  0  0  0  0
  6  7  1  0  0  0  0
  7  8  2  0  0  0  0
  7 22  1  0  0  0  0
  8  9  1  0  0  0  0
  8 23  1  0  0  0  0
  9 10  1  0  0  0  0
  9 14  2  0  0  0  0
 10 11  1  0  0  0  0
 10 12  1  0  0  0  0
 10 13  1  0  0  0  0
 15 16  1  0  0  0  0
 15 24  1  0  0  0  0
 15 30  1  0  0  0  0
 16 18  1  0  0  0  0
 16 17  1  0  0  0  0
 16 25  1  0  0  0  0
 17 18  1  0  0  0  0
 17 26  1  0  0  0  0
 17 27  1  0  0  0  0
 18 28  1  0  0  0  0
 18 29  1  0  0  0  0
M  CHG  1   3  -1
M  CHG  1  15   1
M  END
> <s_m_source_file>
AV-unprocessed.smi

> <i_m_source_file_index>
1013

> <i_lp_mmshare_version>
43012

> <i_f3d_flags>
0

> <s_epik_input>
W0NIMl0xW0NIMl1bQ0hdMVtOSF1bQ0BIXShDKD1PKVtPSF0pW0NIMl1uMltjSF1bY0hdYyhuMilDKEYpKEYpRg==

> <s_epik_cmdline>
J2VwaWtfcHl0aG9uJywgJy1waCcsICc3LjAnLCAnLXRuJywgJzgnLCAnLW1hJywgJzIwMCcsICctbWV0YWxfYmluZGluZycsICctaW1hZScsICc8aW5maWxlLm1hZT4nLCAnLW9tYWUnLCAnPG91dGZpbGUubWFlPic=

> <r_lp_tautomer_probability>
1

> <r_epik_Ionization_Penalty>
0.183175

> <r_epik_Ionization_Penalty_Charging>
0.183175

> <r_epik_Ionization_Penalty_Neutral>
3.57035e-11

> <r_epik_State_Penalty>
0.172705

> <r_epik_Charging_Adjusted_Penalty>
0.35588

> <i_epik_Tot_Q>
0

> <i_epik_Tot_abs_Q>
2

> <r_epik_Metal_State_Penalty>
0.172705

> <b_epik_Metal_Only>
0

> <s_lp_Force_Field>
OPLS_2005

> <r_lp_Energy>
11.6824

> <b_lp_Chiralities_Consistent>
1

> <s_lp_Variant>
AV-unprocessed.smi:1013-1

> <Gold.Version>
5.8.1

> <Gold.Id.Protein>
6NUR|6NUR_protein|mol2

> <Gold.PLP.Fitness>
45.3896

> <Gold.PLP.PLP>
-36.6497

> <Gold.PLP.part.hbond>
-3.0000

> <Gold.PLP.part.metal>
0.0000

> <Gold.PLP.part.buried>
-5.1057

> <Gold.PLP.part.nonpolar>
-29.4204

> <Gold.PLP.part.repulsive>
0.1788

> <Gold.PLP.ligand.clash>
0.0000

> <Gold.PLP.ligand.torsion>
1.7472

> <Gold.PLP.Chemscore.Hbond>
3.7022

> <Gold.PLP.Chemscore.CHOScore>
0.1520

> <Gold.PLP.Chemscore.Metal>
0.0000

> <Gold.Chemscore.Hbonds>
donor molecule, donor type, donor heavy atom, donor atom, acceptor molecule, acceptor atom, score
      P1  H  7997  8008       L1     3  2.00
      P1  H 10752 10763       L1     1  1.63
      L1  C     7    22       P1  8028  0.13

> <Gold.PLP.Chemscore.Internal.Correction>
0.6716

> <Gold.Rescore>
     Score         DG    S(hbond)    S(metal)    S(lipo)     H(rot)  DE(clash)    DE(int)     intcor
     10.72     -12.47       1.84        0.00      64.14       2.60       0.02       1.72       ----

> <Gold.Chemscore.Fitness>
10.7224

> <Gold.Chemscore.DG>
-12.4651

> <Gold.Chemscore.ZeroCoef>
-5.4800

> <Gold.Chemscore.Hbond>
1.8351

> <Gold.Chemscore.Metal>
0.0000

> <Gold.Chemscore.Lipo>
64.1406

> <Gold.Chemscore.Internal_Hbond>
0.0000

> <Gold.Chemscore.DEClash>
0.0221

> <Gold.Chemscore.DEInternal>
1.7207

> <Gold.Chemscore.Rot>
2.5970

> <Gold.Chemscore.Internal.Correction>
   9.000000E+99

> <Gold.Chemscore.Hbonds>
donor molecule, donor type, donor heavy atom, donor atom, acceptor molecule, acceptor atom, score
      P1  H  7997  8008       L1     3  0.99
      P1  H 10752 10763       L1     1  0.76

> <Gold.Chemscore.Hbond.Weighted>
-6.1291

> <Gold.Chemscore.Metal.Weighted>
-0.0000

> <Gold.Chemscore.Lipo.Weighted>
-7.5044

> <Gold.Chemscore.Internal_Hbond.Weighted>
0.0000

> <Gold.Chemscore.DEClash.Weighted>
0.0221

> <Gold.Chemscore.DEInternal.Weighted>
1.7207

> <Gold.Chemscore.Rot.Weighted>
6.6484

> <Gold.Chemscore.Internal.Correction.Weighted>
   9.000000E+99

> <Gold.Protein.RotatedTorsions>
[ 6907 6896 6895 6894 ] final -101.17 input  -60.11 | X-H torsion
[ 7974 7965 7964 7962 ] final -155.49 input  175.53 | X-H torsion
[ 8008 7997 7996 7995 ] final  -16.68 input   59.86 | X-H torsion
[ 10167 10162 10161 10158 ] final  122.08 input  -65.29 | X-H torsion
[ 10718 10713 10712 10709 ] final -123.78 input   66.30 | X-H torsion
[ 10763 10752 10751 10750 ] final   48.79 input  -60.55 | X-H torsion
[ 11005 11000 10999 10996 ] final  126.50 input  -57.11 | X-H torsion

> <Gold.Protein.ActiveResidues>
 VAL166  LYS551  ARG553  GLY616  TRP617  ASP618  TYR619  PRO620  LYS621  CYS622 
 ASP623  PHE694  ASN695  SER759  ASP760  ASP761  ALA762  ILE779  LEU786  VAL792 
 PHE793  MET794  SER795  GLU796  ALA797  LYS798  CYS799  TRP800  GLU811  SER814 

> <Gold.Protein.RotatedAtoms>
  150.7144  134.0775  159.3885 H   0  0  0  0  0  0  0  0  0  0  0  0  # atno 6907 bound_to 6896
  151.8759  135.0470  160.0493 H   0  0  0  0  0  0  0  0  0  0  0  0  # atno 6908 bound_to 6896
  152.2606  133.5259  159.5416 H   0  0  0  0  0  0  0  0  0  0  0  0  # atno 6909 bound_to 6896
  144.7638  140.4242  143.5957 H   0  0  0  0  0  0  0  0  0  0  0  0  # atno 7974 bound_to 7965
  154.5035  140.2163  155.9298 H   0  0  0  0  0  0  0  0  0  0  0  0  # atno 8008 bound_to 7997
  156.1464  140.3170  155.8544 H   0  0  0  0  0  0  0  0  0  0  0  0  # atno 8009 bound_to 7997
  155.4023  140.0485  157.3027 H   0  0  0  0  0  0  0  0  0  0  0  0  # atno 8010 bound_to 7997
  139.5880  144.7014  151.3360 H   0  0  0  0  0  0  0  0  0  0  0  0  # atno 10167 bound_to 10162
  156.1532  130.6549  150.9943 H   0  0  0  0  0  0  0  0  0  0  0  0  # atno 10718 bound_to 10713
  152.9790  135.5933  154.3983 H   0  0  0  0  0  0  0  0  0  0  0  0  # atno 10763 bound_to 10752
  154.3631  135.2767  155.2311 H   0  0  0  0  0  0  0  0  0  0  0  0  # atno 10764 bound_to 10752
  154.4299  135.6039  153.6117 H   0  0  0  0  0  0  0  0  0  0  0  0  # atno 10765 bound_to 10752
  139.9459  134.9629  156.8716 H   0  0  0  0  0  0  0  0  0  0  0  0  # atno 11005 bound_to 11000
  145.6536  139.1569  143.2848 LP  0  0  0  0  0  0  0  0  0  0  0  0  # atno 17320 bound_to 7965
  146.1726  140.6622  142.9226 LP  0  0  0  0  0  0  0  0  0  0  0  0  # atno 17321 bound_to 7965
  140.7149  143.7294  150.7635 LP  0  0  0  0  0  0  0  0  0  0  0  0  # atno 17342 bound_to 10162
  140.0843  143.4939  152.2513 LP  0  0  0  0  0  0  0  0  0  0  0  0  # atno 17343 bound_to 10162
  157.6673  131.0869  150.7696 LP  0  0  0  0  0  0  0  0  0  0  0  0  # atno 17370 bound_to 10713
  156.7763  130.4845  149.5409 LP  0  0  0  0  0  0  0  0  0  0  0  0  # atno 17371 bound_to 10713
  140.5835  134.0329  155.7473 LP  0  0  0  0  0  0  0  0  0  0  0  0  # atno 17394 bound_to 11000
  141.1109  133.9617  157.2911 LP  0  0  0  0  0  0  0  0  0  0  0  0  # atno 17395 bound_to 11000

$$$$
