AV-unprocessed.smi:1560|AV-procd|sdf|6275|dock8
  -GOLD-   22720 6463D 1   1.00000     0.00000
 Structure written by MMmdl.
 47 48  0  0  0  0  0  0  0  0  1 V2000
  152.7162  145.6217  157.8625 C   0  0  0  0  0  0  0  0  0  0  0  0
  152.1282  144.2077  157.7186 C   0  0  0  0  0  0  0  0  0  0  0  0
  151.5004  143.6091  159.0210 C   0  0  1  0  0  0  0  0  0  0  0  0
  150.6428  144.7358  159.6558 C   0  0  0  0  0  0  0  0  0  0  0  0
  150.5317  142.4484  158.6221 C   0  0  0  0  0  0  0  0  0  0  0  0
  149.8933  142.6540  157.3279 N   0  0  0  0  0  0  0  0  0  0  0  0
  150.1596  141.9821  156.1979 C   0  0  0  0  0  0  0  0  0  0  0  0
  151.0093  141.0946  156.1334 O   0  0  0  0  0  0  0  0  0  0  0  0
  149.3580  142.3561  154.9385 C   0  0  0  0  0  0  0  0  0  0  0  0
  148.6483  141.2273  154.3112 N   0  0  0  0  0  0  0  0  0  0  0  0
  149.3098  140.0284  154.0852 C   0  0  0  0  0  0  0  0  0  0  0  0
  148.7347  138.9611  153.4824 C   0  0  0  0  0  0  0  0  0  0  0  0
  147.3496  139.0266  153.0290 C   0  0  0  0  0  0  0  0  0  0  0  0
  146.7420  138.1158  152.4711 O   0  0  0  0  0  0  0  0  0  0  0  0
  146.7174  140.2482  153.2750 N   0  0  0  0  0  0  0  0  0  0  0  0
  147.3041  141.3518  153.8953 C   0  0  0  0  0  0  0  0  0  0  0  0
  146.6600  142.3883  154.0507 O   0  0  0  0  0  0  0  0  0  0  0  0
  152.5571  143.1096  159.9515 N   0  0  0  0  0  0  0  0  0  0  0  0
  152.1127  142.8627  161.3303 C   0  0  0  0  0  0  0  0  0  0  0  0
  153.2757  142.4722  162.2578 C   0  0  0  0  0  0  0  0  0  0  0  0
  153.9367  141.3254  161.7396 O   0  0  0  0  0  0  0  0  0  0  0  0
  154.4448  141.5437  160.4300 C   0  0  0  0  0  0  0  0  0  0  0  0
  153.2956  141.9288  159.4825 C   0  0  0  0  0  0  0  0  0  0  0  0
  145.7572  140.3408  152.9768 H   0  0  0  0  0  0  0  0  0  0  0  0
  153.1018  145.9736  156.9056 H   0  0  0  0  0  0  0  0  0  0  0  0
  153.5426  145.6454  158.5724 H   0  0  0  0  0  0  0  0  0  0  0  0
  151.9649  146.3375  158.1960 H   0  0  0  0  0  0  0  0  0  0  0  0
  151.3993  144.2124  156.9091 H   0  0  0  0  0  0  0  0  0  0  0  0
  152.9127  143.5539  157.3358 H   0  0  0  0  0  0  0  0  0  0  0  0
  149.8896  145.1067  158.9596 H   0  0  0  0  0  0  0  0  0  0  0  0
  151.2431  145.5986  159.9432 H   0  0  0  0  0  0  0  0  0  0  0  0
  150.1071  144.3954  160.5415 H   0  0  0  0  0  0  0  0  0  0  0  0
  151.0608  141.4948  158.5988 H   0  0  0  0  0  0  0  0  0  0  0  0
  149.7362  142.3445  159.3604 H   0  0  0  0  0  0  0  0  0  0  0  0
  149.1804  143.3679  157.2880 H   0  0  0  0  0  0  0  0  0  0  0  0
  148.6455  143.1365  155.2099 H   0  0  0  0  0  0  0  0  0  0  0  0
  150.0342  142.8268  154.2228 H   0  0  0  0  0  0  0  0  0  0  0  0
  150.3400  139.9371  154.3987 H   0  0  0  0  0  0  0  0  0  0  0  0
  149.3033  138.0545  153.3323 H   0  0  0  0  0  0  0  0  0  0  0  0
  151.6449  143.7472  161.7569 H   0  0  0  0  0  0  0  0  0  0  0  0
  151.3684  142.0668  161.3508 H   0  0  0  0  0  0  0  0  0  0  0  0
  153.9833  143.2966  162.3591 H   0  0  0  0  0  0  0  0  0  0  0  0
  152.9028  142.2462  163.2570 H   0  0  0  0  0  0  0  0  0  0  0  0
  155.2050  142.3261  160.4521 H   0  0  0  0  0  0  0  0  0  0  0  0
  154.9333  140.6335  160.0821 H   0  0  0  0  0  0  0  0  0  0  0  0
  152.6222  141.0775  159.3822 H   0  0  0  0  0  0  0  0  0  0  0  0
  153.7350  142.1042  158.5029 H   0  0  0  0  0  0  0  0  0  0  0  0
  1  2  1  0  0  0  0
  1 25  1  0  0  0  0
  1 26  1  0  0  0  0
  1 27  1  0  0  0  0
  2  3  1  0  0  0  0
  2 28  1  0  0  0  0
  2 29  1  0  0  0  0
  3  4  1  0  0  0  0
  3  5  1  0  0  0  0
  3 18  1  0  0  0  0
  4 30  1  0  0  0  0
  4 31  1  0  0  0  0
  4 32  1  0  0  0  0
  5  6  1  0  0  0  0
  5 33  1  0  0  0  0
  5 34  1  0  0  0  0
  6  7  1  0  0  0  0
  6 35  1  0  0  0  0
  7  8  2  0  0  0  0
  7  9  1  0  0  0  0
  9 10  1  0  0  0  0
  9 36  1  0  0  0  0
  9 37  1  0  0  0  0
 10 16  1  0  0  0  0
 10 11  1  0  0  0  0
 11 12  2  0  0  0  0
 11 38  1  0  0  0  0
 12 13  1  0  0  0  0
 12 39  1  0  0  0  0
 13 14  2  0  0  0  0
 13 15  1  0  0  0  0
 15 24  1  0  0  0  0
 15 16  1  0  0  0  0
 16 17  2  0  0  0  0
 18 23  1  0  0  0  0
 18 19  1  0  0  0  0
 19 20  1  0  0  0  0
 19 40  1  0  0  0  0
 19 41  1  0  0  0  0
 20 21  1  0  0  0  0
 20 42  1  0  0  0  0
 20 43  1  0  0  0  0
 21 22  1  0  0  0  0
 22 23  1  0  0  0  0
 22 44  1  0  0  0  0
 22 45  1  0  0  0  0
 23 46  1  0  0  0  0
 23 47  1  0  0  0  0
M  END
> <s_m_source_file>
AV-unprocessed.smi

> <i_m_source_file_index>
1560

> <i_lp_mmshare_version>
43012

> <i_f3d_flags>
0

> <s_epik_input>
W0NIMl0xW0NIMl1PW0NIMl1bQ0gyXU4xW0NAQF0oW0NIM10pKFtDSDJdW0NIM10pW0NIMl1bTkhdQyg9TylbQ0gyXW4yW2NIXVtjSF1jKD1PKVtuSF1jMj1P

> <s_epik_cmdline>
J2VwaWtfcHl0aG9uJywgJy1waCcsICc3LjAnLCAnLXRuJywgJzgnLCAnLW1hJywgJzIwMCcsICctbWV0YWxfYmluZGluZycsICctaW1hZScsICc8aW5maWxlLm1hZT4nLCAnLW9tYWUnLCAnPG91dGZpbGUubWFlPic=

> <r_lp_tautomer_probability>
0.999537

> <r_epik_Ionization_Penalty>
0.321965

> <r_epik_Ionization_Penalty_Charging>
0.00329831

> <r_epik_Ionization_Penalty_Neutral>
0.318667

> <r_epik_State_Penalty>
0.288097

> <r_epik_Charging_Adjusted_Penalty>
0.291396

> <i_epik_Tot_Q>
0

> <i_epik_Tot_abs_Q>
0

> <r_epik_Metal_State_Penalty>
0.654595

> <b_epik_Metal_Only>
0

> <s_lp_Force_Field>
OPLS_2005

> <r_lp_Energy>
42.3402

> <b_lp_Chiralities_Consistent>
1

> <s_lp_Variant>
AV-unprocessed.smi:1560-1

> <Gold.Version>
5.8.1

> <Gold.Id.Protein>
6NUR|6NUR_protein|mol2

> <Gold.PLP.Fitness>
44.8460

> <Gold.PLP.PLP>
-41.7933

> <Gold.PLP.part.hbond>
-2.0000

> <Gold.PLP.part.metal>
0.0000

> <Gold.PLP.part.buried>
-4.2957

> <Gold.PLP.part.nonpolar>
-36.3026

> <Gold.PLP.part.repulsive>
0.4781

> <Gold.PLP.ligand.clash>
0.0082

> <Gold.PLP.ligand.torsion>
1.1182

> <Gold.PLP.Chemscore.Hbond>
1.7360

> <Gold.PLP.Chemscore.CHOScore>
0.0000

> <Gold.PLP.Chemscore.Metal>
0.0000

> <Gold.Chemscore.Hbonds>
donor molecule, donor type, donor heavy atom, donor atom, acceptor molecule, acceptor atom, score
      L1  H     6    35       P1  8028  0.40
      L1  H    15    24       P1 10175  0.75

> <Gold.PLP.Chemscore.Internal.Correction>
0.0893

> <Gold.Rescore>
     Score         DG    S(hbond)    S(metal)    S(lipo)     H(rot)  DE(clash)    DE(int)     intcor
     13.80     -19.57       1.87        0.00     121.56       2.49       3.62       2.14       ----

> <Gold.Chemscore.Fitness>
13.8028

> <Gold.Chemscore.DG>
-19.5677

> <Gold.Chemscore.ZeroCoef>
-5.4800

> <Gold.Chemscore.Hbond>
1.8654

> <Gold.Chemscore.Metal>
0.0000

> <Gold.Chemscore.Lipo>
121.5563

> <Gold.Chemscore.Internal_Hbond>
0.0000

> <Gold.Chemscore.DEClash>
3.6235

> <Gold.Chemscore.DEInternal>
2.1414

> <Gold.Chemscore.Rot>
2.4862

> <Gold.Chemscore.Internal.Correction>
   9.000000E+99

> <Gold.Chemscore.Hbonds>
donor molecule, donor type, donor heavy atom, donor atom, acceptor molecule, acceptor atom, score
      L1  H     6    35       P1  8028  0.26
      L1  H    15    24       P1 10175  0.66

> <Gold.Chemscore.Hbond.Weighted>
-6.2303

> <Gold.Chemscore.Metal.Weighted>
-0.0000

> <Gold.Chemscore.Lipo.Weighted>
-14.2221

> <Gold.Chemscore.Internal_Hbond.Weighted>
0.0000

> <Gold.Chemscore.DEClash.Weighted>
3.6235

> <Gold.Chemscore.DEInternal.Weighted>
2.1414

> <Gold.Chemscore.Rot.Weighted>
6.3646

> <Gold.Chemscore.Internal.Correction.Weighted>
   9.000000E+99

> <Gold.Protein.RotatedTorsions>
[ 6907 6896 6895 6894 ] final -139.58 input  -60.11 | X-H torsion
[ 7974 7965 7964 7962 ] final  -60.10 input  175.53 | X-H torsion
[ 8008 7997 7996 7995 ] final   89.97 input   59.86 | X-H torsion
[ 10167 10162 10161 10158 ] final -157.50 input  -65.29 | X-H torsion
[ 10718 10713 10712 10709 ] final  -19.24 input   66.30 | X-H torsion
[ 10763 10752 10751 10750 ] final  177.05 input  -60.55 | X-H torsion
[ 11005 11000 10999 10996 ] final    9.97 input  -57.11 | X-H torsion

> <Gold.Protein.ActiveResidues>
 VAL166  LYS551  ARG553  GLY616  TRP617  ASP618  TYR619  PRO620  LYS621  CYS622 
 ASP623  PHE694  ASN695  SER759  ASP760  ASP761  ALA762  ILE779  LEU786  VAL792 
 PHE793  MET794  SER795  GLU796  ALA797  LYS798  CYS799  TRP800  GLU811  SER814 

> <Gold.Protein.RotatedAtoms>
  151.0496  133.5635  159.2643 H   0  0  0  0  0  0  0  0  0  0  0  0  # atno 6907 bound_to 6896
  151.2651  135.0666  159.9123 H   0  0  0  0  0  0  0  0  0  0  0  0  # atno 6908 bound_to 6896
  152.5379  134.0236  159.8046 H   0  0  0  0  0  0  0  0  0  0  0  0  # atno 6909 bound_to 6896
  145.8196  140.8548  143.0140 H   0  0  0  0  0  0  0  0  0  0  0  0  # atno 7974 bound_to 7965
  156.0064  140.3354  155.6896 H   0  0  0  0  0  0  0  0  0  0  0  0  # atno 8008 bound_to 7997
  155.6219  140.0676  157.2693 H   0  0  0  0  0  0  0  0  0  0  0  0  # atno 8009 bound_to 7997
  154.4266  140.1775  156.1369 H   0  0  0  0  0  0  0  0  0  0  0  0  # atno 8010 bound_to 7997
  139.6766  143.9653  152.2313 H   0  0  0  0  0  0  0  0  0  0  0  0  # atno 10167 bound_to 10162
  156.5484  130.4695  149.6464 H   0  0  0  0  0  0  0  0  0  0  0  0  # atno 10718 bound_to 10713
  154.4893  135.2778  155.1510 H   0  0  0  0  0  0  0  0  0  0  0  0  # atno 10763 bound_to 10752
  154.3188  135.6214  153.5502 H   0  0  0  0  0  0  0  0  0  0  0  0  # atno 10764 bound_to 10752
  152.9885  135.5737  154.5310 H   0  0  0  0  0  0  0  0  0  0  0  0  # atno 10765 bound_to 10752
  140.5197  134.0571  155.7841 H   0  0  0  0  0  0  0  0  0  0  0  0  # atno 11005 bound_to 11000
  144.6749  140.0514  143.7478 LP  0  0  0  0  0  0  0  0  0  0  0  0  # atno 17320 bound_to 7965
  145.9689  139.2855  143.1110 LP  0  0  0  0  0  0  0  0  0  0  0  0  # atno 17321 bound_to 7965
  139.9432  144.6668  150.8245 LP  0  0  0  0  0  0  0  0  0  0  0  0  # atno 17342 bound_to 10162
  140.7637  143.3231  151.2578 LP  0  0  0  0  0  0  0  0  0  0  0  0  # atno 17343 bound_to 10162
  156.2907  130.7122  151.1970 LP  0  0  0  0  0  0  0  0  0  0  0  0  # atno 17370 bound_to 10713
  157.7392  131.0532  150.5246 LP  0  0  0  0  0  0  0  0  0  0  0  0  # atno 17371 bound_to 10713
  141.1341  133.9252  157.2473 LP  0  0  0  0  0  0  0  0  0  0  0  0  # atno 17394 bound_to 11000
  139.9612  135.0153  156.9267 LP  0  0  0  0  0  0  0  0  0  0  0  0  # atno 17395 bound_to 11000

$$$$
