AV-unprocessed.smi:1218|AV-procd|sdf|5109|dock2
  -GOLD-   22720 4163D 1   1.00000     0.00000
 Structure written by MMmdl.
 45 46  0  0  0  0  0  0  0  0  2 V2000
  146.7794  138.5612  152.2332 C   0  0  0  0  0  0  0  0  0  0  0  0
  146.2112  137.3183  152.9388 C   0  0  0  0  0  0  0  0  0  0  0  0
  144.6810  137.4090  153.0349 C   0  0  0  0  0  0  0  0  0  0  0  0
  146.8307  137.1168  154.3390 C   0  0  0  0  0  0  0  0  0  0  0  0
  148.3031  136.9226  154.3057 N   0  3  2  0  0  0  0  0  0  0  0  0
  148.7917  135.9024  155.2662 C   0  0  0  0  0  0  0  0  0  0  0  0
  150.3155  135.7381  155.1460 C   0  0  0  0  0  0  0  0  0  0  0  0
  150.9458  136.9954  155.3506 O   0  0  0  0  0  0  0  0  0  0  0  0
  150.5629  137.9556  154.3708 C   0  0  2  0  0  0  0  0  0  0  0  0
  151.3715  139.2422  154.6135 C   0  0  0  0  0  0  0  0  0  0  0  0
  150.8547  139.9873  155.7555 N   0  0  0  0  0  0  0  0  0  0  0  0
  151.5510  140.2732  156.8661 C   0  0  0  0  0  0  0  0  0  0  0  0
  152.7353  139.9744  157.0200 O   0  0  0  0  0  0  0  0  0  0  0  0
  150.7883  140.9815  157.9854 C   0  0  0  0  0  0  0  0  0  0  0  0
  151.2963  142.3272  158.1804 N   0  0  0  0  0  0  0  0  0  0  0  0
  151.1547  143.4240  157.3555 C   0  0  0  0  0  0  0  0  0  0  0  0
  151.8100  144.4651  157.9484 C   0  0  0  0  0  0  0  0  0  0  0  0
  152.3290  143.8999  159.1468 C   0  0  0  0  0  0  0  0  0  0  0  0
  152.0225  142.6198  159.2821 N   0  0  0  0  0  0  0  0  0  0  0  0
  149.0450  138.1939  154.4826 C   0  0  0  0  0  0  0  0  0  0  0  0
  146.5813  139.4682  152.8056 H   0  0  0  0  0  0  0  0  0  0  0  0
  146.3337  138.6889  151.2461 H   0  0  0  0  0  0  0  0  0  0  0  0
  147.8578  138.4844  152.0934 H   0  0  0  0  0  0  0  0  0  0  0  0
  146.4331  136.4500  152.3191 H   0  0  0  0  0  0  0  0  0  0  0  0
  144.3703  138.2633  153.6376 H   0  0  0  0  0  0  0  0  0  0  0  0
  144.2618  136.5108  153.4894 H   0  0  0  0  0  0  0  0  0  0  0  0
  144.2298  137.5163  152.0478 H   0  0  0  0  0  0  0  0  0  0  0  0
  146.5950  137.9930  154.9453 H   0  0  0  0  0  0  0  0  0  0  0  0
  146.3706  136.2663  154.8446 H   0  0  0  0  0  0  0  0  0  0  0  0
  148.5300  136.2012  156.2825 H   0  0  0  0  0  0  0  0  0  0  0  0
  148.3140  134.9408  155.0829 H   0  0  0  0  0  0  0  0  0  0  0  0
  150.6778  135.0355  155.8965 H   0  0  0  0  0  0  0  0  0  0  0  0
  150.5906  135.3325  154.1708 H   0  0  0  0  0  0  0  0  0  0  0  0
  150.7914  137.5692  153.3757 H   0  0  0  0  0  0  0  0  0  0  0  0
  152.4248  139.0069  154.7744 H   0  0  0  0  0  0  0  0  0  0  0  0
  151.3289  139.8852  153.7339 H   0  0  0  0  0  0  0  0  0  0  0  0
  149.8850  140.2679  155.7182 H   0  0  0  0  0  0  0  0  0  0  0  0
  149.7287  141.0365  157.7328 H   0  0  0  0  0  0  0  0  0  0  0  0
  150.8673  140.4241  158.9205 H   0  0  0  0  0  0  0  0  0  0  0  0
  150.6069  143.3718  156.4261 H   0  0  0  0  0  0  0  0  0  0  0  0
  151.9040  145.4765  157.5818 H   0  0  0  0  0  0  0  0  0  0  0  0
  152.9162  144.3787  159.9165 H   0  0  0  0  0  0  0  0  0  0  0  0
  148.7311  138.9099  153.7217 H   0  0  0  0  0  0  0  0  0  0  0  0
  148.7996  138.6278  155.4535 H   0  0  0  0  0  0  0  0  0  0  0  0
  148.5290  136.5909  153.3786 H   0  0  0  0  0  0  0  0  0  0  0  0
  1  2  1  0  0  0  0
  1 21  1  0  0  0  0
  1 22  1  0  0  0  0
  1 23  1  0  0  0  0
  2  3  1  0  0  0  0
  2  4  1  0  0  0  0
  2 24  1  0  0  0  0
  3 25  1  0  0  0  0
  3 26  1  0  0  0  0
  3 27  1  0  0  0  0
  4  5  1  0  0  0  0
  4 28  1  0  0  0  0
  4 29  1  0  0  0  0
  5 20  1  0  0  0  0
  5  6  1  0  0  0  0
  5 45  1  0  0  0  0
  6  7  1  0  0  0  0
  6 30  1  0  0  0  0
  6 31  1  0  0  0  0
  7  8  1  0  0  0  0
  7 32  1  0  0  0  0
  7 33  1  0  0  0  0
  8  9  1  0  0  0  0
  9 10  1  0  0  0  0
  9 20  1  0  0  0  0
  9 34  1  0  0  0  0
 10 11  1  0  0  0  0
 10 35  1  0  0  0  0
 10 36  1  0  0  0  0
 11 12  1  0  0  0  0
 11 37  1  0  0  0  0
 12 13  2  0  0  0  0
 12 14  1  0  0  0  0
 14 15  1  0  0  0  0
 14 38  1  0  0  0  0
 14 39  1  0  0  0  0
 15 19  1  0  0  0  0
 15 16  1  0  0  0  0
 16 17  2  0  0  0  0
 16 40  1  0  0  0  0
 17 18  1  0  0  0  0
 17 41  1  0  0  0  0
 18 19  2  0  0  0  0
 18 42  1  0  0  0  0
 20 43  1  0  0  0  0
 20 44  1  0  0  0  0
M  CHG  1   5   1
M  END
> <s_m_source_file>
AV-unprocessed.smi

> <i_m_source_file_index>
1218

> <i_lp_mmshare_version>
43012

> <i_f3d_flags>
0

> <s_epik_input>
W0NIM11bQ0hdKFtDSDNdKVtDSDJdTjFbQ0gyXVtDSDJdT1tDQEhdKFtDSDJdMSlbQ0gyXVtOSF1DKD1PKVtDSDJdbjJbY0hdW2NIXVtjSF1uMg==

> <s_epik_cmdline>
J2VwaWtfcHl0aG9uJywgJy1waCcsICc3LjAnLCAnLXRuJywgJzgnLCAnLW1hJywgJzIwMCcsICctbWV0YWxfYmluZGluZycsICctaW1hZScsICc8aW5maWxlLm1hZT4nLCAnLW9tYWUnLCAnPG91dGZpbGUubWFlPic=

> <r_lp_tautomer_probability>
1

> <r_epik_Ionization_Penalty>
0.0995066

> <r_epik_Ionization_Penalty_Charging>
0.0994921

> <r_epik_Ionization_Penalty_Neutral>
1.44634e-05

> <r_epik_State_Penalty>
0.0895432

> <r_epik_Charging_Adjusted_Penalty>
0.189035

> <i_epik_Tot_Q>
1

> <i_epik_Tot_abs_Q>
1

> <r_epik_Metal_State_Penalty>
0.0895432

> <b_epik_Metal_Only>
0

> <s_lp_Force_Field>
OPLS_2005

> <r_lp_Energy>
17.6202

> <b_lp_Chiralities_Consistent>
1

> <s_lp_Variant>
AV-unprocessed.smi:1218-4

> <Gold.Version>
5.8.1

> <Gold.Id.Protein>
6NUR|6NUR_protein|mol2

> <Gold.PLP.Fitness>
45.3511

> <Gold.PLP.PLP>
-34.8089

> <Gold.PLP.part.hbond>
-2.0000

> <Gold.PLP.part.metal>
0.0000

> <Gold.PLP.part.buried>
-0.8586

> <Gold.PLP.part.nonpolar>
-31.4312

> <Gold.PLP.part.repulsive>
0.2014

> <Gold.PLP.ligand.clash>
0.0000

> <Gold.PLP.ligand.torsion>
0.7960

> <Gold.PLP.Chemscore.Hbond>
3.0000

> <Gold.PLP.Chemscore.CHOScore>
1.0000

> <Gold.PLP.Chemscore.Metal>
0.0000

> <Gold.Chemscore.Hbonds>
donor molecule, donor type, donor heavy atom, donor atom, acceptor molecule, acceptor atom, score
      L1  H     5    45       P1  7948  2.00
      P1  H  7997  8009       L1    13  1.00
      L1  C    16    40       P1  8028  0.98

> <Gold.PLP.Chemscore.Internal.Correction>
0.1343

> <Gold.Rescore>
     Score         DG    S(hbond)    S(metal)    S(lipo)     H(rot)  DE(clash)    DE(int)     intcor
     16.35     -17.49       1.99        0.00      88.85       1.96       0.25       0.90       ----

> <Gold.Chemscore.Fitness>
16.3497

> <Gold.Chemscore.DG>
-17.4944

> <Gold.Chemscore.ZeroCoef>
-5.4800

> <Gold.Chemscore.Hbond>
1.9889

> <Gold.Chemscore.Metal>
0.0000

> <Gold.Chemscore.Lipo>
88.8489

> <Gold.Chemscore.Internal_Hbond>
0.0000

> <Gold.Chemscore.DEClash>
0.2485

> <Gold.Chemscore.DEInternal>
0.8961

> <Gold.Chemscore.Rot>
1.9624

> <Gold.Chemscore.Internal.Correction>
   9.000000E+99

> <Gold.Chemscore.Hbonds>
donor molecule, donor type, donor heavy atom, donor atom, acceptor molecule, acceptor atom, score
      L1  H     5    45       P1  7948  0.99
      P1  H  7997  8009       L1    13  0.99

> <Gold.Chemscore.Hbond.Weighted>
-6.6428

> <Gold.Chemscore.Metal.Weighted>
-0.0000

> <Gold.Chemscore.Lipo.Weighted>
-10.3953

> <Gold.Chemscore.Internal_Hbond.Weighted>
0.0000

> <Gold.Chemscore.DEClash.Weighted>
0.2485

> <Gold.Chemscore.DEInternal.Weighted>
0.8961

> <Gold.Chemscore.Rot.Weighted>
5.0237

> <Gold.Chemscore.Internal.Correction.Weighted>
   9.000000E+99

> <Gold.Protein.RotatedTorsions>
[ 6907 6896 6895 6894 ] final  106.02 input  -60.11 | X-H torsion
[ 7974 7965 7964 7962 ] final   11.02 input  175.53 | X-H torsion
[ 8008 7997 7996 7995 ] final -174.87 input   59.86 | X-H torsion
[ 10167 10162 10161 10158 ] final -110.06 input  -65.29 | X-H torsion
[ 10718 10713 10712 10709 ] final  -64.83 input   66.30 | X-H torsion
[ 10763 10752 10751 10750 ] final -129.73 input  -60.55 | X-H torsion
[ 11005 11000 10999 10996 ] final    3.20 input  -57.11 | X-H torsion

> <Gold.Protein.ActiveResidues>
 VAL166  LYS551  ARG553  GLY616  TRP617  ASP618  TYR619  PRO620  LYS621  CYS622 
 ASP623  PHE694  ASN695  SER759  ASP760  ASP761  ALA762  ILE779  LEU786  VAL792 
 PHE793  MET794  SER795  GLU796  ALA797  LYS798  CYS799  TRP800  GLU811  SER814 

> <Gold.Protein.RotatedAtoms>
  152.5209  133.9442  159.7640 H   0  0  0  0  0  0  0  0  0  0  0  0  # atno 6907 bound_to 6896
  150.9766  133.6281  159.2736 H   0  0  0  0  0  0  0  0  0  0  0  0  # atno 6908 bound_to 6896
  151.3473  135.0882  159.9444 H   0  0  0  0  0  0  0  0  0  0  0  0  # atno 6909 bound_to 6896
  146.2378  139.9547  142.8466 H   0  0  0  0  0  0  0  0  0  0  0  0  # atno 7974 bound_to 7965
  155.9755  140.1171  157.0774 H   0  0  0  0  0  0  0  0  0  0  0  0  # atno 8008 bound_to 7997
  154.4168  140.1155  156.5431 H   0  0  0  0  0  0  0  0  0  0  0  0  # atno 8009 bound_to 7997
  155.6541  140.3473  155.4761 H   0  0  0  0  0  0  0  0  0  0  0  0  # atno 8010 bound_to 7997
  140.1486  143.4218  152.1511 H   0  0  0  0  0  0  0  0  0  0  0  0  # atno 10167 bound_to 10162
  156.0705  130.4239  150.1477 H   0  0  0  0  0  0  0  0  0  0  0  0  # atno 10718 bound_to 10713
  154.8757  135.3886  154.3968 H   0  0  0  0  0  0  0  0  0  0  0  0  # atno 10763 bound_to 10752
  153.4697  135.7030  153.6006 H   0  0  0  0  0  0  0  0  0  0  0  0  # atno 10764 bound_to 10752
  153.4468  135.3843  155.2229 H   0  0  0  0  0  0  0  0  0  0  0  0  # atno 10765 bound_to 10752
  140.5957  133.9882  155.8109 H   0  0  0  0  0  0  0  0  0  0  0  0  # atno 11005 bound_to 11000
  145.1828  140.9775  143.4256 LP  0  0  0  0  0  0  0  0  0  0  0  0  # atno 17320 bound_to 7965
  144.9927  139.3674  143.6207 LP  0  0  0  0  0  0  0  0  0  0  0  0  # atno 17321 bound_to 7965
  139.5437  144.7279  151.4652 LP  0  0  0  0  0  0  0  0  0  0  0  0  # atno 17342 bound_to 10162
  140.6716  143.8280  150.7007 LP  0  0  0  0  0  0  0  0  0  0  0  0  # atno 17343 bound_to 10162
  156.9529  130.9780  151.3494 LP  0  0  0  0  0  0  0  0  0  0  0  0  # atno 17370 bound_to 10713
  157.5773  130.8352  149.8473 LP  0  0  0  0  0  0  0  0  0  0  0  0  # atno 17371 bound_to 10713
  141.0905  133.9923  157.3244 LP  0  0  0  0  0  0  0  0  0  0  0  0  # atno 17394 bound_to 11000
  139.9254  135.0201  156.8216 LP  0  0  0  0  0  0  0  0  0  0  0  0  # atno 17395 bound_to 11000

$$$$
