AV-unprocessed.smi:286|AV-procd|sdf|2176|dock10
  -GOLD-   2262021543D 1   1.00000     0.00000
 Structure written by MMmdl.
 46 48  0  0  0  0  0  0  0  0  1 V2000
  152.1413  139.9018  155.7113 O   0  0  0  0  0  0  0  0  0  0  0  0
  150.9991  139.8798  155.2497 C   0  0  0  0  0  0  0  0  0  0  0  0
  150.4517  138.7382  154.5243 C   0  0  0  0  0  0  0  0  0  0  0  0
  151.2191  137.6557  154.3123 F   0  0  0  0  0  0  0  0  0  0  0  0
  149.1849  138.7508  154.0561 C   0  0  0  0  0  0  0  0  0  0  0  0
  148.3252  139.8220  154.2319 N   0  0  0  0  0  0  0  0  0  0  0  0
  146.9139  139.7901  153.6907 C   0  0  1  0  0  0  0  0  0  0  0  0
  146.8645  138.9878  152.3850 C   0  0  0  0  0  0  0  0  0  0  0  0
  146.4200  137.6246  152.8696 C   0  0  0  0  0  0  0  0  0  0  0  0
  145.4928  137.9968  154.0202 C   0  0  0  0  0  0  0  0  0  0  0  0
  146.0854  139.1468  154.6166 O   0  0  0  0  0  0  0  0  0  0  0  0
  148.7757  140.9783  154.9051 C   0  0  0  0  0  0  0  0  0  0  0  0
  148.0319  141.9495  155.0639 O   0  0  0  0  0  0  0  0  0  0  0  0
  150.1062  140.9713  155.3875 N   0  0  0  0  0  0  0  0  0  0  0  0
  150.5698  142.1472  156.1058 C   0  0  0  0  0  0  0  0  0  0  0  0
  149.8433  142.3689  157.4530 C   0  0  1  0  0  0  0  0  0  0  0  0
  149.2635  141.1473  157.8691 O   0  0  0  0  0  0  0  0  0  0  0  0
  150.7903  142.8902  158.5617 C   0  0  0  0  0  0  0  0  0  0  0  0
  151.5730  144.1651  158.1669 C   0  0  0  0  0  0  0  0  0  0  0  0
  152.4545  144.6672  159.3222 C   0  0  0  0  0  0  0  0  0  0  0  0
  153.4104  143.5699  159.8147 C   0  0  0  0  0  0  0  0  0  0  0  0
  152.6395  142.3027  160.2155 C   0  0  0  0  0  0  0  0  0  0  0  0
  151.7602  141.7962  159.0604 C   0  0  0  0  0  0  0  0  0  0  0  0
  148.8399  137.8789  153.5206 H   0  0  0  0  0  0  0  0  0  0  0  0
  146.5996  140.8293  153.5830 H   0  0  0  0  0  0  0  0  0  0  0  0
  146.1070  139.4278  151.7352 H   0  0  0  0  0  0  0  0  0  0  0  0
  147.8211  138.9841  151.8607 H   0  0  0  0  0  0  0  0  0  0  0  0
  145.9261  137.0351  152.0967 H   0  0  0  0  0  0  0  0  0  0  0  0
  147.2746  137.0566  153.2396 H   0  0  0  0  0  0  0  0  0  0  0  0
  144.5065  138.2674  153.6408 H   0  0  0  0  0  0  0  0  0  0  0  0
  145.3708  137.1887  154.7419 H   0  0  0  0  0  0  0  0  0  0  0  0
  151.6539  142.0910  156.2178 H   0  0  0  0  0  0  0  0  0  0  0  0
  150.4172  142.9920  155.4317 H   0  0  0  0  0  0  0  0  0  0  0  0
  149.0410  143.0963  157.3214 H   0  0  0  0  0  0  0  0  0  0  0  0
  148.8254  140.7556  157.1291 H   0  0  0  0  0  0  0  0  0  0  0  0
  150.1575  143.1522  159.4115 H   0  0  0  0  0  0  0  0  0  0  0  0
  152.2019  143.9659  157.2983 H   0  0  0  0  0  0  0  0  0  0  0  0
  150.8860  144.9588  157.8732 H   0  0  0  0  0  0  0  0  0  0  0  0
  153.0244  145.5395  159.0014 H   0  0  0  0  0  0  0  0  0  0  0  0
  151.8219  144.9981  160.1469 H   0  0  0  0  0  0  0  0  0  0  0  0
  154.1267  143.3287  159.0283 H   0  0  0  0  0  0  0  0  0  0  0  0
  153.9916  143.9357  160.6618 H   0  0  0  0  0  0  0  0  0  0  0  0
  153.3388  141.5233  160.5193 H   0  0  0  0  0  0  0  0  0  0  0  0
  152.0155  142.5138  161.0851 H   0  0  0  0  0  0  0  0  0  0  0  0
  151.1993  140.9208  159.3895 H   0  0  0  0  0  0  0  0  0  0  0  0
  152.4002  141.4622  158.2429 H   0  0  0  0  0  0  0  0  0  0  0  0
  1  2  2  0  0  0  0
  2 14  1  0  0  0  0
  2  3  1  0  0  0  0
  3  4  1  0  0  0  0
  3  5  2  0  0  0  0
  5  6  1  0  0  0  0
  5 24  1  0  0  0  0
  6  7  1  0  0  0  0
  6 12  1  0  0  0  0
  7 11  1  0  0  0  0
  7  8  1  0  0  0  0
  7 25  1  0  0  0  0
  8  9  1  0  0  0  0
  8 26  1  0  0  0  0
  8 27  1  0  0  0  0
  9 10  1  0  0  0  0
  9 28  1  0  0  0  0
  9 29  1  0  0  0  0
 10 11  1  0  0  0  0
 10 30  1  0  0  0  0
 10 31  1  0  0  0  0
 12 13  2  0  0  0  0
 12 14  1  0  0  0  0
 14 15  1  0  0  0  0
 15 16  1  0  0  0  0
 15 32  1  0  0  0  0
 15 33  1  0  0  0  0
 16 17  1  0  0  0  0
 16 18  1  0  0  0  0
 16 34  1  0  0  0  0
 17 35  1  0  0  0  0
 18 23  1  0  0  0  0
 18 19  1  0  0  0  0
 18 36  1  0  0  0  0
 19 20  1  0  0  0  0
 19 37  1  0  0  0  0
 19 38  1  0  0  0  0
 20 21  1  0  0  0  0
 20 39  1  0  0  0  0
 20 40  1  0  0  0  0
 21 22  1  0  0  0  0
 21 41  1  0  0  0  0
 21 42  1  0  0  0  0
 22 23  1  0  0  0  0
 22 43  1  0  0  0  0
 22 44  1  0  0  0  0
 23 45  1  0  0  0  0
 23 46  1  0  0  0  0
M  END
> <s_m_source_file>
AV-unprocessed.smi

> <i_m_source_file_index>
286

> <i_lp_mmshare_version>
43012

> <i_f3d_flags>
0

> <s_epik_input>
TzFbQ0gyXVtDSDJdW0NIMl1bQ0BIXTFuKFtjSF1jKEYpYzI9TyljKD1PKW4yW0NIMl1bQ0BIXShbT0hdKVtDSF0zW0NIMl1bQ0gyXVtDSDJdW0NIMl1bQ0gyXTM=

> <s_epik_cmdline>
J2VwaWtfcHl0aG9uJywgJy1waCcsICc3LjAnLCAnLXRuJywgJzgnLCAnLW1hJywgJzIwMCcsICctbWV0YWxfYmluZGluZycsICctaW1hZScsICc8aW5maWxlLm1hZT4nLCAnLW9tYWUnLCAnPG91dGZpbGUubWFlPic=

> <r_lp_tautomer_probability>
1

> <r_epik_Ionization_Penalty>
3.15564e-07

> <r_epik_Ionization_Penalty_Charging>
2.06416e-08

> <r_epik_Ionization_Penalty_Neutral>
2.94923e-07

> <r_epik_State_Penalty>
-0

> <r_epik_Charging_Adjusted_Penalty>
2.06416e-08

> <i_epik_Tot_Q>
0

> <i_epik_Tot_abs_Q>
0

> <r_epik_Metal_State_Penalty>
-0

> <b_epik_Metal_Only>
0

> <s_epik_Chemistry_Notes>
This compound contains an acetal/aminal-like group ( X-CH(R)-Y where X, Y are N, S, or O) that may be acid/base labile, releasing an aldehyde.

> <s_lp_Force_Field>
OPLS_2005

> <r_lp_Energy>
42.0749

> <b_lp_Chiralities_Consistent>
1

> <s_lp_Variant>
AV-unprocessed.smi:286-4

> <Gold.Version>
5.8.1

> <Gold.Id.Protein>
6NUR|6NUR_protein|mol2

> <Gold.PLP.Fitness>
45.5784

> <Gold.PLP.PLP>
-44.4125

> <Gold.PLP.part.hbond>
-0.0530

> <Gold.PLP.part.metal>
0.0000

> <Gold.PLP.part.buried>
-0.7772

> <Gold.PLP.part.nonpolar>
-43.8944

> <Gold.PLP.part.repulsive>
1.3735

> <Gold.PLP.ligand.clash>
0.0000

> <Gold.PLP.ligand.torsion>
1.3733

> <Gold.PLP.Chemscore.Hbond>
0.2925

> <Gold.PLP.Chemscore.CHOScore>
1.0000

> <Gold.PLP.Chemscore.Metal>
0.0000

> <Gold.Chemscore.Hbonds>
donor molecule, donor type, donor heavy atom, donor atom, acceptor molecule, acceptor atom, score
      P1  H  7997  8010       L1     1  0.39
      L1  C     5    24       P1  7948  1.00

> <Gold.PLP.Chemscore.Internal.Correction>
0.0350

> <Gold.Rescore>
     Score         DG    S(hbond)    S(metal)    S(lipo)     H(rot)  DE(clash)    DE(int)     intcor
     11.28     -13.37       0.23        0.00     110.65       2.28       0.67       1.42       ----

> <Gold.Chemscore.Fitness>
11.2798

> <Gold.Chemscore.DG>
-13.3705

> <Gold.Chemscore.ZeroCoef>
-5.4800

> <Gold.Chemscore.Hbond>
0.2306

> <Gold.Chemscore.Metal>
0.0000

> <Gold.Chemscore.Lipo>
110.6479

> <Gold.Chemscore.Internal_Hbond>
0.0000

> <Gold.Chemscore.DEClash>
0.6678

> <Gold.Chemscore.DEInternal>
1.4229

> <Gold.Chemscore.Rot>
2.2756

> <Gold.Chemscore.Internal.Correction>
   9.000000E+99

> <Gold.Chemscore.Hbonds>
donor molecule, donor type, donor heavy atom, donor atom, acceptor molecule, acceptor atom, score
      P1  H  7997  8010       L1     1  0.39

> <Gold.Chemscore.Hbond.Weighted>
-0.7701

> <Gold.Chemscore.Metal.Weighted>
-0.0000

> <Gold.Chemscore.Lipo.Weighted>
-12.9458

> <Gold.Chemscore.Internal_Hbond.Weighted>
0.0000

> <Gold.Chemscore.DEClash.Weighted>
0.6678

> <Gold.Chemscore.DEInternal.Weighted>
1.4229

> <Gold.Chemscore.Rot.Weighted>
5.8254

> <Gold.Chemscore.Internal.Correction.Weighted>
   9.000000E+99

> <Gold.Protein.RotatedTorsions>
[ 6907 6896 6895 6894 ] final -120.89 input  -60.11 | X-H torsion
[ 7974 7965 7964 7962 ] final  -87.45 input  175.53 | X-H torsion
[ 8008 7997 7996 7995 ] final   82.96 input   59.86 | X-H torsion
[ 10167 10162 10161 10158 ] final  -55.39 input  -65.29 | X-H torsion
[ 10718 10713 10712 10709 ] final -153.07 input   66.30 | X-H torsion
[ 10763 10752 10751 10750 ] final -118.36 input  -60.55 | X-H torsion
[ 11005 11000 10999 10996 ] final -150.91 input  -57.11 | X-H torsion

> <Gold.Protein.ActiveResidues>
 VAL166  LYS551  ARG553  GLY616  TRP617  ASP618  TYR619  PRO620  LYS621  CYS622 
 ASP623  PHE694  ASN695  SER759  ASP760  ASP761  ALA762  ILE779  LEU786  VAL792 
 PHE793  MET794  SER795  GLU796  ALA797  LYS798  CYS799  TRP800  GLU811  SER814 

> <Gold.Protein.RotatedAtoms>
  150.8433  133.7901  159.3052 H   0  0  0  0  0  0  0  0  0  0  0  0  # atno 6907 bound_to 6896
  151.5595  135.1064  159.9979 H   0  0  0  0  0  0  0  0  0  0  0  0  # atno 6908 bound_to 6896
  152.4493  133.7554  159.6773 H   0  0  0  0  0  0  0  0  0  0  0  0  # atno 6909 bound_to 6896
  145.4663  140.9560  143.1941 H   0  0  0  0  0  0  0  0  0  0  0  0  # atno 7974 bound_to 7965
  155.9176  140.3423  155.6147 H   0  0  0  0  0  0  0  0  0  0  0  0  # atno 8008 bound_to 7997
  155.7312  140.0795  157.2307 H   0  0  0  0  0  0  0  0  0  0  0  0  # atno 8009 bound_to 7997
  154.4065  140.1588  156.2498 H   0  0  0  0  0  0  0  0  0  0  0  0  # atno 8010 bound_to 7997
  140.6377  143.2491  151.5072 H   0  0  0  0  0  0  0  0  0  0  0  0  # atno 10167 bound_to 10162
  156.4809  130.8302  151.2529 H   0  0  0  0  0  0  0  0  0  0  0  0  # atno 10718 bound_to 10713
  154.8585  135.4277  154.2126 H   0  0  0  0  0  0  0  0  0  0  0  0  # atno 10763 bound_to 10752
  153.3148  135.6978  153.7088 H   0  0  0  0  0  0  0  0  0  0  0  0  # atno 10764 bound_to 10752
  153.6166  135.3509  155.2971 H   0  0  0  0  0  0  0  0  0  0  0  0  # atno 10765 bound_to 10752
  140.7351  134.3577  157.5159 H   0  0  0  0  0  0  0  0  0  0  0  0  # atno 11005 bound_to 11000
  144.7972  139.6211  143.7087 LP  0  0  0  0  0  0  0  0  0  0  0  0  # atno 17320 bound_to 7965
  146.2422  139.6025  142.9484 LP  0  0  0  0  0  0  0  0  0  0  0  0  # atno 17321 bound_to 7965
  139.5587  144.2210  152.1656 LP  0  0  0  0  0  0  0  0  0  0  0  0  # atno 17342 bound_to 10162
  140.1471  144.5148  150.6709 LP  0  0  0  0  0  0  0  0  0  0  0  0  # atno 17343 bound_to 10162
  157.7483  131.0045  150.3079 LP  0  0  0  0  0  0  0  0  0  0  0  0  # atno 17370 bound_to 10713
  156.3523  130.3833  149.7319 LP  0  0  0  0  0  0  0  0  0  0  0  0  # atno 17371 bound_to 10713
  139.8818  134.9044  156.2877 LP  0  0  0  0  0  0  0  0  0  0  0  0  # atno 17394 bound_to 11000
  140.9886  133.7222  156.0780 LP  0  0  0  0  0  0  0  0  0  0  0  0  # atno 17395 bound_to 11000

$$$$
