AV-unprocessed.smi:112|AV-procd|sdf|1087|dock5
  -GOLD-   2262018183D 1   1.00000     0.00000
 Structure written by MMmdl.
 54 57  0  0  0  0  0  0  0  0  3 V2000
  144.9828  141.1041  156.8784 C   0  0  0  0  0  0  0  0  0  0  0  0
  146.0984  140.4818  156.0539 C   0  0  0  0  0  0  0  0  0  0  0  0
  145.8905  139.4105  155.2550 C   0  0  0  0  0  0  0  0  0  0  0  0
  146.8808  138.8243  154.4901 N   0  0  0  0  0  0  0  0  0  0  0  0
  146.5679  137.6281  153.6253 C   0  0  2  0  0  0  0  0  0  0  0  0
  146.3084  138.0381  152.1828 C   0  0  0  0  0  0  0  0  0  0  0  0
  145.3951  136.9196  151.7186 C   0  0  1  0  0  0  0  0  0  0  0  0
  146.1569  135.8618  151.1686 O   0  0  0  0  0  0  0  0  0  0  0  0
  144.6795  136.4506  153.0034 C   0  0  2  0  0  0  0  0  0  0  0  0
  143.2260  136.9461  153.0846 C   0  0  0  0  0  0  0  0  0  0  0  0
  143.1764  138.1887  153.7521 O   0  0  0  0  0  0  0  0  0  0  0  0
  145.3969  137.0399  154.0896 O   0  0  0  0  0  0  0  0  0  0  0  0
  148.1868  139.3533  154.5099 C   0  0  0  0  0  0  0  0  0  0  0  0
  149.0788  138.8699  153.8093 O   0  0  0  0  0  0  0  0  0  0  0  0
  148.4409  140.4656  155.3443 N   0  0  0  0  0  0  0  0  0  0  0  0
  149.8055  141.0404  155.3636 C   0  0  0  0  0  0  0  0  0  0  0  0
  150.7546  140.3537  156.3707 C   0  0  0  0  0  0  0  0  0  0  0  0
  150.9664  139.1456  156.2591 O   0  0  0  0  0  0  0  0  0  0  0  0
  151.3131  141.1206  157.3402 N   0  0  0  0  0  0  0  0  0  0  0  0
  151.0528  142.5632  157.4863 C   0  0  0  0  0  0  0  0  0  0  0  0
  151.8730  143.0306  158.7086 C   0  0  0  0  0  0  0  0  0  0  0  0
  152.5560  141.7737  159.1597 C   0  0  0  0  0  0  0  0  0  0  0  0
  153.4377  141.6412  160.2459 C   0  0  0  0  0  0  0  0  0  0  0  0
  153.9935  140.3681  160.5251 C   0  0  0  0  0  0  0  0  0  0  0  0
  154.9240  140.1908  161.6576 N   0  3  0  0  0  0  0  0  0  0  0  0
  155.5376  139.1322  161.7463 O   0  0  0  0  0  0  0  0  0  0  0  0
  155.0431  141.1104  162.4607 O   0  5  0  0  0  0  0  0  0  0  0  0
  153.6434  139.2662  159.7001 C   0  0  0  0  0  0  0  0  0  0  0  0
  152.7556  139.4173  158.6125 C   0  0  0  0  0  0  0  0  0  0  0  0
  152.2134  140.6948  158.3530 C   0  0  0  0  0  0  0  0  0  0  0  0
  147.4350  141.0762  156.1342 C   0  0  0  0  0  0  0  0  0  0  0  0
  147.6950  142.0579  156.8328 O   0  0  0  0  0  0  0  0  0  0  0  0
  144.0385  140.5746  156.7481 H   0  0  0  0  0  0  0  0  0  0  0  0
  144.8258  142.1428  156.5852 H   0  0  0  0  0  0  0  0  0  0  0  0
  145.2339  141.0811  157.9394 H   0  0  0  0  0  0  0  0  0  0  0  0
  144.8945  138.9936  155.2066 H   0  0  0  0  0  0  0  0  0  0  0  0
  147.3764  136.9032  153.7273 H   0  0  0  0  0  0  0  0  0  0  0  0
  145.7743  138.9889  152.1614 H   0  0  0  0  0  0  0  0  0  0  0  0
  147.2372  138.1378  151.6195 H   0  0  0  0  0  0  0  0  0  0  0  0
  144.7015  137.2671  150.9520 H   0  0  0  0  0  0  0  0  0  0  0  0
  147.0740  136.0490  151.2990 H   0  0  0  0  0  0  0  0  0  0  0  0
  144.7087  135.3620  153.0822 H   0  0  0  0  0  0  0  0  0  0  0  0
  142.7755  137.0277  152.0950 H   0  0  0  0  0  0  0  0  0  0  0  0
  142.6189  136.2471  153.6605 H   0  0  0  0  0  0  0  0  0  0  0  0
  143.3665  138.8710  153.1261 H   0  0  0  0  0  0  0  0  0  0  0  0
  150.2498  140.9935  154.3684 H   0  0  0  0  0  0  0  0  0  0  0  0
  149.7643  142.1075  155.5867 H   0  0  0  0  0  0  0  0  0  0  0  0
  151.3643  143.1045  156.5920 H   0  0  0  0  0  0  0  0  0  0  0  0
  149.9907  142.7515  157.6492 H   0  0  0  0  0  0  0  0  0  0  0  0
  152.6079  143.7897  158.4392 H   0  0  0  0  0  0  0  0  0  0  0  0
  151.2340  143.4223  159.5005 H   0  0  0  0  0  0  0  0  0  0  0  0
  153.6785  142.5047  160.8485 H   0  0  0  0  0  0  0  0  0  0  0  0
  154.0556  138.2869  159.8941 H   0  0  0  0  0  0  0  0  0  0  0  0
  152.5177  138.5548  158.0105 H   0  0  0  0  0  0  0  0  0  0  0  0
  1  2  1  0  0  0  0
  1 33  1  0  0  0  0
  1 34  1  0  0  0  0
  1 35  1  0  0  0  0
  2 31  1  0  0  0  0
  2  3  2  0  0  0  0
  3  4  1  0  0  0  0
  3 36  1  0  0  0  0
  4  5  1  0  0  0  0
  4 13  1  0  0  0  0
  5 12  1  0  0  0  0
  5  6  1  0  0  0  0
  5 37  1  0  0  0  0
  6  7  1  0  0  0  0
  6 38  1  0  0  0  0
  6 39  1  0  0  0  0
  7  8  1  0  0  0  0
  7  9  1  0  0  0  0
  7 40  1  0  0  0  0
  8 41  1  0  0  0  0
  9 10  1  0  0  0  0
  9 12  1  0  0  0  0
  9 42  1  0  0  0  0
 10 11  1  0  0  0  0
 10 43  1  0  0  0  0
 10 44  1  0  0  0  0
 11 45  1  0  0  0  0
 13 14  2  0  0  0  0
 13 15  1  0  0  0  0
 15 16  1  0  0  0  0
 15 31  1  0  0  0  0
 16 17  1  0  0  0  0
 16 46  1  0  0  0  0
 16 47  1  0  0  0  0
 17 18  2  0  0  0  0
 17 19  1  0  0  0  0
 19 30  1  0  0  0  0
 19 20  1  0  0  0  0
 20 21  1  0  0  0  0
 20 48  1  0  0  0  0
 20 49  1  0  0  0  0
 21 22  1  0  0  0  0
 21 50  1  0  0  0  0
 21 51  1  0  0  0  0
 22 30  2  0  0  0  0
 22 23  1  0  0  0  0
 23 24  2  0  0  0  0
 23 52  1  0  0  0  0
 24 25  1  0  0  0  0
 24 28  1  0  0  0  0
 25 26  2  0  0  0  0
 25 27  1  0  0  0  0
 28 29  2  0  0  0  0
 28 53  1  0  0  0  0
 29 30  1  0  0  0  0
 29 54  1  0  0  0  0
 31 32  2  0  0  0  0
M  CHG  1  25   1
M  CHG  1  27  -1
M  END
> <s_m_source_file>
AV-unprocessed.smi

> <i_m_source_file_index>
112

> <i_lp_mmshare_version>
43012

> <i_f3d_flags>
0

> <s_epik_input>
W09IXVtDSDJdW0NAQEhdKE8xKVtDQEhdKFtPSF0pW0NIMl1bQ0BIXTFuKFtjSF1jMltDSDNdKWMoPU8pbihjMj1PKVtDSDJdQyg9TylOKFtDSDJdW0NIMl0zKWMoYzM0KVtjSF1bY0hdYyhbY0hdNClbTitdKD1PKVtPLV0=

> <s_epik_cmdline>
J2VwaWtfcHl0aG9uJywgJy1waCcsICc3LjAnLCAnLXRuJywgJzgnLCAnLW1hJywgJzIwMCcsICctbWV0YWxfYmluZGluZycsICctaW1hZScsICc8aW5maWxlLm1hZT4nLCAnLW9tYWUnLCAnPG91dGZpbGUubWFlPic=

> <r_lp_tautomer_probability>
1

> <r_epik_Ionization_Penalty>
2.5696e-07

> <r_epik_Ionization_Penalty_Charging>
1.04886e-08

> <r_epik_Ionization_Penalty_Neutral>
2.46472e-07

> <r_epik_State_Penalty>
-0

> <r_epik_Charging_Adjusted_Penalty>
1.04886e-08

> <i_epik_Tot_Q>
0

> <i_epik_Tot_abs_Q>
2

> <r_epik_Metal_State_Penalty>
-0

> <b_epik_Metal_Only>
0

> <s_epik_Chemistry_Notes>
This compound contains an acetal/aminal-like group ( X-CH(R)-Y where X, Y are N, S, or O) that may be acid/base labile, releasing an aldehyde.

> <s_lp_Force_Field>
OPLS_2005

> <r_lp_Energy>
58.3709

> <b_lp_Chiralities_Consistent>
1

> <s_lp_Variant>
AV-unprocessed.smi:112-5

> <Gold.Version>
5.8.1

> <Gold.Id.Protein>
6NUR|6NUR_protein|mol2

> <Gold.PLP.Fitness>
47.5122

> <Gold.PLP.PLP>
-44.3541

> <Gold.PLP.part.hbond>
-2.6095

> <Gold.PLP.part.metal>
0.0000

> <Gold.PLP.part.buried>
-5.3282

> <Gold.PLP.part.nonpolar>
-39.9562

> <Gold.PLP.part.repulsive>
3.4093

> <Gold.PLP.ligand.clash>
0.0000

> <Gold.PLP.ligand.torsion>
1.4268

> <Gold.PLP.Chemscore.Hbond>
1.9913

> <Gold.PLP.Chemscore.CHOScore>
0.0000

> <Gold.PLP.Chemscore.Metal>
0.0000

> <Gold.Chemscore.Hbonds>
donor molecule, donor type, donor heavy atom, donor atom, acceptor molecule, acceptor atom, score
      L1  H     8    41       P1  7948  1.00
      L1  H    11    45       P1 10175  1.00

> <Gold.PLP.Chemscore.Internal.Correction>
0.0379

> <Gold.Rescore>
     Score         DG    S(hbond)    S(metal)    S(lipo)     H(rot)  DE(clash)    DE(int)     intcor
      9.95     -13.60       1.94        0.00      85.93       3.29       0.03       3.62       ----

> <Gold.Chemscore.Fitness>
9.9465

> <Gold.Chemscore.DG>
-13.5959

> <Gold.Chemscore.ZeroCoef>
-5.4800

> <Gold.Chemscore.Hbond>
1.9426

> <Gold.Chemscore.Metal>
0.0000

> <Gold.Chemscore.Lipo>
85.9333

> <Gold.Chemscore.Internal_Hbond>
0.0000

> <Gold.Chemscore.DEClash>
0.0268

> <Gold.Chemscore.DEInternal>
3.6227

> <Gold.Chemscore.Rot>
3.2916

> <Gold.Chemscore.Internal.Correction>
   9.000000E+99

> <Gold.Chemscore.Hbonds>
donor molecule, donor type, donor heavy atom, donor atom, acceptor molecule, acceptor atom, score
      L1  H     8    41       P1  7948  0.99
      L1  H    11    45       P1 10175  1.00

> <Gold.Chemscore.Hbond.Weighted>
-6.4882

> <Gold.Chemscore.Metal.Weighted>
-0.0000

> <Gold.Chemscore.Lipo.Weighted>
-10.0542

> <Gold.Chemscore.Internal_Hbond.Weighted>
0.0000

> <Gold.Chemscore.DEClash.Weighted>
0.0268

> <Gold.Chemscore.DEInternal.Weighted>
3.6227

> <Gold.Chemscore.Rot.Weighted>
8.4265

> <Gold.Chemscore.Internal.Correction.Weighted>
   9.000000E+99

> <Gold.Protein.RotatedTorsions>
[ 6907 6896 6895 6894 ] final  -64.94 input  -60.11 | X-H torsion
[ 7974 7965 7964 7962 ] final  -64.04 input  175.53 | X-H torsion
[ 8008 7997 7996 7995 ] final -107.24 input   59.86 | X-H torsion
[ 10167 10162 10161 10158 ] final  117.47 input  -65.29 | X-H torsion
[ 10718 10713 10712 10709 ] final  148.22 input   66.30 | X-H torsion
[ 10763 10752 10751 10750 ] final  118.80 input  -60.55 | X-H torsion
[ 11005 11000 10999 10996 ] final   15.37 input  -57.11 | X-H torsion

> <Gold.Protein.ActiveResidues>
 VAL166  LYS551  ARG553  GLY616  TRP617  ASP618  TYR619  PRO620  LYS621  CYS622 
 ASP623  PHE694  ASN695  SER759  ASP760  ASP761  ALA762  ILE779  LEU786  VAL792 
 PHE793  MET794  SER795  GLU796  ALA797  LYS798  CYS799  TRP800  GLU811  SER814 

> <Gold.Protein.RotatedAtoms>
  150.7554  134.6228  159.6144 H   0  0  0  0  0  0  0  0  0  0  0  0  # atno 6907 bound_to 6896
  152.3529  134.6977  160.0240 H   0  0  0  0  0  0  0  0  0  0  0  0  # atno 6908 bound_to 6896
  151.7392  133.3285  159.3397 H   0  0  0  0  0  0  0  0  0  0  0  0  # atno 6909 bound_to 6896
  145.7716  140.8810  143.0377 H   0  0  0  0  0  0  0  0  0  0  0  0  # atno 7974 bound_to 7965
  154.9264  140.0406  157.2025 H   0  0  0  0  0  0  0  0  0  0  0  0  # atno 8008 bound_to 7997
  154.8203  140.2882  155.5770 H   0  0  0  0  0  0  0  0  0  0  0  0  # atno 8009 bound_to 7997
  156.2979  140.2520  156.3109 H   0  0  0  0  0  0  0  0  0  0  0  0  # atno 8010 bound_to 7997
  139.6176  144.7095  151.2704 H   0  0  0  0  0  0  0  0  0  0  0  0  # atno 10167 bound_to 10162
  157.3113  131.0888  151.1314 H   0  0  0  0  0  0  0  0  0  0  0  0  # atno 10718 bound_to 10713
  153.5731  135.3498  155.2846 H   0  0  0  0  0  0  0  0  0  0  0  0  # atno 10763 bound_to 10752
  154.8679  135.4164  154.2703 H   0  0  0  0  0  0  0  0  0  0  0  0  # atno 10764 bound_to 10752
  153.3473  135.7053  153.6887 H   0  0  0  0  0  0  0  0  0  0  0  0  # atno 10765 bound_to 10752
  140.4591  134.1146  155.7713 H   0  0  0  0  0  0  0  0  0  0  0  0  # atno 11005 bound_to 11000
  144.6811  139.9863  143.7484 LP  0  0  0  0  0  0  0  0  0  0  0  0  # atno 17320 bound_to 7965
  146.0164  139.3213  143.0839 LP  0  0  0  0  0  0  0  0  0  0  0  0  # atno 17321 bound_to 7965
  140.7361  143.6716  150.8076 LP  0  0  0  0  0  0  0  0  0  0  0  0  # atno 17342 bound_to 10162
  140.0322  143.5432  152.2755 LP  0  0  0  0  0  0  0  0  0  0  0  0  # atno 17343 bound_to 10162
  157.2635  130.6670  149.5985 LP  0  0  0  0  0  0  0  0  0  0  0  0  # atno 17370 bound_to 10713
  155.9678  130.4501  150.5685 LP  0  0  0  0  0  0  0  0  0  0  0  0  # atno 17371 bound_to 10713
  141.1629  133.8758  157.1796 LP  0  0  0  0  0  0  0  0  0  0  0  0  # atno 17394 bound_to 11000
  139.9957  135.0047  157.0077 LP  0  0  0  0  0  0  0  0  0  0  0  0  # atno 17395 bound_to 11000

$$$$
