AV-unprocessed.smi:2083|AV-procd|sdf|8502|dock2
  -GOLD-   2272011213D 1   1.00000     0.00000
 Structure written by MMmdl.
 44 45  0  0  0  0  0  0  0  0  3 V2000
  146.5003  134.1807  162.8636 C   0  0  0  0  0  0  0  0  0  0  0  0
  147.0910  135.1197  161.8677 C   0  0  0  0  0  0  0  0  0  0  0  0
  147.6063  134.9394  160.6154 C   0  0  0  0  0  0  0  0  0  0  0  0
  147.9886  136.2531  160.2292 C   0  0  0  0  0  0  0  0  0  0  0  0
  148.5687  136.5983  159.0694 N   0  5  0  0  0  0  0  0  0  0  0  0
  148.6260  135.7168  158.0452 C   0  0  0  0  0  0  0  0  0  0  0  0
  149.5073  134.8779  157.8455 O   0  0  0  0  0  0  0  0  0  0  0  0
  147.5949  135.8148  157.1966 N   0  0  0  0  0  0  0  0  0  0  0  0
  147.3969  134.9912  156.0101 C   0  0  0  0  0  0  0  0  0  0  0  0
  147.8625  135.7130  154.7233 C   0  0  2  0  0  0  0  0  0  0  0  0
  147.5345  137.2241  154.8087 C   0  0  0  0  0  0  0  0  0  0  0  0
  147.2830  135.0272  153.5216 N   0  3  1  0  0  0  0  0  0  0  0  0
  147.6793  133.6022  153.3238 C   0  0  0  0  0  0  0  0  0  0  0  0
  147.1477  133.0450  151.9927 C   0  0  0  0  0  0  0  0  0  0  0  0
  145.6275  133.2078  151.8840 C   0  0  0  0  0  0  0  0  0  0  0  0
  145.2130  134.6681  152.1272 C   0  0  2  0  0  0  0  0  0  0  0  0
  145.5551  135.5958  150.9482 C   0  0  0  0  0  0  0  0  0  0  0  0
  145.7994  135.1754  153.4595 C   0  0  0  0  0  0  0  0  0  0  0  0
  147.7417  137.1489  161.1702 N   0  0  0  0  0  0  0  0  0  0  0  0
  147.1603  136.4310  162.2222 O   0  0  0  0  0  0  0  0  0  0  0  0
  147.2174  133.4058  163.1346 H   0  0  0  0  0  0  0  0  0  0  0  0
  145.6143  133.6944  162.4553 H   0  0  0  0  0  0  0  0  0  0  0  0
  146.2086  134.7044  163.7744 H   0  0  0  0  0  0  0  0  0  0  0  0
  147.6939  134.0163  160.0622 H   0  0  0  0  0  0  0  0  0  0  0  0
  146.8944  136.5136  157.3966 H   0  0  0  0  0  0  0  0  0  0  0  0
  147.9361  134.0576  156.1657 H   0  0  0  0  0  0  0  0  0  0  0  0
  146.3405  134.7310  155.9215 H   0  0  0  0  0  0  0  0  0  0  0  0
  148.9493  135.6368  154.6569 H   0  0  0  0  0  0  0  0  0  0  0  0
  147.9656  137.6809  155.6996 H   0  0  0  0  0  0  0  0  0  0  0  0
  146.4586  137.3982  154.8458 H   0  0  0  0  0  0  0  0  0  0  0  0
  147.9450  137.7804  153.9660 H   0  0  0  0  0  0  0  0  0  0  0  0
  148.7632  133.4981  153.2957 H   0  0  0  0  0  0  0  0  0  0  0  0
  147.3157  133.0013  154.1589 H   0  0  0  0  0  0  0  0  0  0  0  0
  147.6367  133.5528  151.1607 H   0  0  0  0  0  0  0  0  0  0  0  0
  147.4127  131.9912  151.9016 H   0  0  0  0  0  0  0  0  0  0  0  0
  145.2760  132.8640  150.9105 H   0  0  0  0  0  0  0  0  0  0  0  0
  145.1472  132.5687  152.6262 H   0  0  0  0  0  0  0  0  0  0  0  0
  144.1265  134.6829  152.2227 H   0  0  0  0  0  0  0  0  0  0  0  0
  146.6308  135.6814  150.7936 H   0  0  0  0  0  0  0  0  0  0  0  0
  145.1679  136.6007  151.1188 H   0  0  0  0  0  0  0  0  0  0  0  0
  145.1144  135.2292  150.0205 H   0  0  0  0  0  0  0  0  0  0  0  0
  145.3567  134.6177  154.2867 H   0  0  0  0  0  0  0  0  0  0  0  0
  145.5006  136.2126  153.6028 H   0  0  0  0  0  0  0  0  0  0  0  0
  147.6566  135.5214  152.7238 H   0  0  0  0  0  0  0  0  0  0  0  0
  1  2  1  0  0  0  0
  1 21  1  0  0  0  0
  1 22  1  0  0  0  0
  1 23  1  0  0  0  0
  2 20  1  0  0  0  0
  2  3  2  0  0  0  0
  3  4  1  0  0  0  0
  3 24  1  0  0  0  0
  4  5  1  0  0  0  0
  4 19  2  0  0  0  0
  5  6  1  0  0  0  0
  6  7  2  0  0  0  0
  6  8  1  0  0  0  0
  8  9  1  0  0  0  0
  8 25  1  0  0  0  0
  9 10  1  0  0  0  0
  9 26  1  0  0  0  0
  9 27  1  0  0  0  0
 10 11  1  0  0  0  0
 10 12  1  0  0  0  0
 10 28  1  0  0  0  0
 11 29  1  0  0  0  0
 11 30  1  0  0  0  0
 11 31  1  0  0  0  0
 12 18  1  0  0  0  0
 12 13  1  0  0  0  0
 12 44  1  0  0  0  0
 13 14  1  0  0  0  0
 13 32  1  0  0  0  0
 13 33  1  0  0  0  0
 14 15  1  0  0  0  0
 14 34  1  0  0  0  0
 14 35  1  0  0  0  0
 15 16  1  0  0  0  0
 15 36  1  0  0  0  0
 15 37  1  0  0  0  0
 16 17  1  0  0  0  0
 16 18  1  0  0  0  0
 16 38  1  0  0  0  0
 17 39  1  0  0  0  0
 17 40  1  0  0  0  0
 17 41  1  0  0  0  0
 18 42  1  0  0  0  0
 18 43  1  0  0  0  0
 19 20  1  0  0  0  0
M  CHG  1   5  -1
M  CHG  1  12   1
M  END
> <s_m_source_file>
AV-unprocessed.smi

> <i_m_source_file_index>
2083

> <i_lp_mmshare_version>
43012

> <i_f3d_flags>
0

> <s_epik_input>
W0NIM11jMVtjSF1jKG5vMSlbTkhdQyg9TylbTkhdW0NIMl1bQ0BIXShbQ0gzXSlOMltDSDJdW0NIMl1bQ0gyXVtDQEBIXShbQ0gzXSlbQ0gyXTI=

> <s_epik_cmdline>
J2VwaWtfcHl0aG9uJywgJy1waCcsICc3LjAnLCAnLXRuJywgJzgnLCAnLW1hJywgJzIwMCcsICctbWV0YWxfYmluZGluZycsICctaW1hZScsICc8aW5maWxlLm1hZT4nLCAnLW9tYWUnLCAnPG91dGZpbGUubWFlPic=

> <r_epik_Ionization_Penalty>
6.22434

> <r_epik_Ionization_Penalty_Charging>
6.22425

> <r_epik_Ionization_Penalty_Neutral>
9.62407e-05

> <r_epik_State_Penalty>
6.22423

> <r_epik_Charging_Adjusted_Penalty>
12.4485

> <i_epik_Tot_Q>
0

> <i_epik_Tot_abs_Q>
2

> <r_epik_Metal_State_Penalty>
2.16764

> <b_epik_Metal_Only>
1

> <s_lp_Force_Field>
OPLS_2005

> <r_lp_Energy>
14.8953

> <b_lp_Chiralities_Consistent>
1

> <s_lp_Variant>
AV-unprocessed.smi:2083-13

> <Gold.Version>
5.8.1

> <Gold.Id.Protein>
6NUR|6NUR_protein|mol2

> <Gold.PLP.Fitness>
39.3101

> <Gold.PLP.PLP>
-27.0362

> <Gold.PLP.part.hbond>
-4.0000

> <Gold.PLP.part.metal>
0.0000

> <Gold.PLP.part.buried>
-2.0346

> <Gold.PLP.part.nonpolar>
-21.2133

> <Gold.PLP.part.repulsive>
0.0000

> <Gold.PLP.ligand.clash>
0.0000

> <Gold.PLP.ligand.torsion>
1.1405

> <Gold.PLP.Chemscore.Hbond>
4.8240

> <Gold.PLP.Chemscore.CHOScore>
0.0000

> <Gold.PLP.Chemscore.Metal>
0.0000

> <Gold.Chemscore.Hbonds>
donor molecule, donor type, donor heavy atom, donor atom, acceptor molecule, acceptor atom, score
      L1  H    12    44       P1  7948  2.00
      P1  H  6896  6908       L1     7  0.96
      P1  H  6931  6943       L1    19  0.98
      P1  H  6934  6947       L1    19  0.85

> <Gold.PLP.Chemscore.Internal.Correction>
0.0828

> <Gold.Rescore>
     Score         DG    S(hbond)    S(metal)    S(lipo)     H(rot)  DE(clash)    DE(int)     intcor
     19.10     -20.30       3.64        0.00      55.98       1.52       0.06       1.14       ----

> <Gold.Chemscore.Fitness>
19.1015

> <Gold.Chemscore.DG>
-20.3020

> <Gold.Chemscore.ZeroCoef>
-5.4800

> <Gold.Chemscore.Hbond>
3.6409

> <Gold.Chemscore.Metal>
0.0000

> <Gold.Chemscore.Lipo>
55.9828

> <Gold.Chemscore.Internal_Hbond>
0.0000

> <Gold.Chemscore.DEClash>
0.0619

> <Gold.Chemscore.DEInternal>
1.1387

> <Gold.Chemscore.Rot>
1.5190

> <Gold.Chemscore.Internal.Correction>
   9.000000E+99

> <Gold.Chemscore.Hbonds>
donor molecule, donor type, donor heavy atom, donor atom, acceptor molecule, acceptor atom, score
      L1  H    12    44       P1  7948  0.96
      P1  H  6896  6908       L1     7  0.86
      P1  H  6931  6943       L1    19  0.55
      P1  H  6934  6947       L1    19  0.78

> <Gold.Chemscore.Hbond.Weighted>
-12.1607

> <Gold.Chemscore.Metal.Weighted>
-0.0000

> <Gold.Chemscore.Lipo.Weighted>
-6.5500

> <Gold.Chemscore.Internal_Hbond.Weighted>
0.0000

> <Gold.Chemscore.DEClash.Weighted>
0.0619

> <Gold.Chemscore.DEInternal.Weighted>
1.1387

> <Gold.Chemscore.Rot.Weighted>
3.8886

> <Gold.Chemscore.Internal.Correction.Weighted>
   9.000000E+99

> <Gold.Protein.RotatedTorsions>
[ 6907 6896 6895 6894 ] final  138.38 input  -60.11 | X-H torsion
[ 7974 7965 7964 7962 ] final  119.32 input  175.53 | X-H torsion
[ 8008 7997 7996 7995 ] final  150.64 input   59.86 | X-H torsion
[ 10167 10162 10161 10158 ] final  -54.78 input  -65.29 | X-H torsion
[ 10718 10713 10712 10709 ] final  140.82 input   66.30 | X-H torsion
[ 10763 10752 10751 10750 ] final   92.14 input  -60.55 | X-H torsion
[ 11005 11000 10999 10996 ] final -177.49 input  -57.11 | X-H torsion

> <Gold.Protein.ActiveResidues>
 VAL166  LYS551  ARG553  GLY616  TRP617  ASP618  TYR619  PRO620  LYS621  CYS622 
 ASP623  PHE694  ASN695  SER759  ASP760  ASP761  ALA762  ILE779  LEU786  VAL792 
 PHE793  MET794  SER795  GLU796  ALA797  LYS798  CYS799  TRP800  GLU811  SER814 

> <Gold.Protein.RotatedAtoms>
  152.2672  133.5350  159.5417 H   0  0  0  0  0  0  0  0  0  0  0  0  # atno 6907 bound_to 6896
  150.7146  134.0747  159.3886 H   0  0  0  0  0  0  0  0  0  0  0  0  # atno 6908 bound_to 6896
  151.8663  135.0506  160.0525 H   0  0  0  0  0  0  0  0  0  0  0  0  # atno 6909 bound_to 6896
  145.1445  139.3248  143.4599 H   0  0  0  0  0  0  0  0  0  0  0  0  # atno 7974 bound_to 7965
  156.2707  140.2069  156.6050 H   0  0  0  0  0  0  0  0  0  0  0  0  # atno 8008 bound_to 7997
  154.6877  140.0533  157.0355 H   0  0  0  0  0  0  0  0  0  0  0  0  # atno 8009 bound_to 7997
  155.0911  140.3196  155.4576 H   0  0  0  0  0  0  0  0  0  0  0  0  # atno 8010 bound_to 7997
  140.6412  143.2508  151.4985 H   0  0  0  0  0  0  0  0  0  0  0  0  # atno 10167 bound_to 10162
  157.3990  131.1014  151.0571 H   0  0  0  0  0  0  0  0  0  0  0  0  # atno 10718 bound_to 10713
  153.2159  135.4372  155.0433 H   0  0  0  0  0  0  0  0  0  0  0  0  # atno 10763 bound_to 10752
  154.8225  135.3344  154.6999 H   0  0  0  0  0  0  0  0  0  0  0  0  # atno 10764 bound_to 10752
  153.7434  135.7003  153.5017 H   0  0  0  0  0  0  0  0  0  0  0  0  # atno 10765 bound_to 10752
  140.4403  134.6437  157.4754 H   0  0  0  0  0  0  0  0  0  0  0  0  # atno 11005 bound_to 11000
  146.3501  140.1495  142.8592 LP  0  0  0  0  0  0  0  0  0  0  0  0  # atno 17320 bound_to 7965
  145.0497  140.9008  143.5003 LP  0  0  0  0  0  0  0  0  0  0  0  0  # atno 17321 bound_to 7965
  139.5621  144.2131  152.1707 LP  0  0  0  0  0  0  0  0  0  0  0  0  # atno 17342 bound_to 10162
  140.1402  144.5209  150.6748 LP  0  0  0  0  0  0  0  0  0  0  0  0  # atno 17343 bound_to 10162
  157.1576  130.6211  149.5601 LP  0  0  0  0  0  0  0  0  0  0  0  0  # atno 17370 bound_to 10713
  155.9818  130.4828  150.6847 LP  0  0  0  0  0  0  0  0  0  0  0  0  # atno 17371 bound_to 10713
  140.0074  134.6742  155.9433 LP  0  0  0  0  0  0  0  0  0  0  0  0  # atno 17394 bound_to 11000
  141.1708  133.6537  156.4646 LP  0  0  0  0  0  0  0  0  0  0  0  0  # atno 17395 bound_to 11000

$$$$
