AV-unprocessed.smi:1522|AV-procd|sdf|6137|dock4
  -GOLD-   22720 6283D 1   1.00000     0.00000
 Structure written by MMmdl.
 34 35  0  0  0  0  0  0  0  0  3 V2000
  146.2504  133.4185  154.7234 C   0  0  0  0  0  0  0  0  0  0  0  0
  147.3060  134.3398  154.0700 C   0  0  1  0  0  0  0  0  0  0  0  0
  148.7360  133.9013  154.4651 C   0  0  0  0  0  0  0  0  0  0  0  0
  149.7125  134.9541  154.2146 N   0  0  0  0  0  0  0  0  0  0  0  0
  150.5370  135.4762  155.1310 C   0  0  0  0  0  0  0  0  0  0  0  0
  150.5040  135.0629  156.2923 O   0  0  0  0  0  0  0  0  0  0  0  0
  151.3450  136.4443  154.6440 N   0  5  0  0  0  0  0  0  0  0  0  0
  150.9536  137.7286  154.6824 C   0  0  0  0  0  0  0  0  0  0  0  0
  151.8281  138.7469  154.6493 N   0  0  0  0  0  0  0  0  0  0  0  0
  151.2170  139.9927  154.6930 N   0  0  0  0  0  0  0  0  0  0  0  0
  149.8900  139.8813  154.7507 C   0  0  0  0  0  0  0  0  0  0  0  0
  149.2664  138.2454  154.7525 S   0  0  0  0  0  0  0  0  0  0  0  0
  147.1529  134.3669  152.5865 N   0  3  0  0  0  0  0  0  0  0  0  0
  147.2426  133.0550  151.9083 C   0  0  0  0  0  0  0  0  0  0  0  0
  146.5833  133.2650  150.5504 C   0  0  0  0  0  0  0  0  0  0  0  0
  145.4332  134.2123  150.8712 C   0  0  0  0  0  0  0  0  0  0  0  0
  145.9134  135.0163  152.0875 C   0  0  0  0  0  0  0  0  0  0  0  0
  146.3575  133.3858  155.8076 H   0  0  0  0  0  0  0  0  0  0  0  0
  146.3371  132.3959  154.3545 H   0  0  0  0  0  0  0  0  0  0  0  0
  145.2334  133.7588  154.5307 H   0  0  0  0  0  0  0  0  0  0  0  0
  147.1426  135.3539  154.4389 H   0  0  0  0  0  0  0  0  0  0  0  0
  148.7655  133.6304  155.5219 H   0  0  0  0  0  0  0  0  0  0  0  0
  149.0473  133.0202  153.9030 H   0  0  0  0  0  0  0  0  0  0  0  0
  149.7696  135.3190  153.2751 H   0  0  0  0  0  0  0  0  0  0  0  0
  149.2747  140.7677  154.7878 H   0  0  0  0  0  0  0  0  0  0  0  0
  148.2734  132.7130  151.8108 H   0  0  0  0  0  0  0  0  0  0  0  0
  146.6854  132.3075  152.4760 H   0  0  0  0  0  0  0  0  0  0  0  0
  147.2847  133.7482  149.8686 H   0  0  0  0  0  0  0  0  0  0  0  0
  146.2512  132.3340  150.0900 H   0  0  0  0  0  0  0  0  0  0  0  0
  145.1686  134.8474  150.0252 H   0  0  0  0  0  0  0  0  0  0  0  0
  144.5475  133.6352  151.1405 H   0  0  0  0  0  0  0  0  0  0  0  0
  145.1304  135.0305  152.8470 H   0  0  0  0  0  0  0  0  0  0  0  0
  146.1346  136.0497  151.8183 H   0  0  0  0  0  0  0  0  0  0  0  0
  147.9183  134.9165  152.2228 H   0  0  0  0  0  0  0  0  0  0  0  0
  1  2  1  0  0  0  0
  1 18  1  0  0  0  0
  1 19  1  0  0  0  0
  1 20  1  0  0  0  0
  2  3  1  0  0  0  0
  2 13  1  0  0  0  0
  2 21  1  0  0  0  0
  3  4  1  0  0  0  0
  3 22  1  0  0  0  0
  3 23  1  0  0  0  0
  4  5  1  0  0  0  0
  4 24  1  0  0  0  0
  5  6  2  0  0  0  0
  5  7  1  0  0  0  0
  7  8  1  0  0  0  0
  8 12  1  0  0  0  0
  8  9  2  0  0  0  0
  9 10  1  0  0  0  0
 10 11  2  0  0  0  0
 11 12  1  0  0  0  0
 11 25  1  0  0  0  0
 13 17  1  0  0  0  0
 13 14  1  0  0  0  0
 13 34  1  0  0  0  0
 14 15  1  0  0  0  0
 14 26  1  0  0  0  0
 14 27  1  0  0  0  0
 15 16  1  0  0  0  0
 15 28  1  0  0  0  0
 15 29  1  0  0  0  0
 16 17  1  0  0  0  0
 16 30  1  0  0  0  0
 16 31  1  0  0  0  0
 17 32  1  0  0  0  0
 17 33  1  0  0  0  0
M  CHG  1   7  -1
M  CHG  1  13   1
M  END
> <s_m_source_file>
AV-unprocessed.smi

> <i_m_source_file_index>
1522

> <i_lp_mmshare_version>
43012

> <i_f3d_flags>
0

> <s_epik_input>
W0NIMl0xW0NIMl1bQ0gyXVtDSDJdTjFbQ0BIXShbQ0gzXSlbQ0gyXVtOSF1DKD1PKVtOSF1jMm5uW2NIXXMy

> <s_epik_cmdline>
J2VwaWtfcHl0aG9uJywgJy1waCcsICc3LjAnLCAnLXRuJywgJzgnLCAnLW1hJywgJzIwMCcsICctbWV0YWxfYmluZGluZycsICctaW1hZScsICc8aW5maWxlLm1hZT4nLCAnLW9tYWUnLCAnPG91dGZpbGUubWFlPic=

> <r_lp_tautomer_probability>
1

> <r_epik_Ionization_Penalty>
3.04208

> <r_epik_Ionization_Penalty_Charging>
3.00964

> <r_epik_Ionization_Penalty_Neutral>
0.0324455

> <r_epik_State_Penalty>
3.0051

> <r_epik_Charging_Adjusted_Penalty>
6.01474

> <i_epik_Tot_Q>
0

> <i_epik_Tot_abs_Q>
2

> <r_epik_Metal_State_Penalty>
0.454155

> <b_epik_Metal_Only>
1

> <s_lp_Force_Field>
OPLS_2005

> <r_lp_Energy>
23.3187

> <b_lp_Chiralities_Consistent>
1

> <s_lp_Variant>
AV-unprocessed.smi:1522-4

> <Gold.Version>
5.8.1

> <Gold.Id.Protein>
6NUR|6NUR_protein|mol2

> <Gold.PLP.Fitness>
41.1559

> <Gold.PLP.PLP>
-27.1243

> <Gold.PLP.part.hbond>
-4.0000

> <Gold.PLP.part.metal>
0.0000

> <Gold.PLP.part.buried>
-4.6127

> <Gold.PLP.part.nonpolar>
-18.6218

> <Gold.PLP.part.repulsive>
0.3605

> <Gold.PLP.ligand.clash>
0.0000

> <Gold.PLP.ligand.torsion>
1.0481

> <Gold.PLP.Chemscore.Hbond>
5.3472

> <Gold.PLP.Chemscore.CHOScore>
0.0000

> <Gold.PLP.Chemscore.Metal>
0.0000

> <Gold.Chemscore.Hbonds>
donor molecule, donor type, donor heavy atom, donor atom, acceptor molecule, acceptor atom, score
      L1  H     4    24       P1  7948  0.25
      L1  H    13    34       P1  7948  2.00
      P1  H  7989  7998       L1    10  1.00
      P1  H 10752 10764       L1     7  2.00

> <Gold.PLP.Chemscore.Internal.Correction>
0.0861

> <Gold.Rescore>
     Score         DG    S(hbond)    S(metal)    S(lipo)     H(rot)  DE(clash)    DE(int)     intcor
     14.12     -15.11       2.61        0.00      44.52       1.68       0.03       0.96       ----

> <Gold.Chemscore.Fitness>
14.1217

> <Gold.Chemscore.DG>
-15.1069

> <Gold.Chemscore.ZeroCoef>
-5.4800

> <Gold.Chemscore.Hbond>
2.6075

> <Gold.Chemscore.Metal>
0.0000

> <Gold.Chemscore.Lipo>
44.5194

> <Gold.Chemscore.Internal_Hbond>
0.0000

> <Gold.Chemscore.DEClash>
0.0272

> <Gold.Chemscore.DEInternal>
0.9580

> <Gold.Chemscore.Rot>
1.6762

> <Gold.Chemscore.Internal.Correction>
   9.000000E+99

> <Gold.Chemscore.Hbonds>
donor molecule, donor type, donor heavy atom, donor atom, acceptor molecule, acceptor atom, score
      L1  H    13    34       P1  7948  0.70
      P1  H  7989  7998       L1    10  0.58
      P1  H 10752 10764       L1     7  0.35

> <Gold.Chemscore.Hbond.Weighted>
-8.7091

> <Gold.Chemscore.Metal.Weighted>
-0.0000

> <Gold.Chemscore.Lipo.Weighted>
-5.2088

> <Gold.Chemscore.Internal_Hbond.Weighted>
0.0000

> <Gold.Chemscore.DEClash.Weighted>
0.0272

> <Gold.Chemscore.DEInternal.Weighted>
0.9580

> <Gold.Chemscore.Rot.Weighted>
4.2910

> <Gold.Chemscore.Internal.Correction.Weighted>
   9.000000E+99

> <Gold.Protein.RotatedTorsions>
[ 6907 6896 6895 6894 ] final -101.64 input  -60.11 | X-H torsion
[ 7974 7965 7964 7962 ] final    5.10 input  175.53 | X-H torsion
[ 8008 7997 7996 7995 ] final  149.30 input   59.86 | X-H torsion
[ 10167 10162 10161 10158 ] final  113.70 input  -65.29 | X-H torsion
[ 10718 10713 10712 10709 ] final  -14.29 input   66.30 | X-H torsion
[ 10763 10752 10751 10750 ] final  -63.47 input  -60.55 | X-H torsion
[ 11005 11000 10999 10996 ] final  141.26 input  -57.11 | X-H torsion

> <Gold.Protein.ActiveResidues>
 VAL166  LYS551  ARG553  GLY616  TRP617  ASP618  TYR619  PRO620  LYS621  CYS622 
 ASP623  PHE694  ASN695  SER759  ASP760  ASP761  ALA762  ILE779  LEU786  VAL792 
 PHE793  MET794  SER795  GLU796  ALA797  LYS798  CYS799  TRP800  GLU811  SER814 

> <Gold.Protein.RotatedAtoms>
  150.7163  134.0704  159.3862 H   0  0  0  0  0  0  0  0  0  0  0  0  # atno 6907 bound_to 6896
  151.8686  135.0496  160.0486 H   0  0  0  0  0  0  0  0  0  0  0  0  # atno 6908 bound_to 6896
  152.2661  133.5305  159.5447 H   0  0  0  0  0  0  0  0  0  0  0  0  # atno 6909 bound_to 6896
  146.2442  140.0435  142.8380 H   0  0  0  0  0  0  0  0  0  0  0  0  # atno 7974 bound_to 7965
  156.2760  140.2105  156.5835 H   0  0  0  0  0  0  0  0  0  0  0  0  # atno 8008 bound_to 7997
  154.7039  140.0518  157.0508 H   0  0  0  0  0  0  0  0  0  0  0  0  # atno 8009 bound_to 7997
  155.0697  140.3175  155.4637 H   0  0  0  0  0  0  0  0  0  0  0  0  # atno 8010 bound_to 7997
  139.6442  144.7125  151.2175 H   0  0  0  0  0  0  0  0  0  0  0  0  # atno 10167 bound_to 10162
  156.6180  130.4867  149.6175 H   0  0  0  0  0  0  0  0  0  0  0  0  # atno 10718 bound_to 10713
  154.3156  135.6206  153.5485 H   0  0  0  0  0  0  0  0  0  0  0  0  # atno 10763 bound_to 10752
  152.9825  135.5711  154.5128 H   0  0  0  0  0  0  0  0  0  0  0  0  # atno 10764 bound_to 10752
  154.4786  135.2862  155.1564 H   0  0  0  0  0  0  0  0  0  0  0  0  # atno 10765 bound_to 10752
  140.0388  134.9315  157.0803 H   0  0  0  0  0  0  0  0  0  0  0  0  # atno 11005 bound_to 11000
  145.1048  140.9368  143.4691 LP  0  0  0  0  0  0  0  0  0  0  0  0  # atno 17320 bound_to 7965
  145.0635  139.3086  143.5868 LP  0  0  0  0  0  0  0  0  0  0  0  0  # atno 17321 bound_to 7965
  140.7506  143.6259  150.8469 LP  0  0  0  0  0  0  0  0  0  0  0  0  # atno 17342 bound_to 10162
  139.9900  143.5858  152.2913 LP  0  0  0  0  0  0  0  0  0  0  0  0  # atno 17343 bound_to 10162
  156.2335  130.6808  151.1487 LP  0  0  0  0  0  0  0  0  0  0  0  0  # atno 17370 bound_to 10713
  157.7236  131.0665  150.6032 LP  0  0  0  0  0  0  0  0  0  0  0  0  # atno 17371 bound_to 10713
  140.4103  134.1988  155.7163 LP  0  0  0  0  0  0  0  0  0  0  0  0  # atno 17394 bound_to 11000
  141.1872  133.8287  157.1041 LP  0  0  0  0  0  0  0  0  0  0  0  0  # atno 17395 bound_to 11000

$$$$
