#       Name:                AV-unprocessed.smi:831
#       Creating user name   scv26
#       Creation time:       Fri Mar 27 01:32:50 2020


#       File generated by GOLD software.
#

@<TRIPOS>MOLECULE
AV-unprocessed.smi:831
    58    59     1
SMALL
NO_CHARGES


@<TRIPOS>ATOM
      1 ****        -6.1404   0.3403  -0.5068 C.3            1 S1                 0.0000
      2 ****        -5.6806  -1.1181  -0.3695 C.3            1 S1                 0.0000
      3 ****        -6.0475  -1.6785   1.0137 C.3            1 S1                 0.0000
      4 ****        -4.1747  -1.2515  -0.6467 C.3            1 S1                 0.0000
      5 ****        -3.8354  -2.6322  -0.7131 O.3            1 S1                 0.0000
      6 ****        -2.4517  -2.9092  -0.9042 C.3            1 S1                 0.0000
      7 ****        -2.3382  -4.3833  -1.3185 C.3            1 S1                 0.0000
      8 ****        -1.6825  -2.6492   0.4083 C.2            1 S1                 0.0000
      9 ****        -2.0228  -3.2421   1.4305 O.2            1 S1                 0.0000
     10 ****        -0.6706  -1.7663   0.4363 N.am           1 S1                 0.0000
     11 ****         0.1557  -1.4029   1.5823 C.3            1 S1                 0.0000
     12 ****         1.1351  -0.2704   1.3094 C.ar           1 S1                 0.0000
     13 ****         1.0077   0.5984   0.2039 C.ar           1 S1                 0.0000
     14 ****         1.9515   1.6281   0.0301 C.ar           1 S1                 0.0000
     15 ****         3.0021   1.7692   0.9672 C.ar           1 S1                 0.0000
     16 ****         3.9604   2.7935   0.8084 N.3            1 S1                 0.0000
     17 ****         4.8636   3.0697   1.9241 C.3            1 S1                 0.0000
     18 ****         5.6210   4.3868   1.6849 C.3            1 S1                 0.0000
     19 ****         6.2961   4.3307   0.4328 O.3            1 S1                 0.0000
     20 ****         5.3876   4.1711  -0.6515 C.3            1 S1                 0.0000
     21 ****         4.6165   2.8490  -0.4955 C.3            1 S1                 0.0000
     22 ****         3.1138   0.9418   2.0356 N.ar           1 S1                 0.0000
     23 ****         2.2073  -0.0451   2.1963 C.ar           1 S1                 0.0000
     24 ****        -5.6419   0.9834   0.2192 H              1 S1                 0.0000
     25 ****        -7.2154   0.4296  -0.3483 H              1 S1                 0.0000
     26 ****        -5.9228   0.7297  -1.5017 H              1 S1                 0.0000
     27 ****        -6.2134  -1.7016  -1.1215 H              1 S1                 0.0000
     28 ****        -5.5348  -1.1371   1.8093 H              1 S1                 0.0000
     29 ****        -5.7747  -2.7305   1.1007 H              1 S1                 0.0000
     30 ****        -7.1194  -1.6027   1.1972 H              1 S1                 0.0000
     31 ****        -3.9239  -0.7785  -1.5974 H              1 S1                 0.0000
     32 ****        -3.6099  -0.7349   0.1302 H              1 S1                 0.0000
     33 ****        -2.0852  -2.2997  -1.7292 H              1 S1                 0.0000
     34 ****        -1.2987  -4.6685  -1.4839 H              1 S1                 0.0000
     35 ****        -2.8807  -4.5660  -2.2465 H              1 S1                 0.0000
     36 ****        -2.7526  -5.0482  -0.5595 H              1 S1                 0.0000
     37 ****        -0.4667  -1.2833  -0.4264 H              1 S1                 0.0000
     38 ****        -0.4846  -1.0955   2.4101 H              1 S1                 0.0000
     39 ****         0.7160  -2.2802   1.9095 H              1 S1                 0.0000
     40 ****         0.1997   0.4947  -0.5051 H              1 S1                 0.0000
     41 ****         1.8491   2.3037  -0.8060 H              1 S1                 0.0000
     42 ****         4.3019   3.1401   2.8566 H              1 S1                 0.0000
     43 ****         5.5711   2.2462   2.0294 H              1 S1                 0.0000
     44 ****         4.9374   5.2372   1.7043 H              1 S1                 0.0000
     45 ****         6.3529   4.5488   2.4763 H              1 S1                 0.0000
     46 ****         4.7016   5.0187  -0.6935 H              1 S1                 0.0000
     47 ****         5.9484   4.1703  -1.5865 H              1 S1                 0.0000
     48 ****         5.3036   2.0058  -0.5784 H              1 S1                 0.0000
     49 ****         3.9026   2.7567  -1.3125 H              1 S1                 0.0000
     50 ****         2.3421  -0.6744   3.0638 H              1 S1                 0.0000
     51 ****        -4.3401  -3.0383  -1.4750 LP             1 S1                 0.0000
     52 ****        -4.1214  -3.0624   0.1431 LP             1 S1                 0.0000
     53 ****        -2.7895  -3.8836   1.4047 LP             1 S1                 0.0000
     54 ****        -1.5328  -3.0827   2.2875 LP             1 S1                 0.0000
     55 ****         3.3463   3.5823   0.8352 LP             1 S1                 0.0000
     56 ****         6.9293   3.5568   0.4410 LP             1 S1                 0.0000
     57 ****         6.8087   5.1795   0.3032 LP             1 S1                 0.0000
     58 ****         3.8565   1.0610   2.6944 LP             1 S1                 0.0000
@<TRIPOS>BOND
    1    1    2 1     
    2    1   24 1     
    3    1   25 1     
    4    1   26 1     
    5    2    3 1     
    6    2    4 1     
    7    2   27 1     
    8    3   28 1     
    9    3   29 1     
   10    3   30 1     
   11    4    5 1     
   12    4   31 1     
   13    4   32 1     
   14    5    6 1     
   15    6    7 1     
   16    6    8 1     
   17    6   33 1     
   18    7   34 1     
   19    7   35 1     
   20    7   36 1     
   21    8    9 2     
   22    8   10 am    
   23   10   11 1     
   24   10   37 1     
   25   11   12 1     
   26   11   38 1     
   27   11   39 1     
   28   12   23 ar    
   29   12   13 ar    
   30   13   14 ar    
   31   13   40 1     
   32   14   15 ar    
   33   14   41 1     
   34   15   16 1     
   35   15   22 ar    
   36   16   21 1     
   37   16   17 1     
   38   17   18 1     
   39   17   42 1     
   40   17   43 1     
   41   18   19 1     
   42   18   44 1     
   43   18   45 1     
   44   19   20 1     
   45   20   21 1     
   46   20   46 1     
   47   20   47 1     
   48   21   48 1     
   49   21   49 1     
   50   22   23 ar    
   51   23   50 1     
   52    5   51 1     
   53    5   52 1     
   54    9   53 1     
   55    9   54 1     
   56   16   55 1     
   57   19   56 1     
   58   19   57 1     
   59   22   58 1     
@<TRIPOS>SUBSTRUCTURE
      1 S1             1
@<TRIPOS>SET
LONE_PAIRS      STATIC     ATOMS    <user>   **** ""
8 51 52 53 54 55 56 57 58
DONOR_HYDROGENS      STATIC     ATOMS    <user>   **** ""
1 37
ATOM$BLUE        STATIC     ATOMS    COLORGROUP SYSTEM
8 51 52 53 54 55 56 57 58
ATOM$RED        STATIC     ATOMS    COLORGROUP SYSTEM
1 37
