AV-unprocessed.smi:578|AV-procd|sdf|2983|dock3
  -GOLD-   2262023493D 1   1.00000     0.00000
 Structure written by MMmdl.
 33 34  0  0  0  0  0  0  0  0  3 V2000
  151.7311  144.7078  158.1279 C   0  0  0  0  0  0  0  0  0  0  0  0
  150.8879  143.6518  158.8648 C   0  0  1  0  0  0  0  0  0  0  0  0
  150.8512  142.2851  158.1514 C   0  0  0  0  0  0  0  0  0  0  0  0
  152.1152  141.5801  158.3209 N   0  0  0  0  0  0  0  0  0  0  0  0
  152.1844  140.3843  157.5931 C   0  0  0  0  0  0  0  0  0  0  0  0
  151.8731  140.3982  156.2168 C   0  0  0  0  0  0  0  0  0  0  0  0
  151.9425  139.1981  155.4822 C   0  0  0  0  0  0  0  0  0  0  0  0
  152.3030  138.0534  156.1001 N   0  3  0  0  0  0  0  0  0  0  0  0
  152.6098  137.9826  157.4158 C   0  0  0  0  0  0  0  0  0  0  0  0
  152.9964  136.6553  157.9981 C   0  0  0  0  0  0  0  0  0  0  0  0
  153.2191  135.7002  157.2220 O   0  0  0  0  0  0  0  0  0  0  0  0
  153.0819  136.5522  159.2422 O   0  5  0  0  0  0  0  0  0  0  0  0
  152.5558  139.1599  158.1975 C   0  0  0  0  0  0  0  0  0  0  0  0
  152.4834  141.4333  159.7222 C   0  0  0  0  0  0  0  0  0  0  0  0
  152.5502  142.8159  160.3956 C   0  0  2  0  0  0  0  0  0  0  0  0
  152.8314  142.7088  161.8979 C   0  0  0  0  0  0  0  0  0  0  0  0
  151.3011  143.4869  160.2244 O   0  0  0  0  0  0  0  0  0  0  0  0
  151.3205  144.9066  157.1377 H   0  0  0  0  0  0  0  0  0  0  0  0
  152.7649  144.3918  157.9912 H   0  0  0  0  0  0  0  0  0  0  0  0
  151.7379  145.6504  158.6757 H   0  0  0  0  0  0  0  0  0  0  0  0
  149.8675  144.0340  158.9015 H   0  0  0  0  0  0  0  0  0  0  0  0
  150.0456  141.6809  158.5709 H   0  0  0  0  0  0  0  0  0  0  0  0
  150.6316  142.4162  157.0909 H   0  0  0  0  0  0  0  0  0  0  0  0
  151.5858  141.3181  155.7286 H   0  0  0  0  0  0  0  0  0  0  0  0
  151.7227  139.1190  154.4278 H   0  0  0  0  0  0  0  0  0  0  0  0
  152.7961  139.1242  159.2506 H   0  0  0  0  0  0  0  0  0  0  0  0
  151.7514  140.8062  160.2332 H   0  0  0  0  0  0  0  0  0  0  0  0
  153.4488  140.9314  159.7989 H   0  0  0  0  0  0  0  0  0  0  0  0
  153.3489  143.4055  159.9446 H   0  0  0  0  0  0  0  0  0  0  0  0
  153.7814  142.2072  162.0843 H   0  0  0  0  0  0  0  0  0  0  0  0
  152.0490  142.1450  162.4069 H   0  0  0  0  0  0  0  0  0  0  0  0
  152.8817  143.6970  162.3559 H   0  0  0  0  0  0  0  0  0  0  0  0
  152.3487  137.1918  155.5548 H   0  0  0  0  0  0  0  0  0  0  0  0
  1  2  1  0  0  0  0
  1 18  1  0  0  0  0
  1 19  1  0  0  0  0
  1 20  1  0  0  0  0
  2 17  1  0  0  0  0
  2  3  1  0  0  0  0
  2 21  1  0  0  0  0
  3  4  1  0  0  0  0
  3 22  1  0  0  0  0
  3 23  1  0  0  0  0
  4  5  1  0  0  0  0
  4 14  1  0  0  0  0
  5 13  1  0  0  0  0
  5  6  2  0  0  0  0
  6  7  1  0  0  0  0
  6 24  1  0  0  0  0
  7  8  2  0  0  0  0
  7 25  1  0  0  0  0
  8  9  1  0  0  0  0
  8 33  1  0  0  0  0
  9 10  1  0  0  0  0
  9 13  2  0  0  0  0
 10 11  2  0  0  0  0
 10 12  1  0  0  0  0
 13 26  1  0  0  0  0
 14 15  1  0  0  0  0
 14 27  1  0  0  0  0
 14 28  1  0  0  0  0
 15 16  1  0  0  0  0
 15 17  1  0  0  0  0
 15 29  1  0  0  0  0
 16 30  1  0  0  0  0
 16 31  1  0  0  0  0
 16 32  1  0  0  0  0
M  CHG  1   8   1
M  CHG  1  12  -1
M  END
> <s_m_source_file>
AV-unprocessed.smi

> <i_m_source_file_index>
578

> <i_lp_mmshare_version>
43012

> <i_f3d_flags>
0

> <s_epik_input>
W0NIM11bQ0BASF0xW0NIMl1OKFtDSDJdW0NASF0oTzEpW0NIM10pYzJbY0hdW2NIXW5jKFtjSF0yKUMoPU8pW09IXQ==

> <s_epik_cmdline>
J2VwaWtfcHl0aG9uJywgJy1waCcsICc3LjAnLCAnLXRuJywgJzgnLCAnLW1hJywgJzIwMCcsICctbWV0YWxfYmluZGluZycsICctaW1hZScsICc8aW5maWxlLm1hZT4nLCAnLW9tYWUnLCAnPG91dGZpbGUubWFlPic=

> <r_epik_Ionization_Penalty>
0.0203651

> <r_epik_Ionization_Penalty_Charging>
0.0203651

> <r_epik_Ionization_Penalty_Neutral>
3.18831e-12

> <r_epik_State_Penalty>
0.0163096

> <r_epik_Charging_Adjusted_Penalty>
0.0366747

> <i_epik_Tot_Q>
0

> <i_epik_Tot_abs_Q>
2

> <r_epik_Metal_State_Penalty>
1.99323

> <b_epik_Metal_Only>
0

> <s_lp_Force_Field>
OPLS_2005

> <r_lp_Energy>
19.2527

> <b_lp_Chiralities_Consistent>
1

> <s_lp_Variant>
AV-unprocessed.smi:578-3

> <Gold.Version>
5.8.1

> <Gold.Id.Protein>
6NUR|6NUR_protein|mol2

> <Gold.PLP.Fitness>
44.4395

> <Gold.PLP.PLP>
-33.0153

> <Gold.PLP.part.hbond>
-2.2595

> <Gold.PLP.part.metal>
0.0000

> <Gold.PLP.part.buried>
-4.8476

> <Gold.PLP.part.nonpolar>
-25.2129

> <Gold.PLP.part.repulsive>
0.2073

> <Gold.PLP.ligand.clash>
0.4240

> <Gold.PLP.ligand.torsion>
0.1244

> <Gold.PLP.Chemscore.Hbond>
4.0000

> <Gold.PLP.Chemscore.CHOScore>
0.0000

> <Gold.PLP.Chemscore.Metal>
0.0000

> <Gold.Chemscore.Hbonds>
donor molecule, donor type, donor heavy atom, donor atom, acceptor molecule, acceptor atom, score
      P1  H  6896  6908       L1    12  2.00
      P1  H 10752 10763       L1    11  2.00

> <Gold.PLP.Chemscore.Internal.Correction>
0.0969

> <Gold.Rescore>
     Score         DG    S(hbond)    S(metal)    S(lipo)     H(rot)  DE(clash)    DE(int)     intcor
     20.00     -20.27       1.87        0.00      94.89       1.00       0.15       0.11       ----

> <Gold.Chemscore.Fitness>
19.9999

> <Gold.Chemscore.DG>
-20.2651

> <Gold.Chemscore.ZeroCoef>
-5.4800

> <Gold.Chemscore.Hbond>
1.8693

> <Gold.Chemscore.Metal>
0.0000

> <Gold.Chemscore.Lipo>
94.8866

> <Gold.Chemscore.Internal_Hbond>
0.0000

> <Gold.Chemscore.DEClash>
0.1520

> <Gold.Chemscore.DEInternal>
0.1132

> <Gold.Chemscore.Rot>
1.0000

> <Gold.Chemscore.Internal.Correction>
   9.000000E+99

> <Gold.Chemscore.Hbonds>
donor molecule, donor type, donor heavy atom, donor atom, acceptor molecule, acceptor atom, score
      P1  H  6896  6908       L1    12  0.84
      P1  H 10752 10763       L1    11  1.00

> <Gold.Chemscore.Hbond.Weighted>
-6.2434

> <Gold.Chemscore.Metal.Weighted>
-0.0000

> <Gold.Chemscore.Lipo.Weighted>
-11.1017

> <Gold.Chemscore.Internal_Hbond.Weighted>
0.0000

> <Gold.Chemscore.DEClash.Weighted>
0.1520

> <Gold.Chemscore.DEInternal.Weighted>
0.1132

> <Gold.Chemscore.Rot.Weighted>
2.5600

> <Gold.Chemscore.Internal.Correction.Weighted>
   9.000000E+99

> <Gold.Protein.RotatedTorsions>
[ 6907 6896 6895 6894 ] final  -91.27 input  -60.11 | X-H torsion
[ 7974 7965 7964 7962 ] final  -26.66 input  175.53 | X-H torsion
[ 8008 7997 7996 7995 ] final   88.95 input   59.86 | X-H torsion
[ 10167 10162 10161 10158 ] final  161.69 input  -65.29 | X-H torsion
[ 10718 10713 10712 10709 ] final  -89.50 input   66.30 | X-H torsion
[ 10763 10752 10751 10750 ] final  125.12 input  -60.55 | X-H torsion
[ 11005 11000 10999 10996 ] final -148.88 input  -57.11 | X-H torsion

> <Gold.Protein.ActiveResidues>
 VAL166  LYS551  ARG553  GLY616  TRP617  ASP618  TYR619  PRO620  LYS621  CYS622 
 ASP623  PHE694  ASN695  SER759  ASP760  ASP761  ALA762  ILE779  LEU786  VAL792 
 PHE793  MET794  SER795  GLU796  ALA797  LYS798  CYS799  TRP800  GLU811  SER814 

> <Gold.Protein.RotatedAtoms>
  150.6890  134.2303  159.4431 H   0  0  0  0  0  0  0  0  0  0  0  0  # atno 6907 bound_to 6896
  152.0254  134.9796  160.0581 H   0  0  0  0  0  0  0  0  0  0  0  0  # atno 6908 bound_to 6896
  152.1357  133.4399  159.4779 H   0  0  0  0  0  0  0  0  0  0  0  0  # atno 6909 bound_to 6896
  146.1410  140.5049  142.8652 H   0  0  0  0  0  0  0  0  0  0  0  0  # atno 7974 bound_to 7965
  155.9941  140.3366  155.6781 H   0  0  0  0  0  0  0  0  0  0  0  0  # atno 8008 bound_to 7997
  155.6381  140.0692  157.2645 H   0  0  0  0  0  0  0  0  0  0  0  0  # atno 8009 bound_to 7997
  154.4228  140.1747  156.1531 H   0  0  0  0  0  0  0  0  0  0  0  0  # atno 8010 bound_to 7997
  139.4852  144.4512  151.8828 H   0  0  0  0  0  0  0  0  0  0  0  0  # atno 10167 bound_to 10162
  155.9984  130.4874  150.5180 H   0  0  0  0  0  0  0  0  0  0  0  0  # atno 10718 bound_to 10713
  153.6723  135.3328  155.3156 H   0  0  0  0  0  0  0  0  0  0  0  0  # atno 10763 bound_to 10752
  154.8487  135.4389  154.1692 H   0  0  0  0  0  0  0  0  0  0  0  0  # atno 10764 bound_to 10752
  153.2687  135.6998  153.7580 H   0  0  0  0  0  0  0  0  0  0  0  0  # atno 10765 bound_to 10752
  140.7566  134.3346  157.5112 H   0  0  0  0  0  0  0  0  0  0  0  0  # atno 11005 bound_to 11000
  144.7793  140.5806  143.6616 LP  0  0  0  0  0  0  0  0  0  0  0  0  # atno 17320 bound_to 7965
  145.5046  139.1482  143.3638 LP  0  0  0  0  0  0  0  0  0  0  0  0  # atno 17321 bound_to 7965
  140.3968  144.2544  150.5895 LP  0  0  0  0  0  0  0  0  0  0  0  0  # atno 17342 bound_to 10162
  140.5094  143.2295  151.8558 LP  0  0  0  0  0  0  0  0  0  0  0  0  # atno 17343 bound_to 10162
  157.3145  131.0670  151.1977 LP  0  0  0  0  0  0  0  0  0  0  0  0  # atno 17370 bound_to 10713
  157.2911  130.6797  149.6115 LP  0  0  0  0  0  0  0  0  0  0  0  0  # atno 17371 bound_to 10713
  139.8778  134.9175  156.3181 LP  0  0  0  0  0  0  0  0  0  0  0  0  # atno 17394 bound_to 11000
  140.9702  133.7332  156.0524 LP  0  0  0  0  0  0  0  0  0  0  0  0  # atno 17395 bound_to 11000

$$$$
