AV-unprocessed.smi:2589|AV-procd|sdf|10151|dock9
  -GOLD-   2272014163D 1   1.00000     0.00000
 Structure written by MMmdl.
 41 42  0  0  0  0  0  0  0  0  1 V2000
  148.3296  127.6962  151.5318 C   0  0  0  0  0  0  0  0  0  0  0  0
  148.5264  128.3830  152.8784 C   0  0  0  0  0  0  0  0  0  0  0  0
  148.4578  127.7320  153.9204 O   0  0  0  0  0  0  0  0  0  0  0  0
  148.7735  129.7014  152.8422 N   0  0  0  0  0  0  0  0  0  0  0  0
  149.0149  130.5429  154.0114 C   0  0  0  0  0  0  0  0  0  0  0  0
  148.0643  131.7436  154.0819 C   0  0  0  0  0  0  0  0  0  0  0  0
  148.0889  132.5075  155.0478 O   0  0  0  0  0  0  0  0  0  0  0  0
  147.2443  131.9100  153.0334 N   0  0  0  0  0  0  0  0  0  0  0  0
  146.2794  132.9949  152.8961 C   0  0  0  0  0  0  0  0  0  0  0  0
  145.5660  132.9982  151.5457 C   0  0  0  0  0  0  0  0  0  0  0  0
  145.9681  132.0839  150.5472 C   0  0  0  0  0  0  0  0  0  0  0  0
  145.3030  132.0777  149.3080 C   0  0  0  0  0  0  0  0  0  0  0  0
  144.2502  132.9895  149.1129 C   0  0  0  0  0  0  0  0  0  0  0  0
  143.8503  133.8673  150.0555 N   0  0  0  0  0  0  0  0  0  0  0  0
  144.4898  133.8767  151.2505 C   0  0  0  0  0  0  0  0  0  0  0  0
  144.0581  134.8193  152.1968 N   0  0  0  0  0  0  0  0  0  0  0  0
  142.6896  134.6397  152.6650 C   0  0  0  0  0  0  0  0  0  0  0  0
  142.3989  135.6257  153.8094 C   0  0  0  0  0  0  0  0  0  0  0  0
  142.6520  136.9575  153.3688 O   0  0  0  0  0  0  0  0  0  0  0  0
  144.0085  137.1442  152.9728 C   0  0  0  0  0  0  0  0  0  0  0  0
  144.3417  136.1947  151.8095 C   0  0  0  0  0  0  0  0  0  0  0  0
  149.2565  127.7148  150.9584 H   0  0  0  0  0  0  0  0  0  0  0  0
  147.5547  128.2002  150.9539 H   0  0  0  0  0  0  0  0  0  0  0  0
  148.0320  126.6560  151.6666 H   0  0  0  0  0  0  0  0  0  0  0  0
  148.8203  130.1515  151.9397 H   0  0  0  0  0  0  0  0  0  0  0  0
  148.8710  129.9365  154.9055 H   0  0  0  0  0  0  0  0  0  0  0  0
  150.0532  130.8797  154.0251 H   0  0  0  0  0  0  0  0  0  0  0  0
  147.2893  131.2381  152.2809 H   0  0  0  0  0  0  0  0  0  0  0  0
  145.5242  132.8697  153.6720 H   0  0  0  0  0  0  0  0  0  0  0  0
  146.7714  133.9435  153.1122 H   0  0  0  0  0  0  0  0  0  0  0  0
  146.7770  131.3911  150.7279 H   0  0  0  0  0  0  0  0  0  0  0  0
  145.5914  131.3895  148.5273 H   0  0  0  0  0  0  0  0  0  0  0  0
  143.7146  133.0149  148.1755 H   0  0  0  0  0  0  0  0  0  0  0  0
  141.9906  134.8094  151.8447 H   0  0  0  0  0  0  0  0  0  0  0  0
  142.5473  133.6136  153.0059 H   0  0  0  0  0  0  0  0  0  0  0  0
  141.3574  135.5455  154.1204 H   0  0  0  0  0  0  0  0  0  0  0  0
  143.0119  135.3987  154.6832 H   0  0  0  0  0  0  0  0  0  0  0  0
  144.1503  138.1802  152.6649 H   0  0  0  0  0  0  0  0  0  0  0  0
  144.6740  136.9686  153.8196 H   0  0  0  0  0  0  0  0  0  0  0  0
  145.3905  136.2963  151.5301 H   0  0  0  0  0  0  0  0  0  0  0  0
  143.7481  136.4579  150.9329 H   0  0  0  0  0  0  0  0  0  0  0  0
  1  2  1  0  0  0  0
  1 22  1  0  0  0  0
  1 23  1  0  0  0  0
  1 24  1  0  0  0  0
  2  3  2  0  0  0  0
  2  4  1  0  0  0  0
  4  5  1  0  0  0  0
  4 25  1  0  0  0  0
  5  6  1  0  0  0  0
  5 26  1  0  0  0  0
  5 27  1  0  0  0  0
  6  7  2  0  0  0  0
  6  8  1  0  0  0  0
  8  9  1  0  0  0  0
  8 28  1  0  0  0  0
  9 10  1  0  0  0  0
  9 29  1  0  0  0  0
  9 30  1  0  0  0  0
 10 15  1  0  0  0  0
 10 11  2  0  0  0  0
 11 12  1  0  0  0  0
 11 31  1  0  0  0  0
 12 13  2  0  0  0  0
 12 32  1  0  0  0  0
 13 14  1  0  0  0  0
 13 33  1  0  0  0  0
 14 15  2  0  0  0  0
 15 16  1  0  0  0  0
 16 21  1  0  0  0  0
 16 17  1  0  0  0  0
 17 18  1  0  0  0  0
 17 34  1  0  0  0  0
 17 35  1  0  0  0  0
 18 19  1  0  0  0  0
 18 36  1  0  0  0  0
 18 37  1  0  0  0  0
 19 20  1  0  0  0  0
 20 21  1  0  0  0  0
 20 38  1  0  0  0  0
 20 39  1  0  0  0  0
 21 40  1  0  0  0  0
 21 41  1  0  0  0  0
M  END
> <s_m_source_file>
AV-unprocessed.smi

> <i_m_source_file_index>
2589

> <i_lp_mmshare_version>
43012

> <i_f3d_flags>
0

> <s_epik_input>
W0NIM11DKD1PKVtOSF1bQ0gyXUMoPU8pW05IXVtDSDJdYzFbY0hdW2NIXVtjSF1uYzFOMltDSDJdW0NIMl1PW0NIMl1bQ0gyXTI=

> <s_epik_cmdline>
J2VwaWtfcHl0aG9uJywgJy1waCcsICc3LjAnLCAnLXRuJywgJzgnLCAnLW1hJywgJzIwMCcsICctbWV0YWxfYmluZGluZycsICctaW1hZScsICc8aW5maWxlLm1hZT4nLCAnLW9tYWUnLCAnPG91dGZpbGUubWFlPic=

> <r_lp_tautomer_probability>
1

> <r_epik_Ionization_Penalty>
0.00462917

> <r_epik_Ionization_Penalty_Charging>
0

> <r_epik_Ionization_Penalty_Neutral>
0.00462917

> <r_epik_State_Penalty>
0.00334737

> <r_epik_Charging_Adjusted_Penalty>
0.00334737

> <i_epik_Tot_Q>
0

> <i_epik_Tot_abs_Q>
0

> <r_epik_Metal_State_Penalty>
-0

> <b_epik_Metal_Only>
0

> <s_lp_Force_Field>
OPLS_2005

> <r_lp_Energy>
14.0488

> <b_lp_Chiralities_Consistent>
1

> <s_lp_Variant>
AV-unprocessed.smi:2589-1

> <Gold.Version>
5.8.1

> <Gold.Id.Protein>
6NUR|6NUR_protein|mol2

> <Gold.PLP.Fitness>
34.6294

> <Gold.PLP.PLP>
-31.8109

> <Gold.PLP.part.hbond>
-1.0000

> <Gold.PLP.part.metal>
0.0000

> <Gold.PLP.part.buried>
-3.7914

> <Gold.PLP.part.nonpolar>
-27.9551

> <Gold.PLP.part.repulsive>
1.7554

> <Gold.PLP.ligand.clash>
0.0000

> <Gold.PLP.ligand.torsion>
0.1597

> <Gold.PLP.Chemscore.Hbond>
1.0000

> <Gold.PLP.Chemscore.CHOScore>
0.0000

> <Gold.PLP.Chemscore.Metal>
0.0000

> <Gold.Chemscore.Hbonds>
donor molecule, donor type, donor heavy atom, donor atom, acceptor molecule, acceptor atom, score
      L1  H     4    25       P1 10747  0.95

> <Gold.PLP.Chemscore.Internal.Correction>
0.1378

> <Gold.Rescore>
     Score         DG    S(hbond)    S(metal)    S(lipo)     H(rot)  DE(clash)    DE(int)     intcor
      9.60     -11.26       0.76        0.00      77.46       2.28       1.42       0.24       ----

> <Gold.Chemscore.Fitness>
9.6027

> <Gold.Chemscore.DG>
-11.2645

> <Gold.Chemscore.ZeroCoef>
-5.4800

> <Gold.Chemscore.Hbond>
0.7634

> <Gold.Chemscore.Metal>
0.0000

> <Gold.Chemscore.Lipo>
77.4605

> <Gold.Chemscore.Internal_Hbond>
0.0000

> <Gold.Chemscore.DEClash>
1.4232

> <Gold.Chemscore.DEInternal>
0.2386

> <Gold.Chemscore.Rot>
2.2766

> <Gold.Chemscore.Internal.Correction>
   9.000000E+99

> <Gold.Chemscore.Hbonds>
donor molecule, donor type, donor heavy atom, donor atom, acceptor molecule, acceptor atom, score
      L1  H     4    25       P1 10747  0.22

> <Gold.Chemscore.Hbond.Weighted>
-2.5497

> <Gold.Chemscore.Metal.Weighted>
-0.0000

> <Gold.Chemscore.Lipo.Weighted>
-9.0629

> <Gold.Chemscore.Internal_Hbond.Weighted>
0.0000

> <Gold.Chemscore.DEClash.Weighted>
1.4232

> <Gold.Chemscore.DEInternal.Weighted>
0.2386

> <Gold.Chemscore.Rot.Weighted>
5.8281

> <Gold.Chemscore.Internal.Correction.Weighted>
   9.000000E+99

> <Gold.Protein.RotatedTorsions>
[ 6907 6896 6895 6894 ] final   55.11 input  -60.11 | X-H torsion
[ 7974 7965 7964 7962 ] final  -29.69 input  175.53 | X-H torsion
[ 8008 7997 7996 7995 ] final -161.02 input   59.86 | X-H torsion
[ 10167 10162 10161 10158 ] final -113.17 input  -65.29 | X-H torsion
[ 10718 10713 10712 10709 ] final   22.58 input   66.30 | X-H torsion
[ 10763 10752 10751 10750 ] final  -46.57 input  -60.55 | X-H torsion
[ 11005 11000 10999 10996 ] final  149.17 input  -57.11 | X-H torsion

> <Gold.Protein.ActiveResidues>
 VAL166  LYS551  ARG553  GLY616  TRP617  ASP618  TYR619  PRO620  LYS621  CYS622 
 ASP623  PHE694  ASN695  SER759  ASP760  ASP761  ALA762  ILE779  LEU786  VAL792 
 PHE793  MET794  SER795  GLU796  ALA797  LYS798  CYS799  TRP800  GLU811  SER814 

> <Gold.Protein.RotatedAtoms>
  152.3506  134.7011  160.0237 H   0  0  0  0  0  0  0  0  0  0  0  0  # atno 6907 bound_to 6896
  151.7366  133.3314  159.3362 H   0  0  0  0  0  0  0  0  0  0  0  0  # atno 6908 bound_to 6896
  150.7537  134.6249  159.6200 H   0  0  0  0  0  0  0  0  0  0  0  0  # atno 6909 bound_to 6896
  146.1198  140.5445  142.8740 H   0  0  0  0  0  0  0  0  0  0  0  0  # atno 7974 bound_to 7965
  155.7861  140.0872  157.2034 H   0  0  0  0  0  0  0  0  0  0  0  0  # atno 8008 bound_to 7997
  154.3987  140.1499  156.3166 H   0  0  0  0  0  0  0  0  0  0  0  0  # atno 8009 bound_to 7997
  155.8605  140.3430  155.5756 H   0  0  0  0  0  0  0  0  0  0  0  0  # atno 8010 bound_to 7997
  140.1147  143.4496  152.1730 H   0  0  0  0  0  0  0  0  0  0  0  0  # atno 10167 bound_to 10162
  157.1542  130.6688  149.6022 H   0  0  0  0  0  0  0  0  0  0  0  0  # atno 10718 bound_to 10713
  154.0471  135.6636  153.4796 H   0  0  0  0  0  0  0  0  0  0  0  0  # atno 10763 bound_to 10752
  153.0478  135.5103  154.7786 H   0  0  0  0  0  0  0  0  0  0  0  0  # atno 10764 bound_to 10752
  154.6781  135.3040  154.9617 H   0  0  0  0  0  0  0  0  0  0  0  0  # atno 10765 bound_to 10752
  140.1022  134.8976  157.1813 H   0  0  0  0  0  0  0  0  0  0  0  0  # atno 11005 bound_to 11000
  144.7586  140.5368  143.6751 LP  0  0  0  0  0  0  0  0  0  0  0  0  # atno 17320 bound_to 7965
  145.5491  139.1476  143.3404 LP  0  0  0  0  0  0  0  0  0  0  0  0  # atno 17321 bound_to 7965
  139.5600  144.7399  151.4182 LP  0  0  0  0  0  0  0  0  0  0  0  0  # atno 17342 bound_to 10162
  140.6906  143.7871  150.7249 LP  0  0  0  0  0  0  0  0  0  0  0  0  # atno 17343 bound_to 10162
  155.9765  130.4734  150.6532 LP  0  0  0  0  0  0  0  0  0  0  0  0  # atno 17370 bound_to 10713
  157.4192  131.0834  151.1147 LP  0  0  0  0  0  0  0  0  0  0  0  0  # atno 17371 bound_to 10713
  140.3204  134.2922  155.7247 LP  0  0  0  0  0  0  0  0  0  0  0  0  # atno 17394 bound_to 11000
  141.2109  133.7706  156.9903 LP  0  0  0  0  0  0  0  0  0  0  0  0  # atno 17395 bound_to 11000

$$$$
