AV-unprocessed.smi:2550|AV-procd|sdf|10012|dock8
  -GOLD-   2272014 53D 1   1.00000     0.00000
 Structure written by MMmdl.
 27 28  0  0  0  0  0  0  0  0  1 V2000
  152.7948  144.6943  158.0103 C   0  0  0  0  0  0  0  0  0  0  0  0
  152.0538  143.6888  158.9068 C   0  0  0  0  0  0  0  0  0  0  0  0
  152.8622  143.3302  160.1643 C   0  0  0  0  0  0  0  0  0  0  0  0
  150.8637  144.3192  159.3431 O   0  0  0  0  0  0  0  0  0  0  0  0
  151.6377  142.4564  158.1395 C   0  0  0  0  0  0  0  0  0  0  0  0
  150.8428  142.3283  157.0321 C   0  0  0  0  0  0  0  0  0  0  0  0
  150.8419  140.9718  156.7881 N   0  0  0  0  0  0  0  0  0  0  0  0
  150.1075  140.2647  155.7812 C   0  0  0  0  0  0  0  0  0  0  0  0
  150.8250  139.4744  154.6836 C   0  0  0  0  0  0  0  0  0  0  0  0
  149.7546  139.8923  153.7941 N   0  0  0  0  0  0  0  0  0  0  0  0
  149.4290  141.0265  154.6417 C   0  0  0  0  0  0  0  0  0  0  0  0
  151.5533  140.2979  157.7209 N   0  0  0  0  0  0  0  0  0  0  0  0
  152.0549  141.1803  158.5265 N   0  0  0  0  0  0  0  0  0  0  0  0
  153.7243  144.2715  157.6279 H   0  0  0  0  0  0  0  0  0  0  0  0
  153.0490  145.6031  158.5569 H   0  0  0  0  0  0  0  0  0  0  0  0
  152.1871  144.9834  157.1519 H   0  0  0  0  0  0  0  0  0  0  0  0
  153.7959  142.8304  159.9038 H   0  0  0  0  0  0  0  0  0  0  0  0
  152.3018  142.6608  160.8182 H   0  0  0  0  0  0  0  0  0  0  0  0
  153.1170  144.2202  160.7408 H   0  0  0  0  0  0  0  0  0  0  0  0
  150.2811  144.4030  158.6040 H   0  0  0  0  0  0  0  0  0  0  0  0
  150.3084  143.0470  156.4286 H   0  0  0  0  0  0  0  0  0  0  0  0
  149.3906  139.6349  156.3126 H   0  0  0  0  0  0  0  0  0  0  0  0
  151.7900  139.8867  154.3850 H   0  0  0  0  0  0  0  0  0  0  0  0
  150.8637  138.3988  154.8578 H   0  0  0  0  0  0  0  0  0  0  0  0
  150.0967  140.1759  152.8868 H   0  0  0  0  0  0  0  0  0  0  0  0
  148.3593  141.1838  154.7822 H   0  0  0  0  0  0  0  0  0  0  0  0
  149.9501  141.9340  154.3329 H   0  0  0  0  0  0  0  0  0  0  0  0
  1  2  1  0  0  0  0
  1 14  1  0  0  0  0
  1 15  1  0  0  0  0
  1 16  1  0  0  0  0
  2  3  1  0  0  0  0
  2  4  1  0  0  0  0
  2  5  1  0  0  0  0
  3 17  1  0  0  0  0
  3 18  1  0  0  0  0
  3 19  1  0  0  0  0
  4 20  1  0  0  0  0
  5 13  1  0  0  0  0
  5  6  2  0  0  0  0
  6  7  1  0  0  0  0
  6 21  1  0  0  0  0
  7  8  1  0  0  0  0
  7 12  1  0  0  0  0
  8 11  1  0  0  0  0
  8  9  1  0  0  0  0
  8 22  1  0  0  0  0
  9 10  1  0  0  0  0
  9 23  1  0  0  0  0
  9 24  1  0  0  0  0
 10 11  1  0  0  0  0
 10 25  1  0  0  0  0
 11 26  1  0  0  0  0
 11 27  1  0  0  0  0
 12 13  2  0  0  0  0
M  END
> <s_m_source_file>
AV-unprocessed.smi

> <i_m_source_file_index>
2550

> <i_lp_mmshare_version>
43012

> <i_f3d_flags>
0

> <s_epik_input>
W0NIM11DKFtDSDNdKShbT0hdKWMxW2NIXW4obm4xKVtDSF0yW0NIMl1bTkhdW0NIMl0y

> <s_epik_cmdline>
J2VwaWtfcHl0aG9uJywgJy1waCcsICc3LjAnLCAnLXRuJywgJzgnLCAnLW1hJywgJzIwMCcsICctbWV0YWxfYmluZGluZycsICctaW1hZScsICc8aW5maWxlLm1hZT4nLCAnLW9tYWUnLCAnPG91dGZpbGUubWFlPic=

> <r_lp_tautomer_probability>
1

> <r_epik_Ionization_Penalty>
0.705036

> <r_epik_Ionization_Penalty_Charging>
0

> <r_epik_Ionization_Penalty_Neutral>
0.705036

> <r_epik_State_Penalty>
0.727806

> <r_epik_Charging_Adjusted_Penalty>
0.727806

> <i_epik_Tot_Q>
0

> <i_epik_Tot_abs_Q>
0

> <r_epik_Metal_State_Penalty>
0.727613

> <b_epik_Metal_Only>
0

> <s_lp_Force_Field>
OPLS_2005

> <r_lp_Energy>
8.86137

> <b_lp_Chiralities_Consistent>
1

> <s_lp_Variant>
AV-unprocessed.smi:2550-2

> <Gold.Version>
5.8.1

> <Gold.Id.Protein>
6NUR|6NUR_protein|mol2

> <Gold.PLP.Fitness>
35.6980

> <Gold.PLP.PLP>
-30.4180

> <Gold.PLP.part.hbond>
-2.0000

> <Gold.PLP.part.metal>
0.0000

> <Gold.PLP.part.buried>
-2.5045

> <Gold.PLP.part.nonpolar>
-25.8045

> <Gold.PLP.part.repulsive>
0.0000

> <Gold.PLP.ligand.clash>
0.0000

> <Gold.PLP.ligand.torsion>
0.1561

> <Gold.PLP.Chemscore.Hbond>
0.7680

> <Gold.PLP.Chemscore.CHOScore>
1.0000

> <Gold.PLP.Chemscore.Metal>
0.0000

> <Gold.Chemscore.Hbonds>
donor molecule, donor type, donor heavy atom, donor atom, acceptor molecule, acceptor atom, score
      L1  H    10    25       P1  7957  0.78
      L1  C     6    21       P1  8028  1.00

> <Gold.PLP.Chemscore.Internal.Correction>
0.2882

> <Gold.Rescore>
     Score         DG    S(hbond)    S(metal)    S(lipo)     H(rot)  DE(clash)    DE(int)     intcor
     13.27     -13.58       0.99        0.00      78.82       1.73       0.07       0.23       ----

> <Gold.Chemscore.Fitness>
13.2729

> <Gold.Chemscore.DG>
-13.5761

> <Gold.Chemscore.ZeroCoef>
-5.4800

> <Gold.Chemscore.Hbond>
0.9884

> <Gold.Chemscore.Metal>
0.0000

> <Gold.Chemscore.Lipo>
78.8222

> <Gold.Chemscore.Internal_Hbond>
0.0000

> <Gold.Chemscore.DEClash>
0.0746

> <Gold.Chemscore.DEInternal>
0.2287

> <Gold.Chemscore.Rot>
1.7295

> <Gold.Chemscore.Internal.Correction>
   9.000000E+99

> <Gold.Chemscore.Hbonds>
donor molecule, donor type, donor heavy atom, donor atom, acceptor molecule, acceptor atom, score
      L1  H    10    25       P1  7957  0.78

> <Gold.Chemscore.Hbond.Weighted>
-3.3014

> <Gold.Chemscore.Metal.Weighted>
-0.0000

> <Gold.Chemscore.Lipo.Weighted>
-9.2222

> <Gold.Chemscore.Internal_Hbond.Weighted>
0.0000

> <Gold.Chemscore.DEClash.Weighted>
0.0746

> <Gold.Chemscore.DEInternal.Weighted>
0.2287

> <Gold.Chemscore.Rot.Weighted>
4.4275

> <Gold.Chemscore.Internal.Correction.Weighted>
   9.000000E+99

> <Gold.Protein.RotatedTorsions>
[ 6907 6896 6895 6894 ] final -101.82 input  -60.11 | X-H torsion
[ 7974 7965 7964 7962 ] final  150.17 input  175.53 | X-H torsion
[ 8008 7997 7996 7995 ] final   69.89 input   59.86 | X-H torsion
[ 10167 10162 10161 10158 ] final   58.07 input  -65.29 | X-H torsion
[ 10718 10713 10712 10709 ] final  133.45 input   66.30 | X-H torsion
[ 10763 10752 10751 10750 ] final  -77.90 input  -60.55 | X-H torsion
[ 11005 11000 10999 10996 ] final  129.72 input  -57.11 | X-H torsion

> <Gold.Protein.ActiveResidues>
 VAL166  LYS551  ARG553  GLY616  TRP617  ASP618  TYR619  PRO620  LYS621  CYS622 
 ASP623  PHE694  ASN695  SER759  ASP760  ASP761  ALA762  ILE779  LEU786  VAL792 
 PHE793  MET794  SER795  GLU796  ALA797  LYS798  CYS799  TRP800  GLU811  SER814 

> <Gold.Protein.RotatedAtoms>
  150.7170  134.0676  159.3852 H   0  0  0  0  0  0  0  0  0  0  0  0  # atno 6907 bound_to 6896
  151.8657  135.0505  160.0483 H   0  0  0  0  0  0  0  0  0  0  0  0  # atno 6908 bound_to 6896
  152.2682  133.5323  159.5459 H   0  0  0  0  0  0  0  0  0  0  0  0  # atno 6909 bound_to 6896
  144.8384  139.6374  143.6028 H   0  0  0  0  0  0  0  0  0  0  0  0  # atno 7974 bound_to 7965
  155.7305  140.3492  155.5057 H   0  0  0  0  0  0  0  0  0  0  0  0  # atno 8008 bound_to 7997
  155.9187  140.1063  157.1245 H   0  0  0  0  0  0  0  0  0  0  0  0  # atno 8009 bound_to 7997
  154.4066  140.1254  156.4637 H   0  0  0  0  0  0  0  0  0  0  0  0  # atno 8010 bound_to 7997
  140.1912  144.4084  150.6570 H   0  0  0  0  0  0  0  0  0  0  0  0  # atno 10167 bound_to 10162
  157.4771  131.1083  150.9729 H   0  0  0  0  0  0  0  0  0  0  0  0  # atno 10718 bound_to 10713
  154.5190  135.5748  153.6665 H   0  0  0  0  0  0  0  0  0  0  0  0  # atno 10763 bound_to 10752
  152.9913  135.6177  154.2780 H   0  0  0  0  0  0  0  0  0  0  0  0  # atno 10764 bound_to 10752
  154.2699  135.2853  155.2722 H   0  0  0  0  0  0  0  0  0  0  0  0  # atno 10765 bound_to 10752
  139.9631  134.9597  156.9189 H   0  0  0  0  0  0  0  0  0  0  0  0  # atno 11005 bound_to 11000
  146.2679  139.6565  142.9316 LP  0  0  0  0  0  0  0  0  0  0  0  0  # atno 17320 bound_to 7965
  145.4747  141.0437  143.2679 LP  0  0  0  0  0  0  0  0  0  0  0  0  # atno 17321 bound_to 7965
  140.6455  143.2212  151.6196 LP  0  0  0  0  0  0  0  0  0  0  0  0  # atno 17342 bound_to 10162
  139.5255  144.3072  152.1024 LP  0  0  0  0  0  0  0  0  0  0  0  0  # atno 17343 bound_to 10162
  157.0474  130.5773  149.5365 LP  0  0  0  0  0  0  0  0  0  0  0  0  # atno 17370 bound_to 10713
  156.0102  130.5193  150.7964 LP  0  0  0  0  0  0  0  0  0  0  0  0  # atno 17371 bound_to 10713
  140.5455  134.0678  155.7354 LP  0  0  0  0  0  0  0  0  0  0  0  0  # atno 17394 bound_to 11000
  141.1310  133.9303  157.2536 LP  0  0  0  0  0  0  0  0  0  0  0  0  # atno 17395 bound_to 11000

$$$$
