AV-unprocessed.smi:1015|AV-procd|sdf|4435|dock6
  -GOLD-   22720 2393D 1   1.00000     0.00000
 Structure written by MMmdl.
 43 44  0  0  0  0  0  0  0  0  2 V2000
  152.6232  144.2860  158.3601 C   0  0  0  0  0  0  0  0  0  0  0  0
  151.9021  143.0663  158.3650 O   0  0  0  0  0  0  0  0  0  0  0  0
  151.2338  142.8246  157.1380 C   0  0  0  0  0  0  0  0  0  0  0  0
  150.0051  141.9418  157.4069 C   0  0  0  0  0  0  0  0  0  0  0  0
  148.9535  142.0985  156.3698 N   0  3  2  0  0  0  0  0  0  0  0  0
  147.6008  141.7699  156.8889 C   0  0  0  0  0  0  0  0  0  0  0  0
  146.5097  142.0618  155.8415 C   0  0  0  0  0  0  0  0  0  0  0  0
  146.7679  141.3327  154.5096 C   0  0  2  0  0  0  0  0  0  0  0  0
  146.4634  139.8188  154.6067 C   0  0  0  0  0  0  0  0  0  0  0  0
  145.0375  139.5414  154.4684 N   0  0  0  0  0  0  0  0  0  0  0  0
  144.2752  138.9124  155.3773 C   0  0  0  0  0  0  0  0  0  0  0  0
  144.6846  138.5593  156.4828 O   0  0  0  0  0  0  0  0  0  0  0  0
  142.8394  138.5987  154.9593 C   0  0  0  0  0  0  0  0  0  0  0  0
  142.8050  137.4187  154.1158 N   0  0  0  0  0  0  0  0  0  0  0  0
  143.2050  137.2282  152.8566 C   0  0  0  0  0  0  0  0  0  0  0  0
  143.0233  135.9747  152.4704 N   0  0  0  0  0  0  0  0  0  0  0  0
  142.4681  135.3778  153.5899 N   0  0  0  0  0  0  0  0  0  0  0  0
  142.3372  136.2290  154.5698 N   0  0  0  0  0  0  0  0  0  0  0  0
  148.1969  141.6706  154.0337 C   0  0  0  0  0  0  0  0  0  0  0  0
  149.2514  141.3655  155.1109 C   0  0  0  0  0  0  0  0  0  0  0  0
  153.1199  144.4218  159.3207 H   0  0  0  0  0  0  0  0  0  0  0  0
  151.9585  145.1362  158.2021 H   0  0  0  0  0  0  0  0  0  0  0  0
  153.3879  144.2899  157.5823 H   0  0  0  0  0  0  0  0  0  0  0  0
  150.9574  143.7629  156.6567 H   0  0  0  0  0  0  0  0  0  0  0  0
  151.9082  142.3052  156.4553 H   0  0  0  0  0  0  0  0  0  0  0  0
  150.2960  140.8928  157.4777 H   0  0  0  0  0  0  0  0  0  0  0  0
  149.6033  142.2145  158.3837 H   0  0  0  0  0  0  0  0  0  0  0  0
  147.5704  140.7238  157.1961 H   0  0  0  0  0  0  0  0  0  0  0  0
  147.3989  142.3626  157.7819 H   0  0  0  0  0  0  0  0  0  0  0  0
  145.5298  141.7923  156.2371 H   0  0  0  0  0  0  0  0  0  0  0  0
  146.4748  143.1369  155.6594 H   0  0  0  0  0  0  0  0  0  0  0  0
  146.0744  141.7428  153.7739 H   0  0  0  0  0  0  0  0  0  0  0  0
  147.0435  139.2526  153.8776 H   0  0  0  0  0  0  0  0  0  0  0  0
  146.7732  139.4479  155.5840 H   0  0  0  0  0  0  0  0  0  0  0  0
  144.6090  139.8024  153.5919 H   0  0  0  0  0  0  0  0  0  0  0  0
  142.2167  138.4307  155.8395 H   0  0  0  0  0  0  0  0  0  0  0  0
  142.4108  139.4401  154.4134 H   0  0  0  0  0  0  0  0  0  0  0  0
  143.6354  137.9978  152.2326 H   0  0  0  0  0  0  0  0  0  0  0  0
  148.4407  141.1474  153.1093 H   0  0  0  0  0  0  0  0  0  0  0  0
  148.2464  142.7322  153.7873 H   0  0  0  0  0  0  0  0  0  0  0  0
  150.2301  141.6513  154.7282 H   0  0  0  0  0  0  0  0  0  0  0  0
  149.2965  140.2941  155.3100 H   0  0  0  0  0  0  0  0  0  0  0  0
  148.9318  143.0817  156.1384 H   0  0  0  0  0  0  0  0  0  0  0  0
  1  2  1  0  0  0  0
  1 21  1  0  0  0  0
  1 22  1  0  0  0  0
  1 23  1  0  0  0  0
  2  3  1  0  0  0  0
  3  4  1  0  0  0  0
  3 24  1  0  0  0  0
  3 25  1  0  0  0  0
  4  5  1  0  0  0  0
  4 26  1  0  0  0  0
  4 27  1  0  0  0  0
  5 20  1  0  0  0  0
  5  6  1  0  0  0  0
  5 43  1  0  0  0  0
  6  7  1  0  0  0  0
  6 28  1  0  0  0  0
  6 29  1  0  0  0  0
  7  8  1  0  0  0  0
  7 30  1  0  0  0  0
  7 31  1  0  0  0  0
  8  9  1  0  0  0  0
  8 19  1  0  0  0  0
  8 32  1  0  0  0  0
  9 10  1  0  0  0  0
  9 33  1  0  0  0  0
  9 34  1  0  0  0  0
 10 11  1  0  0  0  0
 10 35  1  0  0  0  0
 11 12  2  0  0  0  0
 11 13  1  0  0  0  0
 13 14  1  0  0  0  0
 13 36  1  0  0  0  0
 13 37  1  0  0  0  0
 14 18  1  0  0  0  0
 14 15  1  0  0  0  0
 15 16  2  0  0  0  0
 15 38  1  0  0  0  0
 16 17  1  0  0  0  0
 17 18  2  0  0  0  0
 19 20  1  0  0  0  0
 19 39  1  0  0  0  0
 19 40  1  0  0  0  0
 20 41  1  0  0  0  0
 20 42  1  0  0  0  0
M  CHG  1   5   1
M  END
> <s_m_source_file>
AV-unprocessed.smi

> <i_m_source_file_index>
1015

> <i_lp_mmshare_version>
43012

> <i_f3d_flags>
0

> <s_epik_input>
W0NIM11PW0NIMl1bQ0gyXU4xW0NIMl1bQ0gyXVtDSF0oW0NIMl1bQ0gyXTEpW0NIMl1bTkhdQyg9TylbQ0gyXW4yW2NIXW5ubjI=

> <s_epik_cmdline>
J2VwaWtfcHl0aG9uJywgJy1waCcsICc3LjAnLCAnLXRuJywgJzgnLCAnLW1hJywgJzIwMCcsICctbWV0YWxfYmluZGluZycsICctaW1hZScsICc8aW5maWxlLm1hZT4nLCAnLW9tYWUnLCAnPG91dGZpbGUubWFlPic=

> <r_lp_tautomer_probability>
1

> <r_epik_Ionization_Penalty>
0.0104119

> <r_epik_Ionization_Penalty_Charging>
0.0104107

> <r_epik_Ionization_Penalty_Neutral>
1.19574e-06

> <r_epik_State_Penalty>
0.00795975

> <r_epik_Charging_Adjusted_Penalty>
0.0183705

> <i_epik_Tot_Q>
1

> <i_epik_Tot_abs_Q>
1

> <r_epik_Metal_State_Penalty>
0.00795975

> <b_epik_Metal_Only>
0

> <s_lp_Force_Field>
OPLS_2005

> <r_lp_Energy>
22.9597

> <b_lp_Chiralities_Consistent>
1

> <s_lp_Variant>
AV-unprocessed.smi:1015-2

> <Gold.Version>
5.8.1

> <Gold.Id.Protein>
6NUR|6NUR_protein|mol2

> <Gold.PLP.Fitness>
40.6641

> <Gold.PLP.PLP>
-27.9771

> <Gold.PLP.part.hbond>
-2.0000

> <Gold.PLP.part.metal>
0.0000

> <Gold.PLP.part.buried>
-3.6533

> <Gold.PLP.part.nonpolar>
-22.3861

> <Gold.PLP.part.repulsive>
0.4379

> <Gold.PLP.ligand.clash>
0.0000

> <Gold.PLP.ligand.torsion>
1.1864

> <Gold.PLP.Chemscore.Hbond>
3.0000

> <Gold.PLP.Chemscore.CHOScore>
2.0000

> <Gold.PLP.Chemscore.Metal>
0.0000

> <Gold.Chemscore.Hbonds>
donor molecule, donor type, donor heavy atom, donor atom, acceptor molecule, acceptor atom, score
      L1  H     5    43       P1  8028  2.00
      L1  H    10    35       P1 10175  1.00
      L1  C    15    38       P1 10171  1.00
      L1  C    15    38       P1 10175  1.00

> <Gold.PLP.Chemscore.Internal.Correction>
0.0597

> <Gold.Rescore>
     Score         DG    S(hbond)    S(metal)    S(lipo)     H(rot)  DE(clash)    DE(int)     intcor
     10.01     -11.10       1.98        0.00      61.25       3.19       0.03       1.05       ----

> <Gold.Chemscore.Fitness>
10.0124

> <Gold.Chemscore.DG>
-11.1001

> <Gold.Chemscore.ZeroCoef>
-5.4800

> <Gold.Chemscore.Hbond>
1.9844

> <Gold.Chemscore.Metal>
0.0000

> <Gold.Chemscore.Lipo>
61.2470

> <Gold.Chemscore.Internal_Hbond>
0.0000

> <Gold.Chemscore.DEClash>
0.0336

> <Gold.Chemscore.DEInternal>
1.0541

> <Gold.Chemscore.Rot>
3.1928

> <Gold.Chemscore.Internal.Correction>
   9.000000E+99

> <Gold.Chemscore.Hbonds>
donor molecule, donor type, donor heavy atom, donor atom, acceptor molecule, acceptor atom, score
      L1  H     5    43       P1  8028  1.00
      L1  H    10    35       P1 10175  0.98

> <Gold.Chemscore.Hbond.Weighted>
-6.6279

> <Gold.Chemscore.Metal.Weighted>
-0.0000

> <Gold.Chemscore.Lipo.Weighted>
-7.1659

> <Gold.Chemscore.Internal_Hbond.Weighted>
0.0000

> <Gold.Chemscore.DEClash.Weighted>
0.0336

> <Gold.Chemscore.DEInternal.Weighted>
1.0541

> <Gold.Chemscore.Rot.Weighted>
8.1737

> <Gold.Chemscore.Internal.Correction.Weighted>
   9.000000E+99

> <Gold.Protein.RotatedTorsions>
[ 6907 6896 6895 6894 ] final   96.19 input  -60.11 | X-H torsion
[ 7974 7965 7964 7962 ] final  -78.84 input  175.53 | X-H torsion
[ 8008 7997 7996 7995 ] final  103.41 input   59.86 | X-H torsion
[ 10167 10162 10161 10158 ] final   68.21 input  -65.29 | X-H torsion
[ 10718 10713 10712 10709 ] final   41.36 input   66.30 | X-H torsion
[ 10763 10752 10751 10750 ] final -134.48 input  -60.55 | X-H torsion
[ 11005 11000 10999 10996 ] final  172.27 input  -57.11 | X-H torsion

> <Gold.Protein.ActiveResidues>
 VAL166  LYS551  ARG553  GLY616  TRP617  ASP618  TYR619  PRO620  LYS621  CYS622 
 ASP623  PHE694  ASN695  SER759  ASP760  ASP761  ALA762  ILE779  LEU786  VAL792 
 PHE793  MET794  SER795  GLU796  ALA797  LYS798  CYS799  TRP800  GLU811  SER814 

> <Gold.Protein.RotatedAtoms>
  152.5437  134.0924  159.8282 H   0  0  0  0  0  0  0  0  0  0  0  0  # atno 6907 bound_to 6896
  151.1012  133.5235  159.2617 H   0  0  0  0  0  0  0  0  0  0  0  0  # atno 6908 bound_to 6896
  151.1989  135.0443  159.8918 H   0  0  0  0  0  0  0  0  0  0  0  0  # atno 6909 bound_to 6896
  145.5812  140.9448  143.1343 H   0  0  0  0  0  0  0  0  0  0  0  0  # atno 7974 bound_to 7965
  156.1482  140.3165  155.8604 H   0  0  0  0  0  0  0  0  0  0  0  0  # atno 8008 bound_to 7997
  155.4024  140.0500  157.3053 H   0  0  0  0  0  0  0  0  0  0  0  0  # atno 8009 bound_to 7997
  154.5034  140.2138  155.9311 H   0  0  0  0  0  0  0  0  0  0  0  0  # atno 8010 bound_to 7997
  140.0812  144.5069  150.7161 H   0  0  0  0  0  0  0  0  0  0  0  0  # atno 10167 bound_to 10162
  157.3926  130.7815  149.7282 H   0  0  0  0  0  0  0  0  0  0  0  0  # atno 10718 bound_to 10713
  154.8718  135.3733  154.4742 H   0  0  0  0  0  0  0  0  0  0  0  0  # atno 10763 bound_to 10752
  153.5400  135.7026  153.5646 H   0  0  0  0  0  0  0  0  0  0  0  0  # atno 10764 bound_to 10752
  153.3812  135.3996  155.1822 H   0  0  0  0  0  0  0  0  0  0  0  0  # atno 10765 bound_to 10752
  140.3279  134.7382  157.4113 H   0  0  0  0  0  0  0  0  0  0  0  0  # atno 11005 bound_to 11000
  144.7393  139.7494  143.7317 LP  0  0  0  0  0  0  0  0  0  0  0  0  # atno 17320 bound_to 7965
  146.1715  139.4867  142.9924 LP  0  0  0  0  0  0  0  0  0  0  0  0  # atno 17321 bound_to 7965
  140.7077  143.2480  151.4677 LP  0  0  0  0  0  0  0  0  0  0  0  0  # atno 17342 bound_to 10162
  139.5778  144.1778  152.1928 LP  0  0  0  0  0  0  0  0  0  0  0  0  # atno 17343 bound_to 10162
  155.9802  130.4032  150.3541 LP  0  0  0  0  0  0  0  0  0  0  0  0  # atno 17370 bound_to 10713
  157.1659  131.0356  151.2819 LP  0  0  0  0  0  0  0  0  0  0  0  0  # atno 17371 bound_to 10713
  140.0886  134.5633  155.8467 LP  0  0  0  0  0  0  0  0  0  0  0  0  # atno 17394 bound_to 11000
  141.2071  133.6661  156.6282 LP  0  0  0  0  0  0  0  0  0  0  0  0  # atno 17395 bound_to 11000

$$$$
