#       Name:                AV-unprocessed.smi:1621
#       Creating user name   scv26
#       Creation time:       Fri Mar 27 07:15:46 2020


#       File generated by GOLD software.
#

@<TRIPOS>MOLECULE
AV-unprocessed.smi:1621
    42    43     1
SMALL
NO_CHARGES


@<TRIPOS>ATOM
      1 ****        -4.4631  -2.6191  -1.1164 C.3            1 S1                 0.0000
      2 ****        -2.9911  -2.4835  -1.0801 N.4            1 S1                 1.0000
      3 ****        -2.5213  -1.7529   0.1228 C.3            1 S1                 0.0000
      4 ****        -0.9852  -1.7312   0.1937 C.3            1 S1                 0.0000
      5 ****        -0.3727  -1.1216  -1.0833 C.3            1 S1                 0.0000
      6 ****         1.1708  -1.1157  -1.0623 C.3            1 S1                 0.0000
      7 ****         1.7167  -0.3544   0.0574 N.am           1 S1                 0.0000
      8 ****         1.8056   0.9827   0.1101 C.2            1 S1                 0.0000
      9 ****         1.4189   1.7195  -0.7964 O.2            1 S1                 0.0000
     10 ****         2.3710   1.3849   1.2623 N.am           1 S1                 0.0000
     11 ****         2.6676   2.7019   1.7122 C.ar           1 S1                 0.0000
     12 ****         3.5068   2.8281   2.8390 C.ar           1 S1                 0.0000
     13 ****         3.8152   4.1168   3.3185 C.ar           1 S1                 0.0000
     14 ****         3.3420   5.2491   2.7578 N.ar           1 S1                 0.0000
     15 ****         2.5307   5.1277   1.6861 C.ar           1 S1                 0.0000
     16 ****         2.1602   3.8879   1.1273 C.ar           1 S1                 0.0000
     17 ****        -0.9085  -1.8843  -2.3082 C.3            1 S1                 0.0000
     18 ****        -2.4462  -1.9013  -2.3312 C.3            1 S1                 0.0000
     19 ****        -4.9445  -1.6430  -1.1871 H              1 S1                 0.0000
     20 ****        -4.8261  -3.1157  -0.2160 H              1 S1                 0.0000
     21 ****        -4.7739  -3.2176  -1.9733 H              1 S1                 0.0000
     22 ****        -2.9110  -0.7337   0.1075 H              1 S1                 0.0000
     23 ****        -2.9191  -2.2315   1.0187 H              1 S1                 0.0000
     24 ****        -0.6762  -1.1647   1.0726 H              1 S1                 0.0000
     25 ****        -0.6124  -2.7469   0.3342 H              1 S1                 0.0000
     26 ****        -0.7146  -0.0883  -1.1626 H              1 S1                 0.0000
     27 ****         1.5470  -2.1366  -0.9896 H              1 S1                 0.0000
     28 ****         1.5608  -0.7139  -1.9990 H              1 S1                 0.0000
     29 ****         2.0625  -0.8859   0.8430 H              1 S1                 0.0000
     30 ****         2.6727   0.6475   1.8818 H              1 S1                 0.0000
     31 ****         3.9132   1.9557   3.3296 H              1 S1                 0.0000
     32 ****         4.4583   4.2406   4.1773 H              1 S1                 0.0000
     33 ****         2.1599   6.0490   1.2619 H              1 S1                 0.0000
     34 ****         1.4955   3.8800   0.2784 H              1 S1                 0.0000
     35 ****        -0.5357  -1.4271  -3.2255 H              1 S1                 0.0000
     36 ****        -0.5331  -2.9087  -2.3006 H              1 S1                 0.0000
     37 ****        -2.7901  -2.4858  -3.1856 H              1 S1                 0.0000
     38 ****        -2.8317  -0.8890  -2.4631 H              1 S1                 0.0000
     39 ****        -2.6186  -3.4200  -1.0126 H              1 S1                 0.0000
     40 ****         1.0152   1.3263  -1.6225 LP             1 S1                 0.0000
     41 ****         1.5083   2.7115  -0.7070 LP             1 S1                 0.0000
     42 ****         3.5841   6.1477   3.1238 LP             1 S1                 0.0000
@<TRIPOS>BOND
    1    1    2 1     
    2    1   19 1     
    3    1   20 1     
    4    1   21 1     
    5    2   18 1     
    6    2    3 1     
    7    2   39 1     
    8    3    4 1     
    9    3   22 1     
   10    3   23 1     
   11    4    5 1     
   12    4   24 1     
   13    4   25 1     
   14    5    6 1     
   15    5   17 1     
   16    5   26 1     
   17    6    7 1     
   18    6   27 1     
   19    6   28 1     
   20    7    8 am    
   21    7   29 1     
   22    8    9 2     
   23    8   10 am    
   24   10   11 1     
   25   10   30 1     
   26   11   16 ar    
   27   11   12 ar    
   28   12   13 ar    
   29   12   31 1     
   30   13   14 ar    
   31   13   32 1     
   32   14   15 ar    
   33   15   16 ar    
   34   15   33 1     
   35   16   34 1     
   36   17   18 1     
   37   17   35 1     
   38   17   36 1     
   39   18   37 1     
   40   18   38 1     
   41    9   40 1     
   42    9   41 1     
   43   14   42 1     
@<TRIPOS>SUBSTRUCTURE
      1 S1             1
@<TRIPOS>SET
LONE_PAIRS      STATIC     ATOMS    <user>   **** ""
3 40 41 42
DONOR_HYDROGENS      STATIC     ATOMS    <user>   **** ""
3 39 29 30
ATOM$BLUE        STATIC     ATOMS    COLORGROUP SYSTEM
3 40 41 42
ATOM$RED        STATIC     ATOMS    COLORGROUP SYSTEM
3 39 29 30
