#       Name:                AV-unprocessed.smi:2044
#       Creating user name   scv26
#       Creation time:       Fri Mar 27 10:56:17 2020


#       File generated by GOLD software.
#

@<TRIPOS>MOLECULE
AV-unprocessed.smi:2044
    47    48     1
SMALL
NO_CHARGES


@<TRIPOS>ATOM
      1 ****        -6.1096   3.3972   0.5249 C.3            1 S1                 0.0000
      2 ****        -4.6493   3.0996   0.5253 C.2            1 S1                 0.0000
      3 ****        -3.9278   1.9848   0.8480 C.2            1 S1                 0.0000
      4 ****        -2.5868   2.3957   0.6244 C.2            1 S1                 0.0000
      5 ****        -1.5054   1.5068   0.8524 N.am           1 S1                 0.0000
      6 ****        -0.1943   1.7532   0.6896 C.2            1 S1                 0.0000
      7 ****         0.2829   2.8173   0.2940 O.2            1 S1                 0.0000
      8 ****         0.5443   0.6811   1.0099 N.am           1 S1                 0.0000
      9 ****         2.0014   0.5954   0.9294 C.3            1 S1                 0.0000
     10 ****         2.4811  -0.1884  -0.3207 C.3            1 S1                 0.0000
     11 ****         2.2353   0.6849  -1.5718 C.3            1 S1                 0.0000
     12 ****         1.9163  -1.5518  -0.4310 N.3            1 S1                 0.0000
     13 ****         2.3994  -2.2654  -1.6172 C.3            1 S1                 0.0000
     14 ****         1.8340  -3.6924  -1.7222 C.3            1 S1                 0.0000
     15 ****         2.1526  -4.4219  -0.5445 O.3            1 S1                 0.0000
     16 ****         1.6405  -3.8009   0.6269 C.3            1 S1                 0.0000
     17 ****         2.2069  -2.3756   0.7464 C.3            1 S1                 0.0000
     18 ****        -2.4978   3.6481   0.2030 N.2            1 S1                 0.0000
     19 ****        -3.8192   4.1058   0.1380 O.3            1 S1                 0.0000
     20 ****        -6.6935   2.4783   0.4692 H              1 S1                 0.0000
     21 ****        -6.3802   4.0207  -0.3277 H              1 S1                 0.0000
     22 ****        -6.3950   3.9251   1.4347 H              1 S1                 0.0000
     23 ****        -4.3023   1.0314   1.1898 H              1 S1                 0.0000
     24 ****        -1.7568   0.5854   1.1786 H              1 S1                 0.0000
     25 ****         0.0622  -0.1508   1.3173 H              1 S1                 0.0000
     26 ****         2.4483   1.5908   0.9402 H              1 S1                 0.0000
     27 ****         2.3649   0.1287   1.8441 H              1 S1                 0.0000
     28 ****         3.5637  -0.2828  -0.2232 H              1 S1                 0.0000
     29 ****         2.5618   1.7120  -1.4068 H              1 S1                 0.0000
     30 ****         1.1785   0.7145  -1.8385 H              1 S1                 0.0000
     31 ****         2.7905   0.3262  -2.4379 H              1 S1                 0.0000
     32 ****         2.1151  -1.7341  -2.5245 H              1 S1                 0.0000
     33 ****         3.4896  -2.3087  -1.6045 H              1 S1                 0.0000
     34 ****         0.7524  -3.6700  -1.8650 H              1 S1                 0.0000
     35 ****         2.2603  -4.2061  -2.5842 H              1 S1                 0.0000
     36 ****         0.5501  -3.7825   0.5916 H              1 S1                 0.0000
     37 ****         1.9226  -4.3944   1.4964 H              1 S1                 0.0000
     38 ****         3.2853  -2.4278   0.9042 H              1 S1                 0.0000
     39 ****         1.7789  -1.9284   1.6421 H              1 S1                 0.0000
     40 ****        -0.3203   3.5816   0.0659 LP             1 S1                 0.0000
     41 ****         1.2735   2.9170   0.2008 LP             1 S1                 0.0000
     42 ****         0.9287  -1.4136  -0.5055 LP             1 S1                 0.0000
     43 ****         3.1473  -4.4875  -0.4656 LP             1 S1                 0.0000
     44 ****         1.7629  -5.3398  -0.6190 LP             1 S1                 0.0000
     45 ****        -1.6664   4.1568  -0.0205 LP             1 S1                 0.0000
     46 ****        -3.9340   4.8901   0.7476 LP             1 S1                 0.0000
     47 ****        -4.0352   4.3780  -0.7997 LP             1 S1                 0.0000
@<TRIPOS>BOND
    1    1    2 1     
    2    1   20 1     
    3    1   21 1     
    4    1   22 1     
    5    2   19 1     
    6    2    3 2     
    7    3    4 1     
    8    3   23 1     
    9    4    5 1     
   10    4   18 2     
   11    5    6 am    
   12    5   24 1     
   13    6    7 2     
   14    6    8 am    
   15    8    9 1     
   16    8   25 1     
   17    9   10 1     
   18    9   26 1     
   19    9   27 1     
   20   10   11 1     
   21   10   12 1     
   22   10   28 1     
   23   11   29 1     
   24   11   30 1     
   25   11   31 1     
   26   12   17 1     
   27   12   13 1     
   28   13   14 1     
   29   13   32 1     
   30   13   33 1     
   31   14   15 1     
   32   14   34 1     
   33   14   35 1     
   34   15   16 1     
   35   16   17 1     
   36   16   36 1     
   37   16   37 1     
   38   17   38 1     
   39   17   39 1     
   40   18   19 1     
   41    7   40 1     
   42    7   41 1     
   43   12   42 1     
   44   15   43 1     
   45   15   44 1     
   46   18   45 1     
   47   19   46 1     
   48   19   47 1     
@<TRIPOS>SUBSTRUCTURE
      1 S1             1
@<TRIPOS>SET
LONE_PAIRS      STATIC     ATOMS    <user>   **** ""
8 40 41 42 43 44 45 46 47
DONOR_HYDROGENS      STATIC     ATOMS    <user>   **** ""
2 24 25
ATOM$BLUE        STATIC     ATOMS    COLORGROUP SYSTEM
8 40 41 42 43 44 45 46 47
ATOM$RED        STATIC     ATOMS    COLORGROUP SYSTEM
2 24 25
