AV-unprocessed.smi:3146|AV-procd|sdf|11986|dock6
  -GOLD-   2272017393D 1   1.00000     0.00000
 Structure written by MMmdl.
 34 35  0  0  0  0  0  0  0  0  1 V2000
  150.6413  140.7198  155.3756 O   0  0  0  0  0  0  0  0  0  0  0  0
  149.6094  141.2498  155.7920 C   0  0  0  0  0  0  0  0  0  0  0  0
  149.5266  141.7296  157.2506 C   0  0  0  0  0  0  0  0  0  0  0  0
  150.1955  143.0177  157.4749 N   0  0  0  0  0  0  0  0  0  0  0  0
  151.6099  142.8212  157.7529 C   0  0  0  0  0  0  0  0  0  0  0  0
  152.1337  143.9923  158.5969 C   0  0  0  0  0  0  0  0  0  0  0  0
  152.4751  143.5712  159.9419 N   0  0  0  0  0  0  0  0  0  0  0  0
  152.0983  144.1407  161.1401 C   0  0  0  0  0  0  0  0  0  0  0  0
  152.6645  143.3998  162.1376 C   0  0  0  0  0  0  0  0  0  0  0  0
  153.3783  142.3844  161.4409 C   0  0  0  0  0  0  0  0  0  0  0  0
  153.2635  142.4902  160.1269 N   0  0  0  0  0  0  0  0  0  0  0  0
  148.5283  141.4256  155.0037 N   0  0  0  0  0  0  0  0  0  0  0  0
  148.4700  141.0017  153.6059 C   0  0  0  0  0  0  0  0  0  0  0  0
  147.0041  141.1362  153.1936 C   0  0  0  0  0  0  0  0  0  0  0  0
  146.4524  142.2061  154.1254 C   0  0  0  0  0  0  0  0  0  0  0  0
  147.2653  142.0416  155.4100 C   0  0  0  0  0  0  0  0  0  0  0  0
  148.4751  141.8195  157.5273 H   0  0  0  0  0  0  0  0  0  0  0  0
  149.9754  140.9742  157.8972 H   0  0  0  0  0  0  0  0  0  0  0  0
  150.0917  143.6295  156.6777 H   0  0  0  0  0  0  0  0  0  0  0  0
  151.7551  141.8796  158.2848 H   0  0  0  0  0  0  0  0  0  0  0  0
  152.1658  142.7589  156.8161 H   0  0  0  0  0  0  0  0  0  0  0  0
  153.0214  144.4280  158.1360 H   0  0  0  0  0  0  0  0  0  0  0  0
  151.3873  144.7860  158.6592 H   0  0  0  0  0  0  0  0  0  0  0  0
  151.4667  145.0162  161.1827 H   0  0  0  0  0  0  0  0  0  0  0  0
  152.5816  143.5581  163.2026 H   0  0  0  0  0  0  0  0  0  0  0  0
  153.9726  141.5796  161.8484 H   0  0  0  0  0  0  0  0  0  0  0  0
  149.0987  141.6636  153.0085 H   0  0  0  0  0  0  0  0  0  0  0  0
  148.8272  139.9797  153.4694 H   0  0  0  0  0  0  0  0  0  0  0  0
  146.8823  141.3881  152.1398 H   0  0  0  0  0  0  0  0  0  0  0  0
  146.4858  140.1933  153.3740 H   0  0  0  0  0  0  0  0  0  0  0  0
  146.6397  143.1921  153.6983 H   0  0  0  0  0  0  0  0  0  0  0  0
  145.3786  142.1119  154.2895 H   0  0  0  0  0  0  0  0  0  0  0  0
  146.7501  141.3754  156.1036 H   0  0  0  0  0  0  0  0  0  0  0  0
  147.4111  143.0031  155.9039 H   0  0  0  0  0  0  0  0  0  0  0  0
  1  2  2  0  0  0  0
  2  3  1  0  0  0  0
  2 12  1  0  0  0  0
  3  4  1  0  0  0  0
  3 17  1  0  0  0  0
  3 18  1  0  0  0  0
  4  5  1  0  0  0  0
  4 19  1  0  0  0  0
  5  6  1  0  0  0  0
  5 20  1  0  0  0  0
  5 21  1  0  0  0  0
  6  7  1  0  0  0  0
  6 22  1  0  0  0  0
  6 23  1  0  0  0  0
  7 11  1  0  0  0  0
  7  8  1  0  0  0  0
  8  9  2  0  0  0  0
  8 24  1  0  0  0  0
  9 10  1  0  0  0  0
  9 25  1  0  0  0  0
 10 11  2  0  0  0  0
 10 26  1  0  0  0  0
 12 16  1  0  0  0  0
 12 13  1  0  0  0  0
 13 14  1  0  0  0  0
 13 27  1  0  0  0  0
 13 28  1  0  0  0  0
 14 15  1  0  0  0  0
 14 29  1  0  0  0  0
 14 30  1  0  0  0  0
 15 16  1  0  0  0  0
 15 31  1  0  0  0  0
 15 32  1  0  0  0  0
 16 33  1  0  0  0  0
 16 34  1  0  0  0  0
M  END
> <s_m_source_file>
AV-unprocessed.smi

> <i_m_source_file_index>
3146

> <i_lp_mmshare_version>
43012

> <i_f3d_flags>
0

> <s_epik_input>
W0NIMl0xW0NIMl1bQ0gyXVtDSDJdTjFDKD1PKVtDSDJdW05IXVtDSDJdW0NIMl1uMltjSF1bY0hdW2NIXW4y

> <s_epik_cmdline>
J2VwaWtfcHl0aG9uJywgJy1waCcsICc3LjAnLCAnLXRuJywgJzgnLCAnLW1hJywgJzIwMCcsICctbWV0YWxfYmluZGluZycsICctaW1hZScsICc8aW5maWxlLm1hZT4nLCAnLW9tYWUnLCAnPG91dGZpbGUubWFlPic=

> <r_lp_tautomer_probability>
1

> <r_epik_Ionization_Penalty>
0.734549

> <r_epik_Ionization_Penalty_Charging>
0

> <r_epik_Ionization_Penalty_Neutral>
0.734549

> <r_epik_State_Penalty>
0.75825

> <r_epik_Charging_Adjusted_Penalty>
0.75825

> <i_epik_Tot_Q>
0

> <i_epik_Tot_abs_Q>
0

> <r_epik_Metal_State_Penalty>
0.757003

> <b_epik_Metal_Only>
0

> <s_lp_Force_Field>
OPLS_2005

> <r_lp_Energy>
29.6194

> <b_lp_Chiralities_Consistent>
1

> <s_lp_Variant>
AV-unprocessed.smi:3146-2

> <Gold.Version>
5.8.1

> <Gold.Id.Protein>
6NUR|6NUR_protein|mol2

> <Gold.PLP.Fitness>
43.5486

> <Gold.PLP.PLP>
-39.9992

> <Gold.PLP.part.hbond>
-2.0000

> <Gold.PLP.part.metal>
0.0000

> <Gold.PLP.part.buried>
-2.6748

> <Gold.PLP.part.nonpolar>
-34.1197

> <Gold.PLP.part.repulsive>
0.0661

> <Gold.PLP.ligand.clash>
0.0000

> <Gold.PLP.ligand.torsion>
1.0254

> <Gold.PLP.Chemscore.Hbond>
1.8640

> <Gold.PLP.Chemscore.CHOScore>
0.0000

> <Gold.PLP.Chemscore.Metal>
0.0000

> <Gold.Chemscore.Hbonds>
donor molecule, donor type, donor heavy atom, donor atom, acceptor molecule, acceptor atom, score
      L1  H     4    19       P1  8028  0.93
      P1  H  7989  7998       L1     1  0.67

> <Gold.PLP.Chemscore.Internal.Correction>
0.0082

> <Gold.Rescore>
     Score         DG    S(hbond)    S(metal)    S(lipo)     H(rot)  DE(clash)    DE(int)     intcor
     15.23     -17.69       1.85        0.00      91.58       1.82       1.49       0.97       ----

> <Gold.Chemscore.Fitness>
15.2277

> <Gold.Chemscore.DG>
-17.6931

> <Gold.Chemscore.ZeroCoef>
-5.4800

> <Gold.Chemscore.Hbond>
1.8469

> <Gold.Chemscore.Metal>
0.0000

> <Gold.Chemscore.Lipo>
91.5849

> <Gold.Chemscore.Internal_Hbond>
0.0000

> <Gold.Chemscore.DEClash>
1.4949

> <Gold.Chemscore.DEInternal>
0.9705

> <Gold.Chemscore.Rot>
1.8246

> <Gold.Chemscore.Internal.Correction>
   9.000000E+99

> <Gold.Chemscore.Hbonds>
donor molecule, donor type, donor heavy atom, donor atom, acceptor molecule, acceptor atom, score
      L1  H     4    19       P1  8028  0.89
      P1  H  7989  7998       L1     1  0.65

> <Gold.Chemscore.Hbond.Weighted>
-6.1687

> <Gold.Chemscore.Metal.Weighted>
-0.0000

> <Gold.Chemscore.Lipo.Weighted>
-10.7154

> <Gold.Chemscore.Internal_Hbond.Weighted>
0.0000

> <Gold.Chemscore.DEClash.Weighted>
1.4949

> <Gold.Chemscore.DEInternal.Weighted>
0.9705

> <Gold.Chemscore.Rot.Weighted>
4.6710

> <Gold.Chemscore.Internal.Correction.Weighted>
   9.000000E+99

> <Gold.Protein.RotatedTorsions>
[ 6907 6896 6895 6894 ] final   63.07 input  -60.11 | X-H torsion
[ 7974 7965 7964 7962 ] final -127.87 input  175.53 | X-H torsion
[ 8008 7997 7996 7995 ] final  135.43 input   59.86 | X-H torsion
[ 10167 10162 10161 10158 ] final  109.64 input  -65.29 | X-H torsion
[ 10718 10713 10712 10709 ] final  -23.76 input   66.30 | X-H torsion
[ 10763 10752 10751 10750 ] final   30.87 input  -60.55 | X-H torsion
[ 11005 11000 10999 10996 ] final    2.53 input  -57.11 | X-H torsion

> <Gold.Protein.ActiveResidues>
 VAL166  LYS551  ARG553  GLY616  TRP617  ASP618  TYR619  PRO620  LYS621  CYS622 
 ASP623  PHE694  ASN695  SER759  ASP760  ASP761  ALA762  ILE779  LEU786  VAL792 
 PHE793  MET794  SER795  GLU796  ALA797  LYS798  CYS799  TRP800  GLU811  SER814 

> <Gold.Protein.RotatedAtoms>
  152.4223  134.5932  159.9979 H   0  0  0  0  0  0  0  0  0  0  0  0  # atno 6907 bound_to 6896
  151.6078  133.3344  159.3069 H   0  0  0  0  0  0  0  0  0  0  0  0  # atno 6908 bound_to 6896
  150.8111  134.7305  159.6755 H   0  0  0  0  0  0  0  0  0  0  0  0  # atno 6909 bound_to 6896
  144.9727  140.7562  143.4660 H   0  0  0  0  0  0  0  0  0  0  0  0  # atno 7974 bound_to 7965
  156.3003  140.2471  156.3581 H   0  0  0  0  0  0  0  0  0  0  0  0  # atno 8008 bound_to 7997
  154.8903  140.0409  157.1854 H   0  0  0  0  0  0  0  0  0  0  0  0  # atno 8009 bound_to 7997
  154.8605  140.2920  155.5546 H   0  0  0  0  0  0  0  0  0  0  0  0  # atno 8010 bound_to 7997
  139.6751  144.7123  151.1617 H   0  0  0  0  0  0  0  0  0  0  0  0  # atno 10167 bound_to 10162
  156.4868  130.4557  149.6779 H   0  0  0  0  0  0  0  0  0  0  0  0  # atno 10718 bound_to 10713
  153.0347  135.6453  154.1111 H   0  0  0  0  0  0  0  0  0  0  0  0  # atno 10763 bound_to 10752
  154.0828  135.2872  155.3288 H   0  0  0  0  0  0  0  0  0  0  0  0  # atno 10764 bound_to 10752
  154.6518  135.5423  153.7975 H   0  0  0  0  0  0  0  0  0  0  0  0  # atno 10765 bound_to 10752
  140.6033  133.9816  155.8142 H   0  0  0  0  0  0  0  0  0  0  0  0  # atno 11005 bound_to 11000
  145.2535  139.2022  143.4930 LP  0  0  0  0  0  0  0  0  0  0  0  0  # atno 17320 bound_to 7965
  146.3386  140.2452  142.8597 LP  0  0  0  0  0  0  0  0  0  0  0  0  # atno 17321 bound_to 7965
  140.7632  143.5785  150.8920 LP  0  0  0  0  0  0  0  0  0  0  0  0  # atno 17342 bound_to 10162
  139.9453  143.6335  152.3043 LP  0  0  0  0  0  0  0  0  0  0  0  0  # atno 17343 bound_to 10162
  156.3466  130.7410  151.2364 LP  0  0  0  0  0  0  0  0  0  0  0  0  # atno 17370 bound_to 10713
  157.7478  131.0388  150.4523 LP  0  0  0  0  0  0  0  0  0  0  0  0  # atno 17371 bound_to 10713
  141.0858  133.9993  157.3316 LP  0  0  0  0  0  0  0  0  0  0  0  0  # atno 17394 bound_to 11000
  139.9223  135.0201  156.8109 LP  0  0  0  0  0  0  0  0  0  0  0  0  # atno 17395 bound_to 11000

$$$$
