AV-unprocessed.smi:1522|AV-procd|sdf|6136|dock1
  -GOLD-   22720 6283D 1   1.00000     0.00000
 Structure written by MMmdl.
 34 35  0  0  0  0  0  0  0  0  3 V2000
  150.4371  135.2763  154.7307 C   0  0  0  0  0  0  0  0  0  0  0  0
  148.9289  135.1526  155.0428 C   0  0  2  0  0  0  0  0  0  0  0  0
  148.7091  134.2200  156.2594 C   0  0  0  0  0  0  0  0  0  0  0  0
  149.0627  134.8616  157.5250 N   0  0  0  0  0  0  0  0  0  0  0  0
  148.3069  134.9273  158.6299 C   0  0  0  0  0  0  0  0  0  0  0  0
  147.1637  134.4675  158.6251 O   0  0  0  0  0  0  0  0  0  0  0  0
  148.9309  135.5068  159.6787 N   0  5  0  0  0  0  0  0  0  0  0  0
  148.2887  135.6361  160.8514 C   0  0  0  0  0  0  0  0  0  0  0  0
  148.4428  136.7129  161.6389 N   0  0  0  0  0  0  0  0  0  0  0  0
  147.6916  136.6483  162.8043 N   0  0  0  0  0  0  0  0  0  0  0  0
  146.9789  135.5233  162.8614 C   0  0  0  0  0  0  0  0  0  0  0  0
  147.1621  134.4402  161.4976 S   0  0  0  0  0  0  0  0  0  0  0  0
  148.1394  134.6975  153.8612 N   0  3  0  0  0  0  0  0  0  0  0  0
  148.3205  133.2761  153.5005 C   0  0  0  0  0  0  0  0  0  0  0  0
  147.1972  132.9795  152.5110 C   0  0  0  0  0  0  0  0  0  0  0  0
  146.0526  133.9008  152.9404 C   0  0  0  0  0  0  0  0  0  0  0  0
  146.6741  134.8934  153.9326 C   0  0  0  0  0  0  0  0  0  0  0  0
  151.0005  135.5267  155.6301 H   0  0  0  0  0  0  0  0  0  0  0  0
  150.6422  136.0632  154.0051 H   0  0  0  0  0  0  0  0  0  0  0  0
  150.8451  134.3450  154.3359 H   0  0  0  0  0  0  0  0  0  0  0  0
  148.5763  136.1487  155.3144 H   0  0  0  0  0  0  0  0  0  0  0  0
  147.6551  133.9472  156.3186 H   0  0  0  0  0  0  0  0  0  0  0  0
  149.2438  133.2771  156.1391 H   0  0  0  0  0  0  0  0  0  0  0  0
  149.9860  135.2670  157.5813 H   0  0  0  0  0  0  0  0  0  0  0  0
  146.3405  135.3306  163.7107 H   0  0  0  0  0  0  0  0  0  0  0  0
  149.3017  133.0647  153.0778 H   0  0  0  0  0  0  0  0  0  0  0  0
  148.1995  132.6551  154.3896 H   0  0  0  0  0  0  0  0  0  0  0  0
  147.5201  133.2423  151.5025 H   0  0  0  0  0  0  0  0  0  0  0  0
  146.9132  131.9268  152.5056 H   0  0  0  0  0  0  0  0  0  0  0  0
  145.6285  134.4145  152.0767 H   0  0  0  0  0  0  0  0  0  0  0  0
  145.2488  133.3376  153.4159 H   0  0  0  0  0  0  0  0  0  0  0  0
  146.3202  134.6606  154.9382 H   0  0  0  0  0  0  0  0  0  0  0  0
  146.3996  135.9242  153.7056 H   0  0  0  0  0  0  0  0  0  0  0  0
  148.4567  135.2382  153.0679 H   0  0  0  0  0  0  0  0  0  0  0  0
  1  2  1  0  0  0  0
  1 18  1  0  0  0  0
  1 19  1  0  0  0  0
  1 20  1  0  0  0  0
  2  3  1  0  0  0  0
  2 13  1  0  0  0  0
  2 21  1  0  0  0  0
  3  4  1  0  0  0  0
  3 22  1  0  0  0  0
  3 23  1  0  0  0  0
  4  5  1  0  0  0  0
  4 24  1  0  0  0  0
  5  6  2  0  0  0  0
  5  7  1  0  0  0  0
  7  8  1  0  0  0  0
  8 12  1  0  0  0  0
  8  9  2  0  0  0  0
  9 10  1  0  0  0  0
 10 11  2  0  0  0  0
 11 12  1  0  0  0  0
 11 25  1  0  0  0  0
 13 17  1  0  0  0  0
 13 14  1  0  0  0  0
 13 34  1  0  0  0  0
 14 15  1  0  0  0  0
 14 26  1  0  0  0  0
 14 27  1  0  0  0  0
 15 16  1  0  0  0  0
 15 28  1  0  0  0  0
 15 29  1  0  0  0  0
 16 17  1  0  0  0  0
 16 30  1  0  0  0  0
 16 31  1  0  0  0  0
 17 32  1  0  0  0  0
 17 33  1  0  0  0  0
M  CHG  1   7  -1
M  CHG  1  13   1
M  END
> <s_m_source_file>
AV-unprocessed.smi

> <i_m_source_file_index>
1522

> <i_lp_mmshare_version>
43012

> <i_f3d_flags>
0

> <s_epik_input>
W0NIMl0xW0NIMl1bQ0gyXVtDSDJdTjFbQ0BIXShbQ0gzXSlbQ0gyXVtOSF1DKD1PKVtOSF1jMm5uW2NIXXMy

> <s_epik_cmdline>
J2VwaWtfcHl0aG9uJywgJy1waCcsICc3LjAnLCAnLXRuJywgJzgnLCAnLW1hJywgJzIwMCcsICctbWV0YWxfYmluZGluZycsICctaW1hZScsICc8aW5maWxlLm1hZT4nLCAnLW9tYWUnLCAnPG91dGZpbGUubWFlPic=

> <r_lp_tautomer_probability>
1

> <r_epik_Ionization_Penalty>
3.04208

> <r_epik_Ionization_Penalty_Charging>
3.00964

> <r_epik_Ionization_Penalty_Neutral>
0.0324455

> <r_epik_State_Penalty>
3.0051

> <r_epik_Charging_Adjusted_Penalty>
6.01474

> <i_epik_Tot_Q>
0

> <i_epik_Tot_abs_Q>
2

> <r_epik_Metal_State_Penalty>
0.454155

> <b_epik_Metal_Only>
1

> <s_lp_Force_Field>
OPLS_2005

> <r_lp_Energy>
27.863

> <b_lp_Chiralities_Consistent>
1

> <s_lp_Variant>
AV-unprocessed.smi:1522-3

> <Gold.Version>
5.8.1

> <Gold.Id.Protein>
6NUR|6NUR_protein|mol2

> <Gold.PLP.Fitness>
38.9761

> <Gold.PLP.PLP>
-25.0173

> <Gold.PLP.part.hbond>
-3.9615

> <Gold.PLP.part.metal>
0.0000

> <Gold.PLP.part.buried>
-3.0084

> <Gold.PLP.part.nonpolar>
-19.1709

> <Gold.PLP.part.repulsive>
0.0852

> <Gold.PLP.ligand.clash>
0.0000

> <Gold.PLP.ligand.torsion>
0.6053

> <Gold.PLP.Chemscore.Hbond>
5.0000

> <Gold.PLP.Chemscore.CHOScore>
0.0000

> <Gold.PLP.Chemscore.Metal>
0.0000

> <Gold.Chemscore.Hbonds>
donor molecule, donor type, donor heavy atom, donor atom, acceptor molecule, acceptor atom, score
      L1  H    13    34       P1  7948  2.00
      P1  H  6896  6907       L1     7  1.82
      P1  H  6931  6943       L1     9  0.80

> <Gold.PLP.Chemscore.Internal.Correction>
0.1694

> <Gold.Rescore>
     Score         DG    S(hbond)    S(metal)    S(lipo)     H(rot)  DE(clash)    DE(int)     intcor
     11.56     -13.54       1.95        0.00      49.78       1.68       0.01       1.96       ----

> <Gold.Chemscore.Fitness>
11.5643

> <Gold.Chemscore.DG>
-13.5395

> <Gold.Chemscore.ZeroCoef>
-5.4800

> <Gold.Chemscore.Hbond>
1.9541

> <Gold.Chemscore.Metal>
0.0000

> <Gold.Chemscore.Lipo>
49.7765

> <Gold.Chemscore.Internal_Hbond>
0.0000

> <Gold.Chemscore.DEClash>
0.0106

> <Gold.Chemscore.DEInternal>
1.9646

> <Gold.Chemscore.Rot>
1.6762

> <Gold.Chemscore.Internal.Correction>
   9.000000E+99

> <Gold.Chemscore.Hbonds>
donor molecule, donor type, donor heavy atom, donor atom, acceptor molecule, acceptor atom, score
      L1  H    13    34       P1  7948  0.90
      P1  H  6896  6907       L1     7  0.55
      P1  H  6931  6943       L1     9  0.12

> <Gold.Chemscore.Hbond.Weighted>
-6.5267

> <Gold.Chemscore.Metal.Weighted>
-0.0000

> <Gold.Chemscore.Lipo.Weighted>
-5.8239

> <Gold.Chemscore.Internal_Hbond.Weighted>
0.0000

> <Gold.Chemscore.DEClash.Weighted>
0.0106

> <Gold.Chemscore.DEInternal.Weighted>
1.9646

> <Gold.Chemscore.Rot.Weighted>
4.2910

> <Gold.Chemscore.Internal.Correction.Weighted>
   9.000000E+99

> <Gold.Protein.RotatedTorsions>
[ 6907 6896 6895 6894 ] final  -45.45 input  -60.11 | X-H torsion
[ 7974 7965 7964 7962 ] final   10.60 input  175.53 | X-H torsion
[ 8008 7997 7996 7995 ] final -167.92 input   59.86 | X-H torsion
[ 10167 10162 10161 10158 ] final  -62.34 input  -65.29 | X-H torsion
[ 10718 10713 10712 10709 ] final  109.10 input   66.30 | X-H torsion
[ 10763 10752 10751 10750 ] final  -79.06 input  -60.55 | X-H torsion
[ 11005 11000 10999 10996 ] final  165.75 input  -57.11 | X-H torsion

> <Gold.Protein.ActiveResidues>
 VAL166  LYS551  ARG553  GLY616  TRP617  ASP618  TYR619  PRO620  LYS621  CYS622 
 ASP623  PHE694  ASN695  SER759  ASP760  ASP761  ALA762  ILE779  LEU786  VAL792 
 PHE793  MET794  SER795  GLU796  ALA797  LYS798  CYS799  TRP800  GLU811  SER814 

> <Gold.Protein.RotatedAtoms>
  150.9218  134.8635  159.7493 H   0  0  0  0  0  0  0  0  0  0  0  0  # atno 6907 bound_to 6896
  152.4996  134.4207  159.9489 H   0  0  0  0  0  0  0  0  0  0  0  0  # atno 6908 bound_to 6896
  151.4241  133.3650  159.2795 H   0  0  0  0  0  0  0  0  0  0  0  0  # atno 6909 bound_to 6896
  146.2385  139.9610  142.8458 H   0  0  0  0  0  0  0  0  0  0  0  0  # atno 7974 bound_to 7965
  155.8843  140.1014  157.1463 H   0  0  0  0  0  0  0  0  0  0  0  0  # atno 8008 bound_to 7997
  154.4008  140.1323  156.4300 H   0  0  0  0  0  0  0  0  0  0  0  0  # atno 8009 bound_to 7997
  155.7606  140.3463  155.5198 H   0  0  0  0  0  0  0  0  0  0  0  0  # atno 8010 bound_to 7997
  140.5945  143.2348  151.6066 H   0  0  0  0  0  0  0  0  0  0  0  0  # atno 10167 bound_to 10162
  157.6557  131.0907  150.6404 H   0  0  0  0  0  0  0  0  0  0  0  0  # atno 10718 bound_to 10713
  154.5338  135.5708  153.6781 H   0  0  0  0  0  0  0  0  0  0  0  0  # atno 10763 bound_to 10752
  152.9946  135.6211  154.2594 H   0  0  0  0  0  0  0  0  0  0  0  0  # atno 10764 bound_to 10752
  154.2521  135.2859  155.2792 H   0  0  0  0  0  0  0  0  0  0  0  0  # atno 10765 bound_to 10752
  140.2594  134.7914  157.3576 H   0  0  0  0  0  0  0  0  0  0  0  0  # atno 11005 bound_to 11000
  145.1771  140.9749  143.4288 LP  0  0  0  0  0  0  0  0  0  0  0  0  # atno 17320 bound_to 7965
  144.9976  139.3629  143.6184 LP  0  0  0  0  0  0  0  0  0  0  0  0  # atno 17321 bound_to 7965
  139.5249  144.3090  152.1009 LP  0  0  0  0  0  0  0  0  0  0  0  0  # atno 17342 bound_to 10162
  140.2260  144.4418  150.6321 LP  0  0  0  0  0  0  0  0  0  0  0  0  # atno 17343 bound_to 10162
  156.6710  130.4539  149.5657 LP  0  0  0  0  0  0  0  0  0  0  0  0  # atno 17370 bound_to 10713
  156.1997  130.6612  151.1154 LP  0  0  0  0  0  0  0  0  0  0  0  0  # atno 17371 bound_to 10713
  140.1480  134.4887  155.7982 LP  0  0  0  0  0  0  0  0  0  0  0  0  # atno 17394 bound_to 11000
  141.2192  133.6851  156.7327 LP  0  0  0  0  0  0  0  0  0  0  0  0  # atno 17395 bound_to 11000

$$$$
