AV-unprocessed.smi:3031|AV-procd|sdf|11547|dock3
  -GOLD-   2272016503D 1   1.00000     0.00000
 Structure written by MMmdl.
 47 48  0  0  0  0  0  0  0  0  2 V2000
  151.6292  143.5153  158.5913 C   0  0  0  0  0  0  0  0  0  0  0  0
  151.2580  142.2288  157.9119 C   0  0  0  0  0  0  0  0  0  0  0  0
  151.2321  140.9198  158.4721 C   0  0  0  0  0  0  0  0  0  0  0  0
  150.8653  139.9945  157.6008 N   0  0  0  0  0  0  0  0  0  0  0  0
  150.6455  140.6774  156.4564 N   0  0  0  0  0  0  0  0  0  0  0  0
  150.2283  139.9685  155.2603 C   0  0  0  0  0  0  0  0  0  0  0  0
  148.9201  140.5105  154.6369 C   0  0  2  0  0  0  0  0  0  0  0  0
  147.8143  140.5460  155.7006 C   0  0  0  0  0  0  0  0  0  0  0  0
  148.4695  139.6887  153.5096 N   0  0  0  0  0  0  0  0  0  0  0  0
  147.0886  139.9298  153.0839 C   0  0  0  0  0  0  0  0  0  0  0  0
  146.5427  138.7956  152.1983 C   0  0  1  0  0  0  0  0  0  0  0  0
  147.5568  138.3983  151.2962 O   0  0  0  0  0  0  0  0  0  0  0  0
  146.0151  137.5759  152.9845 C   0  0  0  0  0  0  0  0  0  0  0  0
  146.1572  136.3087  152.2232 N   0  3  0  0  0  0  0  0  0  0  0  0
  145.9726  135.1081  153.0727 C   0  0  0  0  0  0  0  0  0  0  0  0
  146.1977  133.8282  152.2501 C   0  0  0  0  0  0  0  0  0  0  0  0
  145.3130  133.8139  151.1369 O   0  0  0  0  0  0  0  0  0  0  0  0
  145.5357  134.9159  150.2660 C   0  0  0  0  0  0  0  0  0  0  0  0
  145.2872  136.2313  151.0232 C   0  0  0  0  0  0  0  0  0  0  0  0
  150.8677  142.0284  156.6179 C   0  0  0  0  0  0  0  0  0  0  0  0
  151.5824  143.4284  159.6770 H   0  0  0  0  0  0  0  0  0  0  0  0
  150.9627  144.3296  158.3062 H   0  0  0  0  0  0  0  0  0  0  0  0
  152.6431  143.8249  158.3370 H   0  0  0  0  0  0  0  0  0  0  0  0
  151.4714  140.6164  159.4806 H   0  0  0  0  0  0  0  0  0  0  0  0
  151.0380  139.9935  154.5286 H   0  0  0  0  0  0  0  0  0  0  0  0
  150.0996  138.9205  155.5338 H   0  0  0  0  0  0  0  0  0  0  0  0
  149.0792  141.5371  154.3036 H   0  0  0  0  0  0  0  0  0  0  0  0
  148.0981  141.1803  156.5409 H   0  0  0  0  0  0  0  0  0  0  0  0
  147.6044  139.5501  156.0924 H   0  0  0  0  0  0  0  0  0  0  0  0
  146.8864  140.9451  155.2896 H   0  0  0  0  0  0  0  0  0  0  0  0
  149.0884  139.8471  152.7199 H   0  0  0  0  0  0  0  0  0  0  0  0
  146.4560  140.0328  153.9662 H   0  0  0  0  0  0  0  0  0  0  0  0
  146.9980  140.8698  152.5437 H   0  0  0  0  0  0  0  0  0  0  0  0
  145.7396  139.2240  151.6001 H   0  0  0  0  0  0  0  0  0  0  0  0
  148.0323  137.6753  151.6777 H   0  0  0  0  0  0  0  0  0  0  0  0
  146.5677  137.4964  153.9220 H   0  0  0  0  0  0  0  0  0  0  0  0
  144.9688  137.7186  153.2592 H   0  0  0  0  0  0  0  0  0  0  0  0
  146.6739  135.1324  153.9078 H   0  0  0  0  0  0  0  0  0  0  0  0
  144.9670  135.1100  153.4966 H   0  0  0  0  0  0  0  0  0  0  0  0
  147.2322  133.7604  151.9096 H   0  0  0  0  0  0  0  0  0  0  0  0
  146.0072  132.9480  152.8643 H   0  0  0  0  0  0  0  0  0  0  0  0
  146.5509  134.8817  149.8673 H   0  0  0  0  0  0  0  0  0  0  0  0
  144.8568  134.8372  149.4166 H   0  0  0  0  0  0  0  0  0  0  0  0
  144.2402  136.2936  151.3244 H   0  0  0  0  0  0  0  0  0  0  0  0
  145.4771  137.0706  150.3555 H   0  0  0  0  0  0  0  0  0  0  0  0
  150.7380  142.7269  155.8043 H   0  0  0  0  0  0  0  0  0  0  0  0
  147.1145  136.2806  151.9011 H   0  0  0  0  0  0  0  0  0  0  0  0
  1  2  1  0  0  0  0
  1 21  1  0  0  0  0
  1 22  1  0  0  0  0
  1 23  1  0  0  0  0
  2 20  2  0  0  0  0
  2  3  1  0  0  0  0
  3  4  2  0  0  0  0
  3 24  1  0  0  0  0
  4  5  1  0  0  0  0
  5  6  1  0  0  0  0
  5 20  1  0  0  0  0
  6  7  1  0  0  0  0
  6 25  1  0  0  0  0
  6 26  1  0  0  0  0
  7  8  1  0  0  0  0
  7  9  1  0  0  0  0
  7 27  1  0  0  0  0
  8 28  1  0  0  0  0
  8 29  1  0  0  0  0
  8 30  1  0  0  0  0
  9 10  1  0  0  0  0
  9 31  1  0  0  0  0
 10 11  1  0  0  0  0
 10 32  1  0  0  0  0
 10 33  1  0  0  0  0
 11 12  1  0  0  0  0
 11 13  1  0  0  0  0
 11 34  1  0  0  0  0
 12 35  1  0  0  0  0
 13 14  1  0  0  0  0
 13 36  1  0  0  0  0
 13 37  1  0  0  0  0
 14 19  1  0  0  0  0
 14 15  1  0  0  0  0
 14 47  1  0  0  0  0
 15 16  1  0  0  0  0
 15 38  1  0  0  0  0
 15 39  1  0  0  0  0
 16 17  1  0  0  0  0
 16 40  1  0  0  0  0
 16 41  1  0  0  0  0
 17 18  1  0  0  0  0
 18 19  1  0  0  0  0
 18 42  1  0  0  0  0
 18 43  1  0  0  0  0
 19 44  1  0  0  0  0
 19 45  1  0  0  0  0
 20 46  1  0  0  0  0
M  CHG  1  14   1
M  END
> <s_m_source_file>
AV-unprocessed.smi

> <i_m_source_file_index>
3031

> <i_lp_mmshare_version>
43012

> <i_f3d_flags>
0

> <s_epik_input>
W0NIM11jMVtjSF1ubihbY0hdMSlbQ0gyXVtDQEhdKFtDSDNdKVtOSF1bQ0gyXVtDQEhdKFtPSF0pW0NIMl1OMltDSDJdW0NIMl1PW0NIMl1bQ0gyXTI=

> <s_epik_cmdline>
J2VwaWtfcHl0aG9uJywgJy1waCcsICc3LjAnLCAnLXRuJywgJzgnLCAnLW1hJywgJzIwMCcsICctbWV0YWxfYmluZGluZycsICctaW1hZScsICc8aW5maWxlLm1hZT4nLCAnLW9tYWUnLCAnPG91dGZpbGUubWFlPic=

> <r_epik_Ionization_Penalty>
0.467051

> <r_epik_Ionization_Penalty_Charging>
0.202493

> <r_epik_Ionization_Penalty_Neutral>
0.264558

> <r_epik_State_Penalty>
1.34287

> <r_epik_Charging_Adjusted_Penalty>
1.54537

> <i_epik_Tot_Q>
1

> <i_epik_Tot_abs_Q>
1

> <r_epik_Metal_State_Penalty>
1.34281

> <b_epik_Metal_Only>
0

> <s_lp_Force_Field>
OPLS_2005

> <r_lp_Energy>
30.3871

> <b_lp_Chiralities_Consistent>
1

> <s_lp_Variant>
AV-unprocessed.smi:3031-7

> <Gold.Version>
5.8.1

> <Gold.Id.Protein>
6NUR|6NUR_protein|mol2

> <Gold.PLP.Fitness>
52.9854

> <Gold.PLP.PLP>
-38.3450

> <Gold.PLP.part.hbond>
-4.6938

> <Gold.PLP.part.metal>
0.0000

> <Gold.PLP.part.buried>
-2.4691

> <Gold.PLP.part.nonpolar>
-31.2205

> <Gold.PLP.part.repulsive>
0.1132

> <Gold.PLP.ligand.clash>
0.0000

> <Gold.PLP.ligand.torsion>
0.8771

> <Gold.PLP.Chemscore.Hbond>
4.7500

> <Gold.PLP.Chemscore.CHOScore>
0.6494

> <Gold.PLP.Chemscore.Metal>
0.0000

> <Gold.Chemscore.Hbonds>
donor molecule, donor type, donor heavy atom, donor atom, acceptor molecule, acceptor atom, score
      L1  H     9    31       P1  7957  1.00
      L1  H    12    35       P1  7948  1.00
      L1  H    14    47       P1  7948  2.00
      P1  H  7954  7966       L1    12  0.25
      L1  C    20    46       P1  8028  0.50

> <Gold.PLP.Chemscore.Internal.Correction>
0.1964

> <Gold.Rescore>
     Score         DG    S(hbond)    S(metal)    S(lipo)     H(rot)  DE(clash)    DE(int)     intcor
     19.03     -20.07       3.23        0.00      90.63       2.65       0.03       1.01       ----

> <Gold.Chemscore.Fitness>
19.0262

> <Gold.Chemscore.DG>
-20.0718

> <Gold.Chemscore.ZeroCoef>
-5.4800

> <Gold.Chemscore.Hbond>
3.2269

> <Gold.Chemscore.Metal>
0.0000

> <Gold.Chemscore.Lipo>
90.6254

> <Gold.Chemscore.Internal_Hbond>
0.0000

> <Gold.Chemscore.DEClash>
0.0350

> <Gold.Chemscore.DEInternal>
1.0107

> <Gold.Chemscore.Rot>
2.6521

> <Gold.Chemscore.Internal.Correction>
   9.000000E+99

> <Gold.Chemscore.Hbonds>
donor molecule, donor type, donor heavy atom, donor atom, acceptor molecule, acceptor atom, score
      L1  H     9    31       P1  7957  0.99
      L1  H    12    35       P1  7948  1.00
      L1  H    14    47       P1  7948  1.00

> <Gold.Chemscore.Hbond.Weighted>
-10.7780

> <Gold.Chemscore.Metal.Weighted>
-0.0000

> <Gold.Chemscore.Lipo.Weighted>
-10.6032

> <Gold.Chemscore.Internal_Hbond.Weighted>
0.0000

> <Gold.Chemscore.DEClash.Weighted>
0.0350

> <Gold.Chemscore.DEInternal.Weighted>
1.0107

> <Gold.Chemscore.Rot.Weighted>
6.7894

> <Gold.Chemscore.Internal.Correction.Weighted>
   9.000000E+99

> <Gold.Protein.RotatedTorsions>
[ 6907 6896 6895 6894 ] final  -31.02 input  -60.11 | X-H torsion
[ 7974 7965 7964 7962 ] final -124.42 input  175.53 | X-H torsion
[ 8008 7997 7996 7995 ] final  146.90 input   59.86 | X-H torsion
[ 10167 10162 10161 10158 ] final  -10.96 input  -65.29 | X-H torsion
[ 10718 10713 10712 10709 ] final -126.57 input   66.30 | X-H torsion
[ 10763 10752 10751 10750 ] final -118.38 input  -60.55 | X-H torsion
[ 11005 11000 10999 10996 ] final   55.96 input  -57.11 | X-H torsion

> <Gold.Protein.ActiveResidues>
 VAL166  LYS551  ARG553  GLY616  TRP617  ASP618  TYR619  PRO620  LYS621  CYS622 
 ASP623  PHE694  ASN695  SER759  ASP760  ASP761  ALA762  ILE779  LEU786  VAL792 
 PHE793  MET794  SER795  GLU796  ALA797  LYS798  CYS799  TRP800  GLU811  SER814 

> <Gold.Protein.RotatedAtoms>
  151.0977  134.9954  159.8433 H   0  0  0  0  0  0  0  0  0  0  0  0  # atno 6907 bound_to 6896
  152.5434  134.1988  159.8714 H   0  0  0  0  0  0  0  0  0  0  0  0  # atno 6908 bound_to 6896
  151.2029  133.4556  159.2630 H   0  0  0  0  0  0  0  0  0  0  0  0  # atno 6909 bound_to 6896
  145.0083  140.7883  143.4454 H   0  0  0  0  0  0  0  0  0  0  0  0  # atno 7974 bound_to 7965
  156.2841  140.2170  156.5450 H   0  0  0  0  0  0  0  0  0  0  0  0  # atno 8008 bound_to 7997
  154.7338  140.0493  157.0772 H   0  0  0  0  0  0  0  0  0  0  0  0  # atno 8009 bound_to 7997
  155.0319  140.3136  155.4758 H   0  0  0  0  0  0  0  0  0  0  0  0  # atno 8010 bound_to 7997
  140.7127  143.5692  150.9111 H   0  0  0  0  0  0  0  0  0  0  0  0  # atno 10167 bound_to 10162
  156.1778  130.6711  151.0264 H   0  0  0  0  0  0  0  0  0  0  0  0  # atno 10718 bound_to 10713
  154.8585  135.4276  154.2129 H   0  0  0  0  0  0  0  0  0  0  0  0  # atno 10763 bound_to 10752
  153.3151  135.6978  153.7086 H   0  0  0  0  0  0  0  0  0  0  0  0  # atno 10764 bound_to 10752
  153.6164  135.3510  155.2970 H   0  0  0  0  0  0  0  0  0  0  0  0  # atno 10765 bound_to 10752
  140.0566  134.5661  155.9200 H   0  0  0  0  0  0  0  0  0  0  0  0  # atno 11005 bound_to 11000
  145.2058  139.2229  143.5169 LP  0  0  0  0  0  0  0  0  0  0  0  0  # atno 17320 bound_to 7965
  146.3465  140.1886  142.8589 LP  0  0  0  0  0  0  0  0  0  0  0  0  # atno 17321 bound_to 7965
  139.9418  143.6374  152.3052 LP  0  0  0  0  0  0  0  0  0  0  0  0  # atno 17342 bound_to 10162
  139.6861  144.7651  151.1522 LP  0  0  0  0  0  0  0  0  0  0  0  0  # atno 17343 bound_to 10162
  157.6847  131.0828  150.7274 LP  0  0  0  0  0  0  0  0  0  0  0  0  # atno 17370 bound_to 10713
  156.7332  130.4716  149.5494 LP  0  0  0  0  0  0  0  0  0  0  0  0  # atno 17371 bound_to 10713
  141.1955  133.6587  156.5645 LP  0  0  0  0  0  0  0  0  0  0  0  0  # atno 17394 bound_to 11000
  140.3834  134.7503  157.4676 LP  0  0  0  0  0  0  0  0  0  0  0  0  # atno 17395 bound_to 11000

$$$$
