AV-unprocessed.smi:1128|AV-procd|sdf|4842|dock1
  -GOLD-   22720 3403D 1   1.00000     0.00000
 Structure written by MMmdl.
 38 39  0  0  0  0  0  0  0  0  1 V2000
  152.7773  136.7878  160.1654 O   0  0  0  0  0  0  0  0  0  0  0  0
  153.2822  137.5765  160.9634 C   0  0  0  0  0  0  0  0  0  0  0  0
  153.4305  138.8849  160.7102 N   0  0  0  0  0  0  0  0  0  0  0  0
  153.0359  139.5656  159.4799 C   0  0  0  0  0  0  0  0  0  0  0  0
  152.4071  140.9470  159.7532 C   0  0  2  0  0  0  0  0  0  0  0  0
  152.0751  141.7203  158.4545 C   0  0  0  0  0  0  0  0  0  0  0  0
  151.7258  143.1755  158.7108 C   0  0  0  0  0  0  0  0  0  0  0  0
  151.9784  143.8045  159.8705 C   0  0  0  0  0  0  0  0  0  0  0  0
  152.6501  143.1326  161.0533 C   0  0  0  0  0  0  0  0  0  0  0  0
  153.3116  141.7967  160.6665 C   0  0  0  0  0  0  0  0  0  0  0  0
  153.7625  137.2714  162.1833 N   0  0  0  0  0  0  0  0  0  0  0  0
  153.8198  136.0342  162.8492 C   0  0  0  0  0  0  0  0  0  0  0  0
  154.0899  134.8374  162.2638 C   0  0  0  0  0  0  0  0  0  0  0  0
  154.1353  133.5993  163.0238 C   0  0  0  0  0  0  0  0  0  0  0  0
  154.3844  132.2604  162.3466 C   0  0  0  0  0  0  0  0  0  0  0  0
  153.3457  131.4378  162.4993 F   0  0  0  0  0  0  0  0  0  0  0  0
  154.6033  132.4201  161.0413 F   0  0  0  0  0  0  0  0  0  0  0  0
  155.4578  131.6773  162.8779 F   0  0  0  0  0  0  0  0  0  0  0  0
  153.8691  133.6916  164.3395 C   0  0  0  0  0  0  0  0  0  0  0  0
  153.5943  134.9169  164.9500 N   0  0  0  0  0  0  0  0  0  0  0  0
  153.5504  136.0989  164.2958 C   0  0  0  0  0  0  0  0  0  0  0  0
  153.2981  137.1364  164.9076 O   0  0  0  0  0  0  0  0  0  0  0  0
  153.4158  134.9048  165.9438 H   0  0  0  0  0  0  0  0  0  0  0  0
  153.8572  139.4574  161.4239 H   0  0  0  0  0  0  0  0  0  0  0  0
  153.9357  139.6863  158.8761 H   0  0  0  0  0  0  0  0  0  0  0  0
  152.3573  138.9497  158.8870 H   0  0  0  0  0  0  0  0  0  0  0  0
  151.4717  140.7829  160.2913 H   0  0  0  0  0  0  0  0  0  0  0  0
  152.9218  141.6954  157.7677 H   0  0  0  0  0  0  0  0  0  0  0  0
  151.2367  141.2488  157.9409 H   0  0  0  0  0  0  0  0  0  0  0  0
  151.2585  143.7139  157.8993 H   0  0  0  0  0  0  0  0  0  0  0  0
  151.6895  144.8378  159.9959 H   0  0  0  0  0  0  0  0  0  0  0  0
  153.3956  143.8068  161.4756 H   0  0  0  0  0  0  0  0  0  0  0  0
  151.8953  142.9710  161.8234 H   0  0  0  0  0  0  0  0  0  0  0  0
  153.5670  141.2449  161.5718 H   0  0  0  0  0  0  0  0  0  0  0  0
  154.2536  141.9943  160.1530 H   0  0  0  0  0  0  0  0  0  0  0  0
  154.1646  138.0379  162.7033 H   0  0  0  0  0  0  0  0  0  0  0  0
  154.2811  134.7602  161.2070 H   0  0  0  0  0  0  0  0  0  0  0  0
  153.8431  132.8503  165.0164 H   0  0  0  0  0  0  0  0  0  0  0  0
  1  2  2  0  0  0  0
  2  3  1  0  0  0  0
  2 11  1  0  0  0  0
  3  4  1  0  0  0  0
  3 24  1  0  0  0  0
  4  5  1  0  0  0  0
  4 25  1  0  0  0  0
  4 26  1  0  0  0  0
  5 10  1  0  0  0  0
  5  6  1  0  0  0  0
  5 27  1  0  0  0  0
  6  7  1  0  0  0  0
  6 28  1  0  0  0  0
  6 29  1  0  0  0  0
  7  8  2  0  0  0  0
  7 30  1  0  0  0  0
  8  9  1  0  0  0  0
  8 31  1  0  0  0  0
  9 10  1  0  0  0  0
  9 32  1  0  0  0  0
  9 33  1  0  0  0  0
 10 34  1  0  0  0  0
 10 35  1  0  0  0  0
 11 12  1  0  0  0  0
 11 36  1  0  0  0  0
 12 21  1  0  0  0  0
 12 13  2  0  0  0  0
 13 14  1  0  0  0  0
 13 37  1  0  0  0  0
 14 15  1  0  0  0  0
 14 19  2  0  0  0  0
 15 16  1  0  0  0  0
 15 17  1  0  0  0  0
 15 18  1  0  0  0  0
 19 20  1  0  0  0  0
 19 38  1  0  0  0  0
 20 23  1  0  0  0  0
 20 21  1  0  0  0  0
 21 22  2  0  0  0  0
M  END
> <s_m_source_file>
AV-unprocessed.smi

> <i_m_source_file_index>
1128

> <i_lp_mmshare_version>
43012

> <i_f3d_flags>
0

> <s_epik_input>
Tz1jMVtuSF1bY0hdYyhDKEYpKEYpRilbY0hdYzFbTkhdQyg9TylbTkhdW0NIMl1bQ0BASF0yW0NIMl1bQ0hdPVtDSF1bQ0gyXVtDSDJdMg==

> <s_epik_cmdline>
J2VwaWtfcHl0aG9uJywgJy1waCcsICc3LjAnLCAnLXRuJywgJzgnLCAnLW1hJywgJzIwMCcsICctbWV0YWxfYmluZGluZycsICctaW1hZScsICc8aW5maWxlLm1hZT4nLCAnLW9tYWUnLCAnPG91dGZpbGUubWFlPic=

> <r_lp_tautomer_probability>
1

> <r_epik_Ionization_Penalty>
0.00381734

> <r_epik_Ionization_Penalty_Charging>
0.00379608

> <r_epik_Ionization_Penalty_Neutral>
2.12611e-05

> <r_epik_State_Penalty>
-0

> <r_epik_Charging_Adjusted_Penalty>
0.00379608

> <i_epik_Tot_Q>
0

> <i_epik_Tot_abs_Q>
0

> <r_epik_Metal_State_Penalty>
0.371155

> <b_epik_Metal_Only>
0

> <s_lp_Force_Field>
OPLS_2005

> <r_lp_Energy>
20.2087

> <b_lp_Chiralities_Consistent>
1

> <s_lp_Variant>
AV-unprocessed.smi:1128-1

> <Gold.Version>
5.8.1

> <Gold.Id.Protein>
6NUR|6NUR_protein|mol2

> <Gold.PLP.Fitness>
43.4011

> <Gold.PLP.PLP>
-41.2856

> <Gold.PLP.part.hbond>
-2.8383

> <Gold.PLP.part.metal>
0.0000

> <Gold.PLP.part.buried>
-4.7773

> <Gold.PLP.part.nonpolar>
-34.0327

> <Gold.PLP.part.repulsive>
0.2310

> <Gold.PLP.ligand.clash>
0.0000

> <Gold.PLP.ligand.torsion>
0.4599

> <Gold.PLP.Chemscore.Hbond>
1.0000

> <Gold.PLP.Chemscore.CHOScore>
0.0000

> <Gold.PLP.Chemscore.Metal>
0.0000

> <Gold.Chemscore.Hbonds>
donor molecule, donor type, donor heavy atom, donor atom, acceptor molecule, acceptor atom, score
      P1  H  6896  6909       L1     1  1.00
      P1  H  6924  6935       L1    22  0.10

> <Gold.PLP.Chemscore.Internal.Correction>
0.0354

> <Gold.Rescore>
     Score         DG    S(hbond)    S(metal)    S(lipo)     H(rot)  DE(clash)    DE(int)     intcor
     16.22     -16.77       0.99        0.00      96.75       1.30       0.08       0.46       ----

> <Gold.Chemscore.Fitness>
16.2218

> <Gold.Chemscore.DG>
-16.7667

> <Gold.Chemscore.ZeroCoef>
-5.4800

> <Gold.Chemscore.Hbond>
0.9893

> <Gold.Chemscore.Metal>
0.0000

> <Gold.Chemscore.Lipo>
96.7529

> <Gold.Chemscore.Internal_Hbond>
0.0000

> <Gold.Chemscore.DEClash>
0.0834

> <Gold.Chemscore.DEInternal>
0.4616

> <Gold.Chemscore.Rot>
1.3038

> <Gold.Chemscore.Internal.Correction>
   9.000000E+99

> <Gold.Chemscore.Hbonds>
donor molecule, donor type, donor heavy atom, donor atom, acceptor molecule, acceptor atom, score
      P1  H  6896  6909       L1     1  1.00
      P1  H  6924  6935       L1    22  0.09

> <Gold.Chemscore.Hbond.Weighted>
-3.3044

> <Gold.Chemscore.Metal.Weighted>
-0.0000

> <Gold.Chemscore.Lipo.Weighted>
-11.3201

> <Gold.Chemscore.Internal_Hbond.Weighted>
0.0000

> <Gold.Chemscore.DEClash.Weighted>
0.0834

> <Gold.Chemscore.DEInternal.Weighted>
0.4616

> <Gold.Chemscore.Rot.Weighted>
3.3377

> <Gold.Chemscore.Internal.Correction.Weighted>
   9.000000E+99

> <Gold.Protein.RotatedTorsions>
[ 6907 6896 6895 6894 ] final  144.94 input  -60.11 | X-H torsion
[ 7974 7965 7964 7962 ] final  156.63 input  175.53 | X-H torsion
[ 8008 7997 7996 7995 ] final  102.96 input   59.86 | X-H torsion
[ 10167 10162 10161 10158 ] final   76.29 input  -65.29 | X-H torsion
[ 10718 10713 10712 10709 ] final  141.57 input   66.30 | X-H torsion
[ 10763 10752 10751 10750 ] final  177.51 input  -60.55 | X-H torsion
[ 11005 11000 10999 10996 ] final  -17.50 input  -57.11 | X-H torsion

> <Gold.Protein.ActiveResidues>
 VAL166  LYS551  ARG553  GLY616  TRP617  ASP618  TYR619  PRO620  LYS621  CYS622 
 ASP623  PHE694  ASN695  SER759  ASP760  ASP761  ALA762  ILE779  LEU786  VAL792 
 PHE793  MET794  SER795  GLU796  ALA797  LYS798  CYS799  TRP800  GLU811  SER814 

> <Gold.Protein.RotatedAtoms>
  152.1872  133.4748  159.4988 H   0  0  0  0  0  0  0  0  0  0  0  0  # atno 6907 bound_to 6896
  150.6944  134.1758  159.4239 H   0  0  0  0  0  0  0  0  0  0  0  0  # atno 6908 bound_to 6896
  151.9672  135.0094  160.0601 H   0  0  0  0  0  0  0  0  0  0  0  0  # atno 6909 bound_to 6896
  144.7951  139.7230  143.6205 H   0  0  0  0  0  0  0  0  0  0  0  0  # atno 7974 bound_to 7965
  156.1440  140.3173  155.8541 H   0  0  0  0  0  0  0  0  0  0  0  0  # atno 8008 bound_to 7997
  155.4099  140.0505  157.3049 H   0  0  0  0  0  0  0  0  0  0  0  0  # atno 8009 bound_to 7997
  154.5000  140.2126  155.9378 H   0  0  0  0  0  0  0  0  0  0  0  0  # atno 8010 bound_to 7997
  139.9938  144.5737  150.7795 H   0  0  0  0  0  0  0  0  0  0  0  0  # atno 10167 bound_to 10162
  157.3905  131.1004  151.0651 H   0  0  0  0  0  0  0  0  0  0  0  0  # atno 10718 bound_to 10713
  154.4954  135.2781  155.1463 H   0  0  0  0  0  0  0  0  0  0  0  0  # atno 10763 bound_to 10752
  154.3118  135.6227  153.5472 H   0  0  0  0  0  0  0  0  0  0  0  0  # atno 10764 bound_to 10752
  152.9894  135.5721  154.5385 H   0  0  0  0  0  0  0  0  0  0  0  0  # atno 10765 bound_to 10752
  140.8175  133.8094  155.9625 H   0  0  0  0  0  0  0  0  0  0  0  0  # atno 11005 bound_to 11000
  146.2217  139.5648  142.9614 LP  0  0  0  0  0  0  0  0  0  0  0  0  # atno 17320 bound_to 7965
  145.5693  141.0396  143.2183 LP  0  0  0  0  0  0  0  0  0  0  0  0  # atno 17321 bound_to 7965
  140.7445  143.2861  151.3459 LP  0  0  0  0  0  0  0  0  0  0  0  0  # atno 17342 bound_to 10162
  139.6321  144.0701  152.2485 LP  0  0  0  0  0  0  0  0  0  0  0  0  # atno 17343 bound_to 10162
  157.1686  130.6257  149.5633 LP  0  0  0  0  0  0  0  0  0  0  0  0  # atno 17370 bound_to 10713
  155.9797  130.4793  150.6731 LP  0  0  0  0  0  0  0  0  0  0  0  0  # atno 17371 bound_to 10713
  140.9134  134.2232  157.4972 LP  0  0  0  0  0  0  0  0  0  0  0  0  # atno 17394 bound_to 11000
  139.8710  134.9760  156.4905 LP  0  0  0  0  0  0  0  0  0  0  0  0  # atno 17395 bound_to 11000

$$$$
