AV-unprocessed.smi:1831|AV-procd|sdf|7463|dock10
  -GOLD-   22720 9153D 1   1.00000     0.00000
 Structure written by MMmdl.
 40 41  0  0  0  0  0  0  0  0  3 V2000
  152.5576  142.8681  160.1972 C   0  0  0  0  0  0  0  0  0  0  0  0
  152.4924  141.6220  159.3825 C   0  0  0  0  0  0  0  0  0  0  0  0
  153.4178  140.6621  159.4529 N   0  0  0  0  0  0  0  0  0  0  0  0
  153.1380  139.6028  158.6021 N   0  0  0  0  0  0  0  0  0  0  0  0
  152.0024  139.7699  157.9103 C   0  0  0  0  0  0  0  0  0  0  0  0
  151.5523  138.8577  157.0331 N   0  5  0  0  0  0  0  0  0  0  0  0
  151.0444  139.2586  155.8469 C   0  0  0  0  0  0  0  0  0  0  0  0
  151.4343  140.2151  155.1719 O   0  0  0  0  0  0  0  0  0  0  0  0
  150.0387  138.4905  155.4005 N   0  0  0  0  0  0  0  0  0  0  0  0
  149.3198  138.6719  154.1423 C   0  0  0  0  0  0  0  0  0  0  0  0
  147.8159  138.9728  154.3464 C   0  0  1  0  0  0  0  0  0  0  0  0
  147.2495  139.7790  153.1761 C   0  0  0  0  0  0  0  0  0  0  0  0
  146.7335  138.7257  152.1818 C   0  0  0  0  0  0  0  0  0  0  0  0
  146.7355  137.4225  152.8923 N   0  3  2  0  0  0  0  0  0  0  0  0
  145.6087  136.5069  152.5610 C   0  0  0  0  0  0  0  0  0  0  0  0
  145.6350  136.0885  151.0784 C   0  0  0  0  0  0  0  0  0  0  0  0
  144.2525  137.1597  152.8867 C   0  0  0  0  0  0  0  0  0  0  0  0
  146.9084  137.7380  154.3244 C   0  0  0  0  0  0  0  0  0  0  0  0
  151.1867  141.2950  158.2557 S   0  0  0  0  0  0  0  0  0  0  0  0
  152.0564  142.7135  161.1526 H   0  0  0  0  0  0  0  0  0  0  0  0
  152.0674  143.6880  159.6721 H   0  0  0  0  0  0  0  0  0  0  0  0
  153.5951  143.1464  160.3847 H   0  0  0  0  0  0  0  0  0  0  0  0
  149.7519  137.7182  155.9845 H   0  0  0  0  0  0  0  0  0  0  0  0
  149.7850  139.5061  153.6165 H   0  0  0  0  0  0  0  0  0  0  0  0
  149.4561  137.8045  153.4944 H   0  0  0  0  0  0  0  0  0  0  0  0
  147.6933  139.5139  155.2856 H   0  0  0  0  0  0  0  0  0  0  0  0
  146.4136  140.3868  153.5256 H   0  0  0  0  0  0  0  0  0  0  0  0
  147.9785  140.4567  152.7298 H   0  0  0  0  0  0  0  0  0  0  0  0
  145.7343  138.9990  151.8398 H   0  0  0  0  0  0  0  0  0  0  0  0
  147.3798  138.6557  151.3064 H   0  0  0  0  0  0  0  0  0  0  0  0
  145.7111  135.6066  153.1688 H   0  0  0  0  0  0  0  0  0  0  0  0
  144.7699  135.4733  150.8299 H   0  0  0  0  0  0  0  0  0  0  0  0
  146.5188  135.4985  150.8359 H   0  0  0  0  0  0  0  0  0  0  0  0
  145.6217  136.9586  150.4204 H   0  0  0  0  0  0  0  0  0  0  0  0
  143.4271  136.4973  152.6243 H   0  0  0  0  0  0  0  0  0  0  0  0
  144.1186  138.0889  152.3317 H   0  0  0  0  0  0  0  0  0  0  0  0
  144.1504  137.3879  153.9474 H   0  0  0  0  0  0  0  0  0  0  0  0
  147.2959  136.8975  154.8973 H   0  0  0  0  0  0  0  0  0  0  0  0
  145.9383  137.9955  154.7529 H   0  0  0  0  0  0  0  0  0  0  0  0
  147.5875  136.9536  152.6176 H   0  0  0  0  0  0  0  0  0  0  0  0
  1  2  1  0  0  0  0
  1 20  1  0  0  0  0
  1 21  1  0  0  0  0
  1 22  1  0  0  0  0
  2 19  1  0  0  0  0
  2  3  2  0  0  0  0
  3  4  1  0  0  0  0
  4  5  2  0  0  0  0
  5  6  1  0  0  0  0
  5 19  1  0  0  0  0
  6  7  1  0  0  0  0
  7  8  2  0  0  0  0
  7  9  1  0  0  0  0
  9 10  1  0  0  0  0
  9 23  1  0  0  0  0
 10 11  1  0  0  0  0
 10 24  1  0  0  0  0
 10 25  1  0  0  0  0
 11 18  1  0  0  0  0
 11 12  1  0  0  0  0
 11 26  1  0  0  0  0
 12 13  1  0  0  0  0
 12 27  1  0  0  0  0
 12 28  1  0  0  0  0
 13 14  1  0  0  0  0
 13 29  1  0  0  0  0
 13 30  1  0  0  0  0
 14 15  1  0  0  0  0
 14 18  1  0  0  0  0
 14 40  1  0  0  0  0
 15 16  1  0  0  0  0
 15 17  1  0  0  0  0
 15 31  1  0  0  0  0
 16 32  1  0  0  0  0
 16 33  1  0  0  0  0
 16 34  1  0  0  0  0
 17 35  1  0  0  0  0
 17 36  1  0  0  0  0
 17 37  1  0  0  0  0
 18 38  1  0  0  0  0
 18 39  1  0  0  0  0
M  CHG  1   6  -1
M  CHG  1  14   1
M  END
> <s_m_source_file>
AV-unprocessed.smi

> <i_m_source_file_index>
1831

> <i_lp_mmshare_version>
43012

> <i_f3d_flags>
0

> <s_epik_input>
W0NIM11jMW5uYyhzMSlbTkhdQyg9TylbTkhdW0NIMl1bQ0BASF0yW0NIMl1bQ0gyXU4oW0NIMl0yKVtDSF0oW0NIM10pW0NIM10=

> <s_epik_cmdline>
J2VwaWtfcHl0aG9uJywgJy1waCcsICc3LjAnLCAnLXRuJywgJzgnLCAnLW1hJywgJzIwMCcsICctbWV0YWxfYmluZGluZycsICctaW1hZScsICc8aW5maWxlLm1hZT4nLCAnLW9tYWUnLCAnPG91dGZpbGUubWFlPic=

> <r_lp_tautomer_probability>
1

> <r_epik_Ionization_Penalty>
4.24531

> <r_epik_Ionization_Penalty_Charging>
4.11954

> <r_epik_Ionization_Penalty_Neutral>
0.125766

> <r_epik_State_Penalty>
4.11879

> <r_epik_Charging_Adjusted_Penalty>
8.23833

> <i_epik_Tot_Q>
0

> <i_epik_Tot_abs_Q>
2

> <r_epik_Metal_State_Penalty>
0.659341

> <b_epik_Metal_Only>
1

> <s_lp_Force_Field>
OPLS_2005

> <r_lp_Energy>
23.48

> <b_lp_Chiralities_Consistent>
1

> <s_lp_Variant>
AV-unprocessed.smi:1831-8

> <Gold.Version>
5.8.1

> <Gold.Id.Protein>
6NUR|6NUR_protein|mol2

> <Gold.PLP.Fitness>
41.4478

> <Gold.PLP.PLP>
-31.3098

> <Gold.PLP.part.hbond>
-3.2177

> <Gold.PLP.part.metal>
0.0000

> <Gold.PLP.part.buried>
-3.0040

> <Gold.PLP.part.nonpolar>
-25.8828

> <Gold.PLP.part.repulsive>
0.1089

> <Gold.PLP.ligand.clash>
0.0000

> <Gold.PLP.ligand.torsion>
0.9805

> <Gold.PLP.Chemscore.Hbond>
4.0000

> <Gold.PLP.Chemscore.CHOScore>
0.0000

> <Gold.PLP.Chemscore.Metal>
0.0000

> <Gold.Chemscore.Hbonds>
donor molecule, donor type, donor heavy atom, donor atom, acceptor molecule, acceptor atom, score
      L1  H    14    40       P1  7948  2.00
      P1  H  7989  7998       L1     8  1.00
      P1  H  7997  8009       L1     4  0.51

> <Gold.PLP.Chemscore.Internal.Correction>
0.0990

> <Gold.Rescore>
     Score         DG    S(hbond)    S(metal)    S(lipo)     H(rot)  DE(clash)    DE(int)     intcor
     17.07     -18.32       2.63        0.00      67.93       1.51       0.03       1.22       ----

> <Gold.Chemscore.Fitness>
17.0712

> <Gold.Chemscore.DG>
-18.3246

> <Gold.Chemscore.ZeroCoef>
-5.4800

> <Gold.Chemscore.Hbond>
2.6259

> <Gold.Chemscore.Metal>
0.0000

> <Gold.Chemscore.Lipo>
67.9282

> <Gold.Chemscore.Internal_Hbond>
0.0000

> <Gold.Chemscore.DEClash>
0.0291

> <Gold.Chemscore.DEInternal>
1.2243

> <Gold.Chemscore.Rot>
1.5131

> <Gold.Chemscore.Internal.Correction>
   9.000000E+99

> <Gold.Chemscore.Hbonds>
donor molecule, donor type, donor heavy atom, donor atom, acceptor molecule, acceptor atom, score
      L1  H    14    40       P1  7948  1.00
      P1  H  7989  7998       L1     8  0.95
      P1  H  7997  8009       L1     4  0.02

> <Gold.Chemscore.Hbond.Weighted>
-8.7705

> <Gold.Chemscore.Metal.Weighted>
-0.0000

> <Gold.Chemscore.Lipo.Weighted>
-7.9476

> <Gold.Chemscore.Internal_Hbond.Weighted>
0.0000

> <Gold.Chemscore.DEClash.Weighted>
0.0291

> <Gold.Chemscore.DEInternal.Weighted>
1.2243

> <Gold.Chemscore.Rot.Weighted>
3.8735

> <Gold.Chemscore.Internal.Correction.Weighted>
   9.000000E+99

> <Gold.Protein.RotatedTorsions>
[ 6907 6896 6895 6894 ] final -145.79 input  -60.11 | X-H torsion
[ 7974 7965 7964 7962 ] final  124.09 input  175.53 | X-H torsion
[ 8008 7997 7996 7995 ] final  158.16 input   59.86 | X-H torsion
[ 10167 10162 10161 10158 ] final    4.52 input  -65.29 | X-H torsion
[ 10718 10713 10712 10709 ] final   72.47 input   66.30 | X-H torsion
[ 10763 10752 10751 10750 ] final   66.04 input  -60.55 | X-H torsion
[ 11005 11000 10999 10996 ] final  104.32 input  -57.11 | X-H torsion

> <Gold.Protein.ActiveResidues>
 VAL166  LYS551  ARG553  GLY616  TRP617  ASP618  TYR619  PRO620  LYS621  CYS622 
 ASP623  PHE694  ASN695  SER759  ASP760  ASP761  ALA762  ILE779  LEU786  VAL792 
 PHE793  MET794  SER795  GLU796  ALA797  LYS798  CYS799  TRP800  GLU811  SER814 

> <Gold.Protein.RotatedAtoms>
  151.1327  133.5026  159.2598 H   0  0  0  0  0  0  0  0  0  0  0  0  # atno 6907 bound_to 6896
  151.1740  135.0330  159.8774 H   0  0  0  0  0  0  0  0  0  0  0  0  # atno 6908 bound_to 6896
  152.5460  134.1186  159.8442 H   0  0  0  0  0  0  0  0  0  0  0  0  # atno 6909 bound_to 6896
  145.0884  139.3605  143.4873 H   0  0  0  0  0  0  0  0  0  0  0  0  # atno 7974 bound_to 7965
  156.2320  140.1866  156.7219 H   0  0  0  0  0  0  0  0  0  0  0  0  # atno 8008 bound_to 7997
  154.6039  140.0632  156.9432 H   0  0  0  0  0  0  0  0  0  0  0  0  # atno 8009 bound_to 7997
  155.2129  140.3301  155.4329 H   0  0  0  0  0  0  0  0  0  0  0  0  # atno 8010 bound_to 7997
  140.6530  143.7497  150.7607 H   0  0  0  0  0  0  0  0  0  0  0  0  # atno 10167 bound_to 10162
  157.6502  130.9580  150.0934 H   0  0  0  0  0  0  0  0  0  0  0  0  # atno 10718 bound_to 10713
  153.0122  135.5335  154.6762 H   0  0  0  0  0  0  0  0  0  0  0  0  # atno 10763 bound_to 10752
  154.5934  135.2861  155.0614 H   0  0  0  0  0  0  0  0  0  0  0  0  # atno 10764 bound_to 10752
  154.1699  135.6534  153.5059 H   0  0  0  0  0  0  0  0  0  0  0  0  # atno 10765 bound_to 10752
  139.8791  134.9296  156.5344 H   0  0  0  0  0  0  0  0  0  0  0  0  # atno 11005 bound_to 11000
  146.3531  140.0707  142.8623 LP  0  0  0  0  0  0  0  0  0  0  0  0  # atno 17320 bound_to 7965
  145.1095  140.9396  143.4665 LP  0  0  0  0  0  0  0  0  0  0  0  0  # atno 17321 bound_to 7965
  140.1151  143.4663  152.2346 LP  0  0  0  0  0  0  0  0  0  0  0  0  # atno 17342 bound_to 10162
  139.5748  144.7482  151.3794 LP  0  0  0  0  0  0  0  0  0  0  0  0  # atno 17343 bound_to 10162
  156.1877  130.3653  149.8951 LP  0  0  0  0  0  0  0  0  0  0  0  0  # atno 17370 bound_to 10713
  156.6888  130.8887  151.3585 LP  0  0  0  0  0  0  0  0  0  0  0  0  # atno 17371 bound_to 10713
  140.8357  133.8244  155.9026 LP  0  0  0  0  0  0  0  0  0  0  0  0  # atno 17394 bound_to 11000
  140.9286  134.2050  157.4879 LP  0  0  0  0  0  0  0  0  0  0  0  0  # atno 17395 bound_to 11000

$$$$
