#       Name:                AV-unprocessed.smi:1056
#       Creating user name   scv26
#       Creation time:       Fri Mar 27 03:13:44 2020


#       File generated by GOLD software.
#

@<TRIPOS>MOLECULE
AV-unprocessed.smi:1056
    50    52     1
SMALL
NO_CHARGES


@<TRIPOS>ATOM
      1 ****        -4.0595   4.1267  -2.9740 C.3            1 S1                 0.0000
      2 ****        -3.3636   3.2032  -1.9894 C.ar           1 S1                 0.0000
      3 ****        -2.9364   3.7211  -0.7461 C.ar           1 S1                 0.0000
      4 ****        -2.2895   2.8953   0.1989 C.ar           1 S1                 0.0000
      5 ****        -1.7971   3.1869   1.4595 N.2            1 S1                 0.0000
      6 ****        -1.3140   2.0076   1.8379 C.2            1 S1                 0.0000
      7 ****        -1.4315   0.9851   0.9691 N.pl3          1 S1                 0.0000
      8 ****        -0.9776  -0.3808   1.1610 C.3            1 S1                 0.0000
      9 ****         0.5395  -0.5357   0.9397 C.3            1 S1                 0.0000
     10 ****         0.8751  -0.1009  -0.3648 O.3            1 S1                 0.0000
     11 ****         0.9951  -1.9982   1.1043 C.3            1 S1                 0.0000
     12 ****         2.4729  -2.1361   1.0642 N.4            1 S1                 1.0000
     13 ****         3.1355  -1.7941   2.3455 C.3            1 S1                 0.0000
     14 ****         4.6623  -1.7529   2.1593 C.3            1 S1                 0.0000
     15 ****         5.1701  -2.8670   1.3622 N.am           1 S1                 0.0000
     16 ****         4.4240  -3.6833   0.6000 C.2            1 S1                 0.0000
     17 ****         4.9245  -4.5955  -0.0524 O.2            1 S1                 0.0000
     18 ****         2.9041  -3.4631   0.5550 C.3            1 S1                 0.0000
     19 ****        -2.0779   1.5261  -0.1374 C.ar           1 S1                 0.0000
     20 ****        -2.4963   0.9995  -1.3724 C.ar           1 S1                 0.0000
     21 ****        -3.1443   1.8380  -2.3036 C.ar           1 S1                 0.0000
     22 ****        -3.5987   1.2585  -3.6317 C.3            1 S1                 0.0000
     23 ****        -4.0904   5.1522  -2.6047 H              1 S1                 0.0000
     24 ****        -5.0858   3.7994  -3.1415 H              1 S1                 0.0000
     25 ****        -3.5366   4.1328  -3.9306 H              1 S1                 0.0000
     26 ****        -3.1038   4.7609  -0.5061 H              1 S1                 0.0000
     27 ****        -0.8442   1.8796   2.8023 H              1 S1                 0.0000
     28 ****        -1.2442  -0.6885   2.1731 H              1 S1                 0.0000
     29 ****        -1.5318  -1.0319   0.4836 H              1 S1                 0.0000
     30 ****         1.0596   0.1053   1.6513 H              1 S1                 0.0000
     31 ****         0.3353  -0.5628  -0.9885 H              1 S1                 0.0000
     32 ****         0.6220  -2.4155   2.0409 H              1 S1                 0.0000
     33 ****         0.5450  -2.5939   0.3081 H              1 S1                 0.0000
     34 ****         2.7917  -0.8324   2.7248 H              1 S1                 0.0000
     35 ****         2.8699  -2.5414   3.0951 H              1 S1                 0.0000
     36 ****         4.9436  -0.8299   1.6515 H              1 S1                 0.0000
     37 ****         5.1628  -1.7427   3.1279 H              1 S1                 0.0000
     38 ****         6.1674  -3.0280   1.3862 H              1 S1                 0.0000
     39 ****         2.4316  -4.2496   1.1453 H              1 S1                 0.0000
     40 ****         2.5613  -3.5836  -0.4736 H              1 S1                 0.0000
     41 ****        -2.3227  -0.0413  -1.6014 H              1 S1                 0.0000
     42 ****        -3.3810   0.1920  -3.6962 H              1 S1                 0.0000
     43 ****        -3.0905   1.7546  -4.4590 H              1 S1                 0.0000
     44 ****        -4.6739   1.3880  -3.7575 H              1 S1                 0.0000
     45 ****         2.7988  -1.4627   0.3850 H              1 S1                 0.0000
     46 ****        -1.8032   4.0556   1.9548 LP             1 S1                 0.0000
     47 ****         1.8392  -0.2951  -0.5461 LP             1 S1                 0.0000
     48 ****         0.7127   0.8827  -0.4434 LP             1 S1                 0.0000
     49 ****         5.9127  -4.7462  -0.0249 LP             1 S1                 0.0000
     50 ****         4.3438  -5.1876  -0.6112 LP             1 S1                 0.0000
@<TRIPOS>BOND
    1    1    2 1     
    2    1   23 1     
    3    1   24 1     
    4    1   25 1     
    5    2   21 ar    
    6    2    3 ar    
    7    3    4 ar    
    8    3   26 1     
    9    4   19 ar    
   10    4    5 1     
   11    5    6 2     
   12    6    7 1     
   13    6   27 1     
   14    7    8 1     
   15    7   19 1     
   16    8    9 1     
   17    8   28 1     
   18    8   29 1     
   19    9   10 1     
   20    9   11 1     
   21    9   30 1     
   22   10   31 1     
   23   11   12 1     
   24   11   32 1     
   25   11   33 1     
   26   12   18 1     
   27   12   13 1     
   28   12   45 1     
   29   13   14 1     
   30   13   34 1     
   31   13   35 1     
   32   14   15 1     
   33   14   36 1     
   34   14   37 1     
   35   15   16 am    
   36   15   38 1     
   37   16   17 2     
   38   16   18 1     
   39   18   39 1     
   40   18   40 1     
   41   19   20 ar    
   42   20   21 ar    
   43   20   41 1     
   44   21   22 1     
   45   22   42 1     
   46   22   43 1     
   47   22   44 1     
   48    5   46 1     
   49   10   47 1     
   50   10   48 1     
   51   17   49 1     
   52   17   50 1     
@<TRIPOS>SUBSTRUCTURE
      1 S1             1
@<TRIPOS>SET
LONE_PAIRS      STATIC     ATOMS    <user>   **** ""
5 46 47 48 49 50
DONOR_HYDROGENS      STATIC     ATOMS    <user>   **** ""
3 31 45 38
ATOM$BLUE        STATIC     ATOMS    COLORGROUP SYSTEM
5 46 47 48 49 50
ATOM$RED        STATIC     ATOMS    COLORGROUP SYSTEM
3 31 45 38
