AV-unprocessed.smi:1835|AV-procd|sdf|7474|dock5
  -GOLD-   22720 9173D 1   1.00000     0.00000
 Structure written by MMmdl.
 41 42  0  0  0  0  0  0  0  0  1 V2000
  148.1550  140.4735  153.9850 C   0  0  0  0  0  0  0  0  0  0  0  0
  149.3500  140.7249  154.9394 C   0  0  1  0  0  0  0  0  0  0  0  0
  148.8291  141.4562  156.2113 C   0  0  0  0  0  0  0  0  0  0  0  0
  149.7472  142.4744  156.7150 N   0  0  0  0  0  0  0  0  0  0  0  0
  150.9467  142.2270  157.2624 C   0  0  0  0  0  0  0  0  0  0  0  0
  151.4098  141.0920  157.3843 O   0  0  0  0  0  0  0  0  0  0  0  0
  151.7424  143.4577  157.7205 C   0  0  0  0  0  0  0  0  0  0  0  0
  152.0954  143.4259  159.1498 N   0  0  0  0  0  0  0  0  0  0  0  0
  152.7693  142.2803  159.6180 C   0  0  0  0  0  0  0  0  0  0  0  0
  153.1337  142.1466  160.9031 C   0  0  0  0  0  0  0  0  0  0  0  0
  152.8182  143.2186  161.8171 C   0  0  0  0  0  0  0  0  0  0  0  0
  152.1706  144.3172  161.3804 C   0  0  0  0  0  0  0  0  0  0  0  0
  151.7673  144.4660  159.9772 C   0  0  0  0  0  0  0  0  0  0  0  0
  151.1712  145.4641  159.5709 O   0  0  0  0  0  0  0  0  0  0  0  0
  150.1111  139.4904  155.2437 N   0  0  0  0  0  0  0  0  0  0  0  0
  149.3001  138.4880  155.9449 C   0  0  0  0  0  0  0  0  0  0  0  0
  150.0744  137.1916  156.2390 C   0  0  0  0  0  0  0  0  0  0  0  0
  150.5724  136.6471  155.0250 O   0  0  0  0  0  0  0  0  0  0  0  0
  151.4279  137.5555  154.3459 C   0  0  0  0  0  0  0  0  0  0  0  0
  150.6676  138.8582  154.0414 C   0  0  0  0  0  0  0  0  0  0  0  0
  147.5698  141.3744  153.8049 H   0  0  0  0  0  0  0  0  0  0  0  0
  147.4791  139.7193  154.3896 H   0  0  0  0  0  0  0  0  0  0  0  0
  148.4768  140.1444  152.9981 H   0  0  0  0  0  0  0  0  0  0  0  0
  150.0247  141.4121  154.4269 H   0  0  0  0  0  0  0  0  0  0  0  0
  147.8742  141.9371  155.9971 H   0  0  0  0  0  0  0  0  0  0  0  0
  148.6460  140.7685  157.0353 H   0  0  0  0  0  0  0  0  0  0  0  0
  149.4445  143.4353  156.6470 H   0  0  0  0  0  0  0  0  0  0  0  0
  152.6415  143.5278  157.1068 H   0  0  0  0  0  0  0  0  0  0  0  0
  151.1728  144.3615  157.4952 H   0  0  0  0  0  0  0  0  0  0  0  0
  152.9613  141.5221  158.8728 H   0  0  0  0  0  0  0  0  0  0  0  0
  153.6460  141.2592  161.2448 H   0  0  0  0  0  0  0  0  0  0  0  0
  153.1017  143.1386  162.8561 H   0  0  0  0  0  0  0  0  0  0  0  0
  151.9423  145.1089  162.0791 H   0  0  0  0  0  0  0  0  0  0  0  0
  148.9534  138.8748  156.9014 H   0  0  0  0  0  0  0  0  0  0  0  0
  148.4122  138.2530  155.3562 H   0  0  0  0  0  0  0  0  0  0  0  0
  150.8987  137.3811  156.9283 H   0  0  0  0  0  0  0  0  0  0  0  0
  149.4210  136.4604  156.7148 H   0  0  0  0  0  0  0  0  0  0  0  0
  152.3131  137.7570  154.9515 H   0  0  0  0  0  0  0  0  0  0  0  0
  151.7724  137.0942  153.4204 H   0  0  0  0  0  0  0  0  0  0  0  0
  149.8680  138.6522  153.3280 H   0  0  0  0  0  0  0  0  0  0  0  0
  151.3720  139.5222  153.5453 H   0  0  0  0  0  0  0  0  0  0  0  0
  1  2  1  0  0  0  0
  1 21  1  0  0  0  0
  1 22  1  0  0  0  0
  1 23  1  0  0  0  0
  2  3  1  0  0  0  0
  2 15  1  0  0  0  0
  2 24  1  0  0  0  0
  3  4  1  0  0  0  0
  3 25  1  0  0  0  0
  3 26  1  0  0  0  0
  4  5  1  0  0  0  0
  4 27  1  0  0  0  0
  5  6  2  0  0  0  0
  5  7  1  0  0  0  0
  7  8  1  0  0  0  0
  7 28  1  0  0  0  0
  7 29  1  0  0  0  0
  8 13  1  0  0  0  0
  8  9  1  0  0  0  0
  9 10  2  0  0  0  0
  9 30  1  0  0  0  0
 10 11  1  0  0  0  0
 10 31  1  0  0  0  0
 11 12  2  0  0  0  0
 11 32  1  0  0  0  0
 12 13  1  0  0  0  0
 12 33  1  0  0  0  0
 13 14  2  0  0  0  0
 15 20  1  0  0  0  0
 15 16  1  0  0  0  0
 16 17  1  0  0  0  0
 16 34  1  0  0  0  0
 16 35  1  0  0  0  0
 17 18  1  0  0  0  0
 17 36  1  0  0  0  0
 17 37  1  0  0  0  0
 18 19  1  0  0  0  0
 19 20  1  0  0  0  0
 19 38  1  0  0  0  0
 19 39  1  0  0  0  0
 20 40  1  0  0  0  0
 20 41  1  0  0  0  0
M  END
> <s_m_source_file>
AV-unprocessed.smi

> <i_m_source_file_index>
1835

> <i_lp_mmshare_version>
43012

> <i_f3d_flags>
0

> <s_epik_input>
W0NIMl0xW0NIMl1PW0NIMl1bQ0gyXU4xW0NASF0oW0NIM10pW0NIMl1bTkhdQyg9TylbQ0gyXW4yW2NIXVtjSF1bY0hdW2NIXWMyPU8=

> <s_epik_cmdline>
J2VwaWtfcHl0aG9uJywgJy1waCcsICc3LjAnLCAnLXRuJywgJzgnLCAnLW1hJywgJzIwMCcsICctbWV0YWxfYmluZGluZycsICctaW1hZScsICc8aW5maWxlLm1hZT4nLCAnLW9tYWUnLCAnPG91dGZpbGUubWFlPic=

> <r_lp_tautomer_probability>
1

> <r_epik_Ionization_Penalty>
0.237383

> <r_epik_Ionization_Penalty_Charging>
3.58805e-07

> <r_epik_Ionization_Penalty_Neutral>
0.237382

> <r_epik_State_Penalty>
0.228245

> <r_epik_Charging_Adjusted_Penalty>
0.228245

> <i_epik_Tot_Q>
0

> <i_epik_Tot_abs_Q>
0

> <r_epik_Metal_State_Penalty>
0.22822

> <b_epik_Metal_Only>
0

> <s_lp_Force_Field>
OPLS_2005

> <r_lp_Energy>
38.1368

> <b_lp_Chiralities_Consistent>
1

> <s_lp_Variant>
AV-unprocessed.smi:1835-2

> <Gold.Version>
5.8.1

> <Gold.Id.Protein>
6NUR|6NUR_protein|mol2

> <Gold.PLP.Fitness>
44.5282

> <Gold.PLP.PLP>
-42.6081

> <Gold.PLP.part.hbond>
-1.2933

> <Gold.PLP.part.metal>
0.0000

> <Gold.PLP.part.buried>
-6.7336

> <Gold.PLP.part.nonpolar>
-35.1765

> <Gold.PLP.part.repulsive>
0.4054

> <Gold.PLP.ligand.clash>
0.0000

> <Gold.PLP.ligand.torsion>
0.5516

> <Gold.PLP.Chemscore.Hbond>
0.9920

> <Gold.PLP.Chemscore.CHOScore>
0.0000

> <Gold.PLP.Chemscore.Metal>
0.0000

> <Gold.Chemscore.Hbonds>
donor molecule, donor type, donor heavy atom, donor atom, acceptor molecule, acceptor atom, score
      L1  H     4    27       P1  8028  0.98

> <Gold.PLP.Chemscore.Internal.Correction>
0.0474

> <Gold.Rescore>
     Score         DG    S(hbond)    S(metal)    S(lipo)     H(rot)  DE(clash)    DE(int)     intcor
     13.67     -15.62       0.98        0.00     100.07       1.89       0.14       1.81       ----

> <Gold.Chemscore.Fitness>
13.6682

> <Gold.Chemscore.DG>
-15.6235

> <Gold.Chemscore.ZeroCoef>
-5.4800

> <Gold.Chemscore.Hbond>
0.9789

> <Gold.Chemscore.Metal>
0.0000

> <Gold.Chemscore.Lipo>
100.0670

> <Gold.Chemscore.Internal_Hbond>
0.0000

> <Gold.Chemscore.DEClash>
0.1427

> <Gold.Chemscore.DEInternal>
1.8126

> <Gold.Chemscore.Rot>
1.8882

> <Gold.Chemscore.Internal.Correction>
   9.000000E+99

> <Gold.Chemscore.Hbonds>
donor molecule, donor type, donor heavy atom, donor atom, acceptor molecule, acceptor atom, score
      L1  H     4    27       P1  8028  0.93

> <Gold.Chemscore.Hbond.Weighted>
-3.2695

> <Gold.Chemscore.Metal.Weighted>
-0.0000

> <Gold.Chemscore.Lipo.Weighted>
-11.7078

> <Gold.Chemscore.Internal_Hbond.Weighted>
0.0000

> <Gold.Chemscore.DEClash.Weighted>
0.1427

> <Gold.Chemscore.DEInternal.Weighted>
1.8126

> <Gold.Chemscore.Rot.Weighted>
4.8338

> <Gold.Chemscore.Internal.Correction.Weighted>
   9.000000E+99

> <Gold.Protein.RotatedTorsions>
[ 6907 6896 6895 6894 ] final  159.92 input  -60.11 | X-H torsion
[ 7974 7965 7964 7962 ] final  -96.10 input  175.53 | X-H torsion
[ 8008 7997 7996 7995 ] final   83.18 input   59.86 | X-H torsion
[ 10167 10162 10161 10158 ] final  -50.25 input  -65.29 | X-H torsion
[ 10718 10713 10712 10709 ] final  -12.44 input   66.30 | X-H torsion
[ 10763 10752 10751 10750 ] final  -90.08 input  -60.55 | X-H torsion
[ 11005 11000 10999 10996 ] final  -36.00 input  -57.11 | X-H torsion

> <Gold.Protein.ActiveResidues>
 VAL166  LYS551  ARG553  GLY616  TRP617  ASP618  TYR619  PRO620  LYS621  CYS622 
 ASP623  PHE694  ASN695  SER759  ASP760  ASP761  ALA762  ILE779  LEU786  VAL792 
 PHE793  MET794  SER795  GLU796  ALA797  LYS798  CYS799  TRP800  GLU811  SER814 

> <Gold.Protein.RotatedAtoms>
  151.9784  133.3749  159.4097 H   0  0  0  0  0  0  0  0  0  0  0  0  # atno 6907 bound_to 6896
  150.6938  134.4065  159.5152 H   0  0  0  0  0  0  0  0  0  0  0  0  # atno 6908 bound_to 6896
  152.1780  134.8778  160.0579 H   0  0  0  0  0  0  0  0  0  0  0  0  # atno 6909 bound_to 6896
  145.3513  140.9477  143.2553 H   0  0  0  0  0  0  0  0  0  0  0  0  # atno 7974 bound_to 7965
  155.9206  140.3421  155.6169 H   0  0  0  0  0  0  0  0  0  0  0  0  # atno 8008 bound_to 7997
  155.7278  140.0791  157.2321 H   0  0  0  0  0  0  0  0  0  0  0  0  # atno 8009 bound_to 7997
  154.4069  140.1593  156.2462 H   0  0  0  0  0  0  0  0  0  0  0  0  # atno 8010 bound_to 7997
  140.6646  143.2665  151.4333 H   0  0  0  0  0  0  0  0  0  0  0  0  # atno 10167 bound_to 10162
  156.6445  130.4937  149.6083 H   0  0  0  0  0  0  0  0  0  0  0  0  # atno 10718 bound_to 10713
  154.6621  135.5317  153.8031 H   0  0  0  0  0  0  0  0  0  0  0  0  # atno 10763 bound_to 10752
  153.0448  135.6508  154.0856 H   0  0  0  0  0  0  0  0  0  0  0  0  # atno 10764 bound_to 10752
  154.0764  135.2950  155.3278 H   0  0  0  0  0  0  0  0  0  0  0  0  # atno 10765 bound_to 10752
  140.9840  133.7040  156.1734 H   0  0  0  0  0  0  0  0  0  0  0  0  # atno 11005 bound_to 11000
  144.8716  139.5031  143.6765 LP  0  0  0  0  0  0  0  0  0  0  0  0  # atno 17320 bound_to 7965
  146.2967  139.7299  142.9121 LP  0  0  0  0  0  0  0  0  0  0  0  0  # atno 17321 bound_to 7965
  139.5891  144.1539  152.2066 LP  0  0  0  0  0  0  0  0  0  0  0  0  # atno 17342 bound_to 10162
  140.0888  144.5638  150.7069 LP  0  0  0  0  0  0  0  0  0  0  0  0  # atno 17343 bound_to 10162
  156.2132  130.6692  151.1292 LP  0  0  0  0  0  0  0  0  0  0  0  0  # atno 17370 bound_to 10713
  157.7160  131.0709  150.6323 LP  0  0  0  0  0  0  0  0  0  0  0  0  # atno 17371 bound_to 10713
  140.7142  134.4428  157.5579 LP  0  0  0  0  0  0  0  0  0  0  0  0  # atno 17394 bound_to 11000
  139.8962  134.8664  156.2095 LP  0  0  0  0  0  0  0  0  0  0  0  0  # atno 17395 bound_to 11000

$$$$
