AV-unprocessed.smi:2124|AV-procd|sdf|8650|dock4
  -GOLD-   2272011393D 1   1.00000     0.00000
 Structure written by MMmdl.
 47 49  0  0  0  0  0  0  0  0  1 V2000
  148.5992  134.0045  156.4938 C   0  0  0  0  0  0  0  0  0  0  0  0
  149.3414  135.2832  156.1675 C   0  0  0  0  0  0  0  0  0  0  0  0
  148.8087  136.2892  155.5558 N   0  0  0  0  0  0  0  0  0  0  0  0
  149.5960  137.4228  155.3105 C   0  0  0  0  0  0  0  0  0  0  0  0
  148.8960  138.5622  154.5902 C   0  0  0  0  0  0  0  0  0  0  0  0
  150.9032  137.4850  155.7007 C   0  0  0  0  0  0  0  0  0  0  0  0
  151.7854  138.7070  155.4508 C   0  0  0  0  0  0  0  0  0  0  0  0
  151.2451  140.0290  155.9996 C   0  0  0  0  0  0  0  0  0  0  0  0
  150.8906  140.9174  155.2254 O   0  0  0  0  0  0  0  0  0  0  0  0
  151.1831  140.1405  157.3357 N   0  0  0  0  0  0  0  0  0  0  0  0
  150.6863  141.2987  158.0755 C   0  0  2  0  0  0  0  0  0  0  0  0
  149.2265  141.5713  157.6763 C   0  0  0  0  0  0  0  0  0  0  0  0
  151.6112  142.5090  157.8049 C   0  0  2  0  0  0  0  0  0  0  0  0
  152.7821  142.6639  158.8030 C   0  0  0  0  0  0  0  0  0  0  0  0
  152.7032  144.1485  159.2044 C   0  0  2  0  0  0  0  0  0  0  0  0
  151.5073  144.3478  160.1529 C   0  0  0  0  0  0  0  0  0  0  0  0
  150.3007  144.2094  159.2070 C   0  0  0  0  0  0  0  0  0  0  0  0
  150.9634  143.9158  157.8449 C   0  0  1  0  0  0  0  0  0  0  0  0
  152.2010  144.8047  157.9235 C   0  0  0  0  0  0  0  0  0  0  0  0
  151.5017  136.3288  156.3964 C   0  0  0  0  0  0  0  0  0  0  0  0
  152.6674  136.2750  156.7854 O   0  0  0  0  0  0  0  0  0  0  0  0
  150.6690  135.2820  156.5917 N   0  0  0  0  0  0  0  0  0  0  0  0
  151.0318  134.4665  157.0635 H   0  0  0  0  0  0  0  0  0  0  0  0
  148.2514  133.5281  155.5770 H   0  0  0  0  0  0  0  0  0  0  0  0
  147.7317  134.2233  157.1169 H   0  0  0  0  0  0  0  0  0  0  0  0
  149.2330  133.2955  157.0285 H   0  0  0  0  0  0  0  0  0  0  0  0
  148.8749  139.4565  155.2130 H   0  0  0  0  0  0  0  0  0  0  0  0
  147.8657  138.3021  154.3448 H   0  0  0  0  0  0  0  0  0  0  0  0
  149.4082  138.7986  153.6584 H   0  0  0  0  0  0  0  0  0  0  0  0
  152.7715  138.5157  155.8755 H   0  0  0  0  0  0  0  0  0  0  0  0
  151.9690  138.8352  154.3835 H   0  0  0  0  0  0  0  0  0  0  0  0
  151.4978  139.3552  157.8868 H   0  0  0  0  0  0  0  0  0  0  0  0
  150.7160  141.0661  159.1404 H   0  0  0  0  0  0  0  0  0  0  0  0
  148.8068  142.4004  158.2458 H   0  0  0  0  0  0  0  0  0  0  0  0
  148.5978  140.7004  157.8649 H   0  0  0  0  0  0  0  0  0  0  0  0
  149.1437  141.8185  156.6175 H   0  0  0  0  0  0  0  0  0  0  0  0
  152.0370  142.3796  156.8078 H   0  0  0  0  0  0  0  0  0  0  0  0
  152.6905  142.0107  159.6718 H   0  0  0  0  0  0  0  0  0  0  0  0
  153.7319  142.4362  158.3175 H   0  0  0  0  0  0  0  0  0  0  0  0
  153.6407  144.5477  159.5927 H   0  0  0  0  0  0  0  0  0  0  0  0
  151.4909  143.6137  160.9593 H   0  0  0  0  0  0  0  0  0  0  0  0
  151.5282  145.3405  160.6043 H   0  0  0  0  0  0  0  0  0  0  0  0
  149.5989  143.4397  159.5249 H   0  0  0  0  0  0  0  0  0  0  0  0
  149.7487  145.1490  159.1638 H   0  0  0  0  0  0  0  0  0  0  0  0
  150.3166  144.1236  156.9919 H   0  0  0  0  0  0  0  0  0  0  0  0
  151.9681  145.8644  158.0427 H   0  0  0  0  0  0  0  0  0  0  0  0
  152.8812  144.6815  157.0787 H   0  0  0  0  0  0  0  0  0  0  0  0
  1  2  1  0  0  0  0
  1 24  1  0  0  0  0
  1 25  1  0  0  0  0
  1 26  1  0  0  0  0
  2 22  1  0  0  0  0
  2  3  2  0  0  0  0
  3  4  1  0  0  0  0
  4  5  1  0  0  0  0
  4  6  2  0  0  0  0
  5 27  1  0  0  0  0
  5 28  1  0  0  0  0
  5 29  1  0  0  0  0
  6  7  1  0  0  0  0
  6 20  1  0  0  0  0
  7  8  1  0  0  0  0
  7 30  1  0  0  0  0
  7 31  1  0  0  0  0
  8  9  2  0  0  0  0
  8 10  1  0  0  0  0
 10 11  1  0  0  0  0
 10 32  1  0  0  0  0
 11 12  1  0  0  0  0
 11 13  1  0  0  0  0
 11 33  1  0  0  0  0
 12 34  1  0  0  0  0
 12 35  1  0  0  0  0
 12 36  1  0  0  0  0
 13 18  1  0  0  0  0
 13 14  1  0  0  0  0
 13 37  1  0  0  0  0
 14 15  1  0  0  0  0
 14 38  1  0  0  0  0
 14 39  1  0  0  0  0
 15 19  1  0  0  0  0
 15 16  1  0  0  0  0
 15 40  1  0  0  0  0
 16 17  1  0  0  0  0
 16 41  1  0  0  0  0
 16 42  1  0  0  0  0
 17 18  1  0  0  0  0
 17 43  1  0  0  0  0
 17 44  1  0  0  0  0
 18 19  1  0  0  0  0
 18 45  1  0  0  0  0
 19 46  1  0  0  0  0
 19 47  1  0  0  0  0
 20 21  2  0  0  0  0
 20 22  1  0  0  0  0
 22 23  1  0  0  0  0
M  END
> <s_m_source_file>
AV-unprocessed.smi

> <i_m_source_file_index>
2124

> <i_lp_mmshare_version>
43012

> <i_f3d_flags>
0

> <s_epik_input>
W0NIM11jMW5jKFtDSDNdKWMoYyg9TylbbkhdMSlbQ0gyXUMoPU8pW05IXVtDQEhdKFtDSDNdKVtDQEhdKFtDSDJdW0NASF0yMylbQ0BIXShbQ0gyXTMpW0NIMl1bQ0gyXTI=

> <s_epik_cmdline>
J2VwaWtfcHl0aG9uJywgJy1waCcsICc3LjAnLCAnLXRuJywgJzgnLCAnLW1hJywgJzIwMCcsICctbWV0YWxfYmluZGluZycsICctaW1hZScsICc8aW5maWxlLm1hZT4nLCAnLW9tYWUnLCAnPG91dGZpbGUubWFlPic=

> <r_lp_tautomer_probability>
0.839158

> <r_epik_Ionization_Penalty>
0.000383628

> <r_epik_Ionization_Penalty_Charging>
0.00035045

> <r_epik_Ionization_Penalty_Neutral>
3.31781e-05

> <r_epik_State_Penalty>
0.09125

> <r_epik_Charging_Adjusted_Penalty>
0.0916005

> <i_epik_Tot_Q>
0

> <i_epik_Tot_abs_Q>
0

> <r_epik_Metal_State_Penalty>
0.255229

> <b_epik_Metal_Only>
0

> <s_lp_Force_Field>
OPLS_2005

> <r_lp_Energy>
53.1602

> <b_lp_Chiralities_Consistent>
1

> <s_lp_Variant>
AV-unprocessed.smi:2124-1

> <Gold.Version>
5.8.1

> <Gold.Id.Protein>
6NUR|6NUR_protein|mol2

> <Gold.PLP.Fitness>
40.9197

> <Gold.PLP.PLP>
-37.8609

> <Gold.PLP.part.hbond>
-2.0000

> <Gold.PLP.part.metal>
0.0000

> <Gold.PLP.part.buried>
-4.0182

> <Gold.PLP.part.nonpolar>
-33.3023

> <Gold.PLP.part.repulsive>
0.3544

> <Gold.PLP.ligand.clash>
0.0000

> <Gold.PLP.ligand.torsion>
0.8882

> <Gold.PLP.Chemscore.Hbond>
1.6080

> <Gold.PLP.Chemscore.CHOScore>
0.0000

> <Gold.PLP.Chemscore.Metal>
0.0000

> <Gold.Chemscore.Hbonds>
donor molecule, donor type, donor heavy atom, donor atom, acceptor molecule, acceptor atom, score
      P1  H  7989  7998       L1     9  0.75
      P1  H 10752 10764       L1    21  0.75

> <Gold.PLP.Chemscore.Internal.Correction>
0.0112

> <Gold.Rescore>
     Score         DG    S(hbond)    S(metal)    S(lipo)     H(rot)  DE(clash)    DE(int)     intcor
     16.66     -19.44       1.52        0.00     112.11       1.65       0.90       1.88       ----

> <Gold.Chemscore.Fitness>
16.6584

> <Gold.Chemscore.DG>
-19.4358

> <Gold.Chemscore.ZeroCoef>
-5.4800

> <Gold.Chemscore.Hbond>
1.5185

> <Gold.Chemscore.Metal>
0.0000

> <Gold.Chemscore.Lipo>
112.1077

> <Gold.Chemscore.Internal_Hbond>
0.0000

> <Gold.Chemscore.DEClash>
0.8979

> <Gold.Chemscore.DEInternal>
1.8794

> <Gold.Chemscore.Rot>
1.6534

> <Gold.Chemscore.Internal.Correction>
   9.000000E+99

> <Gold.Chemscore.Hbonds>
donor molecule, donor type, donor heavy atom, donor atom, acceptor molecule, acceptor atom, score
      P1  H  7989  7998       L1     9  0.71
      P1  H 10752 10764       L1    21  0.09

> <Gold.Chemscore.Hbond.Weighted>
-5.0718

> <Gold.Chemscore.Metal.Weighted>
-0.0000

> <Gold.Chemscore.Lipo.Weighted>
-13.1166

> <Gold.Chemscore.Internal_Hbond.Weighted>
0.0000

> <Gold.Chemscore.DEClash.Weighted>
0.8979

> <Gold.Chemscore.DEInternal.Weighted>
1.8794

> <Gold.Chemscore.Rot.Weighted>
4.2326

> <Gold.Chemscore.Internal.Correction.Weighted>
   9.000000E+99

> <Gold.Protein.RotatedTorsions>
[ 6907 6896 6895 6894 ] final  -51.78 input  -60.11 | X-H torsion
[ 7974 7965 7964 7962 ] final  128.05 input  175.53 | X-H torsion
[ 8008 7997 7996 7995 ] final -139.42 input   59.86 | X-H torsion
[ 10167 10162 10161 10158 ] final   46.01 input  -65.29 | X-H torsion
[ 10718 10713 10712 10709 ] final   77.45 input   66.30 | X-H torsion
[ 10763 10752 10751 10750 ] final  -16.04 input  -60.55 | X-H torsion
[ 11005 11000 10999 10996 ] final -112.88 input  -57.11 | X-H torsion

> <Gold.Protein.ActiveResidues>
 VAL166  LYS551  ARG553  GLY616  TRP617  ASP618  TYR619  PRO620  LYS621  CYS622 
 ASP623  PHE694  ASN695  SER759  ASP760  ASP761  ALA762  ILE779  LEU786  VAL792 
 PHE793  MET794  SER795  GLU796  ALA797  LYS798  CYS799  TRP800  GLU811  SER814 

> <Gold.Protein.RotatedAtoms>
  150.8579  134.7923  159.7059 H   0  0  0  0  0  0  0  0  0  0  0  0  # atno 6907 bound_to 6896
  152.4625  134.5148  159.9775 H   0  0  0  0  0  0  0  0  0  0  0  0  # atno 6908 bound_to 6896
  151.5258  133.3420  159.2945 H   0  0  0  0  0  0  0  0  0  0  0  0  # atno 6909 bound_to 6896
  145.0438  139.3940  143.5088 H   0  0  0  0  0  0  0  0  0  0  0  0  # atno 7974 bound_to 7965
  155.4445  140.0534  157.3007 H   0  0  0  0  0  0  0  0  0  0  0  0  # atno 8008 bound_to 7997
  154.4804  140.2079  155.9735 H   0  0  0  0  0  0  0  0  0  0  0  0  # atno 8009 bound_to 7997
  156.1196  140.3190  155.8194 H   0  0  0  0  0  0  0  0  0  0  0  0  # atno 8010 bound_to 7997
  140.3183  144.2736  150.6187 H   0  0  0  0  0  0  0  0  0  0  0  0  # atno 10167 bound_to 10162
  157.6711  130.9822  150.1644 H   0  0  0  0  0  0  0  0  0  0  0  0  # atno 10718 bound_to 10713
  153.5525  135.7011  153.5585 H   0  0  0  0  0  0  0  0  0  0  0  0  # atno 10763 bound_to 10752
  153.3502  135.3997  155.1640 H   0  0  0  0  0  0  0  0  0  0  0  0  # atno 10764 bound_to 10752
  154.8659  135.3763  154.5037 H   0  0  0  0  0  0  0  0  0  0  0  0  # atno 10765 bound_to 10752
  141.0648  133.9476  157.2598 H   0  0  0  0  0  0  0  0  0  0  0  0  # atno 11005 bound_to 11000
  146.3512  140.0053  142.8672 LP  0  0  0  0  0  0  0  0  0  0  0  0  # atno 17320 bound_to 7965
  145.1614  140.9674  143.4375 LP  0  0  0  0  0  0  0  0  0  0  0  0  # atno 17321 bound_to 7965
  140.5506  143.2207  151.7933 LP  0  0  0  0  0  0  0  0  0  0  0  0  # atno 17342 bound_to 10162
  139.4879  144.4481  151.9686 LP  0  0  0  0  0  0  0  0  0  0  0  0  # atno 17343 bound_to 10162
  156.2412  130.3691  149.8334 LP  0  0  0  0  0  0  0  0  0  0  0  0  # atno 17370 bound_to 10713
  156.6134  130.8596  151.3459 LP  0  0  0  0  0  0  0  0  0  0  0  0  # atno 17371 bound_to 10713
  139.9466  135.0183  156.8871 LP  0  0  0  0  0  0  0  0  0  0  0  0  # atno 17394 bound_to 11000
  140.5795  134.0366  155.7459 LP  0  0  0  0  0  0  0  0  0  0  0  0  # atno 17395 bound_to 11000

$$$$
