AV-unprocessed.smi:3091|AV-procd|sdf|11781|dock1
  -GOLD-   2272017163D 1   1.00000     0.00000
 Structure written by MMmdl.
 28 29  0  0  0  0  0  0  0  0  1 V2000
  149.0227  142.4240  154.0385 N   0  0  0  0  0  0  0  0  0  0  0  0
  148.9036  141.0198  154.3762 C   0  0  0  0  0  0  0  0  0  0  0  0
  150.1355  140.4870  155.0798 C   0  0  0  0  0  0  0  0  0  0  0  0
  150.8391  139.3816  154.5613 C   0  0  0  0  0  0  0  0  0  0  0  0
  151.9794  138.9299  155.2532 C   0  0  0  0  0  0  0  0  0  0  0  0
  152.4340  139.5038  156.3872 N   0  0  0  0  0  0  0  0  0  0  0  0
  151.7575  140.5691  156.8851 C   0  0  0  0  0  0  0  0  0  0  0  0
  152.2090  141.1703  158.0435 O   0  0  0  0  0  0  0  0  0  0  0  0
  151.4338  142.2081  158.6477 C   0  0  1  0  0  0  0  0  0  0  0  0
  152.0039  142.5958  160.0062 C   0  0  0  0  0  0  0  0  0  0  0  0
  153.0294  143.6586  159.6408 C   0  0  0  0  0  0  0  0  0  0  0  0
  152.3733  144.3929  158.6216 O   0  0  0  0  0  0  0  0  0  0  0  0
  151.6230  143.4871  157.8178 C   0  0  0  0  0  0  0  0  0  0  0  0
  150.6038  141.0906  156.2649 C   0  0  0  0  0  0  0  0  0  0  0  0
  148.1651  142.7417  153.6095 H   0  0  0  0  0  0  0  0  0  0  0  0
  149.1472  142.9688  154.8796 H   0  0  0  0  0  0  0  0  0  0  0  0
  148.0319  140.8787  155.0156 H   0  0  0  0  0  0  0  0  0  0  0  0
  148.7246  140.4522  153.4626 H   0  0  0  0  0  0  0  0  0  0  0  0
  150.5167  138.8889  153.6557 H   0  0  0  0  0  0  0  0  0  0  0  0
  152.5427  138.0852  154.8850 H   0  0  0  0  0  0  0  0  0  0  0  0
  150.3762  141.9436  158.6990 H   0  0  0  0  0  0  0  0  0  0  0  0
  151.2210  143.0397  160.6222 H   0  0  0  0  0  0  0  0  0  0  0  0
  152.4357  141.7627  160.5612 H   0  0  0  0  0  0  0  0  0  0  0  0
  153.3013  144.2932  160.4845 H   0  0  0  0  0  0  0  0  0  0  0  0
  153.9369  143.2040  159.2403 H   0  0  0  0  0  0  0  0  0  0  0  0
  152.1553  143.2869  156.8869 H   0  0  0  0  0  0  0  0  0  0  0  0
  150.6668  143.9438  157.5612 H   0  0  0  0  0  0  0  0  0  0  0  0
  150.0902  141.9402  156.6907 H   0  0  0  0  0  0  0  0  0  0  0  0
  1  2  1  0  0  0  0
  1 15  1  0  0  0  0
  1 16  1  0  0  0  0
  2  3  1  0  0  0  0
  2 17  1  0  0  0  0
  2 18  1  0  0  0  0
  3 14  1  0  0  0  0
  3  4  2  0  0  0  0
  4  5  1  0  0  0  0
  4 19  1  0  0  0  0
  5  6  2  0  0  0  0
  5 20  1  0  0  0  0
  6  7  1  0  0  0  0
  7  8  1  0  0  0  0
  7 14  2  0  0  0  0
  8  9  1  0  0  0  0
  9 13  1  0  0  0  0
  9 10  1  0  0  0  0
  9 21  1  0  0  0  0
 10 11  1  0  0  0  0
 10 22  1  0  0  0  0
 10 23  1  0  0  0  0
 11 12  1  0  0  0  0
 11 24  1  0  0  0  0
 11 25  1  0  0  0  0
 12 13  1  0  0  0  0
 13 26  1  0  0  0  0
 13 27  1  0  0  0  0
 14 28  1  0  0  0  0
M  END
> <s_m_source_file>
AV-unprocessed.smi

> <i_m_source_file_index>
3091

> <i_lp_mmshare_version>
43012

> <i_f3d_flags>
0

> <s_epik_input>
W05IMl1bQ0gyXWMxW2NIXVtjSF1uYyhbY0hdMSlPW0NAQEhdMltDSDJdW0NIMl1PW0NIMl0y

> <s_epik_cmdline>
J2VwaWtfcHl0aG9uJywgJy1waCcsICc3LjAnLCAnLXRuJywgJzgnLCAnLW1hJywgJzIwMCcsICctbWV0YWxfYmluZGluZycsICctaW1hZScsICc8aW5maWxlLm1hZT4nLCAnLW9tYWUnLCAnPG91dGZpbGUubWFlPic=

> <r_lp_tautomer_probability>
1

> <r_epik_Ionization_Penalty>
1.24495

> <r_epik_Ionization_Penalty_Charging>
0

> <r_epik_Ionization_Penalty_Neutral>
1.24495

> <r_epik_State_Penalty>
1.3141

> <r_epik_Charging_Adjusted_Penalty>
1.3141

> <i_epik_Tot_Q>
0

> <i_epik_Tot_abs_Q>
0

> <r_epik_Metal_State_Penalty>
1.31398

> <b_epik_Metal_Only>
0

> <s_lp_Force_Field>
OPLS_2005

> <r_lp_Energy>
15.3378

> <b_lp_Chiralities_Consistent>
1

> <s_lp_Variant>
AV-unprocessed.smi:3091-4

> <Gold.Version>
5.8.1

> <Gold.Id.Protein>
6NUR|6NUR_protein|mol2

> <Gold.PLP.Fitness>
37.9309

> <Gold.PLP.PLP>
-31.9902

> <Gold.PLP.part.hbond>
-3.0000

> <Gold.PLP.part.metal>
0.0000

> <Gold.PLP.part.buried>
-2.4152

> <Gold.PLP.part.nonpolar>
-25.0503

> <Gold.PLP.part.repulsive>
0.0353

> <Gold.PLP.ligand.clash>
0.0000

> <Gold.PLP.ligand.torsion>
0.1242

> <Gold.PLP.Chemscore.Hbond>
2.0568

> <Gold.PLP.Chemscore.CHOScore>
0.0000

> <Gold.PLP.Chemscore.Metal>
0.0000

> <Gold.Chemscore.Hbonds>
donor molecule, donor type, donor heavy atom, donor atom, acceptor molecule, acceptor atom, score
      L1  H     1    16       P1  8028  0.85
      P1  H  7997  8009       L1     6  0.98
      P1  H  8011  8017       L1     1  0.07

> <Gold.PLP.Chemscore.Internal.Correction>
0.0188

> <Gold.Rescore>
     Score         DG    S(hbond)    S(metal)    S(lipo)     H(rot)  DE(clash)    DE(int)     intcor
     15.25     -15.61       1.44        0.00      79.31       1.54       0.12       0.24       ----

> <Gold.Chemscore.Fitness>
15.2479

> <Gold.Chemscore.DG>
-15.6077

> <Gold.Chemscore.ZeroCoef>
-5.4800

> <Gold.Chemscore.Hbond>
1.4364

> <Gold.Chemscore.Metal>
0.0000

> <Gold.Chemscore.Lipo>
79.3063

> <Gold.Chemscore.Internal_Hbond>
0.0000

> <Gold.Chemscore.DEClash>
0.1224

> <Gold.Chemscore.DEInternal>
0.2374

> <Gold.Chemscore.Rot>
1.5424

> <Gold.Chemscore.Internal.Correction>
   9.000000E+99

> <Gold.Chemscore.Hbonds>
donor molecule, donor type, donor heavy atom, donor atom, acceptor molecule, acceptor atom, score
      L1  H     1    16       P1  8028  0.85
      P1  H  7997  8009       L1     6  0.35

> <Gold.Chemscore.Hbond.Weighted>
-4.7975

> <Gold.Chemscore.Metal.Weighted>
-0.0000

> <Gold.Chemscore.Lipo.Weighted>
-9.2788

> <Gold.Chemscore.Internal_Hbond.Weighted>
0.0000

> <Gold.Chemscore.DEClash.Weighted>
0.1224

> <Gold.Chemscore.DEInternal.Weighted>
0.2374

> <Gold.Chemscore.Rot.Weighted>
3.9487

> <Gold.Chemscore.Internal.Correction.Weighted>
   9.000000E+99

> <Gold.Protein.RotatedTorsions>
[ 6907 6896 6895 6894 ] final  126.39 input  -60.11 | X-H torsion
[ 7974 7965 7964 7962 ] final -165.70 input  175.53 | X-H torsion
[ 8008 7997 7996 7995 ] final -150.99 input   59.86 | X-H torsion
[ 10167 10162 10161 10158 ] final  -19.28 input  -65.29 | X-H torsion
[ 10718 10713 10712 10709 ] final  144.97 input   66.30 | X-H torsion
[ 10763 10752 10751 10750 ] final  117.34 input  -60.55 | X-H torsion
[ 11005 11000 10999 10996 ] final -155.40 input  -57.11 | X-H torsion

> <Gold.Protein.ActiveResidues>
 VAL166  LYS551  ARG553  GLY616  TRP617  ASP618  TYR619  PRO620  LYS621  CYS622 
 ASP623  PHE694  ASN695  SER759  ASP760  ASP761  ALA762  ILE779  LEU786  VAL792 
 PHE793  MET794  SER795  GLU796  ALA797  LYS798  CYS799  TRP800  GLU811  SER814 

> <Gold.Protein.RotatedAtoms>
  152.3907  133.6675  159.6235 H   0  0  0  0  0  0  0  0  0  0  0  0  # atno 6907 bound_to 6896
  150.7816  133.8958  159.3335 H   0  0  0  0  0  0  0  0  0  0  0  0  # atno 6908 bound_to 6896
  151.6745  135.0972  160.0255 H   0  0  0  0  0  0  0  0  0  0  0  0  # atno 6909 bound_to 6896
  144.7263  140.2775  143.6241 H   0  0  0  0  0  0  0  0  0  0  0  0  # atno 7974 bound_to 7965
  155.6323  140.0693  157.2645 H   0  0  0  0  0  0  0  0  0  0  0  0  # atno 8008 bound_to 7997
  154.4203  140.1765  156.1534 H   0  0  0  0  0  0  0  0  0  0  0  0  # atno 8009 bound_to 7997
  155.9922  140.3344  155.6768 H   0  0  0  0  0  0  0  0  0  0  0  0  # atno 8010 bound_to 7997
  140.7267  143.4834  151.0087 H   0  0  0  0  0  0  0  0  0  0  0  0  # atno 10167 bound_to 10162
  157.3509  131.0950  151.1001 H   0  0  0  0  0  0  0  0  0  0  0  0  # atno 10718 bound_to 10713
  153.5510  135.3540  155.2759 H   0  0  0  0  0  0  0  0  0  0  0  0  # atno 10763 bound_to 10752
  154.8707  135.4114  154.2937 H   0  0  0  0  0  0  0  0  0  0  0  0  # atno 10764 bound_to 10752
  153.3663  135.7062  153.6741 H   0  0  0  0  0  0  0  0  0  0  0  0  # atno 10765 bound_to 10752
  140.6869  134.4083  157.5222 H   0  0  0  0  0  0  0  0  0  0  0  0  # atno 11005 bound_to 11000
  145.7982  139.1954  143.2063 LP  0  0  0  0  0  0  0  0  0  0  0  0  # atno 17320 bound_to 7965
  146.0699  140.7881  142.9693 LP  0  0  0  0  0  0  0  0  0  0  0  0  # atno 17321 bound_to 7965
  139.8534  143.7408  152.3177 LP  0  0  0  0  0  0  0  0  0  0  0  0  # atno 17342 bound_to 10162
  139.7598  144.7510  151.0380 LP  0  0  0  0  0  0  0  0  0  0  0  0  # atno 17343 bound_to 10162
  157.2177  130.6467  149.5799 LP  0  0  0  0  0  0  0  0  0  0  0  0  # atno 17370 bound_to 10713
  155.9721  130.4639  150.6199 LP  0  0  0  0  0  0  0  0  0  0  0  0  # atno 17371 bound_to 10713
  139.8935  134.8729  156.2221 LP  0  0  0  0  0  0  0  0  0  0  0  0  # atno 17394 bound_to 11000
  141.0272  133.7008  156.1369 LP  0  0  0  0  0  0  0  0  0  0  0  0  # atno 17395 bound_to 11000

$$$$
