AV-unprocessed.smi:1452|AV-procd|sdf|5907|dock1
  -GOLD-   22720 5593D 1   1.00000     0.00000
 Structure written by MMmdl.
 40 42  0  0  0  0  0  0  0  0  2 V2000
  145.5516  138.4642  153.5694 O   0  0  0  0  0  0  0  0  0  0  0  0
  146.4232  137.8328  152.9743 C   0  0  0  0  0  0  0  0  0  0  0  0
  147.7243  138.1803  153.0613 N   0  0  0  0  0  0  0  0  0  0  0  0
  148.3640  139.2386  153.7710 C   0  0  0  0  0  0  0  0  0  0  0  0
  149.6473  138.9213  154.2702 C   0  0  0  0  0  0  0  0  0  0  0  0
  150.3673  139.8849  155.0026 C   0  0  0  0  0  0  0  0  0  0  0  0
  149.7828  141.1443  155.2229 C   0  0  0  0  0  0  0  0  0  0  0  0
  148.4986  141.3792  154.6991 C   0  0  0  0  0  0  0  0  0  0  0  0
  147.8074  140.4567  153.9963 N   0  0  0  0  0  0  0  0  0  0  0  0
  146.1480  136.7646  152.2084 N   0  0  0  0  0  0  0  0  0  0  0  0
  144.8117  136.2477  151.9342 C   0  0  2  0  0  0  0  0  0  0  0  0
  144.0941  135.7425  153.1789 C   0  0  0  0  0  0  0  0  0  0  0  0
  142.9999  134.8378  152.6033 C   0  0  0  0  0  0  0  0  0  0  0  0
  143.4925  134.3475  151.2920 N   0  3  2  0  0  0  0  0  0  0  0  0
  143.5060  132.8651  151.1672 C   0  0  0  0  0  0  0  0  0  0  0  0
  144.3800  132.4198  149.9854 C   0  0  0  0  0  0  0  0  0  0  0  0
  145.8475  132.8480  150.1760 C   0  0  0  0  0  0  0  0  0  0  0  0
  145.9907  134.0607  151.1153 C   0  0  0  0  0  0  0  0  0  0  0  0
  144.7859  135.0270  150.9955 C   0  0  2  0  0  0  0  0  0  0  0  0
  148.3602  137.5420  152.6053 H   0  0  0  0  0  0  0  0  0  0  0  0
  150.0827  137.9481  154.0944 H   0  0  0  0  0  0  0  0  0  0  0  0
  151.3506  139.6599  155.3884 H   0  0  0  0  0  0  0  0  0  0  0  0
  150.3039  141.9090  155.7798 H   0  0  0  0  0  0  0  0  0  0  0  0
  148.0123  142.3319  154.8482 H   0  0  0  0  0  0  0  0  0  0  0  0
  146.9227  136.3003  151.7548 H   0  0  0  0  0  0  0  0  0  0  0  0
  144.2010  137.0418  151.4986 H   0  0  0  0  0  0  0  0  0  0  0  0
  144.7743  135.1529  153.7956 H   0  0  0  0  0  0  0  0  0  0  0  0
  143.6942  136.5481  153.7955 H   0  0  0  0  0  0  0  0  0  0  0  0
  142.7411  134.0341  153.2940 H   0  0  0  0  0  0  0  0  0  0  0  0
  142.0928  135.4161  152.4247 H   0  0  0  0  0  0  0  0  0  0  0  0
  143.8885  132.4132  152.0842 H   0  0  0  0  0  0  0  0  0  0  0  0
  142.4823  132.5103  151.0439 H   0  0  0  0  0  0  0  0  0  0  0  0
  144.3220  131.3393  149.8513 H   0  0  0  0  0  0  0  0  0  0  0  0
  143.9870  132.8615  149.0684 H   0  0  0  0  0  0  0  0  0  0  0  0
  146.4312  132.0189  150.5775 H   0  0  0  0  0  0  0  0  0  0  0  0
  146.2791  133.0775  149.2010 H   0  0  0  0  0  0  0  0  0  0  0  0
  146.0713  133.7116  152.1458 H   0  0  0  0  0  0  0  0  0  0  0  0
  146.9298  134.5692  150.8953 H   0  0  0  0  0  0  0  0  0  0  0  0
  144.7513  135.3804  149.9639 H   0  0  0  0  0  0  0  0  0  0  0  0
  142.8405  134.6895  150.6005 H   0  0  0  0  0  0  0  0  0  0  0  0
  1  2  2  0  0  0  0
  2  3  1  0  0  0  0
  2 10  1  0  0  0  0
  3  4  1  0  0  0  0
  3 20  1  0  0  0  0
  4  9  1  0  0  0  0
  4  5  2  0  0  0  0
  5  6  1  0  0  0  0
  5 21  1  0  0  0  0
  6  7  2  0  0  0  0
  6 22  1  0  0  0  0
  7  8  1  0  0  0  0
  7 23  1  0  0  0  0
  8  9  2  0  0  0  0
  8 24  1  0  0  0  0
 10 11  1  0  0  0  0
 10 25  1  0  0  0  0
 11 19  1  0  0  0  0
 11 12  1  0  0  0  0
 11 26  1  0  0  0  0
 12 13  1  0  0  0  0
 12 27  1  0  0  0  0
 12 28  1  0  0  0  0
 13 14  1  0  0  0  0
 13 29  1  0  0  0  0
 13 30  1  0  0  0  0
 14 19  1  0  0  0  0
 14 15  1  0  0  0  0
 14 40  1  0  0  0  0
 15 16  1  0  0  0  0
 15 31  1  0  0  0  0
 15 32  1  0  0  0  0
 16 17  1  0  0  0  0
 16 33  1  0  0  0  0
 16 34  1  0  0  0  0
 17 18  1  0  0  0  0
 17 35  1  0  0  0  0
 17 36  1  0  0  0  0
 18 19  1  0  0  0  0
 18 37  1  0  0  0  0
 18 38  1  0  0  0  0
 19 39  1  0  0  0  0
M  CHG  1  14   1
M  END
> <s_m_source_file>
AV-unprocessed.smi

> <i_m_source_file_index>
1452

> <i_lp_mmshare_version>
43012

> <i_f3d_flags>
0

> <s_epik_input>
W0NIMl0xW0NIMl1bQ0gyXVtDSDJdW0NASF0oTjEyKVtDQEBIXShbQ0gyXVtDSDJdMilbTkhdQyg9TylbTkhdYzNbY0hdW2NIXVtjSF1bY0hdbjM=

> <s_epik_cmdline>
J2VwaWtfcHl0aG9uJywgJy1waCcsICc3LjAnLCAnLXRuJywgJzgnLCAnLW1hJywgJzIwMCcsICctbWV0YWxfYmluZGluZycsICctaW1hZScsICc8aW5maWxlLm1hZT4nLCAnLW9tYWUnLCAnPG91dGZpbGUubWFlPic=

> <r_epik_Ionization_Penalty>
0.00100813

> <r_epik_Ionization_Penalty_Charging>
0.000974069

> <r_epik_Ionization_Penalty_Neutral>
3.40643e-05

> <r_epik_State_Penalty>
0.000633842

> <r_epik_Charging_Adjusted_Penalty>
0.00160791

> <i_epik_Tot_Q>
1

> <i_epik_Tot_abs_Q>
1

> <r_epik_Metal_State_Penalty>
-0

> <b_epik_Metal_Only>
0

> <s_lp_Force_Field>
OPLS_2005

> <r_lp_Energy>
44.9795

> <b_lp_Chiralities_Consistent>
1

> <s_lp_Variant>
AV-unprocessed.smi:1452-5

> <Gold.Version>
5.8.1

> <Gold.Id.Protein>
6NUR|6NUR_protein|mol2

> <Gold.PLP.Fitness>
47.2242

> <Gold.PLP.PLP>
-35.3730

> <Gold.PLP.part.hbond>
-3.3626

> <Gold.PLP.part.metal>
0.0000

> <Gold.PLP.part.buried>
-2.8592

> <Gold.PLP.part.nonpolar>
-30.7808

> <Gold.PLP.part.repulsive>
1.6937

> <Gold.PLP.ligand.clash>
0.0000

> <Gold.PLP.ligand.torsion>
0.2368

> <Gold.PLP.Chemscore.Hbond>
3.3760

> <Gold.PLP.Chemscore.CHOScore>
0.7314

> <Gold.PLP.Chemscore.Metal>
0.0000

> <Gold.Chemscore.Hbonds>
donor molecule, donor type, donor heavy atom, donor atom, acceptor molecule, acceptor atom, score
      L1  H     3    20       P1  7948  1.00
      L1  H    10    25       P1  7948  0.82
      L1  H    14    40       P1 10186  1.52
      L1  C     8    24       P1  8028  0.71

> <Gold.PLP.Chemscore.Internal.Correction>
0.0029

> <Gold.Rescore>
     Score         DG    S(hbond)    S(metal)    S(lipo)     H(rot)  DE(clash)    DE(int)     intcor
     18.63     -20.58       2.38        0.00      82.92       1.00       0.77       1.18       ----

> <Gold.Chemscore.Fitness>
18.6276

> <Gold.Chemscore.DG>
-20.5827

> <Gold.Chemscore.ZeroCoef>
-5.4800

> <Gold.Chemscore.Hbond>
2.3835

> <Gold.Chemscore.Metal>
0.0000

> <Gold.Chemscore.Lipo>
82.9209

> <Gold.Chemscore.Internal_Hbond>
0.0000

> <Gold.Chemscore.DEClash>
0.7705

> <Gold.Chemscore.DEInternal>
1.1845

> <Gold.Chemscore.Rot>
1.0000

> <Gold.Chemscore.Internal.Correction>
   9.000000E+99

> <Gold.Chemscore.Hbonds>
donor molecule, donor type, donor heavy atom, donor atom, acceptor molecule, acceptor atom, score
      L1  H     3    20       P1  7948  0.98
      L1  H    10    25       P1  7948  0.78
      L1  H    14    40       P1 10186  0.18

> <Gold.Chemscore.Hbond.Weighted>
-7.9609

> <Gold.Chemscore.Metal.Weighted>
-0.0000

> <Gold.Chemscore.Lipo.Weighted>
-9.7017

> <Gold.Chemscore.Internal_Hbond.Weighted>
0.0000

> <Gold.Chemscore.DEClash.Weighted>
0.7705

> <Gold.Chemscore.DEInternal.Weighted>
1.1845

> <Gold.Chemscore.Rot.Weighted>
2.5600

> <Gold.Chemscore.Internal.Correction.Weighted>
   9.000000E+99

> <Gold.Protein.RotatedTorsions>
[ 6907 6896 6895 6894 ] final  137.61 input  -60.11 | X-H torsion
[ 7974 7965 7964 7962 ] final   70.31 input  175.53 | X-H torsion
[ 8008 7997 7996 7995 ] final  -96.30 input   59.86 | X-H torsion
[ 10167 10162 10161 10158 ] final    4.02 input  -65.29 | X-H torsion
[ 10718 10713 10712 10709 ] final -116.97 input   66.30 | X-H torsion
[ 10763 10752 10751 10750 ] final    4.60 input  -60.55 | X-H torsion
[ 11005 11000 10999 10996 ] final  -74.64 input  -57.11 | X-H torsion

> <Gold.Protein.ActiveResidues>
 VAL166  LYS551  ARG553  GLY616  TRP617  ASP618  TYR619  PRO620  LYS621  CYS622 
 ASP623  PHE694  ASN695  SER759  ASP760  ASP761  ALA762  ILE779  LEU786  VAL792 
 PHE793  MET794  SER795  GLU796  ALA797  LYS798  CYS799  TRP800  GLU811  SER814 

> <Gold.Protein.RotatedAtoms>
  152.2761  133.5427  159.5468 H   0  0  0  0  0  0  0  0  0  0  0  0  # atno 6907 bound_to 6896
  150.7177  134.0630  159.3847 H   0  0  0  0  0  0  0  0  0  0  0  0  # atno 6908 bound_to 6896
  151.8543  135.0547  160.0513 H   0  0  0  0  0  0  0  0  0  0  0  0  # atno 6909 bound_to 6896
  145.7797  139.2881  143.1273 H   0  0  0  0  0  0  0  0  0  0  0  0  # atno 7974 bound_to 7965
  154.7726  140.0472  157.1064 H   0  0  0  0  0  0  0  0  0  0  0  0  # atno 8008 bound_to 7997
  154.9801  140.3100  155.4930 H   0  0  0  0  0  0  0  0  0  0  0  0  # atno 8009 bound_to 7997
  156.2924  140.2237  156.4900 H   0  0  0  0  0  0  0  0  0  0  0  0  # atno 8010 bound_to 7997
  140.6556  143.7435  150.7648 H   0  0  0  0  0  0  0  0  0  0  0  0  # atno 10167 bound_to 10162
  156.1001  130.6165  150.9104 H   0  0  0  0  0  0  0  0  0  0  0  0  # atno 10718 bound_to 10713
  153.2693  135.6930  153.7497 H   0  0  0  0  0  0  0  0  0  0  0  0  # atno 10763 bound_to 10752
  153.6526  135.3374  155.3105 H   0  0  0  0  0  0  0  0  0  0  0  0  # atno 10764 bound_to 10752
  154.8458  135.4458  154.1710 H   0  0  0  0  0  0  0  0  0  0  0  0  # atno 10765 bound_to 10752
  141.1637  133.6918  156.7395 H   0  0  0  0  0  0  0  0  0  0  0  0  # atno 11005 bound_to 11000
  146.0087  140.8455  142.9982 LP  0  0  0  0  0  0  0  0  0  0  0  0  # atno 17320 bound_to 7965
  144.6798  140.2458  143.7338 LP  0  0  0  0  0  0  0  0  0  0  0  0  # atno 17321 bound_to 7965
  140.1094  143.4713  152.2379 LP  0  0  0  0  0  0  0  0  0  0  0  0  # atno 17342 bound_to 10162
  139.5778  144.7496  151.3718 LP  0  0  0  0  0  0  0  0  0  0  0  0  # atno 17343 bound_to 10162
  157.6169  131.0932  150.8693 LP  0  0  0  0  0  0  0  0  0  0  0  0  # atno 17370 bound_to 10713
  156.8823  130.5183  149.5290 LP  0  0  0  0  0  0  0  0  0  0  0  0  # atno 17371 bound_to 10713
  140.2685  134.8411  157.3825 LP  0  0  0  0  0  0  0  0  0  0  0  0  # atno 17394 bound_to 11000
  140.1544  134.4809  155.7938 LP  0  0  0  0  0  0  0  0  0  0  0  0  # atno 17395 bound_to 11000

$$$$
