AV-unprocessed.smi:2168|AV-procd|sdf|8818|dock9
  -GOLD-   2272012 13D 1   1.00000     0.00000
 Structure written by MMmdl.
 46 47  0  0  0  0  0  0  0  0  1 V2000
  144.1099  133.4401  150.2243 C   0  0  0  0  0  0  0  0  0  0  0  0
  144.3229  134.8346  150.8316 C   0  0  0  0  0  0  0  0  0  0  0  0
  145.3073  134.8180  151.9288 N   0  0  0  0  0  0  0  0  0  0  0  0
  146.5596  134.0921  151.6391 C   0  0  0  0  0  0  0  0  0  0  0  0
  146.4541  132.6190  152.0578 C   0  0  0  0  0  0  0  0  0  0  0  0
  145.3838  136.2156  152.9561 S   0  0  0  0  0  0  0  0  0  0  0  0
  144.0795  136.8951  152.9288 O   0  0  0  0  0  0  0  0  0  0  0  0
  146.0091  135.8409  154.2339 O   0  0  0  0  0  0  0  0  0  0  0  0
  146.5105  137.1700  152.0711 N   0  0  0  0  0  0  0  0  0  0  0  0
  146.3585  138.6180  151.9770 C   0  0  0  0  0  0  0  0  0  0  0  0
  147.1730  139.3413  153.0296 C   0  0  0  0  0  0  0  0  0  0  0  0
  146.9746  140.7132  153.2765 C   0  0  0  0  0  0  0  0  0  0  0  0
  147.7675  141.3518  154.2487 C   0  0  0  0  0  0  0  0  0  0  0  0
  148.7427  140.6007  154.9482 C   0  0  0  0  0  0  0  0  0  0  0  0
  149.5565  141.2227  155.9206 N   0  0  0  0  0  0  0  0  0  0  0  0
  150.8206  140.5506  156.2136 C   0  0  0  0  0  0  0  0  0  0  0  0
  151.7379  141.4688  157.0396 C   0  0  0  0  0  0  0  0  0  0  0  0
  151.0577  141.9018  158.2126 O   0  0  0  0  0  0  0  0  0  0  0  0
  149.8900  142.6530  157.8992 C   0  0  0  0  0  0  0  0  0  0  0  0
  148.9063  141.7747  157.1080 C   0  0  0  0  0  0  0  0  0  0  0  0
  148.9211  139.2766  154.7119 N   0  0  0  0  0  0  0  0  0  0  0  0
  148.1590  138.6689  153.7781 C   0  0  0  0  0  0  0  0  0  0  0  0
  143.3243  133.4672  149.4690 H   0  0  0  0  0  0  0  0  0  0  0  0
  143.8096  132.7216  150.9875 H   0  0  0  0  0  0  0  0  0  0  0  0
  145.0105  133.0622  149.7406 H   0  0  0  0  0  0  0  0  0  0  0  0
  144.6416  135.5453  150.0683 H   0  0  0  0  0  0  0  0  0  0  0  0
  143.3669  135.1968  151.2094 H   0  0  0  0  0  0  0  0  0  0  0  0
  146.8065  134.1637  150.5794 H   0  0  0  0  0  0  0  0  0  0  0  0
  147.3860  134.5662  152.1694 H   0  0  0  0  0  0  0  0  0  0  0  0
  147.3809  132.0894  151.8370 H   0  0  0  0  0  0  0  0  0  0  0  0
  145.6498  132.1108  151.5264 H   0  0  0  0  0  0  0  0  0  0  0  0
  146.2640  132.5145  153.1256 H   0  0  0  0  0  0  0  0  0  0  0  0
  147.4642  136.8111  152.0402 H   0  0  0  0  0  0  0  0  0  0  0  0
  146.6606  138.9462  150.9821 H   0  0  0  0  0  0  0  0  0  0  0  0
  145.3046  138.8751  152.0905 H   0  0  0  0  0  0  0  0  0  0  0  0
  146.2279  141.2696  152.7290 H   0  0  0  0  0  0  0  0  0  0  0  0
  147.6105  142.4003  154.4524 H   0  0  0  0  0  0  0  0  0  0  0  0
  150.6110  139.6359  156.7695 H   0  0  0  0  0  0  0  0  0  0  0  0
  151.3433  140.2557  155.3051 H   0  0  0  0  0  0  0  0  0  0  0  0
  152.6411  140.9327  157.3312 H   0  0  0  0  0  0  0  0  0  0  0  0
  152.0559  142.3312  156.4513 H   0  0  0  0  0  0  0  0  0  0  0  0
  149.4275  142.9937  158.8254 H   0  0  0  0  0  0  0  0  0  0  0  0
  150.1594  143.5445  157.3305 H   0  0  0  0  0  0  0  0  0  0  0  0
  148.0400  142.3725  156.8217 H   0  0  0  0  0  0  0  0  0  0  0  0
  148.5471  140.9582  157.7363 H   0  0  0  0  0  0  0  0  0  0  0  0
  148.3487  137.6173  153.6210 H   0  0  0  0  0  0  0  0  0  0  0  0
  1  2  1  0  0  0  0
  1 23  1  0  0  0  0
  1 24  1  0  0  0  0
  1 25  1  0  0  0  0
  2  3  1  0  0  0  0
  2 26  1  0  0  0  0
  2 27  1  0  0  0  0
  3  4  1  0  0  0  0
  3  6  1  0  0  0  0
  4  5  1  0  0  0  0
  4 28  1  0  0  0  0
  4 29  1  0  0  0  0
  5 30  1  0  0  0  0
  5 31  1  0  0  0  0
  5 32  1  0  0  0  0
  6  7  2  0  0  0  0
  6  8  2  0  0  0  0
  6  9  1  0  0  0  0
  9 10  1  0  0  0  0
  9 33  1  0  0  0  0
 10 11  1  0  0  0  0
 10 34  1  0  0  0  0
 10 35  1  0  0  0  0
 11 22  1  0  0  0  0
 11 12  2  0  0  0  0
 12 13  1  0  0  0  0
 12 36  1  0  0  0  0
 13 14  2  0  0  0  0
 13 37  1  0  0  0  0
 14 15  1  0  0  0  0
 14 21  1  0  0  0  0
 15 20  1  0  0  0  0
 15 16  1  0  0  0  0
 16 17  1  0  0  0  0
 16 38  1  0  0  0  0
 16 39  1  0  0  0  0
 17 18  1  0  0  0  0
 17 40  1  0  0  0  0
 17 41  1  0  0  0  0
 18 19  1  0  0  0  0
 19 20  1  0  0  0  0
 19 42  1  0  0  0  0
 19 43  1  0  0  0  0
 20 44  1  0  0  0  0
 20 45  1  0  0  0  0
 21 22  2  0  0  0  0
 22 46  1  0  0  0  0
M  END
> <s_m_source_file>
AV-unprocessed.smi

> <i_m_source_file_index>
2168

> <i_lp_mmshare_version>
43012

> <i_f3d_flags>
0

> <s_epik_input>
W0NIM11bQ0gyXU4oW0NIMl1bQ0gzXSlTKD1PKSg9TylbTkhdW0NIMl1jMVtjSF1bY0hdYyhuW2NIXTEpTjJbQ0gyXVtDSDJdT1tDSDJdW0NIMl0y

> <s_epik_cmdline>
J2VwaWtfcHl0aG9uJywgJy1waCcsICc3LjAnLCAnLXRuJywgJzgnLCAnLW1hJywgJzIwMCcsICctbWV0YWxfYmluZGluZycsICctaW1hZScsICc8aW5maWxlLm1hZT4nLCAnLW9tYWUnLCAnPG91dGZpbGUubWFlPic=

> <r_lp_tautomer_probability>
1

> <r_epik_Ionization_Penalty>
0.0173889

> <r_epik_Ionization_Penalty_Charging>
0

> <r_epik_Ionization_Penalty_Neutral>
0.0173889

> <r_epik_State_Penalty>
0.0135122

> <r_epik_Charging_Adjusted_Penalty>
0.0135122

> <i_epik_Tot_Q>
0

> <i_epik_Tot_abs_Q>
0

> <r_epik_Metal_State_Penalty>
0.283451

> <b_epik_Metal_Only>
0

> <s_lp_Force_Field>
OPLS_2005

> <r_lp_Energy>
21.8709

> <b_lp_Chiralities_Consistent>
1

> <s_lp_Variant>
AV-unprocessed.smi:2168-1

> <Gold.Version>
5.8.1

> <Gold.Id.Protein>
6NUR|6NUR_protein|mol2

> <Gold.PLP.Fitness>
38.3983

> <Gold.PLP.PLP>
-33.5864

> <Gold.PLP.part.hbond>
-1.0000

> <Gold.PLP.part.metal>
0.0000

> <Gold.PLP.part.buried>
-2.9434

> <Gold.PLP.part.nonpolar>
-30.5989

> <Gold.PLP.part.repulsive>
0.5212

> <Gold.PLP.ligand.clash>
0.0000

> <Gold.PLP.ligand.torsion>
2.5930

> <Gold.PLP.Chemscore.Hbond>
1.0000

> <Gold.PLP.Chemscore.CHOScore>
1.0000

> <Gold.PLP.Chemscore.Metal>
0.0000

> <Gold.Chemscore.Hbonds>
donor molecule, donor type, donor heavy atom, donor atom, acceptor molecule, acceptor atom, score
      L1  H     9    33       P1  7948  1.00
      L1  C    22    46       P1  7948  1.00

> <Gold.PLP.Chemscore.Internal.Correction>
3.9979

> <Gold.Rescore>
     Score         DG    S(hbond)    S(metal)    S(lipo)     H(rot)  DE(clash)    DE(int)     intcor
     11.37     -14.17       0.99        0.00      83.61       1.72       0.30       2.50       ----

> <Gold.Chemscore.Fitness>
11.3680

> <Gold.Chemscore.DG>
-14.1693

> <Gold.Chemscore.ZeroCoef>
-5.4800

> <Gold.Chemscore.Hbond>
0.9893

> <Gold.Chemscore.Metal>
0.0000

> <Gold.Chemscore.Lipo>
83.6097

> <Gold.Chemscore.Internal_Hbond>
0.0000

> <Gold.Chemscore.DEClash>
0.3033

> <Gold.Chemscore.DEInternal>
2.4981

> <Gold.Chemscore.Rot>
1.7177

> <Gold.Chemscore.Internal.Correction>
   9.000000E+99

> <Gold.Chemscore.Hbonds>
donor molecule, donor type, donor heavy atom, donor atom, acceptor molecule, acceptor atom, score
      L1  H     9    33       P1  7948  0.98

> <Gold.Chemscore.Hbond.Weighted>
-3.3044

> <Gold.Chemscore.Metal.Weighted>
-0.0000

> <Gold.Chemscore.Lipo.Weighted>
-9.7823

> <Gold.Chemscore.Internal_Hbond.Weighted>
0.0000

> <Gold.Chemscore.DEClash.Weighted>
0.3033

> <Gold.Chemscore.DEInternal.Weighted>
2.4981

> <Gold.Chemscore.Rot.Weighted>
4.3974

> <Gold.Chemscore.Internal.Correction.Weighted>
   9.000000E+99

> <Gold.Protein.RotatedTorsions>
[ 6907 6896 6895 6894 ] final  155.44 input  -60.11 | X-H torsion
[ 7974 7965 7964 7962 ] final  104.36 input  175.53 | X-H torsion
[ 8008 7997 7996 7995 ] final   64.39 input   59.86 | X-H torsion
[ 10167 10162 10161 10158 ] final -121.32 input  -65.29 | X-H torsion
[ 10718 10713 10712 10709 ] final  -64.28 input   66.30 | X-H torsion
[ 10763 10752 10751 10750 ] final  108.05 input  -60.55 | X-H torsion
[ 11005 11000 10999 10996 ] final -175.95 input  -57.11 | X-H torsion

> <Gold.Protein.ActiveResidues>
 VAL166  LYS551  ARG553  GLY616  TRP617  ASP618  TYR619  PRO620  LYS621  CYS622 
 ASP623  PHE694  ASN695  SER759  ASP760  ASP761  ALA762  ILE779  LEU786  VAL792 
 PHE793  MET794  SER795  GLU796  ALA797  LYS798  CYS799  TRP800  GLU811  SER814 

> <Gold.Protein.RotatedAtoms>
  152.0441  133.3990  159.4348 H   0  0  0  0  0  0  0  0  0  0  0  0  # atno 6907 bound_to 6896
  150.6874  134.3382  159.4865 H   0  0  0  0  0  0  0  0  0  0  0  0  # atno 6908 bound_to 6896
  152.1184  134.9223  160.0614 H   0  0  0  0  0  0  0  0  0  0  0  0  # atno 6909 bound_to 6896
  145.3337  139.2480  143.3647 H   0  0  0  0  0  0  0  0  0  0  0  0  # atno 7974 bound_to 7965
  155.6453  140.3497  155.4729 H   0  0  0  0  0  0  0  0  0  0  0  0  # atno 8008 bound_to 7997
  155.9893  140.1190  157.0677 H   0  0  0  0  0  0  0  0  0  0  0  0  # atno 8009 bound_to 7997
  154.4214  140.1123  156.5529 H   0  0  0  0  0  0  0  0  0  0  0  0  # atno 8010 bound_to 7997
  140.0263  143.5293  152.2197 H   0  0  0  0  0  0  0  0  0  0  0  0  # atno 10167 bound_to 10162
  156.0738  130.4231  150.1398 H   0  0  0  0  0  0  0  0  0  0  0  0  # atno 10718 bound_to 10713
  153.4152  135.3824  155.2076 H   0  0  0  0  0  0  0  0  0  0  0  0  # atno 10763 bound_to 10752
  154.8741  135.3804  154.4451 H   0  0  0  0  0  0  0  0  0  0  0  0  # atno 10764 bound_to 10752
  153.4965  135.7088  153.5918 H   0  0  0  0  0  0  0  0  0  0  0  0  # atno 10765 bound_to 10752
  140.4575  134.6286  157.4828 H   0  0  0  0  0  0  0  0  0  0  0  0  # atno 11005 bound_to 11000
  146.3035  140.3920  142.8695 LP  0  0  0  0  0  0  0  0  0  0  0  0  # atno 17320 bound_to 7965
  144.8844  140.7442  143.5966 LP  0  0  0  0  0  0  0  0  0  0  0  0  # atno 17321 bound_to 7965
  139.6106  144.7607  151.2961 LP  0  0  0  0  0  0  0  0  0  0  0  0  # atno 17342 bound_to 10162
  140.7321  143.6832  150.7983 LP  0  0  0  0  0  0  0  0  0  0  0  0  # atno 17343 bound_to 10162
  156.9443  130.9754  151.3510 LP  0  0  0  0  0  0  0  0  0  0  0  0  # atno 17370 bound_to 10713
  157.5824  130.8385  149.8541 LP  0  0  0  0  0  0  0  0  0  0  0  0  # atno 17371 bound_to 10713
  139.9967  134.6901  155.9598 LP  0  0  0  0  0  0  0  0  0  0  0  0  # atno 17394 bound_to 11000
  141.1636  133.6537  156.4403 LP  0  0  0  0  0  0  0  0  0  0  0  0  # atno 17395 bound_to 11000

$$$$
