AV-unprocessed.smi:763|AV-procd|sdf|3641|dock5
  -GOLD-   22720 1 43D 1   1.00000     0.00000
 Structure written by MMmdl.
 43 44  0  0  0  0  0  0  0  0  2 V2000
  147.0883  136.7769  162.6645 C   0  0  0  0  0  0  0  0  0  0  0  0
  147.6093  137.1263  161.3942 O   0  0  0  0  0  0  0  0  0  0  0  0
  148.2974  136.0515  160.7761 C   0  0  0  0  0  0  0  0  0  0  0  0
  148.0547  136.1024  159.2654 C   0  0  0  0  0  0  0  0  0  0  0  0
  149.1183  136.8316  158.6624 O   0  0  0  0  0  0  0  0  0  0  0  0
  149.5453  136.4708  157.3973 C   0  0  0  0  0  0  0  0  0  0  0  0
  149.1259  135.2796  156.8999 N   0  0  0  0  0  0  0  0  0  0  0  0
  149.5349  134.9167  155.6690 C   0  0  0  0  0  0  0  0  0  0  0  0
  150.3759  135.7142  154.8758 C   0  0  0  0  0  0  0  0  0  0  0  0
  150.8076  136.9476  155.3957 C   0  0  0  0  0  0  0  0  0  0  0  0
  150.3948  137.3570  156.6875 C   0  0  0  0  0  0  0  0  0  0  0  0
  150.7710  138.5208  157.2439 N   0  5  0  0  0  0  0  0  0  0  0  0
  151.6283  139.6973  156.5357 S   0  0  0  0  0  0  0  0  0  0  0  0
  153.0534  139.3447  156.4402 O   0  0  0  0  0  0  0  0  0  0  0  0
  150.9739  140.1782  155.3091 O   0  0  0  0  0  0  0  0  0  0  0  0
  151.4941  141.0726  157.7826 C   0  0  1  0  0  0  0  0  0  0  0  0
  152.7881  141.1638  158.6195 C   0  0  0  0  0  0  0  0  0  0  0  0
  152.7201  142.2956  159.6557 C   0  0  0  0  0  0  0  0  0  0  0  0
  152.4045  143.6395  158.9840 C   0  0  0  0  0  0  0  0  0  0  0  0
  151.0907  143.5608  158.1935 C   0  0  0  0  0  0  0  0  0  0  0  0
  151.1259  142.4359  157.1420 C   0  0  2  0  0  0  0  0  0  0  0  0
  149.8509  142.3825  156.5351 O   0  0  0  0  0  0  0  0  0  0  0  0
  146.5716  137.6334  163.0975 H   0  0  0  0  0  0  0  0  0  0  0  0
  147.8843  136.4826  163.3498 H   0  0  0  0  0  0  0  0  0  0  0  0
  146.3734  135.9568  162.5855 H   0  0  0  0  0  0  0  0  0  0  0  0
  149.3666  136.1231  160.9828 H   0  0  0  0  0  0  0  0  0  0  0  0
  147.9464  135.0995  161.1775 H   0  0  0  0  0  0  0  0  0  0  0  0
  148.0115  135.0885  158.8648 H   0  0  0  0  0  0  0  0  0  0  0  0
  147.0993  136.5894  159.0632 H   0  0  0  0  0  0  0  0  0  0  0  0
  149.1813  133.9629  155.3063 H   0  0  0  0  0  0  0  0  0  0  0  0
  150.6834  135.3900  153.8928 H   0  0  0  0  0  0  0  0  0  0  0  0
  151.4537  137.5667  154.7911 H   0  0  0  0  0  0  0  0  0  0  0  0
  150.6876  140.7828  158.4570 H   0  0  0  0  0  0  0  0  0  0  0  0
  152.9749  140.2178  159.1278 H   0  0  0  0  0  0  0  0  0  0  0  0
  153.6427  141.3329  157.9637 H   0  0  0  0  0  0  0  0  0  0  0  0
  151.9550  142.0673  160.3989 H   0  0  0  0  0  0  0  0  0  0  0  0
  153.6655  142.3624  160.1947 H   0  0  0  0  0  0  0  0  0  0  0  0
  152.3382  144.4252  159.7369 H   0  0  0  0  0  0  0  0  0  0  0  0
  153.2199  143.9172  158.3148 H   0  0  0  0  0  0  0  0  0  0  0  0
  150.2657  143.3921  158.8874 H   0  0  0  0  0  0  0  0  0  0  0  0
  150.8952  144.5183  157.7091 H   0  0  0  0  0  0  0  0  0  0  0  0
  151.8570  142.6963  156.3763 H   0  0  0  0  0  0  0  0  0  0  0  0
  149.5419  143.2689  156.4163 H   0  0  0  0  0  0  0  0  0  0  0  0
  1  2  1  0  0  0  0
  1 23  1  0  0  0  0
  1 24  1  0  0  0  0
  1 25  1  0  0  0  0
  2  3  1  0  0  0  0
  3  4  1  0  0  0  0
  3 26  1  0  0  0  0
  3 27  1  0  0  0  0
  4  5  1  0  0  0  0
  4 28  1  0  0  0  0
  4 29  1  0  0  0  0
  5  6  1  0  0  0  0
  6 11  1  0  0  0  0
  6  7  2  0  0  0  0
  7  8  1  0  0  0  0
  8  9  2  0  0  0  0
  8 30  1  0  0  0  0
  9 10  1  0  0  0  0
  9 31  1  0  0  0  0
 10 11  2  0  0  0  0
 10 32  1  0  0  0  0
 11 12  1  0  0  0  0
 12 13  1  0  0  0  0
 13 14  2  0  0  0  0
 13 15  2  0  0  0  0
 13 16  1  0  0  0  0
 16 21  1  0  0  0  0
 16 17  1  0  0  0  0
 16 33  1  0  0  0  0
 17 18  1  0  0  0  0
 17 34  1  0  0  0  0
 17 35  1  0  0  0  0
 18 19  1  0  0  0  0
 18 36  1  0  0  0  0
 18 37  1  0  0  0  0
 19 20  1  0  0  0  0
 19 38  1  0  0  0  0
 19 39  1  0  0  0  0
 20 21  1  0  0  0  0
 20 40  1  0  0  0  0
 20 41  1  0  0  0  0
 21 22  1  0  0  0  0
 21 42  1  0  0  0  0
 22 43  1  0  0  0  0
M  CHG  1  12  -1
M  END
> <s_m_source_file>
AV-unprocessed.smi

> <i_m_source_file_index>
763

> <i_lp_mmshare_version>
43012

> <i_f3d_flags>
0

> <s_epik_input>
W0NIM11PW0NIMl1bQ0gyXU9jMW5bY0hdW2NIXVtjSF1jMVtOSF1TKD1PKSg9TylbQ0BASF0yW0NIMl1bQ0gyXVtDSDJdW0NIMl1bQ0BIXTJbT0hd

> <s_epik_cmdline>
J2VwaWtfcHl0aG9uJywgJy1waCcsICc3LjAnLCAnLXRuJywgJzgnLCAnLW1hJywgJzIwMCcsICctbWV0YWxfYmluZGluZycsICctaW1hZScsICc8aW5maWxlLm1hZT4nLCAnLW9tYWUnLCAnPG91dGZpbGUubWFlPic=

> <r_epik_Ionization_Penalty>
0.985866

> <r_epik_Ionization_Penalty_Charging>
0.984689

> <r_epik_Ionization_Penalty_Neutral>
0.00117669

> <r_epik_State_Penalty>
1.03185

> <r_epik_Charging_Adjusted_Penalty>
2.01654

> <i_epik_Tot_Q>
-1

> <i_epik_Tot_abs_Q>
1

> <r_epik_Metal_State_Penalty>
0.379327

> <b_epik_Metal_Only>
0

> <s_lp_Force_Field>
OPLS_2005

> <r_lp_Energy>
12.3321

> <b_lp_Chiralities_Consistent>
1

> <s_lp_Variant>
AV-unprocessed.smi:763-8

> <Gold.Version>
5.8.1

> <Gold.Id.Protein>
6NUR|6NUR_protein|mol2

> <Gold.PLP.Fitness>
48.9527

> <Gold.PLP.PLP>
-37.2270

> <Gold.PLP.part.hbond>
-4.8114

> <Gold.PLP.part.metal>
0.0000

> <Gold.PLP.part.buried>
-6.2149

> <Gold.PLP.part.nonpolar>
-26.6380

> <Gold.PLP.part.repulsive>
0.0314

> <Gold.PLP.ligand.clash>
0.0000

> <Gold.PLP.ligand.torsion>
2.0867

> <Gold.PLP.Chemscore.Hbond>
4.8400

> <Gold.PLP.Chemscore.CHOScore>
0.0000

> <Gold.PLP.Chemscore.Metal>
0.0000

> <Gold.Chemscore.Hbonds>
donor molecule, donor type, donor heavy atom, donor atom, acceptor molecule, acceptor atom, score
      L1  H    22    43       P1  8028  1.00
      P1  H  6931  6943       L1     2  0.99
      P1  H  6934  6947       L1     2  0.85
      P1  H  7989  7998       L1    15  0.96
      P1  H  7997  8010       L1    14  1.00

> <Gold.PLP.Chemscore.Internal.Correction>
1.3791

> <Gold.Rescore>
     Score         DG    S(hbond)    S(metal)    S(lipo)     H(rot)  DE(clash)    DE(int)     intcor
     20.98     -23.26       3.82        0.00      94.50       2.35       0.04       2.24       ----

> <Gold.Chemscore.Fitness>
20.9796

> <Gold.Chemscore.DG>
-23.2626

> <Gold.Chemscore.ZeroCoef>
-5.4800

> <Gold.Chemscore.Hbond>
3.8158

> <Gold.Chemscore.Metal>
0.0000

> <Gold.Chemscore.Lipo>
94.4960

> <Gold.Chemscore.Internal_Hbond>
0.0000

> <Gold.Chemscore.DEClash>
0.0417

> <Gold.Chemscore.DEInternal>
2.2412

> <Gold.Chemscore.Rot>
2.3509

> <Gold.Chemscore.Internal.Correction>
   9.000000E+99

> <Gold.Chemscore.Hbonds>
donor molecule, donor type, donor heavy atom, donor atom, acceptor molecule, acceptor atom, score
      L1  H    22    43       P1  8028  1.00
      P1  H  6931  6943       L1     2  0.08
      P1  H  6934  6947       L1     2  0.64
      P1  H  7989  7998       L1    15  0.90
      P1  H  7997  8010       L1    14  0.92

> <Gold.Chemscore.Hbond.Weighted>
-12.7448

> <Gold.Chemscore.Metal.Weighted>
-0.0000

> <Gold.Chemscore.Lipo.Weighted>
-11.0560

> <Gold.Chemscore.Internal_Hbond.Weighted>
0.0000

> <Gold.Chemscore.DEClash.Weighted>
0.0417

> <Gold.Chemscore.DEInternal.Weighted>
2.2412

> <Gold.Chemscore.Rot.Weighted>
6.0182

> <Gold.Chemscore.Internal.Correction.Weighted>
   9.000000E+99

> <Gold.Protein.RotatedTorsions>
[ 6907 6896 6895 6894 ] final -110.62 input  -60.11 | X-H torsion
[ 7974 7965 7964 7962 ] final  153.65 input  175.53 | X-H torsion
[ 8008 7997 7996 7995 ] final   53.67 input   59.86 | X-H torsion
[ 10167 10162 10161 10158 ] final  111.88 input  -65.29 | X-H torsion
[ 10718 10713 10712 10709 ] final  -24.18 input   66.30 | X-H torsion
[ 10763 10752 10751 10750 ] final  -90.35 input  -60.55 | X-H torsion
[ 11005 11000 10999 10996 ] final   73.24 input  -57.11 | X-H torsion

> <Gold.Protein.ActiveResidues>
 VAL166  LYS551  ARG553  GLY616  TRP617  ASP618  TYR619  PRO620  LYS621  CYS622 
 ASP623  PHE694  ASN695  SER759  ASP760  ASP761  ALA762  ILE779  LEU786  VAL792 
 PHE793  MET794  SER795  GLU796  ALA797  LYS798  CYS799  TRP800  GLU811  SER814 

> <Gold.Protein.RotatedAtoms>
  150.7637  133.9354  159.3439 H   0  0  0  0  0  0  0  0  0  0  0  0  # atno 6907 bound_to 6896
  151.7257  135.0883  160.0301 H   0  0  0  0  0  0  0  0  0  0  0  0  # atno 6908 bound_to 6896
  152.3621  133.6273  159.6059 H   0  0  0  0  0  0  0  0  0  0  0  0  # atno 6909 bound_to 6896
  144.8141  139.6828  143.6129 H   0  0  0  0  0  0  0  0  0  0  0  0  # atno 7974 bound_to 7965
  155.4721  140.3465  155.4327 H   0  0  0  0  0  0  0  0  0  0  0  0  # atno 8008 bound_to 7997
  156.1094  140.1456  156.9389 H   0  0  0  0  0  0  0  0  0  0  0  0  # atno 8009 bound_to 7997
  154.4746  140.0889  156.7208 H   0  0  0  0  0  0  0  0  0  0  0  0  # atno 8010 bound_to 7997
  139.6577  144.7129  151.1924 H   0  0  0  0  0  0  0  0  0  0  0  0  # atno 10167 bound_to 10162
  156.4811  130.4545  149.6811 H   0  0  0  0  0  0  0  0  0  0  0  0  # atno 10718 bound_to 10713
  154.6648  135.5307  153.8064 H   0  0  0  0  0  0  0  0  0  0  0  0  # atno 10763 bound_to 10752
  153.0464  135.6514  154.0815 H   0  0  0  0  0  0  0  0  0  0  0  0  # atno 10764 bound_to 10752
  154.0720  135.2953  155.3286 H   0  0  0  0  0  0  0  0  0  0  0  0  # atno 10765 bound_to 10752
  139.9450  134.7330  156.1003 H   0  0  0  0  0  0  0  0  0  0  0  0  # atno 11005 bound_to 11000
  146.2442  139.6064  142.9471 LP  0  0  0  0  0  0  0  0  0  0  0  0  # atno 17320 bound_to 7965
  145.5256  141.0430  143.2411 LP  0  0  0  0  0  0  0  0  0  0  0  0  # atno 17321 bound_to 7965
  140.7566  143.6045  150.8667 LP  0  0  0  0  0  0  0  0  0  0  0  0  # atno 17342 bound_to 10162
  139.9699  143.6068  152.2977 LP  0  0  0  0  0  0  0  0  0  0  0  0  # atno 17343 bound_to 10162
  156.3520  130.7437  151.2398 LP  0  0  0  0  0  0  0  0  0  0  0  0  # atno 17370 bound_to 10713
  157.7483  131.0374  150.4455 LP  0  0  0  0  0  0  0  0  0  0  0  0  # atno 17371 bound_to 10713
  141.1097  133.6647  156.2949 LP  0  0  0  0  0  0  0  0  0  0  0  0  # atno 17394 bound_to 11000
  140.5858  134.5700  157.5489 LP  0  0  0  0  0  0  0  0  0  0  0  0  # atno 17395 bound_to 11000

$$$$
