AV-unprocessed.smi:703|AV-procd|sdf|3438|dock3
  -GOLD-   22720 0423D 1   1.00000     0.00000
 Structure written by MMmdl.
 37 38  0  0  0  0  0  0  0  0  3 V2000
  147.0803  140.4367  153.8094 C   0  0  0  0  0  0  0  0  0  0  0  0
  147.4409  139.1460  153.0619 C   0  0  0  0  0  0  0  0  0  0  0  0
  148.5132  138.3875  153.7485 N   0  3  1  0  0  0  0  0  0  0  0  0
  149.7818  139.1305  153.8989 C   0  0  0  0  0  0  0  0  0  0  0  0
  150.4868  138.4780  155.0911 C   0  0  1  0  0  0  0  0  0  0  0  0
  151.5998  139.3547  155.6977 C   0  0  0  0  0  0  0  0  0  0  0  0
  149.3148  138.1508  156.0306 C   0  0  2  0  0  0  0  0  0  0  0  0
  149.6298  137.0318  156.9041 N   0  5  0  0  0  0  0  0  0  0  0  0
  149.5529  137.2245  158.5130 S   0  0  0  0  0  0  0  0  0  0  0  0
  150.6755  136.5812  159.2154 O   0  0  0  0  0  0  0  0  0  0  0  0
  149.2388  138.6135  158.8855 O   0  0  0  0  0  0  0  0  0  0  0  0
  148.0421  136.2400  158.9130 C   0  0  0  0  0  0  0  0  0  0  0  0
  147.7080  136.3478  160.3759 C   0  0  0  0  0  0  0  0  0  0  0  0
  147.6125  135.3078  161.3421 C   0  0  0  0  0  0  0  0  0  0  0  0
  147.2869  135.9683  162.4913 C   0  0  0  0  0  0  0  0  0  0  0  0
  147.1987  137.3032  162.2638 O   0  0  0  0  0  0  0  0  0  0  0  0
  147.4743  137.5364  160.9117 N   0  0  0  0  0  0  0  0  0  0  0  0
  148.1496  137.8339  155.0761 C   0  0  0  0  0  0  0  0  0  0  0  0
  146.2613  140.9547  153.3100 H   0  0  0  0  0  0  0  0  0  0  0  0
  147.9243  141.1255  153.8546 H   0  0  0  0  0  0  0  0  0  0  0  0
  146.7647  140.2250  154.8313 H   0  0  0  0  0  0  0  0  0  0  0  0
  146.5520  138.5167  153.0012 H   0  0  0  0  0  0  0  0  0  0  0  0
  147.7401  139.3679  152.0364 H   0  0  0  0  0  0  0  0  0  0  0  0
  150.3778  139.0731  152.9873 H   0  0  0  0  0  0  0  0  0  0  0  0
  149.5798  140.1884  154.0904 H   0  0  0  0  0  0  0  0  0  0  0  0
  150.9330  137.5447  154.7410 H   0  0  0  0  0  0  0  0  0  0  0  0
  151.2256  140.3199  156.0437 H   0  0  0  0  0  0  0  0  0  0  0  0
  152.3726  139.5559  154.9556 H   0  0  0  0  0  0  0  0  0  0  0  0
  152.0869  138.8631  156.5418 H   0  0  0  0  0  0  0  0  0  0  0  0
  149.0655  139.0545  156.5888 H   0  0  0  0  0  0  0  0  0  0  0  0
  147.2232  136.6347  158.3123 H   0  0  0  0  0  0  0  0  0  0  0  0
  148.2049  135.2073  158.6037 H   0  0  0  0  0  0  0  0  0  0  0  0
  147.7512  134.2451  161.2087 H   0  0  0  0  0  0  0  0  0  0  0  0
  147.0956  135.6457  163.5039 H   0  0  0  0  0  0  0  0  0  0  0  0
  147.2212  138.2579  155.4614 H   0  0  0  0  0  0  0  0  0  0  0  0
  147.9924  136.7607  154.9571 H   0  0  0  0  0  0  0  0  0  0  0  0
  148.7322  137.5895  153.1695 H   0  0  0  0  0  0  0  0  0  0  0  0
  1  2  1  0  0  0  0
  1 19  1  0  0  0  0
  1 20  1  0  0  0  0
  1 21  1  0  0  0  0
  2  3  1  0  0  0  0
  2 22  1  0  0  0  0
  2 23  1  0  0  0  0
  3 18  1  0  0  0  0
  3  4  1  0  0  0  0
  3 37  1  0  0  0  0
  4  5  1  0  0  0  0
  4 24  1  0  0  0  0
  4 25  1  0  0  0  0
  5  6  1  0  0  0  0
  5  7  1  0  0  0  0
  5 26  1  0  0  0  0
  6 27  1  0  0  0  0
  6 28  1  0  0  0  0
  6 29  1  0  0  0  0
  7  8  1  0  0  0  0
  7 18  1  0  0  0  0
  7 30  1  0  0  0  0
  8  9  1  0  0  0  0
  9 10  2  0  0  0  0
  9 11  2  0  0  0  0
  9 12  1  0  0  0  0
 12 13  1  0  0  0  0
 12 31  1  0  0  0  0
 12 32  1  0  0  0  0
 13 17  2  0  0  0  0
 13 14  1  0  0  0  0
 14 15  2  0  0  0  0
 14 33  1  0  0  0  0
 15 16  1  0  0  0  0
 15 34  1  0  0  0  0
 16 17  1  0  0  0  0
 18 35  1  0  0  0  0
 18 36  1  0  0  0  0
M  CHG  1   3   1
M  CHG  1   8  -1
M  END
> <s_m_source_file>
AV-unprocessed.smi

> <i_m_source_file_index>
703

> <i_lp_mmshare_version>
43012

> <i_f3d_flags>
0

> <s_epik_input>
W0NIM11bQ0gyXU4xW0NIMl1bQ0BASF0oW0NIM10pW0NASF0oW0NIMl0xKVtOSF1TKD1PKSg9TylbQ0gyXWMyW2NIXVtjSF1vbjI=

> <s_epik_cmdline>
J2VwaWtfcHl0aG9uJywgJy1waCcsICc3LjAnLCAnLXRuJywgJzgnLCAnLW1hJywgJzIwMCcsICctbWV0YWxfYmluZGluZycsICctaW1hZScsICc8aW5maWxlLm1hZT4nLCAnLW9tYWUnLCAnPG91dGZpbGUubWFlPic=

> <r_epik_Ionization_Penalty>
3.62494

> <r_epik_Ionization_Penalty_Charging>
3.62494

> <r_epik_Ionization_Penalty_Neutral>
2.0321e-10

> <r_epik_State_Penalty>
3.62558

> <r_epik_Charging_Adjusted_Penalty>
7.25052

> <i_epik_Tot_Q>
0

> <i_epik_Tot_abs_Q>
2

> <r_epik_Metal_State_Penalty>
0.530836

> <b_epik_Metal_Only>
1

> <s_lp_Force_Field>
OPLS_2005

> <r_lp_Energy>
15.7429

> <b_lp_Chiralities_Consistent>
1

> <s_lp_Variant>
AV-unprocessed.smi:703-13

> <Gold.Version>
5.8.1

> <Gold.Id.Protein>
6NUR|6NUR_protein|mol2

> <Gold.PLP.Fitness>
39.8453

> <Gold.PLP.PLP>
-28.1716

> <Gold.PLP.part.hbond>
-7.5206

> <Gold.PLP.part.metal>
0.0000

> <Gold.PLP.part.buried>
-0.0159

> <Gold.PLP.part.nonpolar>
-20.7354

> <Gold.PLP.part.repulsive>
0.0158

> <Gold.PLP.ligand.clash>
0.0000

> <Gold.PLP.ligand.torsion>
0.5460

> <Gold.PLP.Chemscore.Hbond>
3.9120

> <Gold.PLP.Chemscore.CHOScore>
0.0000

> <Gold.PLP.Chemscore.Metal>
0.0000

> <Gold.Chemscore.Hbonds>
donor molecule, donor type, donor heavy atom, donor atom, acceptor molecule, acceptor atom, score
      L1  H     3    37       P1  7948  2.00
      P1  H  6896  6908       L1    10  1.00
      P1  H  6934  6947       L1    17  0.81

> <Gold.PLP.Chemscore.Internal.Correction>
1.0297

> <Gold.Rescore>
     Score         DG    S(hbond)    S(metal)    S(lipo)     H(rot)  DE(clash)    DE(int)     intcor
     15.98     -17.59       2.73        0.00      61.36       1.63       0.36       1.25       ----

> <Gold.Chemscore.Fitness>
15.9816

> <Gold.Chemscore.DG>
-17.5910

> <Gold.Chemscore.ZeroCoef>
-5.4800

> <Gold.Chemscore.Hbond>
2.7288

> <Gold.Chemscore.Metal>
0.0000

> <Gold.Chemscore.Lipo>
61.3625

> <Gold.Chemscore.Internal_Hbond>
0.0000

> <Gold.Chemscore.DEClash>
0.3634

> <Gold.Chemscore.DEInternal>
1.2461

> <Gold.Chemscore.Rot>
1.6338

> <Gold.Chemscore.Internal.Correction>
   9.000000E+99

> <Gold.Chemscore.Hbonds>
donor molecule, donor type, donor heavy atom, donor atom, acceptor molecule, acceptor atom, score
      L1  H     3    37       P1  7948  1.00
      P1  H  6896  6908       L1    10  0.97
      P1  H  6934  6947       L1    17  0.12

> <Gold.Chemscore.Hbond.Weighted>
-9.1141

> <Gold.Chemscore.Metal.Weighted>
-0.0000

> <Gold.Chemscore.Lipo.Weighted>
-7.1794

> <Gold.Chemscore.Internal_Hbond.Weighted>
0.0000

> <Gold.Chemscore.DEClash.Weighted>
0.3634

> <Gold.Chemscore.DEInternal.Weighted>
1.2461

> <Gold.Chemscore.Rot.Weighted>
4.1825

> <Gold.Chemscore.Internal.Correction.Weighted>
   9.000000E+99

> <Gold.Protein.RotatedTorsions>
[ 6907 6896 6895 6894 ] final -133.14 input  -60.11 | X-H torsion
[ 7974 7965 7964 7962 ] final  107.51 input  175.53 | X-H torsion
[ 8008 7997 7996 7995 ] final  -97.49 input   59.86 | X-H torsion
[ 10167 10162 10161 10158 ] final   71.24 input  -65.29 | X-H torsion
[ 10718 10713 10712 10709 ] final   98.52 input   66.30 | X-H torsion
[ 10763 10752 10751 10750 ] final -168.73 input  -60.55 | X-H torsion
[ 11005 11000 10999 10996 ] final -126.91 input  -57.11 | X-H torsion

> <Gold.Protein.ActiveResidues>
 VAL166  LYS551  ARG553  GLY616  TRP617  ASP618  TYR619  PRO620  LYS621  CYS622 
 ASP623  PHE694  ASN695  SER759  ASP760  ASP761  ALA762  ILE779  LEU786  VAL792 
 PHE793  MET794  SER795  GLU796  ALA797  LYS798  CYS799  TRP800  GLU811  SER814 

> <Gold.Protein.RotatedAtoms>
  150.9705  133.6348  159.2738 H   0  0  0  0  0  0  0  0  0  0  0  0  # atno 6907 bound_to 6896
  151.3639  135.0908  159.9453 H   0  0  0  0  0  0  0  0  0  0  0  0  # atno 6908 bound_to 6896
  152.5181  133.9273  159.7618 H   0  0  0  0  0  0  0  0  0  0  0  0  # atno 6909 bound_to 6896
  145.2927  139.2595  143.3856 H   0  0  0  0  0  0  0  0  0  0  0  0  # atno 7974 bound_to 7965
  154.7885  140.0462  157.1182 H   0  0  0  0  0  0  0  0  0  0  0  0  # atno 8008 bound_to 7997
  154.9620  140.3078  155.5007 H   0  0  0  0  0  0  0  0  0  0  0  0  # atno 8009 bound_to 7997
  156.2946  140.2269  156.4706 H   0  0  0  0  0  0  0  0  0  0  0  0  # atno 8010 bound_to 7997
  140.0483  144.5333  150.7382 H   0  0  0  0  0  0  0  0  0  0  0  0  # atno 10167 bound_to 10162
  157.6894  131.0642  150.4808 H   0  0  0  0  0  0  0  0  0  0  0  0  # atno 10718 bound_to 10713
  154.6598  135.2923  154.9881 H   0  0  0  0  0  0  0  0  0  0  0  0  # atno 10763 bound_to 10752
  154.0944  135.6586  153.4862 H   0  0  0  0  0  0  0  0  0  0  0  0  # atno 10764 bound_to 10752
  153.0423  135.5227  154.7544 H   0  0  0  0  0  0  0  0  0  0  0  0  # atno 10765 bound_to 10752
  140.9642  134.0894  157.3937 H   0  0  0  0  0  0  0  0  0  0  0  0  # atno 11005 bound_to 11000
  146.3179  140.3421  142.8649 LP  0  0  0  0  0  0  0  0  0  0  0  0  # atno 17320 bound_to 7965
  144.9159  140.7812  143.5778 LP  0  0  0  0  0  0  0  0  0  0  0  0  # atno 17321 bound_to 7965
  140.7228  143.2606  151.4220 LP  0  0  0  0  0  0  0  0  0  0  0  0  # atno 17342 bound_to 10162
  139.5969  144.1378  152.2154 LP  0  0  0  0  0  0  0  0  0  0  0  0  # atno 17343 bound_to 10162
  156.5140  130.4146  149.6285 LP  0  0  0  0  0  0  0  0  0  0  0  0  # atno 17370 bound_to 10713
  156.3214  130.7282  151.2195 LP  0  0  0  0  0  0  0  0  0  0  0  0  # atno 17371 bound_to 10713
  139.8889  135.0101  156.6646 LP  0  0  0  0  0  0  0  0  0  0  0  0  # atno 17394 bound_to 11000
  140.7423  133.8967  155.8287 LP  0  0  0  0  0  0  0  0  0  0  0  0  # atno 17395 bound_to 11000

$$$$
