AV-unprocessed.smi:3194|AV-procd|sdf|12212|dock9
  -GOLD-   2272018 53D 1   1.00000     0.00000
 Structure written by MMmdl.
 27 27  0  0  0  0  0  0  0  0  2 V2000
  148.0540  141.4634  154.5885 C   0  0  0  0  0  0  0  0  0  0  0  0
  149.3783  140.6872  154.6313 C   0  0  2  0  0  0  0  0  0  0  0  0
  149.1322  139.1667  154.6924 C   0  0  0  0  0  0  0  0  0  0  0  0
  148.5915  138.6831  153.4781 O   0  0  0  0  0  0  0  0  0  0  0  0
  150.1322  141.1104  155.8132 N   0  5  0  0  0  0  0  0  0  0  0  0
  151.2865  140.5228  156.2435 C   0  0  0  0  0  0  0  0  0  0  0  0
  152.2246  140.0484  155.5925 O   0  0  0  0  0  0  0  0  0  0  0  0
  151.3580  140.4655  157.7841 C   0  0  0  0  0  0  0  0  0  0  0  0
  150.2715  139.8435  158.2502 F   0  0  0  0  0  0  0  0  0  0  0  0
  152.4192  139.7417  158.1548 F   0  0  0  0  0  0  0  0  0  0  0  0
  151.4327  141.8731  158.3757 C   0  0  0  0  0  0  0  0  0  0  0  0
  152.5482  142.2829  159.1424 C   0  0  0  0  0  0  0  0  0  0  0  0
  152.5761  143.5964  159.6478 C   0  0  0  0  0  0  0  0  0  0  0  0
  151.4929  144.4525  159.3737 C   0  0  0  0  0  0  0  0  0  0  0  0
  150.4262  143.9538  158.6006 C   0  0  0  0  0  0  0  0  0  0  0  0
  150.3892  142.6965  158.1112 N   0  0  0  0  0  0  0  0  0  0  0  0
  149.9063  140.9025  153.7006 H   0  0  0  0  0  0  0  0  0  0  0  0
  147.4658  141.1834  153.7143 H   0  0  0  0  0  0  0  0  0  0  0  0
  148.2293  142.5385  154.5336 H   0  0  0  0  0  0  0  0  0  0  0  0
  147.4468  141.2683  155.4734 H   0  0  0  0  0  0  0  0  0  0  0  0
  150.0561  138.6300  154.9121 H   0  0  0  0  0  0  0  0  0  0  0  0
  148.4289  138.9305  155.4912 H   0  0  0  0  0  0  0  0  0  0  0  0
  149.1634  138.9410  152.7724 H   0  0  0  0  0  0  0  0  0  0  0  0
  153.3724  141.6103  159.3278 H   0  0  0  0  0  0  0  0  0  0  0  0
  153.4156  143.9418  160.2329 H   0  0  0  0  0  0  0  0  0  0  0  0
  151.4807  145.4667  159.7435 H   0  0  0  0  0  0  0  0  0  0  0  0
  149.5789  144.5822  158.3692 H   0  0  0  0  0  0  0  0  0  0  0  0
  1  2  1  0  0  0  0
  1 18  1  0  0  0  0
  1 19  1  0  0  0  0
  1 20  1  0  0  0  0
  2 17  1  0  0  0  0
  2  3  1  0  0  0  0
  2  5  1  0  0  0  0
  3  4  1  0  0  0  0
  3 21  1  0  0  0  0
  3 22  1  0  0  0  0
  4 23  1  0  0  0  0
  5  6  1  0  0  0  0
  6  7  2  0  0  0  0
  6  8  1  0  0  0  0
  8  9  1  0  0  0  0
  8 10  1  0  0  0  0
  8 11  1  0  0  0  0
 11 16  1  0  0  0  0
 11 12  2  0  0  0  0
 12 13  1  0  0  0  0
 12 24  1  0  0  0  0
 13 14  2  0  0  0  0
 13 25  1  0  0  0  0
 14 15  1  0  0  0  0
 14 26  1  0  0  0  0
 15 16  2  0  0  0  0
 15 27  1  0  0  0  0
M  CHG  1   5  -1
M  END
> <s_m_source_file>
AV-unprocessed.smi

> <i_m_source_file_index>
3194

> <i_lp_mmshare_version>
43012

> <i_f3d_flags>
0

> <s_epik_input>
W09IXVtDSDJdW0NASF0oW0NIM10pW05IXUMoPU8pQyhGKShGKWMxW2NIXVtjSF1bY0hdW2NIXW4x

> <s_epik_cmdline>
J2VwaWtfcHl0aG9uJywgJy1waCcsICc3LjAnLCAnLXRuJywgJzgnLCAnLW1hJywgJzIwMCcsICctbWV0YWxfYmluZGluZycsICctaW1hZScsICc8aW5maWxlLm1hZT4nLCAnLW9tYWUnLCAnPG91dGZpbGUubWFlPic=

> <r_lp_tautomer_probability>
1

> <r_epik_Ionization_Penalty>
5.78943

> <r_epik_Ionization_Penalty_Charging>
5.78942

> <r_epik_Ionization_Penalty_Neutral>
4.0054e-06

> <r_epik_State_Penalty>
5.78939

> <r_epik_Charging_Adjusted_Penalty>
11.5788

> <i_epik_Tot_Q>
-1

> <i_epik_Tot_abs_Q>
1

> <r_epik_Metal_State_Penalty>
1.76064

> <b_epik_Metal_Only>
1

> <s_lp_Force_Field>
OPLS_2005

> <r_lp_Energy>
16.8834

> <b_lp_Chiralities_Consistent>
1

> <s_lp_Variant>
AV-unprocessed.smi:3194-4

> <Gold.Version>
5.8.1

> <Gold.Id.Protein>
6NUR|6NUR_protein|mol2

> <Gold.PLP.Fitness>
42.4978

> <Gold.PLP.PLP>
-34.4885

> <Gold.PLP.part.hbond>
-3.5760

> <Gold.PLP.part.metal>
0.0000

> <Gold.PLP.part.buried>
-2.4273

> <Gold.PLP.part.nonpolar>
-28.4030

> <Gold.PLP.part.repulsive>
0.2046

> <Gold.PLP.ligand.clash>
0.7460

> <Gold.PLP.ligand.torsion>
0.4830

> <Gold.PLP.Chemscore.Hbond>
2.1334

> <Gold.PLP.Chemscore.CHOScore>
1.0928

> <Gold.PLP.Chemscore.Metal>
0.0000

> <Gold.Chemscore.Hbonds>
donor molecule, donor type, donor heavy atom, donor atom, acceptor molecule, acceptor atom, score
      L1  H     4    23       P1  7957  1.00
      P1  H  7989  7998       L1     7  0.21
      P1  H  7997  8010       L1     7  0.55
      L1  C    15    27       P1  8028  0.08
      L1  C    15    27       P1  8029  1.00

> <Gold.PLP.Chemscore.Internal.Correction>
0.0426

> <Gold.Rescore>
     Score         DG    S(hbond)    S(metal)    S(lipo)     H(rot)  DE(clash)    DE(int)     intcor
     12.89     -15.08       1.99        0.00      78.36       2.43       0.12       2.07       ----

> <Gold.Chemscore.Fitness>
12.8903

> <Gold.Chemscore.DG>
-15.0822

> <Gold.Chemscore.ZeroCoef>
-5.4800

> <Gold.Chemscore.Hbond>
1.9907

> <Gold.Chemscore.Metal>
0.0000

> <Gold.Chemscore.Lipo>
78.3610

> <Gold.Chemscore.Internal_Hbond>
0.0000

> <Gold.Chemscore.DEClash>
0.1211

> <Gold.Chemscore.DEInternal>
2.0709

> <Gold.Chemscore.Rot>
2.4277

> <Gold.Chemscore.Internal.Correction>
   9.000000E+99

> <Gold.Chemscore.Hbonds>
donor molecule, donor type, donor heavy atom, donor atom, acceptor molecule, acceptor atom, score
      L1  H     4    23       P1  7957  0.93
      P1  H  7989  7998       L1     7  0.05
      P1  H  7997  8010       L1     7  0.56

> <Gold.Chemscore.Hbond.Weighted>
-6.6489

> <Gold.Chemscore.Metal.Weighted>
-0.0000

> <Gold.Chemscore.Lipo.Weighted>
-9.1682

> <Gold.Chemscore.Internal_Hbond.Weighted>
0.0000

> <Gold.Chemscore.DEClash.Weighted>
0.1211

> <Gold.Chemscore.DEInternal.Weighted>
2.0709

> <Gold.Chemscore.Rot.Weighted>
6.2149

> <Gold.Chemscore.Internal.Correction.Weighted>
   9.000000E+99

> <Gold.Protein.RotatedTorsions>
[ 6907 6896 6895 6894 ] final   -5.02 input  -60.11 | X-H torsion
[ 7974 7965 7964 7962 ] final  -78.12 input  175.53 | X-H torsion
[ 8008 7997 7996 7995 ] final   94.41 input   59.86 | X-H torsion
[ 10167 10162 10161 10158 ] final  131.78 input  -65.29 | X-H torsion
[ 10718 10713 10712 10709 ] final  -98.78 input   66.30 | X-H torsion
[ 10763 10752 10751 10750 ] final   34.17 input  -60.55 | X-H torsion
[ 11005 11000 10999 10996 ] final  -85.91 input  -57.11 | X-H torsion

> <Gold.Protein.ActiveResidues>
 VAL166  LYS551  ARG553  GLY616  TRP617  ASP618  TYR619  PRO620  LYS621  CYS622 
 ASP623  PHE694  ASN695  SER759  ASP760  ASP761  ALA762  ILE779  LEU786  VAL792 
 PHE793  MET794  SER795  GLU796  ALA797  LYS798  CYS799  TRP800  GLU811  SER814 

> <Gold.Protein.RotatedAtoms>
  151.4882  135.1056  159.9796 H   0  0  0  0  0  0  0  0  0  0  0  0  # atno 6907 bound_to 6896
  152.4752  133.8117  159.7017 H   0  0  0  0  0  0  0  0  0  0  0  0  # atno 6908 bound_to 6896
  150.8785  133.7343  159.2965 H   0  0  0  0  0  0  0  0  0  0  0  0  # atno 6909 bound_to 6896
  145.5907  140.9430  143.1294 H   0  0  0  0  0  0  0  0  0  0  0  0  # atno 7974 bound_to 7965
  156.0576  140.3300  155.7424 H   0  0  0  0  0  0  0  0  0  0  0  0  # atno 8008 bound_to 7997
  155.5504  140.0610  157.2868 H   0  0  0  0  0  0  0  0  0  0  0  0  # atno 8009 bound_to 7997
  154.4466  140.1895  156.0669 H   0  0  0  0  0  0  0  0  0  0  0  0  # atno 8010 bound_to 7997
  139.5368  144.6691  151.4757 H   0  0  0  0  0  0  0  0  0  0  0  0  # atno 10167 bound_to 10162
  156.0116  130.5253  150.6574 H   0  0  0  0  0  0  0  0  0  0  0  0  # atno 10718 bound_to 10713
  153.0176  135.6367  154.1627 H   0  0  0  0  0  0  0  0  0  0  0  0  # atno 10763 bound_to 10752
  154.1365  135.2837  155.3173 H   0  0  0  0  0  0  0  0  0  0  0  0  # atno 10764 bound_to 10752
  154.6156  135.5542  153.7581 H   0  0  0  0  0  0  0  0  0  0  0  0  # atno 10765 bound_to 10752
  141.1636  133.7425  156.9084 H   0  0  0  0  0  0  0  0  0  0  0  0  # atno 11005 bound_to 11000
  144.7353  139.7605  143.7332 LP  0  0  0  0  0  0  0  0  0  0  0  0  # atno 17320 bound_to 7965
  146.1649  139.4777  142.9965 LP  0  0  0  0  0  0  0  0  0  0  0  0  # atno 17321 bound_to 7965
  140.6579  143.8560  150.6855 LP  0  0  0  0  0  0  0  0  0  0  0  0  # atno 17342 bound_to 10162
  140.1946  143.4009  152.1838 LP  0  0  0  0  0  0  0  0  0  0  0  0  # atno 17343 bound_to 10162
  157.4323  131.0851  151.1026 LP  0  0  0  0  0  0  0  0  0  0  0  0  # atno 17370 bound_to 10713
  157.1595  130.6219  149.5606 LP  0  0  0  0  0  0  0  0  0  0  0  0  # atno 17371 bound_to 10713
  140.1534  134.9215  157.2622 LP  0  0  0  0  0  0  0  0  0  0  0  0  # atno 17394 bound_to 11000
  140.2696  134.3475  155.7378 LP  0  0  0  0  0  0  0  0  0  0  0  0  # atno 17395 bound_to 11000

$$$$
