AV-unprocessed.smi:239|AV-procd|sdf|1820|dock3
  -GOLD-   2262020413D 1   1.00000     0.00000
 Structure written by MMmdl.
 54 58  0  0  0  0  0  0  0  0  1 V2000
  152.0860  145.0207  158.9341 C   0  0  0  0  0  0  0  0  0  0  0  0
  152.3628  143.5166  158.8428 C   0  0  2  0  0  0  0  0  0  0  0  0
  151.6096  142.8648  157.6703 C   0  0  0  0  0  0  0  0  0  0  0  0
  151.8129  141.4205  157.6843 N   0  0  0  0  0  0  0  0  0  0  0  0
  151.4756  140.7795  156.5360 C   0  0  0  0  0  0  0  0  0  0  0  0
  152.3309  139.8752  155.9868 N   0  0  0  0  0  0  0  0  0  0  0  0
  152.0030  139.2283  154.8647 C   0  0  0  0  0  0  0  0  0  0  0  0
  150.8896  139.3318  154.1371 N   0  0  0  0  0  0  0  0  0  0  0  0
  150.0308  140.2436  154.6758 C   0  0  0  0  0  0  0  0  0  0  0  0
  150.2438  141.0074  155.8585 C   0  0  0  0  0  0  0  0  0  0  0  0
  149.1552  141.8426  156.0820 N   0  0  0  0  0  0  0  0  0  0  0  0
  148.3390  141.5744  155.0998 C   0  0  0  0  0  0  0  0  0  0  0  0
  148.7820  140.6199  154.2129 N   0  0  0  0  0  0  0  0  0  0  0  0
  148.0765  140.1279  153.0393 C   0  0  0  0  0  0  0  0  0  0  0  0
  147.2131  138.8708  153.3100 C   0  0  0  0  0  0  0  0  0  0  0  0
  148.0813  137.8394  153.7484 O   0  0  0  0  0  0  0  0  0  0  0  0
  146.1884  139.1517  154.4273 C   0  0  0  0  0  0  0  0  0  0  0  0
  145.1973  137.9886  154.6127 C   0  0  0  0  0  0  0  0  0  0  0  0
  144.5513  137.6976  153.3794 O   0  0  0  0  0  0  0  0  0  0  0  0
  145.4579  137.2618  152.3736 C   0  0  0  0  0  0  0  0  0  0  0  0
  146.4664  138.3785  152.0506 C   0  0  0  0  0  0  0  0  0  0  0  0
  151.4380  140.8029  158.9543 C   0  0  0  0  0  0  0  0  0  0  0  0
  152.1468  141.4996  160.1316 C   0  0  1  0  0  0  0  0  0  0  0  0
  153.6216  141.1377  160.2382 C   0  0  0  0  0  0  0  0  0  0  0  0
  154.0543  139.7697  160.7106 C   0  0  0  0  0  0  0  0  0  0  0  0
  154.2771  140.9780  161.5893 C   0  0  0  0  0  0  0  0  0  0  0  0
  151.9465  142.9132  160.0673 O   0  0  0  0  0  0  0  0  0  0  0  0
  152.3984  145.5327  158.0237 H   0  0  0  0  0  0  0  0  0  0  0  0
  152.6277  145.4664  159.7687 H   0  0  0  0  0  0  0  0  0  0  0  0
  151.0239  145.2183  159.0815 H   0  0  0  0  0  0  0  0  0  0  0  0
  153.4362  143.3772  158.7104 H   0  0  0  0  0  0  0  0  0  0  0  0
  150.5409  143.0686  157.7512 H   0  0  0  0  0  0  0  0  0  0  0  0
  151.9435  143.3096  156.7339 H   0  0  0  0  0  0  0  0  0  0  0  0
  152.7370  138.5254  154.4992 H   0  0  0  0  0  0  0  0  0  0  0  0
  147.3819  142.0649  154.9964 H   0  0  0  0  0  0  0  0  0  0  0  0
  147.4569  140.9370  152.6499 H   0  0  0  0  0  0  0  0  0  0  0  0
  148.8152  139.9143  152.2657 H   0  0  0  0  0  0  0  0  0  0  0  0
  148.3854  137.3615  152.9920 H   0  0  0  0  0  0  0  0  0  0  0  0
  146.6968  139.3645  155.3685 H   0  0  0  0  0  0  0  0  0  0  0  0
  145.6209  140.0493  154.1774 H   0  0  0  0  0  0  0  0  0  0  0  0
  145.7006  137.0980  154.9919 H   0  0  0  0  0  0  0  0  0  0  0  0
  144.4401  138.2595  155.3488 H   0  0  0  0  0  0  0  0  0  0  0  0
  145.9669  136.3523  152.6965 H   0  0  0  0  0  0  0  0  0  0  0  0
  144.8909  137.0038  151.4791 H   0  0  0  0  0  0  0  0  0  0  0  0
  145.9253  139.2144  151.6052 H   0  0  0  0  0  0  0  0  0  0  0  0
  147.1678  138.0289  151.2921 H   0  0  0  0  0  0  0  0  0  0  0  0
  150.3574  140.8841  159.0802 H   0  0  0  0  0  0  0  0  0  0  0  0
  151.6831  139.7400  158.9506 H   0  0  0  0  0  0  0  0  0  0  0  0
  151.6667  141.1673  161.0527 H   0  0  0  0  0  0  0  0  0  0  0  0
  154.2460  141.5857  159.4677 H   0  0  0  0  0  0  0  0  0  0  0  0
  153.2804  139.0661  161.0114 H   0  0  0  0  0  0  0  0  0  0  0  0
  154.9264  139.3272  160.2336 H   0  0  0  0  0  0  0  0  0  0  0  0
  155.2973  141.3404  161.6981 H   0  0  0  0  0  0  0  0  0  0  0  0
  153.6491  141.0806  162.4720 H   0  0  0  0  0  0  0  0  0  0  0  0
  1  2  1  0  0  0  0
  1 28  1  0  0  0  0
  1 29  1  0  0  0  0
  1 30  1  0  0  0  0
  2 27  1  0  0  0  0
  2  3  1  0  0  0  0
  2 31  1  0  0  0  0
  3  4  1  0  0  0  0
  3 32  1  0  0  0  0
  3 33  1  0  0  0  0
  4  5  1  0  0  0  0
  4 22  1  0  0  0  0
  5 10  1  0  0  0  0
  5  6  2  0  0  0  0
  6  7  1  0  0  0  0
  7  8  2  0  0  0  0
  7 34  1  0  0  0  0
  8  9  1  0  0  0  0
  9 13  1  0  0  0  0
  9 10  2  0  0  0  0
 10 11  1  0  0  0  0
 11 12  2  0  0  0  0
 12 13  1  0  0  0  0
 12 35  1  0  0  0  0
 13 14  1  0  0  0  0
 14 15  1  0  0  0  0
 14 36  1  0  0  0  0
 14 37  1  0  0  0  0
 15 21  1  0  0  0  0
 15 16  1  0  0  0  0
 15 17  1  0  0  0  0
 16 38  1  0  0  0  0
 17 18  1  0  0  0  0
 17 39  1  0  0  0  0
 17 40  1  0  0  0  0
 18 19  1  0  0  0  0
 18 41  1  0  0  0  0
 18 42  1  0  0  0  0
 19 20  1  0  0  0  0
 20 21  1  0  0  0  0
 20 43  1  0  0  0  0
 20 44  1  0  0  0  0
 21 45  1  0  0  0  0
 21 46  1  0  0  0  0
 22 23  1  0  0  0  0
 22 47  1  0  0  0  0
 22 48  1  0  0  0  0
 23 24  1  0  0  0  0
 23 27  1  0  0  0  0
 23 49  1  0  0  0  0
 24 26  1  0  0  0  0
 24 25  1  0  0  0  0
 24 50  1  0  0  0  0
 25 26  1  0  0  0  0
 25 51  1  0  0  0  0
 25 52  1  0  0  0  0
 26 53  1  0  0  0  0
 26 54  1  0  0  0  0
M  END
> <s_m_source_file>
AV-unprocessed.smi

> <i_m_source_file_index>
239

> <i_lp_mmshare_version>
43012

> <i_f3d_flags>
0

> <s_epik_input>
W0NIMl0xW0NIMl1bQ0hdMVtDQEBIXShPMilbQ0gyXU4oW0NIMl1bQ0BIXTJbQ0gzXSljKG5bY0hdbjMpYyhjMzQpbltjSF1uNFtDSDJdQzUoW09IXSlbQ0gyXVtDSDJdT1tDSDJdW0NIMl01

> <s_epik_cmdline>
J2VwaWtfcHl0aG9uJywgJy1waCcsICc3LjAnLCAnLXRuJywgJzgnLCAnLW1hJywgJzIwMCcsICctbWV0YWxfYmluZGluZycsICctaW1hZScsICc8aW5maWxlLm1hZT4nLCAnLW9tYWUnLCAnPG91dGZpbGUubWFlPic=

> <r_lp_tautomer_probability>
1

> <r_epik_Ionization_Penalty>
9.13091e-05

> <r_epik_Ionization_Penalty_Charging>
0

> <r_epik_Ionization_Penalty_Neutral>
9.13091e-05

> <r_epik_State_Penalty>
-0

> <r_epik_Charging_Adjusted_Penalty>
0

> <i_epik_Tot_Q>
0

> <i_epik_Tot_abs_Q>
0

> <r_epik_Metal_State_Penalty>
-0

> <b_epik_Metal_Only>
0

> <s_lp_Force_Field>
OPLS_2005

> <r_lp_Energy>
39.9708

> <b_lp_Chiralities_Consistent>
1

> <s_lp_Variant>
AV-unprocessed.smi:239-1

> <Gold.Version>
5.8.1

> <Gold.Id.Protein>
6NUR|6NUR_protein|mol2

> <Gold.PLP.Fitness>
51.5940

> <Gold.PLP.PLP>
-47.0258

> <Gold.PLP.part.hbond>
-3.0000

> <Gold.PLP.part.metal>
0.0000

> <Gold.PLP.part.buried>
3.5264

> <Gold.PLP.part.nonpolar>
-48.2851

> <Gold.PLP.part.repulsive>
1.5854

> <Gold.PLP.ligand.clash>
0.0000

> <Gold.PLP.ligand.torsion>
1.4487

> <Gold.PLP.Chemscore.Hbond>
2.0250

> <Gold.PLP.Chemscore.CHOScore>
0.0000

> <Gold.PLP.Chemscore.Metal>
0.0000

> <Gold.Chemscore.Hbonds>
donor molecule, donor type, donor heavy atom, donor atom, acceptor molecule, acceptor atom, score
      L1  H    16    38       P1  7948  1.00
      P1  H  7989  7998       L1     8  0.01
      P1  H  7997  8010       L1     6  0.93

> <Gold.PLP.Chemscore.Internal.Correction>
1.3905

> <Gold.Rescore>
     Score         DG    S(hbond)    S(metal)    S(lipo)     H(rot)  DE(clash)    DE(int)     intcor
     14.98     -19.14       1.82        0.00     113.81       2.24       2.88       1.28       ----

> <Gold.Chemscore.Fitness>
14.9790

> <Gold.Chemscore.DG>
-19.1405

> <Gold.Chemscore.ZeroCoef>
-5.4800

> <Gold.Chemscore.Hbond>
1.8192

> <Gold.Chemscore.Metal>
0.0000

> <Gold.Chemscore.Lipo>
113.8074

> <Gold.Chemscore.Internal_Hbond>
0.0000

> <Gold.Chemscore.DEClash>
2.8843

> <Gold.Chemscore.DEInternal>
1.2772

> <Gold.Chemscore.Rot>
2.2387

> <Gold.Chemscore.Internal.Correction>
   9.000000E+99

> <Gold.Chemscore.Hbonds>
donor molecule, donor type, donor heavy atom, donor atom, acceptor molecule, acceptor atom, score
      L1  H    16    38       P1  7948  1.00
      P1  H  7997  8010       L1     6  0.68

> <Gold.Chemscore.Hbond.Weighted>
-6.0762

> <Gold.Chemscore.Metal.Weighted>
-0.0000

> <Gold.Chemscore.Lipo.Weighted>
-13.3155

> <Gold.Chemscore.Internal_Hbond.Weighted>
0.0000

> <Gold.Chemscore.DEClash.Weighted>
2.8843

> <Gold.Chemscore.DEInternal.Weighted>
1.2772

> <Gold.Chemscore.Rot.Weighted>
5.7311

> <Gold.Chemscore.Internal.Correction.Weighted>
   9.000000E+99

> <Gold.Protein.RotatedTorsions>
[ 6907 6896 6895 6894 ] final   -2.73 input  -60.11 | X-H torsion
[ 7974 7965 7964 7962 ] final  171.63 input  175.53 | X-H torsion
[ 8008 7997 7996 7995 ] final   91.32 input   59.86 | X-H torsion
[ 10167 10162 10161 10158 ] final   13.20 input  -65.29 | X-H torsion
[ 10718 10713 10712 10709 ] final  -24.88 input   66.30 | X-H torsion
[ 10763 10752 10751 10750 ] final   87.93 input  -60.55 | X-H torsion
[ 11005 11000 10999 10996 ] final  -65.58 input  -57.11 | X-H torsion

> <Gold.Protein.ActiveResidues>
 VAL166  LYS551  ARG553  GLY616  TRP617  ASP618  TYR619  PRO620  LYS621  CYS622 
 ASP623  PHE694  ASN695  SER759  ASP760  ASP761  ALA762  ILE779  LEU786  VAL792 
 PHE793  MET794  SER795  GLU796  ALA797  LYS798  CYS799  TRP800  GLU811  SER814 

> <Gold.Protein.RotatedAtoms>
  151.5252  135.1067  159.9888 H   0  0  0  0  0  0  0  0  0  0  0  0  # atno 6907 bound_to 6896
  152.4603  133.7804  159.6858 H   0  0  0  0  0  0  0  0  0  0  0  0  # atno 6908 bound_to 6896
  150.8562  133.7647  159.3033 H   0  0  0  0  0  0  0  0  0  0  0  0  # atno 6909 bound_to 6896
  144.7289  139.9378  143.6427 H   0  0  0  0  0  0  0  0  0  0  0  0  # atno 7974 bound_to 7965
  156.0224  140.3339  155.7052 H   0  0  0  0  0  0  0  0  0  0  0  0  # atno 8008 bound_to 7997
  155.6004  140.0655  157.2752 H   0  0  0  0  0  0  0  0  0  0  0  0  # atno 8009 bound_to 7997
  154.4321  140.1811  156.1154 H   0  0  0  0  0  0  0  0  0  0  0  0  # atno 8010 bound_to 7997
  140.6018  143.8589  150.6973 H   0  0  0  0  0  0  0  0  0  0  0  0  # atno 10167 bound_to 10162
  156.4718  130.4526  149.6864 H   0  0  0  0  0  0  0  0  0  0  0  0  # atno 10718 bound_to 10713
  153.1717  135.4525  154.9911 H   0  0  0  0  0  0  0  0  0  0  0  0  # atno 10763 bound_to 10752
  154.7970  135.3241  154.7644 H   0  0  0  0  0  0  0  0  0  0  0  0  # atno 10764 bound_to 10752
  153.8119  135.6954  153.4894 H   0  0  0  0  0  0  0  0  0  0  0  0  # atno 10765 bound_to 10752
  141.1458  133.6684  156.6007 H   0  0  0  0  0  0  0  0  0  0  0  0  # atno 11005 bound_to 11000
  146.0808  139.3795  143.0466 LP  0  0  0  0  0  0  0  0  0  0  0  0  # atno 17320 bound_to 7965
  145.7844  140.9842  143.1082 LP  0  0  0  0  0  0  0  0  0  0  0  0  # atno 17321 bound_to 7965
  140.2137  143.3863  152.1698 LP  0  0  0  0  0  0  0  0  0  0  0  0  # atno 17342 bound_to 10162
  139.5296  144.7144  151.5103 LP  0  0  0  0  0  0  0  0  0  0  0  0  # atno 17343 bound_to 10162
  156.3610  130.7481  151.2454 LP  0  0  0  0  0  0  0  0  0  0  0  0  # atno 17370 bound_to 10713
  157.7490  131.0350  150.4343 LP  0  0  0  0  0  0  0  0  0  0  0  0  # atno 17371 bound_to 10713
  140.3691  134.7622  157.4586 LP  0  0  0  0  0  0  0  0  0  0  0  0  # atno 17394 bound_to 11000
  140.0725  134.5843  155.8627 LP  0  0  0  0  0  0  0  0  0  0  0  0  # atno 17395 bound_to 11000

$$$$
