AV-unprocessed.smi:33|AV-procd|sdf|209|dock2
  -GOLD-   2262015503D 1   1.00000     0.00000
 Structure written by MMmdl.
 67 72  0  0  0  0  0  0  0  0  1 V2000
  152.8896  140.5640  159.1836 O   0  0  0  0  0  0  0  0  0  0  0  0
  152.2514  141.4846  158.6688 C   0  0  0  0  0  0  0  0  0  0  0  0
  151.5501  141.3584  157.5252 O   0  0  0  0  0  0  0  0  0  0  0  0
  151.1246  140.0774  157.0900 C   0  0  0  0  0  0  0  0  0  0  0  0
  151.5543  139.8647  155.6316 C   0  0  2  0  0  0  0  0  0  0  0  0
  150.4068  139.9086  154.7753 O   0  0  0  0  0  0  0  0  0  0  0  0
  150.1587  138.6525  154.2155 C   0  0  2  0  0  0  0  0  0  0  0  0
  148.6907  138.3713  154.2694 N   0  0  0  0  0  0  0  0  0  0  0  0
  147.6939  139.0765  153.6322 C   0  0  0  0  0  0  0  0  0  0  0  0
  146.4818  138.6291  153.8165 N   0  0  0  0  0  0  0  0  0  0  0  0
  146.6538  137.5336  154.6517 C   0  0  0  0  0  0  0  0  0  0  0  0
  145.7654  136.5931  155.2399 C   0  0  0  0  0  0  0  0  0  0  0  0
  144.4257  136.6280  155.0451 N   0  0  0  0  0  0  0  0  0  0  0  0
  143.8448  135.6090  154.1576 C   0  0  0  0  0  0  0  0  0  0  0  0
  142.6562  135.3048  154.2785 O   0  0  0  0  0  0  0  0  0  0  0  0
  144.7006  134.8948  153.1496 C   0  0  0  0  0  0  0  0  0  0  0  0
  144.4770  135.0912  151.7691 C   0  0  0  0  0  0  0  0  0  0  0  0
  145.2818  134.4338  150.8185 C   0  0  0  0  0  0  0  0  0  0  0  0
  146.3268  133.5906  151.2416 C   0  0  0  0  0  0  0  0  0  0  0  0
  146.5739  133.4133  152.6161 C   0  0  0  0  0  0  0  0  0  0  0  0
  145.7694  134.0698  153.5676 C   0  0  0  0  0  0  0  0  0  0  0  0
  143.6788  137.6919  155.7318 C   0  0  0  0  0  0  0  0  0  0  0  0
  144.1282  138.1755  156.7724 O   0  0  0  0  0  0  0  0  0  0  0  0
  142.3544  138.1599  155.1981 C   0  0  0  0  0  0  0  0  0  0  0  0
  142.0394  137.9843  153.8326 C   0  0  0  0  0  0  0  0  0  0  0  0
  140.7926  138.4062  153.3315 C   0  0  0  0  0  0  0  0  0  0  0  0
  139.8463  138.9896  154.1954 C   0  0  0  0  0  0  0  0  0  0  0  0
  140.1426  139.1413  155.5634 C   0  0  0  0  0  0  0  0  0  0  0  0
  141.3890  138.7196  156.0652 C   0  0  0  0  0  0  0  0  0  0  0  0
  146.2953  135.6185  156.0237 N   0  0  0  0  0  0  0  0  0  0  0  0
  147.6162  135.5694  156.2173 C   0  0  0  0  0  0  0  0  0  0  0  0
  148.5607  136.3767  155.7299 N   0  0  0  0  0  0  0  0  0  0  0  0
  148.0350  137.3590  154.9432 C   0  0  0  0  0  0  0  0  0  0  0  0
  150.9396  137.6416  155.0494 C   0  0  1  0  0  0  0  0  0  0  0  0
  151.3218  136.4830  154.3352 O   0  0  0  0  0  0  0  0  0  0  0  0
  152.1576  138.4758  155.4083 C   0  0  1  0  0  0  0  0  0  0  0  0
  153.0004  138.5594  154.3747 F   0  0  0  0  0  0  0  0  0  0  0  0
  152.1734  142.8558  159.2495 C   0  0  0  0  0  0  0  0  0  0  0  0
  152.2976  143.0230  160.6485 C   0  0  0  0  0  0  0  0  0  0  0  0
  152.2291  144.3055  161.2266 C   0  0  0  0  0  0  0  0  0  0  0  0
  152.0349  145.4366  160.4126 C   0  0  0  0  0  0  0  0  0  0  0  0
  151.9088  145.2834  159.0195 C   0  0  0  0  0  0  0  0  0  0  0  0
  151.9770  144.0015  158.4395 C   0  0  0  0  0  0  0  0  0  0  0  0
  151.5874  139.3238  157.7281 H   0  0  0  0  0  0  0  0  0  0  0  0
  150.0458  139.9617  157.1909 H   0  0  0  0  0  0  0  0  0  0  0  0
  152.2633  140.6434  155.3472 H   0  0  0  0  0  0  0  0  0  0  0  0
  150.4245  138.6538  153.1572 H   0  0  0  0  0  0  0  0  0  0  0  0
  147.8979  139.9385  153.0139 H   0  0  0  0  0  0  0  0  0  0  0  0
  143.6771  135.7349  151.4324 H   0  0  0  0  0  0  0  0  0  0  0  0
  145.0968  134.5768  149.7641 H   0  0  0  0  0  0  0  0  0  0  0  0
  146.9427  133.0856  150.5122 H   0  0  0  0  0  0  0  0  0  0  0  0
  147.3811  132.7739  152.9413 H   0  0  0  0  0  0  0  0  0  0  0  0
  145.9716  133.9295  154.6197 H   0  0  0  0  0  0  0  0  0  0  0  0
  142.7574  137.5368  153.1606 H   0  0  0  0  0  0  0  0  0  0  0  0
  140.5616  138.2805  152.2841 H   0  0  0  0  0  0  0  0  0  0  0  0
  138.8904  139.3131  153.8105 H   0  0  0  0  0  0  0  0  0  0  0  0
  139.4132  139.5793  156.2289 H   0  0  0  0  0  0  0  0  0  0  0  0
  141.6031  138.8358  157.1179 H   0  0  0  0  0  0  0  0  0  0  0  0
  147.9682  134.7688  156.8516 H   0  0  0  0  0  0  0  0  0  0  0  0
  150.3739  137.3802  155.9453 H   0  0  0  0  0  0  0  0  0  0  0  0
  151.2817  136.6747  153.4106 H   0  0  0  0  0  0  0  0  0  0  0  0
  152.7180  138.0920  156.2615 H   0  0  0  0  0  0  0  0  0  0  0  0
  152.4478  142.1696  161.2941 H   0  0  0  0  0  0  0  0  0  0  0  0
  152.3264  144.4208  162.2960 H   0  0  0  0  0  0  0  0  0  0  0  0
  151.9827  146.4199  160.8561 H   0  0  0  0  0  0  0  0  0  0  0  0
  151.7594  146.1509  158.3935 H   0  0  0  0  0  0  0  0  0  0  0  0
  151.8761  143.9195  157.3671 H   0  0  0  0  0  0  0  0  0  0  0  0
  1  2  2  0  0  0  0
  2  3  1  0  0  0  0
  2 38  1  0  0  0  0
  3  4  1  0  0  0  0
  4  5  1  0  0  0  0
  4 44  1  0  0  0  0
  4 45  1  0  0  0  0
  5 36  1  0  0  0  0
  5  6  1  0  0  0  0
  5 46  1  0  0  0  0
  6  7  1  0  0  0  0
  7  8  1  0  0  0  0
  7 34  1  0  0  0  0
  7 47  1  0  0  0  0
  8 33  1  0  0  0  0
  8  9  1  0  0  0  0
  9 10  2  0  0  0  0
  9 48  1  0  0  0  0
 10 11  1  0  0  0  0
 11 33  2  0  0  0  0
 11 12  1  0  0  0  0
 12 13  1  0  0  0  0
 12 30  2  0  0  0  0
 13 14  1  0  0  0  0
 13 22  1  0  0  0  0
 14 15  2  0  0  0  0
 14 16  1  0  0  0  0
 16 21  1  0  0  0  0
 16 17  2  0  0  0  0
 17 18  1  0  0  0  0
 17 49  1  0  0  0  0
 18 19  2  0  0  0  0
 18 50  1  0  0  0  0
 19 20  1  0  0  0  0
 19 51  1  0  0  0  0
 20 21  2  0  0  0  0
 20 52  1  0  0  0  0
 21 53  1  0  0  0  0
 22 23  2  0  0  0  0
 22 24  1  0  0  0  0
 24 29  1  0  0  0  0
 24 25  2  0  0  0  0
 25 26  1  0  0  0  0
 25 54  1  0  0  0  0
 26 27  2  0  0  0  0
 26 55  1  0  0  0  0
 27 28  1  0  0  0  0
 27 56  1  0  0  0  0
 28 29  2  0  0  0  0
 28 57  1  0  0  0  0
 29 58  1  0  0  0  0
 30 31  1  0  0  0  0
 31 32  2  0  0  0  0
 31 59  1  0  0  0  0
 32 33  1  0  0  0  0
 34 35  1  0  0  0  0
 34 36  1  0  0  0  0
 34 60  1  0  0  0  0
 35 61  1  0  0  0  0
 36 37  1  0  0  0  0
 36 62  1  0  0  0  0
 38 43  1  0  0  0  0
 38 39  2  0  0  0  0
 39 40  1  0  0  0  0
 39 63  1  0  0  0  0
 40 41  2  0  0  0  0
 40 64  1  0  0  0  0
 41 42  1  0  0  0  0
 41 65  1  0  0  0  0
 42 43  2  0  0  0  0
 42 66  1  0  0  0  0
 43 67  1  0  0  0  0
M  END
> <s_m_source_file>
AV-unprocessed.smi

> <i_m_source_file_index>
33

> <i_lp_mmshare_version>
43012

> <i_f3d_flags>
0

> <s_epik_input>
W2NIXTFbY0hdW2NIXVtjSF1bY0hdYzFDKD1PKU9bQ0gyXVtDQEBIXTJPW0NASF0oW0NAQEhdKFtPSF0pW0NAQEhdMkYpbihbY0hdbjMpYyhjMzQpbltjSF1uYzROKEMoPU8pYzVbY0hdW2NIXVtjSF1bY0hdW2NIXTUpQyg9TyljNltjSF1bY0hdW2NIXVtjSF1bY0hdNg==

> <s_epik_cmdline>
J2VwaWtfcHl0aG9uJywgJy1waCcsICc3LjAnLCAnLXRuJywgJzgnLCAnLW1hJywgJzIwMCcsICctbWV0YWxfYmluZGluZycsICctaW1hZScsICc8aW5maWxlLm1hZT4nLCAnLW9tYWUnLCAnPG91dGZpbGUubWFlPic=

> <r_lp_tautomer_probability>
1

> <r_epik_Ionization_Penalty>
0.00067664

> <r_epik_Ionization_Penalty_Charging>
0

> <r_epik_Ionization_Penalty_Neutral>
0.00067664

> <r_epik_State_Penalty>
0.000428095

> <r_epik_Charging_Adjusted_Penalty>
0.000428095

> <i_epik_Tot_Q>
0

> <i_epik_Tot_abs_Q>
0

> <r_epik_Metal_State_Penalty>
-0

> <b_epik_Metal_Only>
0

> <s_epik_Chemistry_Notes>
This compound has an ester and may undergo hydrolysis at high or low pH. This compound contains an acetal/aminal-like group ( X-CH(R)-Y where X, Y are N, S, or O) that may be acid/base labile, releasing an aldehyde.

> <s_lp_Force_Field>
OPLS_2005

> <r_lp_Energy>
71.9351

> <b_lp_Chiralities_Consistent>
1

> <s_lp_Variant>
AV-unprocessed.smi:33-11

> <Gold.Version>
5.8.1

> <Gold.Id.Protein>
6NUR|6NUR_protein|mol2

> <Gold.PLP.Fitness>
68.8954

> <Gold.PLP.PLP>
-64.5884

> <Gold.PLP.part.hbond>
-3.0000

> <Gold.PLP.part.metal>
0.0000

> <Gold.PLP.part.buried>
-8.7726

> <Gold.PLP.part.nonpolar>
-53.4793

> <Gold.PLP.part.repulsive>
0.4165

> <Gold.PLP.ligand.clash>
0.0000

> <Gold.PLP.ligand.torsion>
5.0576

> <Gold.PLP.Chemscore.Hbond>
2.2833

> <Gold.PLP.Chemscore.CHOScore>
0.9428

> <Gold.PLP.Chemscore.Metal>
0.0000

> <Gold.Chemscore.Hbonds>
donor molecule, donor type, donor heavy atom, donor atom, acceptor molecule, acceptor atom, score
      L1  H    35    61       P1  7949  0.94
      P1  H  7989  7998       L1     6  0.25
      P1  H 10752 10765       L1    35  1.00
      L1  C     9    48       P1  7957  0.91

> <Gold.PLP.Chemscore.Internal.Correction>
4.7439

> <Gold.Rescore>
     Score         DG    S(hbond)    S(metal)    S(lipo)     H(rot)  DE(clash)    DE(int)     intcor
     10.68     -20.20       1.25        0.00     145.51       2.52       0.59       8.93       ----

> <Gold.Chemscore.Fitness>
10.6802

> <Gold.Chemscore.DG>
-20.2004

> <Gold.Chemscore.ZeroCoef>
-5.4800

> <Gold.Chemscore.Hbond>
1.2451

> <Gold.Chemscore.Metal>
0.0000

> <Gold.Chemscore.Lipo>
145.5141

> <Gold.Chemscore.Internal_Hbond>
0.0000

> <Gold.Chemscore.DEClash>
0.5924

> <Gold.Chemscore.DEInternal>
8.9277

> <Gold.Chemscore.Rot>
2.5247

> <Gold.Chemscore.Internal.Correction>
   9.000000E+99

> <Gold.Chemscore.Hbonds>
donor molecule, donor type, donor heavy atom, donor atom, acceptor molecule, acceptor atom, score
      L1  H    35    61       P1  7949  0.55
      P1  H 10752 10765       L1    35  0.57

> <Gold.Chemscore.Hbond.Weighted>
-4.1585

> <Gold.Chemscore.Metal.Weighted>
-0.0000

> <Gold.Chemscore.Lipo.Weighted>
-17.0251

> <Gold.Chemscore.Internal_Hbond.Weighted>
0.0000

> <Gold.Chemscore.DEClash.Weighted>
0.5924

> <Gold.Chemscore.DEInternal.Weighted>
8.9277

> <Gold.Chemscore.Rot.Weighted>
6.4633

> <Gold.Chemscore.Internal.Correction.Weighted>
   9.000000E+99

> <Gold.Protein.RotatedTorsions>
[ 6907 6896 6895 6894 ] final  145.10 input  -60.11 | X-H torsion
[ 7974 7965 7964 7962 ] final -137.81 input  175.53 | X-H torsion
[ 8008 7997 7996 7995 ] final   -5.94 input   59.86 | X-H torsion
[ 10167 10162 10161 10158 ] final  171.57 input  -65.29 | X-H torsion
[ 10718 10713 10712 10709 ] final  -98.98 input   66.30 | X-H torsion
[ 10763 10752 10751 10750 ] final -174.22 input  -60.55 | X-H torsion
[ 11005 11000 10999 10996 ] final -142.36 input  -57.11 | X-H torsion

> <Gold.Protein.ActiveResidues>
 VAL166  LYS551  ARG553  GLY616  TRP617  ASP618  TYR619  PRO620  LYS621  CYS622 
 ASP623  PHE694  ASN695  SER759  ASP760  ASP761  ALA762  ILE779  LEU786  VAL792 
 PHE793  MET794  SER795  GLU796  ALA797  LYS798  CYS799  TRP800  GLU811  SER814 

> <Gold.Protein.RotatedAtoms>
  152.1852  133.4734  159.4978 H   0  0  0  0  0  0  0  0  0  0  0  0  # atno 6907 bound_to 6896
  150.6941  134.1783  159.4248 H   0  0  0  0  0  0  0  0  0  0  0  0  # atno 6908 bound_to 6896
  151.9696  135.0083  160.0602 H   0  0  0  0  0  0  0  0  0  0  0  0  # atno 6909 bound_to 6896
  144.8810  140.6508  143.5206 H   0  0  0  0  0  0  0  0  0  0  0  0  # atno 7974 bound_to 7965
  154.5988  140.2445  155.7820 H   0  0  0  0  0  0  0  0  0  0  0  0  # atno 8008 bound_to 7997
  156.2297  140.2971  156.0110 H   0  0  0  0  0  0  0  0  0  0  0  0  # atno 8009 bound_to 7997
  155.2246  140.0401  157.2944 H   0  0  0  0  0  0  0  0  0  0  0  0  # atno 8010 bound_to 7997
  139.5050  144.3471  151.9960 H   0  0  0  0  0  0  0  0  0  0  0  0  # atno 10167 bound_to 10162
  156.0122  130.5262  150.6603 H   0  0  0  0  0  0  0  0  0  0  0  0  # atno 10718 bound_to 10713
  154.5987  135.2852  155.0558 H   0  0  0  0  0  0  0  0  0  0  0  0  # atno 10763 bound_to 10752
  154.1831  135.6453  153.5043 H   0  0  0  0  0  0  0  0  0  0  0  0  # atno 10764 bound_to 10752
  153.0148  135.5428  154.6698 H   0  0  0  0  0  0  0  0  0  0  0  0  # atno 10765 bound_to 10752
  140.8233  134.2605  157.4890 H   0  0  0  0  0  0  0  0  0  0  0  0  # atno 11005 bound_to 11000
  145.3954  139.1608  143.4206 LP  0  0  0  0  0  0  0  0  0  0  0  0  # atno 17320 bound_to 7965
  146.2995  140.4046  142.8709 LP  0  0  0  0  0  0  0  0  0  0  0  0  # atno 17321 bound_to 7965
  140.2908  144.3756  150.6089 LP  0  0  0  0  0  0  0  0  0  0  0  0  # atno 17342 bound_to 10162
  140.5948  143.2167  151.7185 LP  0  0  0  0  0  0  0  0  0  0  0  0  # atno 17343 bound_to 10162
  157.4346  131.0853  151.1004 LP  0  0  0  0  0  0  0  0  0  0  0  0  # atno 17370 bound_to 10713
  157.1566  130.6207  149.5598 LP  0  0  0  0  0  0  0  0  0  0  0  0  # atno 17371 bound_to 10713
  139.8707  134.9547  156.4184 LP  0  0  0  0  0  0  0  0  0  0  0  0  # atno 17394 bound_to 11000
  140.9076  133.7735  155.9753 LP  0  0  0  0  0  0  0  0  0  0  0  0  # atno 17395 bound_to 11000

$$$$
