AV-unprocessed.smi:1810|AV-procd|sdf|7334|dock8
  -GOLD-   22720 8593D 1   1.00000     0.00000
 Structure written by MMmdl.
 39 40  0  0  0  0  0  0  0  0  2 V2000
  151.2845  142.3897  158.1742 C   0  0  0  0  0  0  0  0  0  0  0  0
  150.9584  141.4263  157.0649 C   0  0  0  0  0  0  0  0  0  0  0  0
  150.1469  141.8458  156.1504 N   0  0  0  0  0  0  0  0  0  0  0  0
  149.7842  141.0425  155.0872 N   0  0  0  0  0  0  0  0  0  0  0  0
  148.8469  141.6748  154.1527 C   0  0  0  0  0  0  0  0  0  0  0  0
  147.5526  140.8593  154.0131 C   0  0  0  0  0  0  0  0  0  0  0  0
  146.6608  141.2415  155.0510 O   0  0  0  0  0  0  0  0  0  0  0  0
  145.7980  142.2911  154.8158 C   0  0  0  0  0  0  0  0  0  0  0  0
  145.9277  143.2034  153.7370 C   0  0  0  0  0  0  0  0  0  0  0  0
  145.0003  144.2506  153.5716 C   0  0  0  0  0  0  0  0  0  0  0  0
  143.9357  144.3948  154.4825 C   0  0  0  0  0  0  0  0  0  0  0  0
  142.7547  145.7263  154.2664 S   0  0  0  0  0  0  0  0  0  0  0  0
  141.9121  145.0612  153.0612 N   0  5  0  0  0  0  0  0  0  0  0  0
  141.9860  145.8160  155.5176 O   0  0  0  0  0  0  0  0  0  0  0  0
  143.5262  146.9049  153.8410 O   0  0  0  0  0  0  0  0  0  0  0  0
  143.7944  143.4953  155.5573 C   0  0  0  0  0  0  0  0  0  0  0  0
  144.7249  142.4506  155.7178 C   0  0  0  0  0  0  0  0  0  0  0  0
  150.2229  139.7664  154.8922 C   0  0  0  0  0  0  0  0  0  0  0  0
  149.8699  139.0835  153.9297 O   0  0  0  0  0  0  0  0  0  0  0  0
  151.1410  139.2966  155.9324 C   0  0  0  0  0  0  0  0  0  0  0  0
  151.6251  137.9640  155.7666 C   0  0  0  0  0  0  0  0  0  0  0  0
  152.0194  136.8815  155.6529 N   0  0  0  0  0  0  0  0  0  0  0  0
  151.5050  140.0756  156.9818 C   0  0  0  0  0  0  0  0  0  0  0  0
  152.4549  139.6355  158.0874 C   0  0  0  0  0  0  0  0  0  0  0  0
  152.3594  142.5611  158.2351 H   0  0  0  0  0  0  0  0  0  0  0  0
  150.9487  142.0002  159.1354 H   0  0  0  0  0  0  0  0  0  0  0  0
  150.8060  143.3590  158.0254 H   0  0  0  0  0  0  0  0  0  0  0  0
  148.6034  142.6821  154.4954 H   0  0  0  0  0  0  0  0  0  0  0  0
  149.3142  141.8069  153.1751 H   0  0  0  0  0  0  0  0  0  0  0  0
  147.0962  141.0453  153.0396 H   0  0  0  0  0  0  0  0  0  0  0  0
  147.7794  139.7943  154.0865 H   0  0  0  0  0  0  0  0  0  0  0  0
  146.7316  143.1233  153.0215 H   0  0  0  0  0  0  0  0  0  0  0  0
  145.1115  144.9412  152.7487 H   0  0  0  0  0  0  0  0  0  0  0  0
  142.2318  144.0920  152.9469 H   0  0  0  0  0  0  0  0  0  0  0  0
  142.9813  143.6032  156.2596 H   0  0  0  0  0  0  0  0  0  0  0  0
  144.6140  141.7639  156.5440 H   0  0  0  0  0  0  0  0  0  0  0  0
  152.7815  138.6031  157.9649 H   0  0  0  0  0  0  0  0  0  0  0  0
  151.9714  139.7108  159.0620 H   0  0  0  0  0  0  0  0  0  0  0  0
  153.3470  140.2629  158.0959 H   0  0  0  0  0  0  0  0  0  0  0  0
  1  2  1  0  0  0  0
  1 25  1  0  0  0  0
  1 26  1  0  0  0  0
  1 27  1  0  0  0  0
  2 23  1  0  0  0  0
  2  3  2  0  0  0  0
  3  4  1  0  0  0  0
  4  5  1  0  0  0  0
  4 18  1  0  0  0  0
  5  6  1  0  0  0  0
  5 28  1  0  0  0  0
  5 29  1  0  0  0  0
  6  7  1  0  0  0  0
  6 30  1  0  0  0  0
  6 31  1  0  0  0  0
  7  8  1  0  0  0  0
  8 17  1  0  0  0  0
  8  9  2  0  0  0  0
  9 10  1  0  0  0  0
  9 32  1  0  0  0  0
 10 11  2  0  0  0  0
 10 33  1  0  0  0  0
 11 12  1  0  0  0  0
 11 16  1  0  0  0  0
 12 13  1  0  0  0  0
 12 14  2  0  0  0  0
 12 15  2  0  0  0  0
 13 34  1  0  0  0  0
 16 17  2  0  0  0  0
 16 35  1  0  0  0  0
 17 36  1  0  0  0  0
 18 19  2  0  0  0  0
 18 20  1  0  0  0  0
 20 21  1  0  0  0  0
 20 23  2  0  0  0  0
 21 22  3  0  0  0  0
 23 24  1  0  0  0  0
 24 37  1  0  0  0  0
 24 38  1  0  0  0  0
 24 39  1  0  0  0  0
M  CHG  1  13  -1
M  END
> <s_m_source_file>
AV-unprocessed.smi

> <i_m_source_file_index>
1810

> <i_lp_mmshare_version>
43012

> <i_f3d_flags>
0

> <s_epik_input>
TiNDYyhjMVtDSDNdKWMoPU8pbihuYzFbQ0gzXSlbQ0gyXVtDSDJdT2MyW2NIXVtjSF1jKFMoPU8pKD1PKVtOSDJdKVtjSF1bY0hdMg==

> <s_epik_cmdline>
J2VwaWtfcHl0aG9uJywgJy1waCcsICc3LjAnLCAnLXRuJywgJzgnLCAnLW1hJywgJzIwMCcsICctbWV0YWxfYmluZGluZycsICctaW1hZScsICc8aW5maWxlLm1hZT4nLCAnLW9tYWUnLCAnPG91dGZpbGUubWFlPic=

> <r_lp_tautomer_probability>
1

> <r_epik_Ionization_Penalty>
4.40921

> <r_epik_Ionization_Penalty_Charging>
4.40921

> <r_epik_Ionization_Penalty_Neutral>
1.83918e-13

> <r_epik_State_Penalty>
4.40908

> <r_epik_Charging_Adjusted_Penalty>
8.81829

> <i_epik_Tot_Q>
-1

> <i_epik_Tot_abs_Q>
1

> <r_epik_Metal_State_Penalty>
0.775711

> <b_epik_Metal_Only>
1

> <s_lp_Force_Field>
OPLS_2005

> <r_lp_Energy>
29.6197

> <b_lp_Chiralities_Consistent>
1

> <s_lp_Variant>
AV-unprocessed.smi:1810-2

> <Gold.Version>
5.8.1

> <Gold.Id.Protein>
6NUR|6NUR_protein|mol2

> <Gold.PLP.Fitness>
47.0787

> <Gold.PLP.PLP>
-42.0785

> <Gold.PLP.part.hbond>
-3.9914

> <Gold.PLP.part.metal>
0.0000

> <Gold.PLP.part.buried>
-5.7674

> <Gold.PLP.part.nonpolar>
-34.3273

> <Gold.PLP.part.repulsive>
1.8670

> <Gold.PLP.ligand.clash>
0.0000

> <Gold.PLP.ligand.torsion>
1.5636

> <Gold.PLP.Chemscore.Hbond>
2.0000

> <Gold.PLP.Chemscore.CHOScore>
0.0000

> <Gold.PLP.Chemscore.Metal>
0.0000

> <Gold.Chemscore.Hbonds>
donor molecule, donor type, donor heavy atom, donor atom, acceptor molecule, acceptor atom, score
      L1  H    13    34       P1 10174  1.00
      P1  H 10752 10764       L1    22  0.94

> <Gold.PLP.Chemscore.Internal.Correction>
2.1274

> <Gold.Rescore>
     Score         DG    S(hbond)    S(metal)    S(lipo)     H(rot)  DE(clash)    DE(int)     intcor
     10.26     -13.65       1.56        0.00      67.71       1.94       0.64       2.75       ----

> <Gold.Chemscore.Fitness>
10.2639

> <Gold.Chemscore.DG>
-13.6538

> <Gold.Chemscore.ZeroCoef>
-5.4800

> <Gold.Chemscore.Hbond>
1.5612

> <Gold.Chemscore.Metal>
0.0000

> <Gold.Chemscore.Lipo>
67.7062

> <Gold.Chemscore.Internal_Hbond>
0.0000

> <Gold.Chemscore.DEClash>
0.6439

> <Gold.Chemscore.DEInternal>
2.7459

> <Gold.Chemscore.Rot>
1.9384

> <Gold.Chemscore.Internal.Correction>
   9.000000E+99

> <Gold.Chemscore.Hbonds>
donor molecule, donor type, donor heavy atom, donor atom, acceptor molecule, acceptor atom, score
      L1  H    13    34       P1 10174  0.99
      P1  H 10752 10764       L1    22  0.91

> <Gold.Chemscore.Hbond.Weighted>
-5.2144

> <Gold.Chemscore.Metal.Weighted>
-0.0000

> <Gold.Chemscore.Lipo.Weighted>
-7.9216

> <Gold.Chemscore.Internal_Hbond.Weighted>
0.0000

> <Gold.Chemscore.DEClash.Weighted>
0.6439

> <Gold.Chemscore.DEInternal.Weighted>
2.7459

> <Gold.Chemscore.Rot.Weighted>
4.9622

> <Gold.Chemscore.Internal.Correction.Weighted>
   9.000000E+99

> <Gold.Protein.RotatedTorsions>
[ 6907 6896 6895 6894 ] final -103.87 input  -60.11 | X-H torsion
[ 7974 7965 7964 7962 ] final -170.57 input  175.53 | X-H torsion
[ 8008 7997 7996 7995 ] final    2.46 input   59.86 | X-H torsion
[ 10167 10162 10161 10158 ] final   47.70 input  -65.29 | X-H torsion
[ 10718 10713 10712 10709 ] final  173.00 input   66.30 | X-H torsion
[ 10763 10752 10751 10750 ] final  -57.63 input  -60.55 | X-H torsion
[ 11005 11000 10999 10996 ] final   13.64 input  -57.11 | X-H torsion

> <Gold.Protein.ActiveResidues>
 VAL166  LYS551  ARG553  GLY616  TRP617  ASP618  TYR619  PRO620  LYS621  CYS622 
 ASP623  PHE694  ASN695  SER759  ASP760  ASP761  ALA762  ILE779  LEU786  VAL792 
 PHE793  MET794  SER795  GLU796  ALA797  LYS798  CYS799  TRP800  GLU811  SER814 

> <Gold.Protein.RotatedAtoms>
  150.7260  134.0364  159.3750 H   0  0  0  0  0  0  0  0  0  0  0  0  # atno 6907 bound_to 6896
  151.8336  135.0611  160.0449 H   0  0  0  0  0  0  0  0  0  0  0  0  # atno 6908 bound_to 6896
  152.2915  133.5530  159.5597 H   0  0  0  0  0  0  0  0  0  0  0  0  # atno 6909 bound_to 6896
  144.7168  140.2051  143.6334 H   0  0  0  0  0  0  0  0  0  0  0  0  # atno 7974 bound_to 7965
  154.6918  140.2655  155.6805 H   0  0  0  0  0  0  0  0  0  0  0  0  # atno 8008 bound_to 7997
  156.2735  140.2789  156.1422 H   0  0  0  0  0  0  0  0  0  0  0  0  # atno 8009 bound_to 7997
  155.0886  140.0373  157.2651 H   0  0  0  0  0  0  0  0  0  0  0  0  # atno 8010 bound_to 7997
  140.3009  144.2935  150.6219 H   0  0  0  0  0  0  0  0  0  0  0  0  # atno 10167 bound_to 10162
  156.9707  131.0089  151.2906 H   0  0  0  0  0  0  0  0  0  0  0  0  # atno 10718 bound_to 10713
  154.2254  135.6370  153.5158 H   0  0  0  0  0  0  0  0  0  0  0  0  # atno 10763 bound_to 10752
  152.9960  135.5506  154.6069 H   0  0  0  0  0  0  0  0  0  0  0  0  # atno 10764 bound_to 10752
  154.5540  135.2904  155.0956 H   0  0  0  0  0  0  0  0  0  0  0  0  # atno 10765 bound_to 10752
  140.4785  134.0959  155.7746 H   0  0  0  0  0  0  0  0  0  0  0  0  # atno 11005 bound_to 11000
  145.8643  139.2239  143.1698 LP  0  0  0  0  0  0  0  0  0  0  0  0  # atno 17320 bound_to 7965
  146.0144  140.8406  142.9954 LP  0  0  0  0  0  0  0  0  0  0  0  0  # atno 17321 bound_to 7965
  140.5652  143.2187  151.7697 LP  0  0  0  0  0  0  0  0  0  0  0  0  # atno 17342 bound_to 10162
  139.4915  144.4294  151.9889 LP  0  0  0  0  0  0  0  0  0  0  0  0  # atno 17343 bound_to 10162
  157.5595  130.8236  149.8247 LP  0  0  0  0  0  0  0  0  0  0  0  0  # atno 17370 bound_to 10713
  156.0284  130.3772  150.1757 LP  0  0  0  0  0  0  0  0  0  0  0  0  # atno 17371 bound_to 10713
  141.1543  133.8912  157.2019 LP  0  0  0  0  0  0  0  0  0  0  0  0  # atno 17394 bound_to 11000
  139.9841  135.0088  156.9820 LP  0  0  0  0  0  0  0  0  0  0  0  0  # atno 17395 bound_to 11000

$$$$
