AV-unprocessed.smi:2806|AV-procd|sdf|10815|dock5
  -GOLD-   2272015253D 1   1.00000     0.00000
 Structure written by MMmdl.
 47 48  0  0  0  0  0  0  0  0  1 V2000
  152.6182  144.5256  158.3577 C   0  0  0  0  0  0  0  0  0  0  0  0
  151.6474  143.8093  159.3120 C   0  0  0  0  0  0  0  0  0  0  0  0
  152.4497  142.8267  160.1831 C   0  0  0  0  0  0  0  0  0  0  0  0
  150.9561  144.8612  160.1987 C   0  0  0  0  0  0  0  0  0  0  0  0
  150.4113  142.9338  158.2858 S   0  0  0  0  0  0  0  0  0  0  0  0
  151.3444  141.6785  157.3499 C   0  0  0  0  0  0  0  0  0  0  0  0
  150.7250  141.3215  155.9979 C   0  0  0  0  0  0  0  0  0  0  0  0
  151.2369  140.4564  155.2871 O   0  0  0  0  0  0  0  0  0  0  0  0
  149.6108  141.9877  155.6596 N   0  0  0  0  0  0  0  0  0  0  0  0
  148.8326  141.7410  154.4519 C   0  0  0  0  0  0  0  0  0  0  0  0
  148.1055  140.4079  154.4860 C   0  0  0  0  0  0  0  0  0  0  0  0
  146.9110  140.2227  153.7635 C   0  0  0  0  0  0  0  0  0  0  0  0
  146.2806  138.9668  153.8287 C   0  0  0  0  0  0  0  0  0  0  0  0
  146.7628  137.9330  154.5497 N   0  0  0  0  0  0  0  0  0  0  0  0
  147.9143  138.0984  155.2469 C   0  0  0  0  0  0  0  0  0  0  0  0
  148.4026  137.0085  155.9998 N   0  0  0  0  0  0  0  0  0  0  0  0
  149.5961  136.3172  155.5154 C   0  0  0  0  0  0  0  0  0  0  0  0
  149.7938  134.9948  156.2755 C   0  0  0  0  0  0  0  0  0  0  0  0
  149.8338  135.2470  157.6762 O   0  0  0  0  0  0  0  0  0  0  0  0
  148.6193  135.8223  158.1462 C   0  0  0  0  0  0  0  0  0  0  0  0
  148.3807  137.1732  157.4507 C   0  0  0  0  0  0  0  0  0  0  0  0
  148.6131  139.3293  155.2405 C   0  0  0  0  0  0  0  0  0  0  0  0
  153.3822  145.0791  158.9050 H   0  0  0  0  0  0  0  0  0  0  0  0
  152.0938  145.2365  157.7180 H   0  0  0  0  0  0  0  0  0  0  0  0
  153.1304  143.8149  157.7080 H   0  0  0  0  0  0  0  0  0  0  0  0
  152.8579  142.0067  159.5911 H   0  0  0  0  0  0  0  0  0  0  0  0
  151.8388  142.3976  160.9758 H   0  0  0  0  0  0  0  0  0  0  0  0
  153.2868  143.3289  160.6678 H   0  0  0  0  0  0  0  0  0  0  0  0
  151.6888  145.4617  160.7390 H   0  0  0  0  0  0  0  0  0  0  0  0
  150.3069  144.4058  160.9451 H   0  0  0  0  0  0  0  0  0  0  0  0
  150.3484  145.5433  159.6031 H   0  0  0  0  0  0  0  0  0  0  0  0
  152.3831  141.9848  157.2349 H   0  0  0  0  0  0  0  0  0  0  0  0
  151.3581  140.7677  157.9487 H   0  0  0  0  0  0  0  0  0  0  0  0
  149.2568  142.6842  156.2991 H   0  0  0  0  0  0  0  0  0  0  0  0
  148.0928  142.5355  154.3528 H   0  0  0  0  0  0  0  0  0  0  0  0
  149.4734  141.8047  153.5707 H   0  0  0  0  0  0  0  0  0  0  0  0
  146.4869  141.0191  153.1701 H   0  0  0  0  0  0  0  0  0  0  0  0
  145.3629  138.7873  153.2884 H   0  0  0  0  0  0  0  0  0  0  0  0
  149.5071  136.1097  154.4483 H   0  0  0  0  0  0  0  0  0  0  0  0
  150.4666  136.9605  155.6522 H   0  0  0  0  0  0  0  0  0  0  0  0
  148.9932  134.2902  156.0446 H   0  0  0  0  0  0  0  0  0  0  0  0
  150.7291  134.5241  155.9721 H   0  0  0  0  0  0  0  0  0  0  0  0
  147.7866  135.1400  157.9665 H   0  0  0  0  0  0  0  0  0  0  0  0
  148.6880  135.9633  159.2250 H   0  0  0  0  0  0  0  0  0  0  0  0
  149.1651  137.8764  157.7326 H   0  0  0  0  0  0  0  0  0  0  0  0
  147.4375  137.5916  157.7986 H   0  0  0  0  0  0  0  0  0  0  0  0
  149.5188  139.4601  155.8137 H   0  0  0  0  0  0  0  0  0  0  0  0
  1  2  1  0  0  0  0
  1 23  1  0  0  0  0
  1 24  1  0  0  0  0
  1 25  1  0  0  0  0
  2  3  1  0  0  0  0
  2  4  1  0  0  0  0
  2  5  1  0  0  0  0
  3 26  1  0  0  0  0
  3 27  1  0  0  0  0
  3 28  1  0  0  0  0
  4 29  1  0  0  0  0
  4 30  1  0  0  0  0
  4 31  1  0  0  0  0
  5  6  1  0  0  0  0
  6  7  1  0  0  0  0
  6 32  1  0  0  0  0
  6 33  1  0  0  0  0
  7  8  2  0  0  0  0
  7  9  1  0  0  0  0
  9 10  1  0  0  0  0
  9 34  1  0  0  0  0
 10 11  1  0  0  0  0
 10 35  1  0  0  0  0
 10 36  1  0  0  0  0
 11 22  1  0  0  0  0
 11 12  2  0  0  0  0
 12 13  1  0  0  0  0
 12 37  1  0  0  0  0
 13 14  2  0  0  0  0
 13 38  1  0  0  0  0
 14 15  1  0  0  0  0
 15 16  1  0  0  0  0
 15 22  2  0  0  0  0
 16 21  1  0  0  0  0
 16 17  1  0  0  0  0
 17 18  1  0  0  0  0
 17 39  1  0  0  0  0
 17 40  1  0  0  0  0
 18 19  1  0  0  0  0
 18 41  1  0  0  0  0
 18 42  1  0  0  0  0
 19 20  1  0  0  0  0
 20 21  1  0  0  0  0
 20 43  1  0  0  0  0
 20 44  1  0  0  0  0
 21 45  1  0  0  0  0
 21 46  1  0  0  0  0
 22 47  1  0  0  0  0
M  END
> <s_m_source_file>
AV-unprocessed.smi

> <i_m_source_file_index>
2806

> <i_lp_mmshare_version>
43012

> <i_f3d_flags>
0

> <s_epik_input>
W0NIM11DKFtDSDNdKShbQ0gzXSlTW0NIMl1DKD1PKVtOSF1bQ0gyXWMxW2NIXVtjSF1uYyhbY0hdMSlOMltDSDJdW0NIMl1PW0NIMl1bQ0gyXTI=

> <s_epik_cmdline>
J2VwaWtfcHl0aG9uJywgJy1waCcsICc3LjAnLCAnLXRuJywgJzgnLCAnLW1hJywgJzIwMCcsICctbWV0YWxfYmluZGluZycsICctaW1hZScsICc8aW5maWxlLm1hZT4nLCAnLW9tYWUnLCAnPG91dGZpbGUubWFlPic=

> <r_lp_tautomer_probability>
1

> <r_epik_Ionization_Penalty>
0.00423361

> <r_epik_Ionization_Penalty_Charging>
0

> <r_epik_Ionization_Penalty_Neutral>
0.00423361

> <r_epik_State_Penalty>
0.00304279

> <r_epik_Charging_Adjusted_Penalty>
0.00304279

> <i_epik_Tot_Q>
0

> <i_epik_Tot_abs_Q>
0

> <r_epik_Metal_State_Penalty>
-0

> <b_epik_Metal_Only>
0

> <s_lp_Force_Field>
OPLS_2005

> <r_lp_Energy>
13.38

> <b_lp_Chiralities_Consistent>
1

> <s_lp_Variant>
AV-unprocessed.smi:2806-1

> <Gold.Version>
5.8.1

> <Gold.Id.Protein>
6NUR|6NUR_protein|mol2

> <Gold.PLP.Fitness>
46.9949

> <Gold.PLP.PLP>
-37.3605

> <Gold.PLP.part.hbond>
-3.0000

> <Gold.PLP.part.metal>
0.0000

> <Gold.PLP.part.buried>
-4.5976

> <Gold.PLP.part.nonpolar>
-29.5577

> <Gold.PLP.part.repulsive>
0.2703

> <Gold.PLP.ligand.clash>
0.0000

> <Gold.PLP.ligand.torsion>
0.7888

> <Gold.PLP.Chemscore.Hbond>
2.6160

> <Gold.PLP.Chemscore.CHOScore>
0.9857

> <Gold.PLP.Chemscore.Metal>
0.0000

> <Gold.Chemscore.Hbonds>
donor molecule, donor type, donor heavy atom, donor atom, acceptor molecule, acceptor atom, score
      L1  H     9    34       P1  8028  0.29
      P1  H  6896  6909       L1    19  0.67
      P1  H  7989  7998       L1     8  0.94
      L1  C    13    38       P1 10175  0.97

> <Gold.PLP.Chemscore.Internal.Correction>
0.4067

> <Gold.Rescore>
     Score         DG    S(hbond)    S(metal)    S(lipo)     H(rot)  DE(clash)    DE(int)     intcor
     17.32     -20.18       2.42        0.00      94.44       1.73       0.04       2.82       ----

> <Gold.Chemscore.Fitness>
17.3172

> <Gold.Chemscore.DG>
-20.1774

> <Gold.Chemscore.ZeroCoef>
-5.4800

> <Gold.Chemscore.Hbond>
2.4188

> <Gold.Chemscore.Metal>
0.0000

> <Gold.Chemscore.Lipo>
94.4414

> <Gold.Chemscore.Internal_Hbond>
0.0000

> <Gold.Chemscore.DEClash>
0.0436

> <Gold.Chemscore.DEInternal>
2.8166

> <Gold.Chemscore.Rot>
1.7308

> <Gold.Chemscore.Internal.Correction>
   9.000000E+99

> <Gold.Chemscore.Hbonds>
donor molecule, donor type, donor heavy atom, donor atom, acceptor molecule, acceptor atom, score
      L1  H     9    34       P1  8028  0.29
      P1  H  6896  6909       L1    19  0.26
      P1  H  7989  7998       L1     8  0.87

> <Gold.Chemscore.Hbond.Weighted>
-8.0786

> <Gold.Chemscore.Metal.Weighted>
-0.0000

> <Gold.Chemscore.Lipo.Weighted>
-11.0496

> <Gold.Chemscore.Internal_Hbond.Weighted>
0.0000

> <Gold.Chemscore.DEClash.Weighted>
0.0436

> <Gold.Chemscore.DEInternal.Weighted>
2.8166

> <Gold.Chemscore.Rot.Weighted>
4.4309

> <Gold.Chemscore.Internal.Correction.Weighted>
   9.000000E+99

> <Gold.Protein.RotatedTorsions>
[ 6907 6896 6895 6894 ] final   35.33 input  -60.11 | X-H torsion
[ 7974 7965 7964 7962 ] final   48.17 input  175.53 | X-H torsion
[ 8008 7997 7996 7995 ] final -100.92 input   59.86 | X-H torsion
[ 10167 10162 10161 10158 ] final -123.45 input  -65.29 | X-H torsion
[ 10718 10713 10712 10709 ] final  153.97 input   66.30 | X-H torsion
[ 10763 10752 10751 10750 ] final   73.97 input  -60.55 | X-H torsion
[ 11005 11000 10999 10996 ] final  178.31 input  -57.11 | X-H torsion

> <Gold.Protein.ActiveResidues>
 VAL166  LYS551  ARG553  GLY616  TRP617  ASP618  TYR619  PRO620  LYS621  CYS622 
 ASP623  PHE694  ASN695  SER759  ASP760  ASP761  ALA762  ILE779  LEU786  VAL792 
 PHE793  MET794  SER795  GLU796  ALA797  LYS798  CYS799  TRP800  GLU811  SER814 

> <Gold.Protein.RotatedAtoms>
  152.1146  134.9250  160.0565 H   0  0  0  0  0  0  0  0  0  0  0  0  # atno 6907 bound_to 6896
  152.0414  133.3974  159.4347 H   0  0  0  0  0  0  0  0  0  0  0  0  # atno 6908 bound_to 6896
  150.6845  134.3331  159.4879 H   0  0  0  0  0  0  0  0  0  0  0  0  # atno 6909 bound_to 6896
  146.0229  139.4672  142.9886 H   0  0  0  0  0  0  0  0  0  0  0  0  # atno 7974 bound_to 7965
  154.8353  140.0438  157.1505 H   0  0  0  0  0  0  0  0  0  0  0  0  # atno 8008 bound_to 7997
  154.9107  140.3013  155.5247 H   0  0  0  0  0  0  0  0  0  0  0  0  # atno 8009 bound_to 7997
  156.2989  140.2359  156.4146 H   0  0  0  0  0  0  0  0  0  0  0  0  # atno 8010 bound_to 7997
  140.0034  143.5516  152.2294 H   0  0  0  0  0  0  0  0  0  0  0  0  # atno 10167 bound_to 10162
  157.2378  131.0753  151.1812 H   0  0  0  0  0  0  0  0  0  0  0  0  # atno 10718 bound_to 10713
  153.0556  135.5043  154.7972 H   0  0  0  0  0  0  0  0  0  0  0  0  # atno 10763 bound_to 10752
  154.6801  135.2967  154.9627 H   0  0  0  0  0  0  0  0  0  0  0  0  # atno 10764 bound_to 10752
  154.0416  135.6716  153.4843 H   0  0  0  0  0  0  0  0  0  0  0  0  # atno 10765 bound_to 10752
  140.3937  134.6839  157.4522 H   0  0  0  0  0  0  0  0  0  0  0  0  # atno 11005 bound_to 11000
  145.7164  141.0089  143.1426 LP  0  0  0  0  0  0  0  0  0  0  0  0  # atno 17320 bound_to 7965
  144.6997  139.8818  143.7447 LP  0  0  0  0  0  0  0  0  0  0  0  0  # atno 17321 bound_to 7965
  139.6255  144.7636  151.2647 LP  0  0  0  0  0  0  0  0  0  0  0  0  # atno 17342 bound_to 10162
  140.7410  143.6571  150.8197 LP  0  0  0  0  0  0  0  0  0  0  0  0  # atno 17343 bound_to 10162
  157.3410  130.7033  149.6382 LP  0  0  0  0  0  0  0  0  0  0  0  0  # atno 17370 bound_to 10713
  155.9671  130.4280  150.4767 LP  0  0  0  0  0  0  0  0  0  0  0  0  # atno 17371 bound_to 10713
  140.0387  134.6298  155.9009 LP  0  0  0  0  0  0  0  0  0  0  0  0  # atno 17394 bound_to 11000
  141.1882  133.6562  156.5313 LP  0  0  0  0  0  0  0  0  0  0  0  0  # atno 17395 bound_to 11000

$$$$
