AV-unprocessed.smi:1844|AV-procd|sdf|7510|dock10
  -GOLD-   22720 9213D 1   1.00000     0.00000
 Structure written by MMmdl.
 45 46  0  0  0  0  0  0  0  0  1 V2000
  143.7404  144.3344  155.1686 C   0  0  0  0  0  0  0  0  0  0  0  0
  144.9617  143.5576  155.0191 N   0  0  0  0  0  0  0  0  0  0  0  0
  145.5827  142.9151  156.0220 C   0  0  0  0  0  0  0  0  0  0  0  0
  145.1468  142.9408  157.1745 O   0  0  0  0  0  0  0  0  0  0  0  0
  146.7941  142.2021  155.6086 C   0  0  0  0  0  0  0  0  0  0  0  0
  147.1682  142.0094  154.2153 C   0  0  0  0  0  0  0  0  0  0  0  0
  148.2985  141.3501  153.8938 C   0  0  0  0  0  0  0  0  0  0  0  0
  149.1905  140.8010  154.9191 C   0  0  0  0  0  0  0  0  0  0  0  0
  150.2256  140.1995  154.6308 O   0  0  0  0  0  0  0  0  0  0  0  0
  148.7993  140.9985  156.2146 N   0  0  0  0  0  0  0  0  0  0  0  0
  149.6136  140.4922  157.3323 C   0  0  0  0  0  0  0  0  0  0  0  0
  151.0287  141.0862  157.3754 C   0  0  0  0  0  0  0  0  0  0  0  0
  151.7964  140.9608  156.4203 O   0  0  0  0  0  0  0  0  0  0  0  0
  151.3446  141.7532  158.4963 N   0  0  0  0  0  0  0  0  0  0  0  0
  152.6221  142.4089  158.7840 C   0  0  2  0  0  0  0  0  0  0  0  0
  153.2113  141.8512  160.0955 C   0  0  0  0  0  0  0  0  0  0  0  0
  152.4094  142.2973  161.3307 C   0  0  0  0  0  0  0  0  0  0  0  0
  152.2813  143.8267  161.3880 C   0  0  0  0  0  0  0  0  0  0  0  0
  151.6704  144.3862  160.0932 C   0  0  0  0  0  0  0  0  0  0  0  0
  152.4757  143.9509  158.8511 C   0  0  2  0  0  0  0  0  0  0  0  0
  151.8984  144.5592  157.5615 C   0  0  0  0  0  0  0  0  0  0  0  0
  147.6187  141.6928  156.5449 C   0  0  0  0  0  0  0  0  0  0  0  0
  143.4363  144.7373  154.2027 H   0  0  0  0  0  0  0  0  0  0  0  0
  143.8932  145.1694  155.8533 H   0  0  0  0  0  0  0  0  0  0  0  0
  142.9287  143.7140  155.5504 H   0  0  0  0  0  0  0  0  0  0  0  0
  145.3637  143.5031  154.0946 H   0  0  0  0  0  0  0  0  0  0  0  0
  146.5551  142.3882  153.4109 H   0  0  0  0  0  0  0  0  0  0  0  0
  148.5559  141.2207  152.8528 H   0  0  0  0  0  0  0  0  0  0  0  0
  149.1289  140.7036  158.2863 H   0  0  0  0  0  0  0  0  0  0  0  0
  149.6806  139.4036  157.2835 H   0  0  0  0  0  0  0  0  0  0  0  0
  150.6413  141.8104  159.2187 H   0  0  0  0  0  0  0  0  0  0  0  0
  153.3328  142.1743  157.9898 H   0  0  0  0  0  0  0  0  0  0  0  0
  153.2599  140.7623  160.0549 H   0  0  0  0  0  0  0  0  0  0  0  0
  154.2413  142.1952  160.1985 H   0  0  0  0  0  0  0  0  0  0  0  0
  151.4161  141.8474  161.3101 H   0  0  0  0  0  0  0  0  0  0  0  0
  152.8923  141.9314  162.2371 H   0  0  0  0  0  0  0  0  0  0  0  0
  151.6702  144.1167  162.2431 H   0  0  0  0  0  0  0  0  0  0  0  0
  153.2653  144.2691  161.5480 H   0  0  0  0  0  0  0  0  0  0  0  0
  150.6361  144.0522  160.0030 H   0  0  0  0  0  0  0  0  0  0  0  0
  151.6356  145.4748  160.1515 H   0  0  0  0  0  0  0  0  0  0  0  0
  153.4812  144.3593  158.9630 H   0  0  0  0  0  0  0  0  0  0  0  0
  150.8628  144.2585  157.4007 H   0  0  0  0  0  0  0  0  0  0  0  0
  152.4750  144.2485  156.6897 H   0  0  0  0  0  0  0  0  0  0  0  0
  151.9210  145.6485  157.6000 H   0  0  0  0  0  0  0  0  0  0  0  0
  147.4393  141.7850  157.6071 H   0  0  0  0  0  0  0  0  0  0  0  0
  1  2  1  0  0  0  0
  1 23  1  0  0  0  0
  1 24  1  0  0  0  0
  1 25  1  0  0  0  0
  2  3  1  0  0  0  0
  2 26  1  0  0  0  0
  3  4  2  0  0  0  0
  3  5  1  0  0  0  0
  5 22  2  0  0  0  0
  5  6  1  0  0  0  0
  6  7  2  0  0  0  0
  6 27  1  0  0  0  0
  7  8  1  0  0  0  0
  7 28  1  0  0  0  0
  8  9  2  0  0  0  0
  8 10  1  0  0  0  0
 10 11  1  0  0  0  0
 10 22  1  0  0  0  0
 11 12  1  0  0  0  0
 11 29  1  0  0  0  0
 11 30  1  0  0  0  0
 12 13  2  0  0  0  0
 12 14  1  0  0  0  0
 14 15  1  0  0  0  0
 14 31  1  0  0  0  0
 15 20  1  0  0  0  0
 15 16  1  0  0  0  0
 15 32  1  0  0  0  0
 16 17  1  0  0  0  0
 16 33  1  0  0  0  0
 16 34  1  0  0  0  0
 17 18  1  0  0  0  0
 17 35  1  0  0  0  0
 17 36  1  0  0  0  0
 18 19  1  0  0  0  0
 18 37  1  0  0  0  0
 18 38  1  0  0  0  0
 19 20  1  0  0  0  0
 19 39  1  0  0  0  0
 19 40  1  0  0  0  0
 20 21  1  0  0  0  0
 20 41  1  0  0  0  0
 21 42  1  0  0  0  0
 21 43  1  0  0  0  0
 21 44  1  0  0  0  0
 22 45  1  0  0  0  0
M  END
> <s_m_source_file>
AV-unprocessed.smi

> <i_m_source_file_index>
1844

> <i_lp_mmshare_version>
43012

> <i_f3d_flags>
0

> <s_epik_input>
W0NIM11bTkhdQyg9TyljMVtjSF1bY0hdYyg9TyluKFtjSF0xKVtDSDJdQyg9TylbTkhdW0NAQEhdMltDSDJdW0NIMl1bQ0gyXVtDSDJdW0NASF0yW0NIM10=

> <s_epik_cmdline>
J2VwaWtfcHl0aG9uJywgJy1waCcsICc3LjAnLCAnLXRuJywgJzgnLCAnLW1hJywgJzIwMCcsICctbWV0YWxfYmluZGluZycsICctaW1hZScsICc8aW5maWxlLm1hZT4nLCAnLW9tYWUnLCAnPG91dGZpbGUubWFlPic=

> <r_lp_tautomer_probability>
1

> <r_epik_Ionization_Penalty>
3.66612e-07

> <r_epik_Ionization_Penalty_Charging>
5.18929e-08

> <r_epik_Ionization_Penalty_Neutral>
3.14719e-07

> <r_epik_State_Penalty>
-0

> <r_epik_Charging_Adjusted_Penalty>
5.18929e-08

> <i_epik_Tot_Q>
0

> <i_epik_Tot_abs_Q>
0

> <r_epik_Metal_State_Penalty>
-0

> <b_epik_Metal_Only>
0

> <s_lp_Force_Field>
OPLS_2005

> <r_lp_Energy>
22.5965

> <b_lp_Chiralities_Consistent>
1

> <s_lp_Variant>
AV-unprocessed.smi:1844-3

> <Gold.Version>
5.8.1

> <Gold.Id.Protein>
6NUR|6NUR_protein|mol2

> <Gold.PLP.Fitness>
48.4176

> <Gold.PLP.PLP>
-45.5763

> <Gold.PLP.part.hbond>
-1.0000

> <Gold.PLP.part.metal>
0.0000

> <Gold.PLP.part.buried>
-3.8842

> <Gold.PLP.part.nonpolar>
-40.0381

> <Gold.PLP.part.repulsive>
0.3107

> <Gold.PLP.ligand.clash>
0.0055

> <Gold.PLP.ligand.torsion>
0.0822

> <Gold.PLP.Chemscore.Hbond>
1.0000

> <Gold.PLP.Chemscore.CHOScore>
0.0000

> <Gold.PLP.Chemscore.Metal>
0.0000

> <Gold.Chemscore.Hbonds>
donor molecule, donor type, donor heavy atom, donor atom, acceptor molecule, acceptor atom, score
      P1  H  7989  7998       L1     9  1.00

> <Gold.PLP.Chemscore.Internal.Correction>
0.0111

> <Gold.Rescore>
     Score         DG    S(hbond)    S(metal)    S(lipo)     H(rot)  DE(clash)    DE(int)     intcor
     13.99     -18.15       0.94        0.00     114.20       1.49       0.24       3.92       ----

> <Gold.Chemscore.Fitness>
13.9945

> <Gold.Chemscore.DG>
-18.1547

> <Gold.Chemscore.ZeroCoef>
-5.4800

> <Gold.Chemscore.Hbond>
0.9381

> <Gold.Chemscore.Metal>
0.0000

> <Gold.Chemscore.Lipo>
114.2049

> <Gold.Chemscore.Internal_Hbond>
0.0000

> <Gold.Chemscore.DEClash>
0.2398

> <Gold.Chemscore.DEInternal>
3.9204

> <Gold.Chemscore.Rot>
1.4923

> <Gold.Chemscore.Internal.Correction>
   9.000000E+99

> <Gold.Chemscore.Hbonds>
donor molecule, donor type, donor heavy atom, donor atom, acceptor molecule, acceptor atom, score
      P1  H  7989  7998       L1     9  0.97

> <Gold.Chemscore.Hbond.Weighted>
-3.1331

> <Gold.Chemscore.Metal.Weighted>
-0.0000

> <Gold.Chemscore.Lipo.Weighted>
-13.3620

> <Gold.Chemscore.Internal_Hbond.Weighted>
0.0000

> <Gold.Chemscore.DEClash.Weighted>
0.2398

> <Gold.Chemscore.DEInternal.Weighted>
3.9204

> <Gold.Chemscore.Rot.Weighted>
3.8204

> <Gold.Chemscore.Internal.Correction.Weighted>
   9.000000E+99

> <Gold.Protein.RotatedTorsions>
[ 6907 6896 6895 6894 ] final   81.65 input  -60.11 | X-H torsion
[ 7974 7965 7964 7962 ] final  -27.99 input  175.53 | X-H torsion
[ 8008 7997 7996 7995 ] final  -51.18 input   59.86 | X-H torsion
[ 10167 10162 10161 10158 ] final  165.16 input  -65.29 | X-H torsion
[ 10718 10713 10712 10709 ] final  -98.93 input   66.30 | X-H torsion
[ 10763 10752 10751 10750 ] final  173.89 input  -60.55 | X-H torsion
[ 11005 11000 10999 10996 ] final   96.03 input  -57.11 | X-H torsion

> <Gold.Protein.ActiveResidues>
 VAL166  LYS551  ARG553  GLY616  TRP617  ASP618  TYR619  PRO620  LYS621  CYS622 
 ASP623  PHE694  ASN695  SER759  ASP760  ASP761  ALA762  ILE779  LEU786  VAL792 
 PHE793  MET794  SER795  GLU796  ALA797  LYS798  CYS799  TRP800  GLU811  SER814 

> <Gold.Protein.RotatedAtoms>
  152.5275  134.3171  159.9134 H   0  0  0  0  0  0  0  0  0  0  0  0  # atno 6907 bound_to 6896
  151.3121  133.4070  159.2655 H   0  0  0  0  0  0  0  0  0  0  0  0  # atno 6908 bound_to 6896
  151.0030  134.9354  159.8022 H   0  0  0  0  0  0  0  0  0  0  0  0  # atno 6909 bound_to 6896
  146.1320  140.5224  142.8689 H   0  0  0  0  0  0  0  0  0  0  0  0  # atno 7974 bound_to 7965
  154.4077  140.1254  156.4787 H   0  0  0  0  0  0  0  0  0  0  0  0  # atno 8008 bound_to 7997
  155.7107  140.3494  155.4953 H   0  0  0  0  0  0  0  0  0  0  0  0  # atno 8009 bound_to 7997
  155.9303  140.1068  157.1127 H   0  0  0  0  0  0  0  0  0  0  0  0  # atno 8010 bound_to 7997
  139.4901  144.4161  151.9242 H   0  0  0  0  0  0  0  0  0  0  0  0  # atno 10167 bound_to 10162
  156.0120  130.5260  150.6595 H   0  0  0  0  0  0  0  0  0  0  0  0  # atno 10718 bound_to 10713
  154.4463  135.2763  155.1812 H   0  0  0  0  0  0  0  0  0  0  0  0  # atno 10763 bound_to 10752
  154.3658  135.6119  153.5718 H   0  0  0  0  0  0  0  0  0  0  0  0  # atno 10764 bound_to 10752
  152.9844  135.5845  154.4799 H   0  0  0  0  0  0  0  0  0  0  0  0  # atno 10765 bound_to 10752
  139.8784  134.8930  156.4099 H   0  0  0  0  0  0  0  0  0  0  0  0  # atno 11005 bound_to 11000
  144.7700  140.5616  143.6677 LP  0  0  0  0  0  0  0  0  0  0  0  0  # atno 17320 bound_to 7965
  145.5240  139.1476  143.3536 LP  0  0  0  0  0  0  0  0  0  0  0  0  # atno 17321 bound_to 7965
  140.3603  144.2981  150.5934 LP  0  0  0  0  0  0  0  0  0  0  0  0  # atno 17342 bound_to 10162
  140.5408  143.2224  151.8087 LP  0  0  0  0  0  0  0  0  0  0  0  0  # atno 17343 bound_to 10162
  157.4340  131.0853  151.1010 LP  0  0  0  0  0  0  0  0  0  0  0  0  # atno 17370 bound_to 10713
  157.1574  130.6211  149.5600 LP  0  0  0  0  0  0  0  0  0  0  0  0  # atno 17371 bound_to 10713
  140.9208  133.7646  155.9904 LP  0  0  0  0  0  0  0  0  0  0  0  0  # atno 17394 bound_to 11000
  140.8442  134.3030  157.5301 LP  0  0  0  0  0  0  0  0  0  0  0  0  # atno 17395 bound_to 11000

$$$$
