AV-unprocessed.smi:209|AV-procd|sdf|1609|dock6
  -GOLD-   2262019533D 1   1.00000     0.00000
 Structure written by MMmdl.
 48 52  0  0  0  0  0  0  0  0  1 V2000
  154.4486  139.7581  158.9733 O   0  0  0  0  0  0  0  0  0  0  0  0
  153.2579  139.9925  158.7789 C   0  0  0  0  0  0  0  0  0  0  0  0
  152.3991  139.2459  158.0742 N   0  0  0  0  0  0  0  0  0  0  0  0
  151.0804  139.8624  157.9659 C   0  0  0  0  0  0  0  0  0  0  0  0
  151.3887  141.3246  158.3229 C   0  0  2  0  0  0  0  0  0  0  0  0
  152.5120  141.1894  159.3397 C   0  0  2  0  0  0  0  0  0  0  0  0
  153.2040  142.5428  159.5121 C   0  0  0  0  0  0  0  0  0  0  0  0
  152.1223  143.5286  160.0160 C   0  0  0  0  0  0  0  0  0  0  0  0
  150.8406  143.5222  159.1379 C   0  0  0  0  0  0  0  0  0  0  0  0
  150.3359  142.1648  158.8824 N   0  0  0  0  0  0  0  0  0  0  0  0
  149.1852  142.1468  158.1752 C   0  0  0  0  0  0  0  0  0  0  0  0
  149.1587  141.6207  156.9222 N   0  0  0  0  0  0  0  0  0  0  0  0
  148.0126  141.5972  156.2351 C   0  0  0  0  0  0  0  0  0  0  0  0
  146.8063  142.0305  156.6085 N   0  0  0  0  0  0  0  0  0  0  0  0
  146.8315  142.5502  157.8699 C   0  0  0  0  0  0  0  0  0  0  0  0
  147.9733  142.6519  158.7119 C   0  0  0  0  0  0  0  0  0  0  0  0
  147.6285  143.2464  159.9178 N   0  0  0  0  0  0  0  0  0  0  0  0
  146.3524  143.4902  159.7935 C   0  0  0  0  0  0  0  0  0  0  0  0
  145.7862  143.0849  158.6042 N   0  0  0  0  0  0  0  0  0  0  0  0
  144.3938  143.2311  158.2040 C   0  0  0  0  0  0  0  0  0  0  0  0
  143.8338  144.6625  158.3434 C   0  0  0  0  0  0  0  0  0  0  0  0
  144.4796  145.5499  157.2603 C   0  0  0  0  0  0  0  0  0  0  0  0
  144.9856  146.7641  157.7786 O   0  0  0  0  0  0  0  0  0  0  0  0
  142.3039  144.7227  158.4707 C   0  0  0  0  0  0  0  0  0  0  0  0
  142.3661  145.1440  159.8509 O   0  0  0  0  0  0  0  0  0  0  0  0
  143.8046  145.2422  159.7657 C   0  0  0  0  0  0  0  0  0  0  0  0
  151.7767  141.8159  157.4273 H   0  0  0  0  0  0  0  0  0  0  0  0
  152.1088  140.8705  160.3033 H   0  0  0  0  0  0  0  0  0  0  0  0
  152.6449  138.3891  157.5994 H   0  0  0  0  0  0  0  0  0  0  0  0
  150.6597  139.7576  156.9653 H   0  0  0  0  0  0  0  0  0  0  0  0
  150.4027  139.4017  158.6862 H   0  0  0  0  0  0  0  0  0  0  0  0
  154.0231  142.4737  160.2284 H   0  0  0  0  0  0  0  0  0  0  0  0
  153.6269  142.8859  158.5670 H   0  0  0  0  0  0  0  0  0  0  0  0
  151.8474  143.2588  161.0365 H   0  0  0  0  0  0  0  0  0  0  0  0
  152.5315  144.5376  160.0692 H   0  0  0  0  0  0  0  0  0  0  0  0
  150.0619  144.1145  159.6204 H   0  0  0  0  0  0  0  0  0  0  0  0
  151.0609  144.0103  158.1872 H   0  0  0  0  0  0  0  0  0  0  0  0
  148.0697  141.1683  155.2455 H   0  0  0  0  0  0  0  0  0  0  0  0
  145.7830  143.9691  160.5767 H   0  0  0  0  0  0  0  0  0  0  0  0
  144.3005  142.8819  157.1750 H   0  0  0  0  0  0  0  0  0  0  0  0
  143.8041  142.5342  158.8009 H   0  0  0  0  0  0  0  0  0  0  0  0
  145.3149  145.0388  156.7834 H   0  0  0  0  0  0  0  0  0  0  0  0
  143.7625  145.7916  156.4753 H   0  0  0  0  0  0  0  0  0  0  0  0
  145.9139  146.8026  157.6051 H   0  0  0  0  0  0  0  0  0  0  0  0
  141.8192  145.4678  157.8394 H   0  0  0  0  0  0  0  0  0  0  0  0
  141.8120  143.7556  158.3596 H   0  0  0  0  0  0  0  0  0  0  0  0
  144.2994  144.6279  160.5159 H   0  0  0  0  0  0  0  0  0  0  0  0
  144.1453  146.2760  159.8364 H   0  0  0  0  0  0  0  0  0  0  0  0
  1  2  2  0  0  0  0
  2  6  1  0  0  0  0
  2  3  1  0  0  0  0
  3  4  1  0  0  0  0
  3 29  1  0  0  0  0
  4  5  1  0  0  0  0
  4 30  1  0  0  0  0
  4 31  1  0  0  0  0
  5 27  1  0  0  0  0
  5 10  1  0  0  0  0
  5  6  1  0  0  0  0
  6 28  1  0  0  0  0
  6  7  1  0  0  0  0
  7  8  1  0  0  0  0
  7 32  1  0  0  0  0
  7 33  1  0  0  0  0
  8  9  1  0  0  0  0
  8 34  1  0  0  0  0
  8 35  1  0  0  0  0
  9 10  1  0  0  0  0
  9 36  1  0  0  0  0
  9 37  1  0  0  0  0
 10 11  1  0  0  0  0
 11 16  1  0  0  0  0
 11 12  2  0  0  0  0
 12 13  1  0  0  0  0
 13 14  2  0  0  0  0
 13 38  1  0  0  0  0
 14 15  1  0  0  0  0
 15 19  1  0  0  0  0
 15 16  2  0  0  0  0
 16 17  1  0  0  0  0
 17 18  2  0  0  0  0
 18 19  1  0  0  0  0
 18 39  1  0  0  0  0
 19 20  1  0  0  0  0
 20 21  1  0  0  0  0
 20 40  1  0  0  0  0
 20 41  1  0  0  0  0
 21 26  1  0  0  0  0
 21 22  1  0  0  0  0
 21 24  1  0  0  0  0
 22 23  1  0  0  0  0
 22 42  1  0  0  0  0
 22 43  1  0  0  0  0
 23 44  1  0  0  0  0
 24 25  1  0  0  0  0
 24 45  1  0  0  0  0
 24 46  1  0  0  0  0
 25 26  1  0  0  0  0
 26 47  1  0  0  0  0
 26 48  1  0  0  0  0
M  END
> <s_m_source_file>
AV-unprocessed.smi

> <i_m_source_file_index>
209

> <i_lp_mmshare_version>
43012

> <i_f3d_flags>
0

> <s_epik_input>
W0NIMl0xW05IXUMoPU8pW0NAQEhdKFtDQEBIXTEyKVtDSDJdW0NIMl1bQ0gyXU4yYyhuW2NIXW4zKWMoYzM0KW5bY0hdbjRbQ0gyXUM1KFtDSDJdW09IXSlbQ0gyXU9bQ0gyXTU=

> <s_epik_cmdline>
J2VwaWtfcHl0aG9uJywgJy1waCcsICc3LjAnLCAnLXRuJywgJzgnLCAnLW1hJywgJzIwMCcsICctbWV0YWxfYmluZGluZycsICctaW1hZScsICc8aW5maWxlLm1hZT4nLCAnLW9tYWUnLCAnPG91dGZpbGUubWFlPic=

> <r_lp_tautomer_probability>
1

> <r_epik_Ionization_Penalty>
0.00113306

> <r_epik_Ionization_Penalty_Charging>
0

> <r_epik_Ionization_Penalty_Neutral>
0.00113306

> <r_epik_State_Penalty>
0.000624042

> <r_epik_Charging_Adjusted_Penalty>
0.000624042

> <i_epik_Tot_Q>
0

> <i_epik_Tot_abs_Q>
0

> <r_epik_Metal_State_Penalty>
-0

> <b_epik_Metal_Only>
0

> <s_lp_Force_Field>
OPLS_2005

> <r_lp_Energy>
56.7924

> <b_lp_Chiralities_Consistent>
1

> <s_lp_Variant>
AV-unprocessed.smi:209-3

> <Gold.Version>
5.8.1

> <Gold.Id.Protein>
6NUR|6NUR_protein|mol2

> <Gold.PLP.Fitness>
38.3974

> <Gold.PLP.PLP>
-31.8339

> <Gold.PLP.part.hbond>
-3.6556

> <Gold.PLP.part.metal>
0.0000

> <Gold.PLP.part.buried>
-5.4316

> <Gold.PLP.part.nonpolar>
-23.4035

> <Gold.PLP.part.repulsive>
0.5452

> <Gold.PLP.ligand.clash>
0.0000

> <Gold.PLP.ligand.torsion>
1.3866

> <Gold.PLP.Chemscore.Hbond>
2.9913

> <Gold.PLP.Chemscore.CHOScore>
0.0000

> <Gold.PLP.Chemscore.Metal>
0.0000

> <Gold.Chemscore.Hbonds>
donor molecule, donor type, donor heavy atom, donor atom, acceptor molecule, acceptor atom, score
      L1  H    23    44       P1  8029  0.86
      P1  H  6933  6944       L1    17  0.96
      P1  H  7997  8008       L1     1  0.95

> <Gold.PLP.Chemscore.Internal.Correction>
0.3630

> <Gold.Rescore>
     Score         DG    S(hbond)    S(metal)    S(lipo)     H(rot)  DE(clash)    DE(int)     intcor
     12.15     -14.98       2.66        0.00      63.42       2.66       0.08       2.75       ----

> <Gold.Chemscore.Fitness>
12.1529

> <Gold.Chemscore.DG>
-14.9797

> <Gold.Chemscore.ZeroCoef>
-5.4800

> <Gold.Chemscore.Hbond>
2.6630

> <Gold.Chemscore.Metal>
0.0000

> <Gold.Chemscore.Lipo>
63.4199

> <Gold.Chemscore.Internal_Hbond>
0.0000

> <Gold.Chemscore.DEClash>
0.0767

> <Gold.Chemscore.DEInternal>
2.7501

> <Gold.Chemscore.Rot>
2.6620

> <Gold.Chemscore.Internal.Correction>
   9.000000E+99

> <Gold.Chemscore.Hbonds>
donor molecule, donor type, donor heavy atom, donor atom, acceptor molecule, acceptor atom, score
      L1  H    23    44       P1  8029  0.73
      P1  H  6933  6944       L1    17  0.71
      P1  H  7997  8008       L1     1  0.21

> <Gold.Chemscore.Hbond.Weighted>
-8.8944

> <Gold.Chemscore.Metal.Weighted>
-0.0000

> <Gold.Chemscore.Lipo.Weighted>
-7.4201

> <Gold.Chemscore.Internal_Hbond.Weighted>
0.0000

> <Gold.Chemscore.DEClash.Weighted>
0.0767

> <Gold.Chemscore.DEInternal.Weighted>
2.7501

> <Gold.Chemscore.Rot.Weighted>
6.8148

> <Gold.Chemscore.Internal.Correction.Weighted>
   9.000000E+99

> <Gold.Protein.RotatedTorsions>
[ 6907 6896 6895 6894 ] final   76.27 input  -60.11 | X-H torsion
[ 7974 7965 7964 7962 ] final  -43.46 input  175.53 | X-H torsion
[ 8008 7997 7996 7995 ] final -118.08 input   59.86 | X-H torsion
[ 10167 10162 10161 10158 ] final   15.24 input  -65.29 | X-H torsion
[ 10718 10713 10712 10709 ] final   48.11 input   66.30 | X-H torsion
[ 10763 10752 10751 10750 ] final  -14.24 input  -60.55 | X-H torsion
[ 11005 11000 10999 10996 ] final  -94.05 input  -57.11 | X-H torsion

> <Gold.Protein.ActiveResidues>
 VAL166  LYS551  ARG553  GLY616  TRP617  ASP618  TYR619  PRO620  LYS621  CYS622 
 ASP623  PHE694  ASN695  SER759  ASP760  ASP761  ALA762  ILE779  LEU786  VAL792 
 PHE793  MET794  SER795  GLU796  ALA797  LYS798  CYS799  TRP800  GLU811  SER814 

> <Gold.Protein.RotatedAtoms>
  152.5065  134.3995  159.9411 H   0  0  0  0  0  0  0  0  0  0  0  0  # atno 6907 bound_to 6896
  151.3958  133.3767  159.2734 H   0  0  0  0  0  0  0  0  0  0  0  0  # atno 6908 bound_to 6896
  150.9398  134.8829  159.7664 H   0  0  0  0  0  0  0  0  0  0  0  0  # atno 6909 bound_to 6896
  146.0017  140.7066  142.9267 H   0  0  0  0  0  0  0  0  0  0  0  0  # atno 7974 bound_to 7965
  155.0940  140.0395  157.2677 H   0  0  0  0  0  0  0  0  0  0  0  0  # atno 8008 bound_to 7997
  154.6809  140.2633  155.6884 H   0  0  0  0  0  0  0  0  0  0  0  0  # atno 8009 bound_to 7997
  156.2694  140.2778  156.1353 H   0  0  0  0  0  0  0  0  0  0  0  0  # atno 8010 bound_to 7997
  140.5881  143.8850  150.6848 H   0  0  0  0  0  0  0  0  0  0  0  0  # atno 10167 bound_to 10162
  157.4654  130.8222  149.7930 H   0  0  0  0  0  0  0  0  0  0  0  0  # atno 10718 bound_to 10713
  153.5253  135.7015  153.5710 H   0  0  0  0  0  0  0  0  0  0  0  0  # atno 10763 bound_to 10752
  153.3741  135.3937  155.1810 H   0  0  0  0  0  0  0  0  0  0  0  0  # atno 10764 bound_to 10752
  154.8690  135.3819  154.4745 H   0  0  0  0  0  0  0  0  0  0  0  0  # atno 10765 bound_to 10752
  141.1481  133.7929  157.0245 H   0  0  0  0  0  0  0  0  0  0  0  0  # atno 11005 bound_to 11000
  144.6922  140.3245  143.7226 LP  0  0  0  0  0  0  0  0  0  0  0  0  # atno 17320 bound_to 7965
  145.7477  139.1784  143.2339 LP  0  0  0  0  0  0  0  0  0  0  0  0  # atno 17321 bound_to 7965
  140.2366  143.3695  152.1521 LP  0  0  0  0  0  0  0  0  0  0  0  0  # atno 17342 bound_to 10162
  139.5210  144.7040  151.5409 LP  0  0  0  0  0  0  0  0  0  0  0  0  # atno 17343 bound_to 10162
  156.0048  130.3861  150.2472 LP  0  0  0  0  0  0  0  0  0  0  0  0  # atno 17370 bound_to 10713
  157.0652  131.0101  151.3209 LP  0  0  0  0  0  0  0  0  0  0  0  0  # atno 17371 bound_to 10713
  140.0794  134.9657  157.1600 LP  0  0  0  0  0  0  0  0  0  0  0  0  # atno 17394 bound_to 11000
  140.3598  134.2507  155.7188 LP  0  0  0  0  0  0  0  0  0  0  0  0  # atno 17395 bound_to 11000

$$$$
