AV-unprocessed.smi:3306|AV-procd|sdf|12701|dock6
  -GOLD-   2272019 33D 1   1.00000     0.00000
 Structure written by MMmdl.
 45 46  0  0  0  0  0  0  0  0  3 V2000
  146.4268  133.9189  152.7566 C   0  0  0  0  0  0  0  0  0  0  0  0
  145.5998  135.0796  152.1794 C   0  0  0  0  0  0  0  0  0  0  0  0
  145.1864  134.8128  150.7189 C   0  0  0  0  0  0  0  0  0  0  0  0
  146.2935  136.3869  152.3742 N   0  3  2  0  0  0  0  0  0  0  0  0
  146.3351  136.8280  153.7934 C   0  0  0  0  0  0  0  0  0  0  0  0
  147.2638  138.0427  153.9643 C   0  0  0  0  0  0  0  0  0  0  0  0
  146.8334  139.2082  153.0580 C   0  0  1  0  0  0  0  0  0  0  0  0
  147.7657  140.3479  153.2169 N   0  3  0  0  0  0  0  0  0  0  0  0
  148.0016  140.7789  154.6106 C   0  0  0  0  0  0  0  0  0  0  0  0
  149.2527  141.6626  154.7091 C   0  0  0  0  0  0  0  0  0  0  0  0
  150.2941  141.0783  155.6445 C   0  0  0  0  0  0  0  0  0  0  0  0
  150.4339  141.5620  156.9626 C   0  0  0  0  0  0  0  0  0  0  0  0
  151.4171  140.9825  157.7885 C   0  0  0  0  0  0  0  0  0  0  0  0
  152.2152  139.9457  157.2676 C   0  0  0  0  0  0  0  0  0  0  0  0
  151.9944  139.5323  155.9388 C   0  0  0  0  0  0  0  0  0  0  0  0
  151.0551  140.0821  155.1382 N   0  0  0  0  0  0  0  0  0  0  0  0
  146.7677  138.7120  151.5999 C   0  0  0  0  0  0  0  0  0  0  0  0
  145.8484  137.4842  151.4717 C   0  0  0  0  0  0  0  0  0  0  0  0
  145.8551  132.9905  152.7399 H   0  0  0  0  0  0  0  0  0  0  0  0
  146.7063  134.1105  153.7932 H   0  0  0  0  0  0  0  0  0  0  0  0
  147.3409  133.7440  152.1895 H   0  0  0  0  0  0  0  0  0  0  0  0
  144.6849  135.1144  152.7729 H   0  0  0  0  0  0  0  0  0  0  0  0
  144.5885  133.9035  150.6499 H   0  0  0  0  0  0  0  0  0  0  0  0
  146.0510  134.6765  150.0690 H   0  0  0  0  0  0  0  0  0  0  0  0
  144.5838  135.6246  150.3124 H   0  0  0  0  0  0  0  0  0  0  0  0
  145.3299  137.0773  154.1358 H   0  0  0  0  0  0  0  0  0  0  0  0
  146.6930  136.0151  154.4263 H   0  0  0  0  0  0  0  0  0  0  0  0
  147.2619  138.3604  155.0077 H   0  0  0  0  0  0  0  0  0  0  0  0
  148.2891  137.7495  153.7327 H   0  0  0  0  0  0  0  0  0  0  0  0
  145.8400  139.5334  153.3725 H   0  0  0  0  0  0  0  0  0  0  0  0
  148.6595  140.0656  152.8397 H   0  0  0  0  0  0  0  0  0  0  0  0
  147.1356  141.3282  154.9801 H   0  0  0  0  0  0  0  0  0  0  0  0
  148.1210  139.8981  155.2431 H   0  0  0  0  0  0  0  0  0  0  0  0
  149.7003  141.7913  153.7225 H   0  0  0  0  0  0  0  0  0  0  0  0
  148.9790  142.6605  155.0550 H   0  0  0  0  0  0  0  0  0  0  0  0
  149.8068  142.3586  157.3354 H   0  0  0  0  0  0  0  0  0  0  0  0
  151.5568  141.3272  158.8023 H   0  0  0  0  0  0  0  0  0  0  0  0
  152.9788  139.4787  157.8721 H   0  0  0  0  0  0  0  0  0  0  0  0
  152.5867  138.7387  155.5077 H   0  0  0  0  0  0  0  0  0  0  0  0
  146.3996  139.4991  150.9418 H   0  0  0  0  0  0  0  0  0  0  0  0
  147.7681  138.4570  151.2471 H   0  0  0  0  0  0  0  0  0  0  0  0
  145.8490  137.1477  150.4356 H   0  0  0  0  0  0  0  0  0  0  0  0
  144.8242  137.7732  151.7114 H   0  0  0  0  0  0  0  0  0  0  0  0
  147.2559  136.2025  152.1292 H   0  0  0  0  0  0  0  0  0  0  0  0
  147.4272  141.1328  152.6786 H   0  0  0  0  0  0  0  0  0  0  0  0
  1  2  1  0  0  0  0
  1 19  1  0  0  0  0
  1 20  1  0  0  0  0
  1 21  1  0  0  0  0
  2  3  1  0  0  0  0
  2  4  1  0  0  0  0
  2 22  1  0  0  0  0
  3 23  1  0  0  0  0
  3 24  1  0  0  0  0
  3 25  1  0  0  0  0
  4 18  1  0  0  0  0
  4  5  1  0  0  0  0
  4 44  1  0  0  0  0
  5  6  1  0  0  0  0
  5 26  1  0  0  0  0
  5 27  1  0  0  0  0
  6  7  1  0  0  0  0
  6 28  1  0  0  0  0
  6 29  1  0  0  0  0
  7  8  1  0  0  0  0
  7 17  1  0  0  0  0
  7 30  1  0  0  0  0
  8  9  1  0  0  0  0
  8 31  1  0  0  0  0
  8 45  1  0  0  0  0
  9 10  1  0  0  0  0
  9 32  1  0  0  0  0
  9 33  1  0  0  0  0
 10 11  1  0  0  0  0
 10 34  1  0  0  0  0
 10 35  1  0  0  0  0
 11 16  1  0  0  0  0
 11 12  2  0  0  0  0
 12 13  1  0  0  0  0
 12 36  1  0  0  0  0
 13 14  2  0  0  0  0
 13 37  1  0  0  0  0
 14 15  1  0  0  0  0
 14 38  1  0  0  0  0
 15 16  2  0  0  0  0
 15 39  1  0  0  0  0
 17 18  1  0  0  0  0
 17 40  1  0  0  0  0
 17 41  1  0  0  0  0
 18 42  1  0  0  0  0
 18 43  1  0  0  0  0
M  CHG  1   4   1
M  CHG  1   8   1
M  END
> <s_m_source_file>
AV-unprocessed.smi

> <i_m_source_file_index>
3306

> <i_lp_mmshare_version>
43012

> <i_f3d_flags>
0

> <s_epik_input>
W0NIM11bQ0hdKFtDSDNdKU4xW0NIMl1bQ0gyXVtDSF0oW0NIMl1bQ0gyXTEpW05IXVtDSDJdW0NIMl1jMltjSF1bY0hdW2NIXVtjSF1uMg==

> <s_epik_cmdline>
J2VwaWtfcHl0aG9uJywgJy1waCcsICc3LjAnLCAnLXRuJywgJzgnLCAnLW1hJywgJzIwMCcsICctbWV0YWxfYmluZGluZycsICctaW1hZScsICc8aW5maWxlLm1hZT4nLCAnLW9tYWUnLCAnPG91dGZpbGUubWFlPic=

> <r_epik_Ionization_Penalty>
0.0800465

> <r_epik_Ionization_Penalty_Charging>
0.0790817

> <r_epik_Ionization_Penalty_Neutral>
0.000964829

> <r_epik_State_Penalty>
0.0665964

> <r_epik_Charging_Adjusted_Penalty>
0.145678

> <i_epik_Tot_Q>
2

> <i_epik_Tot_abs_Q>
2

> <r_epik_Metal_State_Penalty>
0.0683331

> <b_epik_Metal_Only>
0

> <s_lp_Force_Field>
OPLS_2005

> <r_lp_Energy>
27.4923

> <b_lp_Chiralities_Consistent>
1

> <s_lp_Variant>
AV-unprocessed.smi:3306-1

> <Gold.Version>
5.8.1

> <Gold.Id.Protein>
6NUR|6NUR_protein|mol2

> <Gold.PLP.Fitness>
43.0871

> <Gold.PLP.PLP>
-33.6565

> <Gold.PLP.part.hbond>
-3.0000

> <Gold.PLP.part.metal>
0.0000

> <Gold.PLP.part.buried>
1.7466

> <Gold.PLP.part.nonpolar>
-32.4850

> <Gold.PLP.part.repulsive>
0.1579

> <Gold.PLP.ligand.clash>
0.0000

> <Gold.PLP.ligand.torsion>
1.0870

> <Gold.PLP.Chemscore.Hbond>
3.8160

> <Gold.PLP.Chemscore.CHOScore>
0.0000

> <Gold.PLP.Chemscore.Metal>
0.0000

> <Gold.Chemscore.Hbonds>
donor molecule, donor type, donor heavy atom, donor atom, acceptor molecule, acceptor atom, score
      L1  H     4    44       P1  7948  2.00
      L1  H     8    31       P1  7957  0.78
      P1  H  7989  7998       L1    16  1.00

> <Gold.PLP.Chemscore.Internal.Correction>
0.1566

> <Gold.Rescore>
     Score         DG    S(hbond)    S(metal)    S(lipo)     H(rot)  DE(clash)    DE(int)     intcor
     18.59     -21.29       2.65        0.00      91.48       1.47       1.59       1.10       ----

> <Gold.Chemscore.Fitness>
18.5916

> <Gold.Chemscore.DG>
-21.2868

> <Gold.Chemscore.ZeroCoef>
-5.4800

> <Gold.Chemscore.Hbond>
2.6531

> <Gold.Chemscore.Metal>
0.0000

> <Gold.Chemscore.Lipo>
91.4812

> <Gold.Chemscore.Internal_Hbond>
0.0000

> <Gold.Chemscore.DEClash>
1.5947

> <Gold.Chemscore.DEInternal>
1.1005

> <Gold.Chemscore.Rot>
1.4679

> <Gold.Chemscore.Internal.Correction>
   9.000000E+99

> <Gold.Chemscore.Hbonds>
donor molecule, donor type, donor heavy atom, donor atom, acceptor molecule, acceptor atom, score
      L1  H     4    44       P1  7948  1.00
      L1  H     8    31       P1  7957  0.77
      P1  H  7989  7998       L1    16  0.29

> <Gold.Chemscore.Hbond.Weighted>
-8.8613

> <Gold.Chemscore.Metal.Weighted>
-0.0000

> <Gold.Chemscore.Lipo.Weighted>
-10.7033

> <Gold.Chemscore.Internal_Hbond.Weighted>
0.0000

> <Gold.Chemscore.DEClash.Weighted>
1.5947

> <Gold.Chemscore.DEInternal.Weighted>
1.1005

> <Gold.Chemscore.Rot.Weighted>
3.7579

> <Gold.Chemscore.Internal.Correction.Weighted>
   9.000000E+99

> <Gold.Protein.RotatedTorsions>
[ 6907 6896 6895 6894 ] final  156.49 input  -60.11 | X-H torsion
[ 7974 7965 7964 7962 ] final  175.95 input  175.53 | X-H torsion
[ 8008 7997 7996 7995 ] final   55.30 input   59.86 | X-H torsion
[ 10167 10162 10161 10158 ] final    2.92 input  -65.29 | X-H torsion
[ 10718 10713 10712 10709 ] final  -83.73 input   66.30 | X-H torsion
[ 10763 10752 10751 10750 ] final  169.23 input  -60.55 | X-H torsion
[ 11005 11000 10999 10996 ] final   65.88 input  -57.11 | X-H torsion

> <Gold.Protein.ActiveResidues>
 VAL166  LYS551  ARG553  GLY616  TRP617  ASP618  TYR619  PRO620  LYS621  CYS622 
 ASP623  PHE694  ASN695  SER759  ASP760  ASP761  ALA762  ILE779  LEU786  VAL792 
 PHE793  MET794  SER795  GLU796  ALA797  LYS798  CYS799  TRP800  GLU811  SER814 

> <Gold.Protein.RotatedAtoms>
  152.0289  133.3929  159.4288 H   0  0  0  0  0  0  0  0  0  0  0  0  # atno 6907 bound_to 6896
  150.6884  134.3542  159.4931 H   0  0  0  0  0  0  0  0  0  0  0  0  # atno 6908 bound_to 6896
  152.1326  134.9123  160.0608 H   0  0  0  0  0  0  0  0  0  0  0  0  # atno 6909 bound_to 6896
  144.7192  140.0023  143.6440 H   0  0  0  0  0  0  0  0  0  0  0  0  # atno 7974 bound_to 7965
  155.4989  140.3474  155.4367 H   0  0  0  0  0  0  0  0  0  0  0  0  # atno 8008 bound_to 7997
  156.0927  140.1415  156.9599 H   0  0  0  0  0  0  0  0  0  0  0  0  # atno 8009 bound_to 7997
  154.4645  140.0923  156.6959 H   0  0  0  0  0  0  0  0  0  0  0  0  # atno 8010 bound_to 7997
  140.6611  143.7300  150.7741 H   0  0  0  0  0  0  0  0  0  0  0  0  # atno 10167 bound_to 10162
  156.0014  130.4675  150.4302 H   0  0  0  0  0  0  0  0  0  0  0  0  # atno 10718 bound_to 10713
  154.3802  135.2753  155.2216 H   0  0  0  0  0  0  0  0  0  0  0  0  # atno 10763 bound_to 10752
  154.4326  135.5973  153.6082 H   0  0  0  0  0  0  0  0  0  0  0  0  # atno 10764 bound_to 10752
  152.9835  135.5999  154.4043 H   0  0  0  0  0  0  0  0  0  0  0  0  # atno 10765 bound_to 10752
  139.9866  134.6657  156.0164 H   0  0  0  0  0  0  0  0  0  0  0  0  # atno 11005 bound_to 11000
  146.0325  139.3348  143.0746 LP  0  0  0  0  0  0  0  0  0  0  0  0  # atno 17320 bound_to 7965
  145.8435  140.9568  143.0787 LP  0  0  0  0  0  0  0  0  0  0  0  0  # atno 17321 bound_to 7965
  140.0969  143.4824  152.2447 LP  0  0  0  0  0  0  0  0  0  0  0  0  # atno 17342 bound_to 10162
  139.5846  144.7525  151.3553 LP  0  0  0  0  0  0  0  0  0  0  0  0  # atno 17343 bound_to 10162
  157.2352  131.0513  151.2469 LP  0  0  0  0  0  0  0  0  0  0  0  0  # atno 17370 bound_to 10713
  157.3673  130.7163  149.6541 LP  0  0  0  0  0  0  0  0  0  0  0  0  # atno 17371 bound_to 10713
  141.1530  133.6546  156.4073 LP  0  0  0  0  0  0  0  0  0  0  0  0  # atno 17394 bound_to 11000
  140.4989  134.6504  157.5241 LP  0  0  0  0  0  0  0  0  0  0  0  0  # atno 17395 bound_to 11000

$$$$
