AV-unprocessed.smi:384|AV-procd|sdf|2468|dock3
  -GOLD-   2262022413D 1   1.00000     0.00000
 Structure written by MMmdl.
 33 34  0  0  0  0  0  0  0  0  3 V2000
  145.2578  130.8272  151.0240 C   0  0  0  0  0  0  0  0  0  0  0  0
  145.9297  132.1744  151.3086 C   0  0  2  0  0  0  0  0  0  0  0  0
  146.8845  132.0981  152.5128 C   0  0  0  0  0  0  0  0  0  0  0  0
  147.4170  133.4204  152.8086 N   0  0  0  0  0  0  0  0  0  0  0  0
  148.4037  133.4072  153.8022 C   0  0  0  0  0  0  0  0  0  0  0  0
  148.6804  132.2814  154.6115 C   0  0  0  0  0  0  0  0  0  0  0  0
  149.6980  132.3625  155.5841 C   0  0  0  0  0  0  0  0  0  0  0  0
  150.4262  133.5654  155.7370 C   0  0  0  0  0  0  0  0  0  0  0  0
  151.5184  133.6822  156.7618 C   0  0  0  0  0  0  0  0  0  0  0  0
  151.7696  132.6941  157.4864 O   0  0  0  0  0  0  0  0  0  0  0  0
  152.1402  134.7636  156.8573 O   0  5  0  0  0  0  0  0  0  0  0  0
  150.1011  134.6568  154.8996 C   0  0  0  0  0  0  0  0  0  0  0  0
  149.1188  134.5391  153.9791 N   0  3  0  0  0  0  0  0  0  0  0  0
  146.3674  134.3993  153.0588 C   0  0  0  0  0  0  0  0  0  0  0  0
  145.3755  134.4494  151.8796 C   0  0  1  0  0  0  0  0  0  0  0  0
  145.9323  135.1646  150.6357 C   0  0  0  0  0  0  0  0  0  0  0  0
  144.9057  133.1325  151.5785 O   0  0  0  0  0  0  0  0  0  0  0  0
  145.9981  130.0573  150.8052 H   0  0  0  0  0  0  0  0  0  0  0  0
  144.5905  130.8993  150.1648 H   0  0  0  0  0  0  0  0  0  0  0  0
  144.6669  130.4914  151.8767 H   0  0  0  0  0  0  0  0  0  0  0  0
  146.4854  132.4695  150.4183 H   0  0  0  0  0  0  0  0  0  0  0  0
  146.3550  131.7105  153.3842 H   0  0  0  0  0  0  0  0  0  0  0  0
  147.7037  131.4099  152.2996 H   0  0  0  0  0  0  0  0  0  0  0  0
  148.1240  131.3632  154.4929 H   0  0  0  0  0  0  0  0  0  0  0  0
  149.9114  131.5025  156.2020 H   0  0  0  0  0  0  0  0  0  0  0  0
  150.5946  135.6176  154.9347 H   0  0  0  0  0  0  0  0  0  0  0  0
  145.8323  134.1269  153.9696 H   0  0  0  0  0  0  0  0  0  0  0  0
  146.8046  135.3841  153.2296 H   0  0  0  0  0  0  0  0  0  0  0  0
  144.5030  135.0169  152.2042 H   0  0  0  0  0  0  0  0  0  0  0  0
  146.1682  136.2047  150.8613 H   0  0  0  0  0  0  0  0  0  0  0  0
  145.2010  135.1615  149.8272 H   0  0  0  0  0  0  0  0  0  0  0  0
  146.8448  134.7001  150.2631 H   0  0  0  0  0  0  0  0  0  0  0  0
  148.9100  135.3446  153.3891 H   0  0  0  0  0  0  0  0  0  0  0  0
  1  2  1  0  0  0  0
  1 18  1  0  0  0  0
  1 19  1  0  0  0  0
  1 20  1  0  0  0  0
  2 17  1  0  0  0  0
  2  3  1  0  0  0  0
  2 21  1  0  0  0  0
  3  4  1  0  0  0  0
  3 22  1  0  0  0  0
  3 23  1  0  0  0  0
  4  5  1  0  0  0  0
  4 14  1  0  0  0  0
  5 13  1  0  0  0  0
  5  6  2  0  0  0  0
  6  7  1  0  0  0  0
  6 24  1  0  0  0  0
  7  8  2  0  0  0  0
  7 25  1  0  0  0  0
  8  9  1  0  0  0  0
  8 12  1  0  0  0  0
  9 10  2  0  0  0  0
  9 11  1  0  0  0  0
 12 13  2  0  0  0  0
 12 26  1  0  0  0  0
 13 33  1  0  0  0  0
 14 15  1  0  0  0  0
 14 27  1  0  0  0  0
 14 28  1  0  0  0  0
 15 16  1  0  0  0  0
 15 17  1  0  0  0  0
 15 29  1  0  0  0  0
 16 30  1  0  0  0  0
 16 31  1  0  0  0  0
 16 32  1  0  0  0  0
M  CHG  1  11  -1
M  CHG  1  13   1
M  END
> <s_m_source_file>
AV-unprocessed.smi

> <i_m_source_file_index>
384

> <i_lp_mmshare_version>
43012

> <i_f3d_flags>
0

> <s_epik_input>
W0NIM11bQ0BASF0xW0NIMl1OKFtDSDJdW0NASF0oTzEpW0NIM10pYzJbY0hdW2NIXWMoW2NIXW4yKUMoPU8pW09IXQ==

> <s_epik_cmdline>
J2VwaWtfcHl0aG9uJywgJy1waCcsICc3LjAnLCAnLXRuJywgJzgnLCAnLW1hJywgJzIwMCcsICctbWV0YWxfYmluZGluZycsICctaW1hZScsICc8aW5maWxlLm1hZT4nLCAnLW9tYWUnLCAnPG91dGZpbGUubWFlPic=

> <r_epik_Ionization_Penalty>
2.35185

> <r_epik_Ionization_Penalty_Charging>
2.35185

> <r_epik_Ionization_Penalty_Neutral>
3.18713e-12

> <r_epik_State_Penalty>
2.50619

> <r_epik_Charging_Adjusted_Penalty>
4.85804

> <i_epik_Tot_Q>
0

> <i_epik_Tot_abs_Q>
2

> <r_epik_Metal_State_Penalty>
6.59026

> <b_epik_Metal_Only>
0

> <s_lp_Force_Field>
OPLS_2005

> <r_lp_Energy>
19.905

> <b_lp_Chiralities_Consistent>
1

> <s_lp_Variant>
AV-unprocessed.smi:384-4

> <Gold.Version>
5.8.1

> <Gold.Id.Protein>
6NUR|6NUR_protein|mol2

> <Gold.PLP.Fitness>
42.9900

> <Gold.PLP.PLP>
-26.1505

> <Gold.PLP.part.hbond>
-3.4441

> <Gold.PLP.part.metal>
0.0000

> <Gold.PLP.part.buried>
-2.0248

> <Gold.PLP.part.nonpolar>
-20.1156

> <Gold.PLP.part.repulsive>
0.2683

> <Gold.PLP.ligand.clash>
0.0000

> <Gold.PLP.ligand.torsion>
0.1201

> <Gold.PLP.Chemscore.Hbond>
5.6640

> <Gold.PLP.Chemscore.CHOScore>
0.0000

> <Gold.PLP.Chemscore.Metal>
0.0000

> <Gold.Chemscore.Hbonds>
donor molecule, donor type, donor heavy atom, donor atom, acceptor molecule, acceptor atom, score
      L1  H    13    33       P1  7948  2.00
      P1  H  6896  6909       L1    10  1.95
      P1  H 10752 10764       L1    11  1.53

> <Gold.PLP.Chemscore.Internal.Correction>
0.0877

> <Gold.Rescore>
     Score         DG    S(hbond)    S(metal)    S(lipo)     H(rot)  DE(clash)    DE(int)     intcor
     16.92     -17.18       2.25        0.00      57.81       1.00       0.08       0.18       ----

> <Gold.Chemscore.Fitness>
16.9246

> <Gold.Chemscore.DG>
-17.1833

> <Gold.Chemscore.ZeroCoef>
-5.4800

> <Gold.Chemscore.Hbond>
2.2455

> <Gold.Chemscore.Metal>
0.0000

> <Gold.Chemscore.Lipo>
57.8060

> <Gold.Chemscore.Internal_Hbond>
0.0000

> <Gold.Chemscore.DEClash>
0.0759

> <Gold.Chemscore.DEInternal>
0.1827

> <Gold.Chemscore.Rot>
1.0000

> <Gold.Chemscore.Internal.Correction>
   9.000000E+99

> <Gold.Chemscore.Hbonds>
donor molecule, donor type, donor heavy atom, donor atom, acceptor molecule, acceptor atom, score
      L1  H    13    33       P1  7948  0.62
      P1  H  6896  6909       L1    10  0.51
      P1  H 10752 10764       L1    11  0.68

> <Gold.Chemscore.Hbond.Weighted>
-7.5000

> <Gold.Chemscore.Metal.Weighted>
-0.0000

> <Gold.Chemscore.Lipo.Weighted>
-6.7633

> <Gold.Chemscore.Internal_Hbond.Weighted>
0.0000

> <Gold.Chemscore.DEClash.Weighted>
0.0759

> <Gold.Chemscore.DEInternal.Weighted>
0.1827

> <Gold.Chemscore.Rot.Weighted>
2.5600

> <Gold.Chemscore.Internal.Correction.Weighted>
   9.000000E+99

> <Gold.Protein.RotatedTorsions>
[ 6907 6896 6895 6894 ] final  -61.53 input  -60.11 | X-H torsion
[ 7974 7965 7964 7962 ] final   19.65 input  175.53 | X-H torsion
[ 8008 7997 7996 7995 ] final -117.06 input   59.86 | X-H torsion
[ 10167 10162 10161 10158 ] final  145.69 input  -65.29 | X-H torsion
[ 10718 10713 10712 10709 ] final  -77.79 input   66.30 | X-H torsion
[ 10763 10752 10751 10750 ] final  -19.64 input  -60.55 | X-H torsion
[ 11005 11000 10999 10996 ] final  145.92 input  -57.11 | X-H torsion

> <Gold.Protein.ActiveResidues>
 VAL166  LYS551  ARG553  GLY616  TRP617  ASP618  TYR619  PRO620  LYS621  CYS622 
 ASP623  PHE694  ASN695  SER759  ASP760  ASP761  ALA762  ILE779  LEU786  VAL792 
 PHE793  MET794  SER795  GLU796  ALA797  LYS798  CYS799  TRP800  GLU811  SER814 

> <Gold.Protein.RotatedAtoms>
  150.7778  134.6693  159.6382 H   0  0  0  0  0  0  0  0  0  0  0  0  # atno 6907 bound_to 6896
  152.3854  134.6522  160.0136 H   0  0  0  0  0  0  0  0  0  0  0  0  # atno 6908 bound_to 6896
  151.6839  133.3275  159.3262 H   0  0  0  0  0  0  0  0  0  0  0  0  # atno 6909 bound_to 6896
  146.2141  139.8282  142.8665 H   0  0  0  0  0  0  0  0  0  0  0  0  # atno 7974 bound_to 7965
  155.0776  140.0394  157.2629 H   0  0  0  0  0  0  0  0  0  0  0  0  # atno 8008 bound_to 7997
  154.6932  140.2658  155.6767 H   0  0  0  0  0  0  0  0  0  0  0  0  # atno 8009 bound_to 7997
  156.2736  140.2755  156.1517 H   0  0  0  0  0  0  0  0  0  0  0  0  # atno 8010 bound_to 7997
  139.4921  144.5883  151.6732 H   0  0  0  0  0  0  0  0  0  0  0  0  # atno 10167 bound_to 10162
  156.0135  130.4500  150.3398 H   0  0  0  0  0  0  0  0  0  0  0  0  # atno 10718 bound_to 10713
  153.6079  135.6997  153.5358 H   0  0  0  0  0  0  0  0  0  0  0  0  # atno 10763 bound_to 10752
  153.3041  135.4120  155.1278 H   0  0  0  0  0  0  0  0  0  0  0  0  # atno 10764 bound_to 10752
  154.8569  135.3656  154.5617 H   0  0  0  0  0  0  0  0  0  0  0  0  # atno 10765 bound_to 10752
  140.0751  134.9129  157.1410 H   0  0  0  0  0  0  0  0  0  0  0  0  # atno 11005 bound_to 11000
  145.3025  141.0198  143.3601 LP  0  0  0  0  0  0  0  0  0  0  0  0  # atno 17320 bound_to 7965
  144.8995  139.4667  143.6639 LP  0  0  0  0  0  0  0  0  0  0  0  0  # atno 17321 bound_to 7965
  140.5504  144.0434  150.6125 LP  0  0  0  0  0  0  0  0  0  0  0  0  # atno 17342 bound_to 10162
  140.3486  143.2976  152.0511 LP  0  0  0  0  0  0  0  0  0  0  0  0  # atno 17343 bound_to 10162
  157.1493  131.0317  151.2892 LP  0  0  0  0  0  0  0  0  0  0  0  0  # atno 17370 bound_to 10713
  157.4405  130.7541  149.7065 LP  0  0  0  0  0  0  0  0  0  0  0  0  # atno 17371 bound_to 10713
  140.3569  134.2537  155.7191 LP  0  0  0  0  0  0  0  0  0  0  0  0  # atno 17394 bound_to 11000
  141.2026  133.7932  157.0380 LP  0  0  0  0  0  0  0  0  0  0  0  0  # atno 17395 bound_to 11000

$$$$
