#       Name:                AV-unprocessed.smi:2775
#       Creating user name   scv26
#       Creation time:       Fri Mar 27 15:14:11 2020


#       File generated by GOLD software.
#

@<TRIPOS>MOLECULE
AV-unprocessed.smi:2775
    47    50     1
SMALL
NO_CHARGES


@<TRIPOS>ATOM
      1 ****        -5.4331   1.8584  -0.3521 C.3            1 S1                 0.0000
      2 ****        -4.6885   0.5770  -0.0303 C.ar           1 S1                 0.0000
      3 ****        -5.4131  -0.4801   0.3978 N.pl3          1 S1                 1.0000
      4 ****        -4.8626  -1.6728   0.7051 C.ar           1 S1                 0.0000
      5 ****        -3.4708  -1.8545   0.5913 C.ar           1 S1                 0.0000
      6 ****        -2.6597  -0.7732   0.1629 C.ar           1 S1                 0.0000
      7 ****        -1.2494  -0.8708   0.0040 N.am           1 S1                 0.0000
      8 ****        -0.3851  -1.7134   0.6023 C.2            1 S1                 0.0000
      9 ****        -0.7012  -2.6015   1.3907 O.2            1 S1                 0.0000
     10 ****         0.9001  -1.4952   0.2758 N.am           1 S1                 0.0000
     11 ****         2.0770  -2.2342   0.7530 C.3            1 S1                 0.0000
     12 ****         2.3424  -3.5476   0.0039 C.3            1 S1                 0.0000
     13 ****         1.5202  -4.5097  -0.7748 C.3            1 S1                 0.0000
     14 ****         2.5635  -4.7984  -1.8844 C.3            1 S1                 0.0000
     15 ****         3.6343  -3.8428  -1.6784 O.3            1 S1                 0.0000
     16 ****         3.0022  -2.7216  -1.0885 C.3            1 S1                 0.0000
     17 ****         3.4111  -1.7926   0.0687 C.3            1 S1                 0.0000
     18 ****         3.7559  -0.3197  -0.1836 C.3            1 S1                 0.0000
     19 ****         5.2326  -0.6882  -0.0055 C.3            1 S1                 0.0000
     20 ****         4.7812  -1.9425   0.7493 C.3            1 S1                 0.0000
     21 ****        -3.2853   0.4555  -0.1646 C.ar           1 S1                 0.0000
     22 ****        -2.3462   1.8006  -0.7196 Cl             1 S1                 0.0000
     23 ****        -5.0692   2.6758   0.2709 H              1 S1                 0.0000
     24 ****        -6.5044   1.7510  -0.1780 H              1 S1                 0.0000
     25 ****        -5.2858   2.1301  -1.3978 H              1 S1                 0.0000
     26 ****        -5.5483  -2.4438   1.0251 H              1 S1                 0.0000
     27 ****        -3.0563  -2.8235   0.8233 H              1 S1                 0.0000
     28 ****        -0.8304  -0.1495  -0.5652 H              1 S1                 0.0000
     29 ****         1.0838  -0.7429  -0.3729 H              1 S1                 0.0000
     30 ****         2.1544  -2.3117   1.8387 H              1 S1                 0.0000
     31 ****         3.0797  -4.1096   0.5889 H              1 S1                 0.0000
     32 ****         1.2542  -5.4007  -0.2062 H              1 S1                 0.0000
     33 ****         0.6149  -4.0524  -1.1755 H              1 S1                 0.0000
     34 ****         2.9592  -5.8125  -1.8204 H              1 S1                 0.0000
     35 ****         2.1236  -4.6676  -2.8739 H              1 S1                 0.0000
     36 ****         2.2974  -2.2503  -1.7804 H              1 S1                 0.0000
     37 ****         3.4938   0.0490  -1.1756 H              1 S1                 0.0000
     38 ****         3.3882   0.3393   0.6041 H              1 S1                 0.0000
     39 ****         5.7250  -0.9213  -0.9510 H              1 S1                 0.0000
     40 ****         5.8114   0.0186   0.5896 H              1 S1                 0.0000
     41 ****         4.7351  -1.7906   1.8287 H              1 S1                 0.0000
     42 ****         5.3287  -2.8493   0.4909 H              1 S1                 0.0000
     43 ****        -6.4239  -0.3735   0.4869 H              1 S1                 0.0000
     44 ****        -1.6624  -2.7388   1.6300 LP             1 S1                 0.0000
     45 ****         0.0027  -3.1868   1.7930 LP             1 S1                 0.0000
     46 ****         4.0567  -3.5924  -2.5495 LP             1 S1                 0.0000
     47 ****         4.3302  -4.2185  -1.0663 LP             1 S1                 0.0000
@<TRIPOS>BOND
    1    1    2 1     
    2    1   23 1     
    3    1   24 1     
    4    1   25 1     
    5    2   21 ar    
    6    2    3 ar    
    7    3    4 ar    
    8    3   43 1     
    9    4    5 ar    
   10    4   26 1     
   11    5    6 ar    
   12    5   27 1     
   13    6    7 1     
   14    6   21 ar    
   15    7    8 am    
   16    7   28 1     
   17    8    9 2     
   18    8   10 am    
   19   10   11 1     
   20   10   29 1     
   21   11   17 1     
   22   11   12 1     
   23   11   30 1     
   24   12   16 1     
   25   12   13 1     
   26   12   31 1     
   27   13   14 1     
   28   13   32 1     
   29   13   33 1     
   30   14   15 1     
   31   14   34 1     
   32   14   35 1     
   33   15   16 1     
   34   16   17 1     
   35   16   36 1     
   36   17   20 1     
   37   17   18 1     
   38   18   19 1     
   39   18   37 1     
   40   18   38 1     
   41   19   20 1     
   42   19   39 1     
   43   19   40 1     
   44   20   41 1     
   45   20   42 1     
   46   21   22 1     
   47    9   44 1     
   48    9   45 1     
   49   15   46 1     
   50   15   47 1     
@<TRIPOS>SUBSTRUCTURE
      1 S1             1
@<TRIPOS>SET
LONE_PAIRS      STATIC     ATOMS    <user>   **** ""
4 44 45 46 47
DONOR_HYDROGENS      STATIC     ATOMS    <user>   **** ""
3 43 28 29
ATOM$BLUE        STATIC     ATOMS    COLORGROUP SYSTEM
4 44 45 46 47
ATOM$RED        STATIC     ATOMS    COLORGROUP SYSTEM
3 43 28 29
