AV-unprocessed.smi:2495|AV-procd|sdf|9824|dock1
  -GOLD-   2272013453D 1   1.00000     0.00000
 Structure written by MMmdl.
 33 34  0  0  0  0  0  0  0  0  1 V2000
  146.7141  138.7328  152.4475 C   0  0  0  0  0  0  0  0  0  0  0  0
  148.0325  139.1857  152.8635 N   0  0  0  0  0  0  0  0  0  0  0  0
  148.6514  138.7889  153.9858 C   0  0  0  0  0  0  0  0  0  0  0  0
  148.1436  137.9999  154.7839 O   0  0  0  0  0  0  0  0  0  0  0  0
  150.0398  139.3878  154.2577 C   0  0  1  0  0  0  0  0  0  0  0  0
  150.0875  140.1848  155.5817 C   0  0  0  0  0  0  0  0  0  0  0  0
  151.4478  140.6352  155.8686 N   0  0  0  0  0  0  0  0  0  0  0  0
  151.5730  141.5884  156.9029 C   0  0  0  0  0  0  0  0  0  0  0  0
  152.3880  141.3351  158.0328 C   0  0  0  0  0  0  0  0  0  0  0  0
  152.4524  142.3466  159.0138 C   0  0  0  0  0  0  0  0  0  0  0  0
  153.2944  142.1809  160.2612 C   0  0  0  0  0  0  0  0  0  0  0  0
  151.7723  143.5059  158.8881 N   0  0  0  0  0  0  0  0  0  0  0  0
  151.0284  143.6446  157.7894 C   0  0  0  0  0  0  0  0  0  0  0  0
  150.8911  142.7568  156.8019 N   0  0  0  0  0  0  0  0  0  0  0  0
  152.4428  139.5674  155.8019 C   0  0  0  0  0  0  0  0  0  0  0  0
  152.3265  138.8121  154.4693 C   0  0  0  0  0  0  0  0  0  0  0  0
  150.9975  138.3297  154.3111 O   0  0  0  0  0  0  0  0  0  0  0  0
  146.4092  139.2582  151.5426 H   0  0  0  0  0  0  0  0  0  0  0  0
  145.9709  138.9283  153.2218 H   0  0  0  0  0  0  0  0  0  0  0  0
  146.7229  137.6629  152.2353 H   0  0  0  0  0  0  0  0  0  0  0  0
  148.5130  139.8352  152.2575 H   0  0  0  0  0  0  0  0  0  0  0  0
  150.2805  140.0469  153.4216 H   0  0  0  0  0  0  0  0  0  0  0  0
  149.4002  141.0269  155.5134 H   0  0  0  0  0  0  0  0  0  0  0  0
  149.7449  139.5633  156.4105 H   0  0  0  0  0  0  0  0  0  0  0  0
  152.9297  140.4097  158.1590 H   0  0  0  0  0  0  0  0  0  0  0  0
  153.4449  141.1256  160.4905 H   0  0  0  0  0  0  0  0  0  0  0  0
  152.8127  142.6482  161.1208 H   0  0  0  0  0  0  0  0  0  0  0  0
  154.2709  142.6440  160.1195 H   0  0  0  0  0  0  0  0  0  0  0  0
  150.4804  144.5695  157.6887 H   0  0  0  0  0  0  0  0  0  0  0  0
  153.4485  139.9797  155.8942 H   0  0  0  0  0  0  0  0  0  0  0  0
  152.2926  138.8805  156.6360 H   0  0  0  0  0  0  0  0  0  0  0  0
  152.5952  139.4559  153.6302 H   0  0  0  0  0  0  0  0  0  0  0  0
  153.0149  137.9669  154.4560 H   0  0  0  0  0  0  0  0  0  0  0  0
  1  2  1  0  0  0  0
  1 18  1  0  0  0  0
  1 19  1  0  0  0  0
  1 20  1  0  0  0  0
  2  3  1  0  0  0  0
  2 21  1  0  0  0  0
  3  4  2  0  0  0  0
  3  5  1  0  0  0  0
  5 17  1  0  0  0  0
  5  6  1  0  0  0  0
  5 22  1  0  0  0  0
  6  7  1  0  0  0  0
  6 23  1  0  0  0  0
  6 24  1  0  0  0  0
  7  8  1  0  0  0  0
  7 15  1  0  0  0  0
  8 14  1  0  0  0  0
  8  9  2  0  0  0  0
  9 10  1  0  0  0  0
  9 25  1  0  0  0  0
 10 11  1  0  0  0  0
 10 12  2  0  0  0  0
 11 26  1  0  0  0  0
 11 27  1  0  0  0  0
 11 28  1  0  0  0  0
 12 13  1  0  0  0  0
 13 14  2  0  0  0  0
 13 29  1  0  0  0  0
 15 16  1  0  0  0  0
 15 30  1  0  0  0  0
 15 31  1  0  0  0  0
 16 17  1  0  0  0  0
 16 32  1  0  0  0  0
 16 33  1  0  0  0  0
M  END
> <s_m_source_file>
AV-unprocessed.smi

> <i_m_source_file_index>
2495

> <i_lp_mmshare_version>
43012

> <i_f3d_flags>
0

> <s_epik_input>
W0NIM11bTkhdQyg9TylbQ0BASF0xW0NIMl1OKFtDSDJdW0NIMl1PMSljMltjSF1jKFtDSDNdKW5bY0hdbjI=

> <s_epik_cmdline>
J2VwaWtfcHl0aG9uJywgJy1waCcsICc3LjAnLCAnLXRuJywgJzgnLCAnLW1hJywgJzIwMCcsICctbWV0YWxfYmluZGluZycsICctaW1hZScsICc8aW5maWxlLm1hZT4nLCAnLW9tYWUnLCAnPG91dGZpbGUubWFlPic=

> <r_lp_tautomer_probability>
1

> <r_epik_Ionization_Penalty>
0.000466083

> <r_epik_Ionization_Penalty_Charging>
0

> <r_epik_Ionization_Penalty_Neutral>
0.000466083

> <r_epik_State_Penalty>
0.000259726

> <r_epik_Charging_Adjusted_Penalty>
0.000259726

> <i_epik_Tot_Q>
0

> <i_epik_Tot_abs_Q>
0

> <r_epik_Metal_State_Penalty>
-0

> <b_epik_Metal_Only>
0

> <s_lp_Force_Field>
OPLS_2005

> <r_lp_Energy>
12.0364

> <b_lp_Chiralities_Consistent>
1

> <s_lp_Variant>
AV-unprocessed.smi:2495-2

> <Gold.Version>
5.8.1

> <Gold.Id.Protein>
6NUR|6NUR_protein|mol2

> <Gold.PLP.Fitness>
36.2293

> <Gold.PLP.PLP>
-30.9233

> <Gold.PLP.part.hbond>
-1.6621

> <Gold.PLP.part.metal>
0.0000

> <Gold.PLP.part.buried>
-5.6598

> <Gold.PLP.part.nonpolar>
-25.2220

> <Gold.PLP.part.repulsive>
0.4886

> <Gold.PLP.ligand.clash>
0.0000

> <Gold.PLP.ligand.torsion>
0.2272

> <Gold.PLP.Chemscore.Hbond>
1.0000

> <Gold.PLP.Chemscore.CHOScore>
0.8042

> <Gold.PLP.Chemscore.Metal>
0.0000

> <Gold.Chemscore.Hbonds>
donor molecule, donor type, donor heavy atom, donor atom, acceptor molecule, acceptor atom, score
      L1  H     2    21       P1  7957  0.94
      P1  H  7989  7998       L1     7  0.01
      L1  C    13    29       P1  8028  0.71

> <Gold.PLP.Chemscore.Internal.Correction>
0.3480

> <Gold.Rescore>
     Score         DG    S(hbond)    S(metal)    S(lipo)     H(rot)  DE(clash)    DE(int)     intcor
     12.62     -12.85       0.99        0.00      64.63       1.37       0.04       0.18       ----

> <Gold.Chemscore.Fitness>
12.6212

> <Gold.Chemscore.DG>
-12.8463

> <Gold.Chemscore.ZeroCoef>
-5.4800

> <Gold.Chemscore.Hbond>
0.9921

> <Gold.Chemscore.Metal>
0.0000

> <Gold.Chemscore.Lipo>
64.6280

> <Gold.Chemscore.Internal_Hbond>
0.0000

> <Gold.Chemscore.DEClash>
0.0431

> <Gold.Chemscore.DEInternal>
0.1819

> <Gold.Chemscore.Rot>
1.3706

> <Gold.Chemscore.Internal.Correction>
   9.000000E+99

> <Gold.Chemscore.Hbonds>
donor molecule, donor type, donor heavy atom, donor atom, acceptor molecule, acceptor atom, score
      L1  H     2    21       P1  7957  0.87

> <Gold.Chemscore.Hbond.Weighted>
-3.3135

> <Gold.Chemscore.Metal.Weighted>
-0.0000

> <Gold.Chemscore.Lipo.Weighted>
-7.5615

> <Gold.Chemscore.Internal_Hbond.Weighted>
0.0000

> <Gold.Chemscore.DEClash.Weighted>
0.0431

> <Gold.Chemscore.DEInternal.Weighted>
0.1819

> <Gold.Chemscore.Rot.Weighted>
3.5087

> <Gold.Chemscore.Internal.Correction.Weighted>
   9.000000E+99

> <Gold.Protein.RotatedTorsions>
[ 6907 6896 6895 6894 ] final -134.47 input  -60.11 | X-H torsion
[ 7974 7965 7964 7962 ] final    2.24 input  175.53 | X-H torsion
[ 8008 7997 7996 7995 ] final   21.97 input   59.86 | X-H torsion
[ 10167 10162 10161 10158 ] final -174.00 input  -65.29 | X-H torsion
[ 10718 10713 10712 10709 ] final  -86.48 input   66.30 | X-H torsion
[ 10763 10752 10751 10750 ] final  -31.47 input  -60.55 | X-H torsion
[ 11005 11000 10999 10996 ] final  -26.41 input  -57.11 | X-H torsion

> <Gold.Protein.ActiveResidues>
 VAL166  LYS551  ARG553  GLY616  TRP617  ASP618  TYR619  PRO620  LYS621  CYS622 
 ASP623  PHE694  ASN695  SER759  ASP760  ASP761  ALA762  ILE779  LEU786  VAL792 
 PHE793  MET794  SER795  GLU796  ALA797  LYS798  CYS799  TRP800  GLU811  SER814 

> <Gold.Protein.RotatedAtoms>
  150.9862  133.6195  159.2714 H   0  0  0  0  0  0  0  0  0  0  0  0  # atno 6907 bound_to 6896
  151.3432  135.0867  159.9388 H   0  0  0  0  0  0  0  0  0  0  0  0  # atno 6908 bound_to 6896
  152.5231  133.9469  159.7707 H   0  0  0  0  0  0  0  0  0  0  0  0  # atno 6909 bound_to 6896
  146.2443  140.0866  142.8354 H   0  0  0  0  0  0  0  0  0  0  0  0  # atno 7974 bound_to 7965
  154.9587  140.3075  155.5041 H   0  0  0  0  0  0  0  0  0  0  0  0  # atno 8008 bound_to 7997
  156.2979  140.2305  156.4609 H   0  0  0  0  0  0  0  0  0  0  0  0  # atno 8009 bound_to 7997
  154.7986  140.0435  157.1244 H   0  0  0  0  0  0  0  0  0  0  0  0  # atno 8010 bound_to 7997
  139.5657  144.1760  152.1309 H   0  0  0  0  0  0  0  0  0  0  0  0  # atno 10167 bound_to 10162
  155.9989  130.4766  150.4721 H   0  0  0  0  0  0  0  0  0  0  0  0  # atno 10718 bound_to 10713
  153.7979  135.6892  153.4860 H   0  0  0  0  0  0  0  0  0  0  0  0  # atno 10763 bound_to 10752
  153.1707  135.4544  154.9897 H   0  0  0  0  0  0  0  0  0  0  0  0  # atno 10764 bound_to 10752
  154.8018  135.3341  154.7470 H   0  0  0  0  0  0  0  0  0  0  0  0  # atno 10765 bound_to 10752
  140.9027  133.7513  156.0565 H   0  0  0  0  0  0  0  0  0  0  0  0  # atno 11005 bound_to 11000
  145.0687  140.9140  143.4895 LP  0  0  0  0  0  0  0  0  0  0  0  0  # atno 17320 bound_to 7965
  145.0995  139.2832  143.5693 LP  0  0  0  0  0  0  0  0  0  0  0  0  # atno 17321 bound_to 7965
  140.1283  144.5311  150.6819 LP  0  0  0  0  0  0  0  0  0  0  0  0  # atno 17342 bound_to 10162
  140.6941  143.2393  151.5050 LP  0  0  0  0  0  0  0  0  0  0  0  0  # atno 17343 bound_to 10162
  157.2735  131.0592  151.2245 LP  0  0  0  0  0  0  0  0  0  0  0  0  # atno 17370 bound_to 10713
  157.3317  130.6988  149.6328 LP  0  0  0  0  0  0  0  0  0  0  0  0  # atno 17371 bound_to 10713
  140.8210  134.3289  157.5381 LP  0  0  0  0  0  0  0  0  0  0  0  0  # atno 17394 bound_to 11000
  139.8744  134.9309  156.3514 LP  0  0  0  0  0  0  0  0  0  0  0  0  # atno 17395 bound_to 11000

$$$$
