AV-unprocessed.smi:3201|AV-procd|sdf|12240|dock3
  -GOLD-   2272018 73D 1   1.00000     0.00000
 Structure written by MMmdl.
 41 43  0  0  0  0  0  0  0  0  2 V2000
  150.3630  138.8395  153.9386 C   0  0  0  0  0  0  0  0  0  0  0  0
  149.5223  139.9429  154.4967 C   0  0  0  0  0  0  0  0  0  0  0  0
  149.8327  140.9294  155.3946 C   0  0  0  0  0  0  0  0  0  0  0  0
  151.1344  141.1973  156.0992 C   0  0  0  0  0  0  0  0  0  0  0  0
  150.9499  142.1666  157.2738 C   0  0  0  0  0  0  0  0  0  0  0  0
  151.0988  143.5672  156.8303 N   0  3  0  0  0  0  0  0  0  0  0  0
  151.2342  144.5522  157.9257 C   0  0  1  0  0  0  0  0  0  0  0  0
  150.5025  144.1559  159.2268 C   0  0  0  0  0  0  0  0  0  0  0  0
  151.6099  144.2860  160.2911 C   0  0  1  0  0  0  0  0  0  0  0  0
  152.5694  143.0904  160.1610 C   0  0  0  0  0  0  0  0  0  0  0  0
  153.3187  143.4029  158.8529 C   0  0  0  0  0  0  0  0  0  0  0  0
  152.6907  144.7405  158.4031 C   0  0  2  0  0  0  0  0  0  0  0  0
  152.4620  145.4284  159.7454 C   0  0  0  0  0  0  0  0  0  0  0  0
  148.6220  141.6676  155.5172 C   0  0  0  0  0  0  0  0  0  0  0  0
  147.6488  141.1847  154.7669 N   0  0  0  0  0  0  0  0  0  0  0  0
  148.1971  140.1241  154.1404 N   0  0  0  0  0  0  0  0  0  0  0  0
  147.3729  139.3583  153.2246 C   0  0  0  0  0  0  0  0  0  0  0  0
  151.3893  138.9006  154.2996 H   0  0  0  0  0  0  0  0  0  0  0  0
  150.3915  138.8861  152.8498 H   0  0  0  0  0  0  0  0  0  0  0  0
  149.9653  137.8662  154.2270 H   0  0  0  0  0  0  0  0  0  0  0  0
  151.5644  140.2650  156.4673 H   0  0  0  0  0  0  0  0  0  0  0  0
  151.8702  141.6041  155.4048 H   0  0  0  0  0  0  0  0  0  0  0  0
  149.9611  142.0345  157.7153 H   0  0  0  0  0  0  0  0  0  0  0  0
  151.6826  141.9490  158.0519 H   0  0  0  0  0  0  0  0  0  0  0  0
  151.9087  143.6391  156.2309 H   0  0  0  0  0  0  0  0  0  0  0  0
  150.8582  145.5144  157.5727 H   0  0  0  0  0  0  0  0  0  0  0  0
  149.6832  144.8471  159.4282 H   0  0  0  0  0  0  0  0  0  0  0  0
  150.0860  143.1479  159.2000 H   0  0  0  0  0  0  0  0  0  0  0  0
  151.2314  144.4329  161.3032 H   0  0  0  0  0  0  0  0  0  0  0  0
  153.2640  143.0560  161.0016 H   0  0  0  0  0  0  0  0  0  0  0  0
  152.0434  142.1356  160.1237 H   0  0  0  0  0  0  0  0  0  0  0  0
  154.3844  143.5278  159.0492 H   0  0  0  0  0  0  0  0  0  0  0  0
  153.2155  142.6096  158.1128 H   0  0  0  0  0  0  0  0  0  0  0  0
  153.3111  145.3016  157.7036 H   0  0  0  0  0  0  0  0  0  0  0  0
  151.9203  146.3725  159.6658 H   0  0  0  0  0  0  0  0  0  0  0  0
  153.3811  145.5913  160.3118 H   0  0  0  0  0  0  0  0  0  0  0  0
  148.4242  142.5372  156.1264 H   0  0  0  0  0  0  0  0  0  0  0  0
  147.9032  138.4753  152.8689 H   0  0  0  0  0  0  0  0  0  0  0  0
  147.1051  139.9773  152.3681 H   0  0  0  0  0  0  0  0  0  0  0  0
  146.4615  139.0366  153.7299 H   0  0  0  0  0  0  0  0  0  0  0  0
  150.2789  143.8094  156.2926 H   0  0  0  0  0  0  0  0  0  0  0  0
  1  2  1  0  0  0  0
  1 18  1  0  0  0  0
  1 19  1  0  0  0  0
  1 20  1  0  0  0  0
  2 16  1  0  0  0  0
  2  3  2  0  0  0  0
  3  4  1  0  0  0  0
  3 14  1  0  0  0  0
  4  5  1  0  0  0  0
  4 21  1  0  0  0  0
  4 22  1  0  0  0  0
  5  6  1  0  0  0  0
  5 23  1  0  0  0  0
  5 24  1  0  0  0  0
  6  7  1  0  0  0  0
  6 25  1  0  0  0  0
  6 41  1  0  0  0  0
  7 12  1  0  0  0  0
  7  8  1  0  0  0  0
  7 26  1  0  0  0  0
  8  9  1  0  0  0  0
  8 27  1  0  0  0  0
  8 28  1  0  0  0  0
  9 13  1  0  0  0  0
  9 10  1  0  0  0  0
  9 29  1  0  0  0  0
 10 11  1  0  0  0  0
 10 30  1  0  0  0  0
 10 31  1  0  0  0  0
 11 12  1  0  0  0  0
 11 32  1  0  0  0  0
 11 33  1  0  0  0  0
 12 13  1  0  0  0  0
 12 34  1  0  0  0  0
 13 35  1  0  0  0  0
 13 36  1  0  0  0  0
 14 15  2  0  0  0  0
 14 37  1  0  0  0  0
 15 16  1  0  0  0  0
 16 17  1  0  0  0  0
 17 38  1  0  0  0  0
 17 39  1  0  0  0  0
 17 40  1  0  0  0  0
M  CHG  1   6   1
M  END
> <s_m_source_file>
AV-unprocessed.smi

> <i_m_source_file_index>
3201

> <i_lp_mmshare_version>
43012

> <i_f3d_flags>
0

> <s_epik_input>
W0NIM11uMW5bY0hdYyhjMVtDSDNdKVtDSDJdW0NIMl1bTkhdW0NASF0oW0NIMl1bQ0BIXTIzKVtDQEhdKFtDSDJdMylbQ0gyXVtDSDJdMg==

> <s_epik_cmdline>
J2VwaWtfcHl0aG9uJywgJy1waCcsICc3LjAnLCAnLXRuJywgJzgnLCAnLW1hJywgJzIwMCcsICctbWV0YWxfYmluZGluZycsICctaW1hZScsICc8aW5maWxlLm1hZT4nLCAnLW9tYWUnLCAnPG91dGZpbGUubWFlPic=

> <r_lp_tautomer_probability>
1

> <r_epik_Ionization_Penalty>
0.000331174

> <r_epik_Ionization_Penalty_Charging>
0.000242709

> <r_epik_Ionization_Penalty_Neutral>
8.84659e-05

> <r_epik_State_Penalty>
-0

> <r_epik_Charging_Adjusted_Penalty>
0.000242709

> <i_epik_Tot_Q>
1

> <i_epik_Tot_abs_Q>
1

> <r_epik_Metal_State_Penalty>
-0

> <b_epik_Metal_Only>
0

> <s_lp_Force_Field>
OPLS_2005

> <r_lp_Energy>
51.1066

> <b_lp_Chiralities_Consistent>
1

> <s_lp_Variant>
AV-unprocessed.smi:3201-4

> <Gold.Version>
5.8.1

> <Gold.Id.Protein>
6NUR|6NUR_protein|mol2

> <Gold.PLP.Fitness>
50.9769

> <Gold.PLP.PLP>
-43.4350

> <Gold.PLP.part.hbond>
-1.0000

> <Gold.PLP.part.metal>
0.0000

> <Gold.PLP.part.buried>
-2.3093

> <Gold.PLP.part.nonpolar>
-39.6347

> <Gold.PLP.part.repulsive>
0.1456

> <Gold.PLP.ligand.clash>
0.0000

> <Gold.PLP.ligand.torsion>
0.7366

> <Gold.PLP.Chemscore.Hbond>
2.0000

> <Gold.PLP.Chemscore.CHOScore>
1.0000

> <Gold.PLP.Chemscore.Metal>
0.0000

> <Gold.Chemscore.Hbonds>
donor molecule, donor type, donor heavy atom, donor atom, acceptor molecule, acceptor atom, score
      L1  H     6    41       P1  8028  2.00
      L1  C    14    37       P1  8028  0.97

> <Gold.PLP.Chemscore.Internal.Correction>
0.0151

> <Gold.Rescore>
     Score         DG    S(hbond)    S(metal)    S(lipo)     H(rot)  DE(clash)    DE(int)     intcor
     19.16     -20.04       0.98        0.00     126.08       1.36       0.09       0.78       ----

> <Gold.Chemscore.Fitness>
19.1629

> <Gold.Chemscore.DG>
-20.0371

> <Gold.Chemscore.ZeroCoef>
-5.4800

> <Gold.Chemscore.Hbond>
0.9833

> <Gold.Chemscore.Metal>
0.0000

> <Gold.Chemscore.Lipo>
126.0799

> <Gold.Chemscore.Internal_Hbond>
0.0000

> <Gold.Chemscore.DEClash>
0.0920

> <Gold.Chemscore.DEInternal>
0.7822

> <Gold.Chemscore.Rot>
1.3588

> <Gold.Chemscore.Internal.Correction>
   9.000000E+99

> <Gold.Chemscore.Hbonds>
donor molecule, donor type, donor heavy atom, donor atom, acceptor molecule, acceptor atom, score
      L1  H     6    41       P1  8028  1.00

> <Gold.Chemscore.Hbond.Weighted>
-3.2844

> <Gold.Chemscore.Metal.Weighted>
-0.0000

> <Gold.Chemscore.Lipo.Weighted>
-14.7513

> <Gold.Chemscore.Internal_Hbond.Weighted>
0.0000

> <Gold.Chemscore.DEClash.Weighted>
0.0920

> <Gold.Chemscore.DEInternal.Weighted>
0.7822

> <Gold.Chemscore.Rot.Weighted>
3.4786

> <Gold.Chemscore.Internal.Correction.Weighted>
   9.000000E+99

> <Gold.Protein.RotatedTorsions>
[ 6907 6896 6895 6894 ] final  145.69 input  -60.11 | X-H torsion
[ 7974 7965 7964 7962 ] final -108.67 input  175.53 | X-H torsion
[ 8008 7997 7996 7995 ] final  161.10 input   59.86 | X-H torsion
[ 10167 10162 10161 10158 ] final  -30.15 input  -65.29 | X-H torsion
[ 10718 10713 10712 10709 ] final  -79.22 input   66.30 | X-H torsion
[ 10763 10752 10751 10750 ] final   21.27 input  -60.55 | X-H torsion
[ 11005 11000 10999 10996 ] final  153.10 input  -57.11 | X-H torsion

> <Gold.Protein.ActiveResidues>
 VAL166  LYS551  ARG553  GLY616  TRP617  ASP618  TYR619  PRO620  LYS621  CYS622 
 ASP623  PHE694  ASN695  SER759  ASP760  ASP761  ALA762  ILE779  LEU786  VAL792 
 PHE793  MET794  SER795  GLU796  ALA797  LYS798  CYS799  TRP800  GLU811  SER814 

> <Gold.Protein.RotatedAtoms>
  152.1776  133.4685  159.4941 H   0  0  0  0  0  0  0  0  0  0  0  0  # atno 6907 bound_to 6896
  150.6929  134.1874  159.4281 H   0  0  0  0  0  0  0  0  0  0  0  0  # atno 6908 bound_to 6896
  151.9784  135.0041  160.0607 H   0  0  0  0  0  0  0  0  0  0  0  0  # atno 6909 bound_to 6896
  145.1900  140.9010  143.3430 H   0  0  0  0  0  0  0  0  0  0  0  0  # atno 7974 bound_to 7965
  156.2126  140.1786  156.7660 H   0  0  0  0  0  0  0  0  0  0  0  0  # atno 8008 bound_to 7997
  154.5745  140.0677  156.9043 H   0  0  0  0  0  0  0  0  0  0  0  0  # atno 8009 bound_to 7997
  155.2613  140.3336  155.4275 H   0  0  0  0  0  0  0  0  0  0  0  0  # atno 8010 bound_to 7997
  140.7252  143.3871  151.1495 H   0  0  0  0  0  0  0  0  0  0  0  0  # atno 10167 bound_to 10162
  156.0098  130.4539  150.3615 H   0  0  0  0  0  0  0  0  0  0  0  0  # atno 10718 bound_to 10713
  153.1008  135.6672  153.9676 H   0  0  0  0  0  0  0  0  0  0  0  0  # atno 10763 bound_to 10752
  153.9246  135.3010  155.3448 H   0  0  0  0  0  0  0  0  0  0  0  0  # atno 10764 bound_to 10752
  154.7429  135.5071  153.9229 H   0  0  0  0  0  0  0  0  0  0  0  0  # atno 10765 bound_to 10752
  140.1367  134.8766  157.2276 H   0  0  0  0  0  0  0  0  0  0  0  0  # atno 11005 bound_to 11000
  145.0050  139.3562  143.6148 LP  0  0  0  0  0  0  0  0  0  0  0  0  # atno 17320 bound_to 7965
  146.3438  139.9289  142.8756 LP  0  0  0  0  0  0  0  0  0  0  0  0  # atno 17321 bound_to 7965
  139.7470  143.8836  152.3066 LP  0  0  0  0  0  0  0  0  0  0  0  0  # atno 17342 bound_to 10162
  139.8677  144.7084  150.9024 LP  0  0  0  0  0  0  0  0  0  0  0  0  # atno 17343 bound_to 10162
  157.1703  131.0367  151.2798 LP  0  0  0  0  0  0  0  0  0  0  0  0  # atno 17370 bound_to 10713
  157.4234  130.7450  149.6932 LP  0  0  0  0  0  0  0  0  0  0  0  0  # atno 17371 bound_to 10713
  140.2774  134.3390  155.7354 LP  0  0  0  0  0  0  0  0  0  0  0  0  # atno 17394 bound_to 11000
  141.2179  133.7458  156.9312 LP  0  0  0  0  0  0  0  0  0  0  0  0  # atno 17395 bound_to 11000

$$$$
