AV-unprocessed.smi:1286|AV-procd|sdf|5378|dock3
  -GOLD-   22720 4523D 1   1.00000     0.00000
 Structure written by MMmdl.
 36 37  0  0  0  0  0  0  0  0  1 V2000
  148.3262  141.2448  157.3707 C   0  0  0  0  0  0  0  0  0  0  0  0
  149.5654  141.7112  156.5849 C   0  0  1  0  0  0  0  0  0  0  0  0
  149.2758  141.9923  155.0970 C   0  0  0  0  0  0  0  0  0  0  0  0
  148.4448  140.9720  154.4830 N   0  0  0  0  0  0  0  0  0  0  0  0
  147.2146  141.1215  153.8787 C   0  0  0  0  0  0  0  0  0  0  0  0
  146.8208  139.8870  153.4485 C   0  0  0  0  0  0  0  0  0  0  0  0
  147.8889  139.0343  153.8448 C   0  0  0  0  0  0  0  0  0  0  0  0
  148.8585  139.6862  154.4658 N   0  0  0  0  0  0  0  0  0  0  0  0
  150.1222  142.9147  157.1962 N   0  0  0  0  0  0  0  0  0  0  0  0
  150.6326  142.9968  158.4346 C   0  0  0  0  0  0  0  0  0  0  0  0
  150.6806  142.0434  159.2119 O   0  0  0  0  0  0  0  0  0  0  0  0
  151.1648  144.3692  158.8619 C   0  0  0  0  0  0  0  0  0  0  0  0
  152.4233  144.2998  159.7546 C   0  0  1  0  0  0  0  0  0  0  0  0
  152.1203  144.0748  161.2167 C   0  0  0  0  0  0  0  0  0  0  0  0
  152.7719  143.0304  161.7225 C   0  0  0  0  0  0  0  0  0  0  0  0
  153.6384  142.3437  160.7040 C   0  0  0  0  0  0  0  0  0  0  0  0
  153.3580  143.1162  159.3954 C   0  0  0  0  0  0  0  0  0  0  0  0
  147.9337  140.3064  156.9783 H   0  0  0  0  0  0  0  0  0  0  0  0
  147.5270  141.9853  157.3242 H   0  0  0  0  0  0  0  0  0  0  0  0
  148.5644  141.0776  158.4216 H   0  0  0  0  0  0  0  0  0  0  0  0
  150.3131  140.9170  156.6299 H   0  0  0  0  0  0  0  0  0  0  0  0
  148.7881  142.9620  154.9823 H   0  0  0  0  0  0  0  0  0  0  0  0
  150.2101  142.0466  154.5366 H   0  0  0  0  0  0  0  0  0  0  0  0
  146.7299  142.0840  153.8036 H   0  0  0  0  0  0  0  0  0  0  0  0
  145.9090  139.6318  152.9298 H   0  0  0  0  0  0  0  0  0  0  0  0
  147.9876  137.9685  153.7013 H   0  0  0  0  0  0  0  0  0  0  0  0
  150.1217  143.7516  156.6313 H   0  0  0  0  0  0  0  0  0  0  0  0
  151.3776  144.9688  157.9751 H   0  0  0  0  0  0  0  0  0  0  0  0
  150.3669  144.8853  159.3969 H   0  0  0  0  0  0  0  0  0  0  0  0
  152.9816  145.2341  159.6765 H   0  0  0  0  0  0  0  0  0  0  0  0
  151.4560  144.7180  161.7752 H   0  0  0  0  0  0  0  0  0  0  0  0
  152.7141  142.6973  162.7482 H   0  0  0  0  0  0  0  0  0  0  0  0
  154.6858  142.4143  160.9986 H   0  0  0  0  0  0  0  0  0  0  0  0
  153.3693  141.2904  160.6195 H   0  0  0  0  0  0  0  0  0  0  0  0
  152.8857  142.4513  158.6708 H   0  0  0  0  0  0  0  0  0  0  0  0
  154.2840  143.4715  158.9420 H   0  0  0  0  0  0  0  0  0  0  0  0
  1  2  1  0  0  0  0
  1 18  1  0  0  0  0
  1 19  1  0  0  0  0
  1 20  1  0  0  0  0
  2  3  1  0  0  0  0
  2  9  1  0  0  0  0
  2 21  1  0  0  0  0
  3  4  1  0  0  0  0
  3 22  1  0  0  0  0
  3 23  1  0  0  0  0
  4  8  1  0  0  0  0
  4  5  1  0  0  0  0
  5  6  2  0  0  0  0
  5 24  1  0  0  0  0
  6  7  1  0  0  0  0
  6 25  1  0  0  0  0
  7  8  2  0  0  0  0
  7 26  1  0  0  0  0
  9 10  1  0  0  0  0
  9 27  1  0  0  0  0
 10 11  2  0  0  0  0
 10 12  1  0  0  0  0
 12 13  1  0  0  0  0
 12 28  1  0  0  0  0
 12 29  1  0  0  0  0
 13 17  1  0  0  0  0
 13 14  1  0  0  0  0
 13 30  1  0  0  0  0
 14 15  2  0  0  0  0
 14 31  1  0  0  0  0
 15 16  1  0  0  0  0
 15 32  1  0  0  0  0
 16 17  1  0  0  0  0
 16 33  1  0  0  0  0
 16 34  1  0  0  0  0
 17 35  1  0  0  0  0
 17 36  1  0  0  0  0
M  END
> <s_m_source_file>
AV-unprocessed.smi

> <i_m_source_file_index>
1286

> <i_lp_mmshare_version>
43012

> <i_f3d_flags>
0

> <s_epik_input>
bjFbY0hdW2NIXVtjSF1uMVtDSDJdW0NAQEhdKFtDSDNdKVtOSF1DKD1PKVtDSDJdW0NAQEhdMltDSF09W0NIXVtDSDJdW0NIMl0y

> <s_epik_cmdline>
J2VwaWtfcHl0aG9uJywgJy1waCcsICc3LjAnLCAnLXRuJywgJzgnLCAnLW1hJywgJzIwMCcsICctbWV0YWxfYmluZGluZycsICctaW1hZScsICc8aW5maWxlLm1hZT4nLCAnLW9tYWUnLCAnPG91dGZpbGUubWFlPic=

> <r_lp_tautomer_probability>
1

> <r_epik_Ionization_Penalty>
0.000301761

> <r_epik_Ionization_Penalty_Charging>
0

> <r_epik_Ionization_Penalty_Neutral>
0.000301761

> <r_epik_State_Penalty>
-0

> <r_epik_Charging_Adjusted_Penalty>
0

> <i_epik_Tot_Q>
0

> <i_epik_Tot_abs_Q>
0

> <r_epik_Metal_State_Penalty>
-0

> <b_epik_Metal_Only>
0

> <s_lp_Force_Field>
OPLS_2005

> <r_lp_Energy>
16.9784

> <b_lp_Chiralities_Consistent>
1

> <s_lp_Variant>
AV-unprocessed.smi:1286-4

> <Gold.Version>
5.8.1

> <Gold.Id.Protein>
6NUR|6NUR_protein|mol2

> <Gold.PLP.Fitness>
45.2864

> <Gold.PLP.PLP>
-41.9254

> <Gold.PLP.part.hbond>
-2.0000

> <Gold.PLP.part.metal>
0.0000

> <Gold.PLP.part.buried>
-2.6127

> <Gold.PLP.part.nonpolar>
-37.6134

> <Gold.PLP.part.repulsive>
0.1495

> <Gold.PLP.ligand.clash>
0.0000

> <Gold.PLP.ligand.torsion>
0.7503

> <Gold.PLP.Chemscore.Hbond>
0.6080

> <Gold.PLP.Chemscore.CHOScore>
1.0000

> <Gold.PLP.Chemscore.Metal>
0.0000

> <Gold.Chemscore.Hbonds>
donor molecule, donor type, donor heavy atom, donor atom, acceptor molecule, acceptor atom, score
      L1  H     9    27       P1  8028  0.75
      L1  C     7    26       P1  7948  0.58

> <Gold.PLP.Chemscore.Internal.Correction>
0.0376

> <Gold.Rescore>
     Score         DG    S(hbond)    S(metal)    S(lipo)     H(rot)  DE(clash)    DE(int)     intcor
     15.22     -16.82       0.87        0.00     108.09       1.64       0.16       1.43       ----

> <Gold.Chemscore.Fitness>
15.2245

> <Gold.Chemscore.DG>
-16.8188

> <Gold.Chemscore.ZeroCoef>
-5.4800

> <Gold.Chemscore.Hbond>
0.8650

> <Gold.Chemscore.Metal>
0.0000

> <Gold.Chemscore.Lipo>
108.0891

> <Gold.Chemscore.Internal_Hbond>
0.0000

> <Gold.Chemscore.DEClash>
0.1616

> <Gold.Chemscore.DEInternal>
1.4327

> <Gold.Chemscore.Rot>
1.6394

> <Gold.Chemscore.Internal.Correction>
   9.000000E+99

> <Gold.Chemscore.Hbonds>
donor molecule, donor type, donor heavy atom, donor atom, acceptor molecule, acceptor atom, score
      L1  H     9    27       P1  8028  0.76

> <Gold.Chemscore.Hbond.Weighted>
-2.8893

> <Gold.Chemscore.Metal.Weighted>
-0.0000

> <Gold.Chemscore.Lipo.Weighted>
-12.6464

> <Gold.Chemscore.Internal_Hbond.Weighted>
0.0000

> <Gold.Chemscore.DEClash.Weighted>
0.1616

> <Gold.Chemscore.DEInternal.Weighted>
1.4327

> <Gold.Chemscore.Rot.Weighted>
4.1969

> <Gold.Chemscore.Internal.Correction.Weighted>
   9.000000E+99

> <Gold.Protein.RotatedTorsions>
[ 6907 6896 6895 6894 ] final -136.72 input  -60.11 | X-H torsion
[ 7974 7965 7964 7962 ] final  -45.37 input  175.53 | X-H torsion
[ 8008 7997 7996 7995 ] final  -38.21 input   59.86 | X-H torsion
[ 10167 10162 10161 10158 ] final   88.09 input  -65.29 | X-H torsion
[ 10718 10713 10712 10709 ] final  -17.12 input   66.30 | X-H torsion
[ 10763 10752 10751 10750 ] final   79.98 input  -60.55 | X-H torsion
[ 11005 11000 10999 10996 ] final   -0.75 input  -57.11 | X-H torsion

> <Gold.Protein.ActiveResidues>
 VAL166  LYS551  ARG553  GLY616  TRP617  ASP618  TYR619  PRO620  LYS621  CYS622 
 ASP623  PHE694  ASN695  SER759  ASP760  ASP761  ALA762  ILE779  LEU786  VAL792 
 PHE793  MET794  SER795  GLU796  ALA797  LYS798  CYS799  TRP800  GLU811  SER814 

> <Gold.Protein.RotatedAtoms>
  151.0135  133.5943  159.2679 H   0  0  0  0  0  0  0  0  0  0  0  0  # atno 6907 bound_to 6896
  151.3085  135.0787  159.9274 H   0  0  0  0  0  0  0  0  0  0  0  0  # atno 6908 bound_to 6896
  152.5305  133.9804  159.7858 H   0  0  0  0  0  0  0  0  0  0  0  0  # atno 6909 bound_to 6896
  145.9827  140.7266  142.9355 H   0  0  0  0  0  0  0  0  0  0  0  0  # atno 7974 bound_to 7965
  154.4040  140.1584  156.2662 H   0  0  0  0  0  0  0  0  0  0  0  0  # atno 8008 bound_to 7997
  155.8993  140.3434  155.5992 H   0  0  0  0  0  0  0  0  0  0  0  0  # atno 8009 bound_to 7997
  155.7467  140.0799  157.2211 H   0  0  0  0  0  0  0  0  0  0  0  0  # atno 8010 bound_to 7997
  139.8707  144.6494  150.8952 H   0  0  0  0  0  0  0  0  0  0  0  0  # atno 10167 bound_to 10162
  156.5779  130.4766  149.6333 H   0  0  0  0  0  0  0  0  0  0  0  0  # atno 10718 bound_to 10713
  153.0996  135.4820  154.8842 H   0  0  0  0  0  0  0  0  0  0  0  0  # atno 10763 bound_to 10752
  154.7364  135.3072  154.8807 H   0  0  0  0  0  0  0  0  0  0  0  0  # atno 10764 bound_to 10752
  153.9428  135.6832  153.4797 H   0  0  0  0  0  0  0  0  0  0  0  0  # atno 10765 bound_to 10752
  140.6397  133.9501  155.8319 H   0  0  0  0  0  0  0  0  0  0  0  0  # atno 11005 bound_to 11000
  144.6866  140.2936  143.7274 LP  0  0  0  0  0  0  0  0  0  0  0  0  # atno 17320 bound_to 7965
  145.7745  139.1869  143.2193 LP  0  0  0  0  0  0  0  0  0  0  0  0  # atno 17321 bound_to 7965
  140.7761  143.3666  151.1728 LP  0  0  0  0  0  0  0  0  0  0  0  0  # atno 17342 bound_to 10162
  139.7286  143.9108  152.3011 LP  0  0  0  0  0  0  0  0  0  0  0  0  # atno 17343 bound_to 10162
  156.2657  130.6988  151.1770 LP  0  0  0  0  0  0  0  0  0  0  0  0  # atno 17370 bound_to 10713
  157.7333  131.0592  150.5583 LP  0  0  0  0  0  0  0  0  0  0  0  0  # atno 17371 bound_to 10713
  141.0616  134.0338  157.3651 LP  0  0  0  0  0  0  0  0  0  0  0  0  # atno 17394 bound_to 11000
  139.9085  135.0185  156.7590 LP  0  0  0  0  0  0  0  0  0  0  0  0  # atno 17395 bound_to 11000

$$$$
