AV-unprocessed.smi:2080|AV-procd|sdf|8487|dock1
  -GOLD-   2272011193D 1   1.00000     0.00000
 Structure written by MMmdl.
 50 52  0  0  0  0  0  0  0  0  1 V2000
  146.9803  139.4572  154.4081 O   0  0  0  0  0  0  0  0  0  0  0  0
  147.8409  139.2360  153.5563 C   0  0  0  0  0  0  0  0  0  0  0  0
  147.5815  138.6474  152.3800 N   0  0  0  0  0  0  0  0  0  0  0  0
  146.2640  138.1990  151.9439 C   0  0  0  0  0  0  0  0  0  0  0  0
  145.7003  137.1114  152.8762 C   0  0  0  0  0  0  0  0  0  0  0  0
  145.5249  135.7704  152.1832 C   0  0  0  0  0  0  0  0  0  0  0  0
  144.7189  135.6233  151.1136 C   0  0  0  0  0  0  0  0  0  0  0  0
  144.4662  134.3014  150.4107 C   0  0  0  0  0  0  0  0  0  0  0  0
  144.9175  133.0968  151.2532 C   0  0  0  0  0  0  0  0  0  0  0  0
  146.2902  133.3497  151.8879 C   0  0  0  0  0  0  0  0  0  0  0  0
  146.2707  134.5906  152.7984 C   0  0  0  0  0  0  0  0  0  0  0  0
  149.1476  139.5259  153.6789 N   0  0  0  0  0  0  0  0  0  0  0  0
  149.8101  140.1757  154.7552 C   0  0  0  0  0  0  0  0  0  0  0  0
  151.0636  139.7783  155.2749 C   0  0  0  0  0  0  0  0  0  0  0  0
  151.6094  140.4905  156.3598 C   0  0  0  0  0  0  0  0  0  0  0  0
  150.8895  141.5780  156.9080 C   0  0  0  0  0  0  0  0  0  0  0  0
  151.4203  142.3050  157.9958 N   0  0  0  0  0  0  0  0  0  0  0  0
  151.6551  143.7265  157.7549 C   0  0  0  0  0  0  0  0  0  0  0  0
  151.9290  144.4572  159.0810 C   0  0  0  0  0  0  0  0  0  0  0  0
  153.0049  143.8264  159.7673 O   0  0  0  0  0  0  0  0  0  0  0  0
  152.7052  142.4729  160.0906 C   0  0  0  0  0  0  0  0  0  0  0  0
  152.4649  141.6729  158.7993 C   0  0  0  0  0  0  0  0  0  0  0  0
  149.6845  141.9512  156.4112 N   0  0  0  0  0  0  0  0  0  0  0  0
  149.1637  141.2642  155.3732 C   0  0  0  0  0  0  0  0  0  0  0  0
  148.3483  138.4986  151.7402 H   0  0  0  0  0  0  0  0  0  0  0  0
  145.5981  139.0624  151.9383 H   0  0  0  0  0  0  0  0  0  0  0  0
  146.3215  137.8460  150.9136 H   0  0  0  0  0  0  0  0  0  0  0  0
  146.3513  136.9702  153.7398 H   0  0  0  0  0  0  0  0  0  0  0  0
  144.7378  137.4399  153.2706 H   0  0  0  0  0  0  0  0  0  0  0  0
  144.2105  136.4829  150.7017 H   0  0  0  0  0  0  0  0  0  0  0  0
  143.4044  134.2141  150.1796 H   0  0  0  0  0  0  0  0  0  0  0  0
  144.9984  134.3177  149.4594 H   0  0  0  0  0  0  0  0  0  0  0  0
  144.1878  132.9094  152.0422 H   0  0  0  0  0  0  0  0  0  0  0  0
  144.9430  132.1984  150.6358 H   0  0  0  0  0  0  0  0  0  0  0  0
  146.6122  132.4769  152.4564 H   0  0  0  0  0  0  0  0  0  0  0  0
  147.0283  133.4915  151.0973 H   0  0  0  0  0  0  0  0  0  0  0  0
  147.2955  134.8734  153.0365 H   0  0  0  0  0  0  0  0  0  0  0  0
  145.7868  134.3478  153.7448 H   0  0  0  0  0  0  0  0  0  0  0  0
  149.7473  139.2007  152.9346 H   0  0  0  0  0  0  0  0  0  0  0  0
  151.6111  138.9394  154.8750 H   0  0  0  0  0  0  0  0  0  0  0  0
  152.5739  140.2009  156.7489 H   0  0  0  0  0  0  0  0  0  0  0  0
  152.5113  143.8327  157.0876 H   0  0  0  0  0  0  0  0  0  0  0  0
  150.8080  144.1984  157.2596 H   0  0  0  0  0  0  0  0  0  0  0  0
  152.1938  145.4969  158.8883 H   0  0  0  0  0  0  0  0  0  0  0  0
  151.0378  144.4677  159.7106 H   0  0  0  0  0  0  0  0  0  0  0  0
  153.5407  142.0464  160.6457 H   0  0  0  0  0  0  0  0  0  0  0  0
  151.8325  142.4278  160.7441 H   0  0  0  0  0  0  0  0  0  0  0  0
  152.1791  140.6520  159.0560 H   0  0  0  0  0  0  0  0  0  0  0  0
  153.3854  141.6185  158.2166 H   0  0  0  0  0  0  0  0  0  0  0  0
  148.1989  141.6004  155.0223 H   0  0  0  0  0  0  0  0  0  0  0  0
  1  2  2  0  0  0  0
  2  3  1  0  0  0  0
  2 12  1  0  0  0  0
  3  4  1  0  0  0  0
  3 25  1  0  0  0  0
  4  5  1  0  0  0  0
  4 26  1  0  0  0  0
  4 27  1  0  0  0  0
  5  6  1  0  0  0  0
  5 28  1  0  0  0  0
  5 29  1  0  0  0  0
  6 11  1  0  0  0  0
  6  7  2  0  0  0  0
  7  8  1  0  0  0  0
  7 30  1  0  0  0  0
  8  9  1  0  0  0  0
  8 31  1  0  0  0  0
  8 32  1  0  0  0  0
  9 10  1  0  0  0  0
  9 33  1  0  0  0  0
  9 34  1  0  0  0  0
 10 11  1  0  0  0  0
 10 35  1  0  0  0  0
 10 36  1  0  0  0  0
 11 37  1  0  0  0  0
 11 38  1  0  0  0  0
 12 13  1  0  0  0  0
 12 39  1  0  0  0  0
 13 24  1  0  0  0  0
 13 14  2  0  0  0  0
 14 15  1  0  0  0  0
 14 40  1  0  0  0  0
 15 16  2  0  0  0  0
 15 41  1  0  0  0  0
 16 17  1  0  0  0  0
 16 23  1  0  0  0  0
 17 22  1  0  0  0  0
 17 18  1  0  0  0  0
 18 19  1  0  0  0  0
 18 42  1  0  0  0  0
 18 43  1  0  0  0  0
 19 20  1  0  0  0  0
 19 44  1  0  0  0  0
 19 45  1  0  0  0  0
 20 21  1  0  0  0  0
 21 22  1  0  0  0  0
 21 46  1  0  0  0  0
 21 47  1  0  0  0  0
 22 48  1  0  0  0  0
 22 49  1  0  0  0  0
 23 24  2  0  0  0  0
 24 50  1  0  0  0  0
M  END
> <s_m_source_file>
AV-unprocessed.smi

> <i_m_source_file_index>
2080

> <i_lp_mmshare_version>
43012

> <i_f3d_flags>
0

> <s_epik_input>
W0NIMl0xW0NIMl1bQ0gyXVtDSDJdW0NIXT1DMVtDSDJdW0NIMl1bTkhdQyg9TylbTkhdYzJbY0hdW2NIXWMobltjSF0yKU4zW0NIMl1bQ0gyXU9bQ0gyXVtDSDJdMw==

> <s_epik_cmdline>
J2VwaWtfcHl0aG9uJywgJy1waCcsICc3LjAnLCAnLXRuJywgJzgnLCAnLW1hJywgJzIwMCcsICctbWV0YWxfYmluZGluZycsICctaW1hZScsICc8aW5maWxlLm1hZT4nLCAnLW9tYWUnLCAnPG91dGZpbGUubWFlPic=

> <r_lp_tautomer_probability>
1

> <r_epik_Ionization_Penalty>
0.00210516

> <r_epik_Ionization_Penalty_Charging>
0

> <r_epik_Ionization_Penalty_Neutral>
0.00210516

> <r_epik_State_Penalty>
0.00141447

> <r_epik_Charging_Adjusted_Penalty>
0.00141447

> <i_epik_Tot_Q>
0

> <i_epik_Tot_abs_Q>
0

> <r_epik_Metal_State_Penalty>
-0

> <b_epik_Metal_Only>
0

> <s_lp_Force_Field>
OPLS_2005

> <r_lp_Energy>
24.2654

> <b_lp_Chiralities_Consistent>
1

> <s_lp_Variant>
AV-unprocessed.smi:2080-1

> <Gold.Version>
5.8.1

> <Gold.Id.Protein>
6NUR|6NUR_protein|mol2

> <Gold.PLP.Fitness>
49.8466

> <Gold.PLP.PLP>
-48.5656

> <Gold.PLP.part.hbond>
-3.0000

> <Gold.PLP.part.metal>
0.0000

> <Gold.PLP.part.buried>
-2.7463

> <Gold.PLP.part.nonpolar>
-43.6220

> <Gold.PLP.part.repulsive>
1.5388

> <Gold.PLP.ligand.clash>
0.0000

> <Gold.PLP.ligand.torsion>
0.9656

> <Gold.PLP.Chemscore.Hbond>
0.9440

> <Gold.PLP.Chemscore.CHOScore>
0.0000

> <Gold.PLP.Chemscore.Metal>
0.0000

> <Gold.Chemscore.Hbonds>
donor molecule, donor type, donor heavy atom, donor atom, acceptor molecule, acceptor atom, score
      L1  H     3    25       P1  7957  0.46
      L1  H    12    39       P1  7957  0.40

> <Gold.PLP.Chemscore.Internal.Correction>
0.3801

> <Gold.Rescore>
     Score         DG    S(hbond)    S(metal)    S(lipo)     H(rot)  DE(clash)    DE(int)     intcor
     15.92     -18.92       1.32        0.00     109.78       1.49       0.31       2.68       ----

> <Gold.Chemscore.Fitness>
15.9202

> <Gold.Chemscore.DG>
-18.9155

> <Gold.Chemscore.ZeroCoef>
-5.4800

> <Gold.Chemscore.Hbond>
1.3194

> <Gold.Chemscore.Metal>
0.0000

> <Gold.Chemscore.Lipo>
109.7818

> <Gold.Chemscore.Internal_Hbond>
0.0000

> <Gold.Chemscore.DEClash>
0.3138

> <Gold.Chemscore.DEInternal>
2.6815

> <Gold.Chemscore.Rot>
1.4905

> <Gold.Chemscore.Internal.Correction>
   9.000000E+99

> <Gold.Chemscore.Hbonds>
donor molecule, donor type, donor heavy atom, donor atom, acceptor molecule, acceptor atom, score
      L1  H     3    25       P1  7957  0.21
      L1  H    12    39       P1  7957  0.39

> <Gold.Chemscore.Hbond.Weighted>
-4.4068

> <Gold.Chemscore.Metal.Weighted>
-0.0000

> <Gold.Chemscore.Lipo.Weighted>
-12.8445

> <Gold.Chemscore.Internal_Hbond.Weighted>
0.0000

> <Gold.Chemscore.DEClash.Weighted>
0.3138

> <Gold.Chemscore.DEInternal.Weighted>
2.6815

> <Gold.Chemscore.Rot.Weighted>
3.8158

> <Gold.Chemscore.Internal.Correction.Weighted>
   9.000000E+99

> <Gold.Protein.RotatedTorsions>
[ 6907 6896 6895 6894 ] final  -50.47 input  -60.11 | X-H torsion
[ 7974 7965 7964 7962 ] final   73.65 input  175.53 | X-H torsion
[ 8008 7997 7996 7995 ] final   51.56 input   59.86 | X-H torsion
[ 10167 10162 10161 10158 ] final  157.59 input  -65.29 | X-H torsion
[ 10718 10713 10712 10709 ] final  -98.24 input   66.30 | X-H torsion
[ 10763 10752 10751 10750 ] final -178.82 input  -60.55 | X-H torsion
[ 11005 11000 10999 10996 ] final   63.52 input  -57.11 | X-H torsion

> <Gold.Protein.ActiveResidues>
 VAL166  LYS551  ARG553  GLY616  TRP617  ASP618  TYR619  PRO620  LYS621  CYS622 
 ASP623  PHE694  ASN695  SER759  ASP760  ASP761  ALA762  ILE779  LEU786  VAL792 
 PHE793  MET794  SER795  GLU796  ALA797  LYS798  CYS799  TRP800  GLU811  SER814 

> <Gold.Protein.RotatedAtoms>
  150.8704  134.8076  159.7149 H   0  0  0  0  0  0  0  0  0  0  0  0  # atno 6907 bound_to 6896
  152.4710  134.4956  159.9719 H   0  0  0  0  0  0  0  0  0  0  0  0  # atno 6908 bound_to 6896
  151.5046  133.3459  159.2910 H   0  0  0  0  0  0  0  0  0  0  0  0  # atno 6909 bound_to 6896
  145.7382  139.2710  143.1502 H   0  0  0  0  0  0  0  0  0  0  0  0  # atno 7974 bound_to 7965
  155.4372  140.3453  155.4286 H   0  0  0  0  0  0  0  0  0  0  0  0  # atno 8008 bound_to 7997
  156.1300  140.1511  156.9109 H   0  0  0  0  0  0  0  0  0  0  0  0  # atno 8009 bound_to 7997
  154.4888  140.0847  156.7526 H   0  0  0  0  0  0  0  0  0  0  0  0  # atno 8010 bound_to 7997
  139.4823  144.4903  151.8318 H   0  0  0  0  0  0  0  0  0  0  0  0  # atno 10167 bound_to 10162
  156.0102  130.5229  150.6493 H   0  0  0  0  0  0  0  0  0  0  0  0  # atno 10718 bound_to 10713
  154.5429  135.2807  155.1079 H   0  0  0  0  0  0  0  0  0  0  0  0  # atno 10763 bound_to 10752
  154.2555  135.6331  153.5259 H   0  0  0  0  0  0  0  0  0  0  0  0  # atno 10764 bound_to 10752
  152.9983  135.5593  154.5973 H   0  0  0  0  0  0  0  0  0  0  0  0  # atno 10765 bound_to 10752
  140.0019  134.6428  155.9916 H   0  0  0  0  0  0  0  0  0  0  0  0  # atno 11005 bound_to 11000
  146.0473  140.8105  142.9799 LP  0  0  0  0  0  0  0  0  0  0  0  0  # atno 17320 bound_to 7965
  144.6877  140.3000  143.7265 LP  0  0  0  0  0  0  0  0  0  0  0  0  # atno 17321 bound_to 7965
  140.4387  144.2017  150.5890 LP  0  0  0  0  0  0  0  0  0  0  0  0  # atno 17342 bound_to 10162
  140.4706  143.2414  151.9095 LP  0  0  0  0  0  0  0  0  0  0  0  0  # atno 17343 bound_to 10162
  157.4258  131.0843  151.1087 LP  0  0  0  0  0  0  0  0  0  0  0  0  # atno 17370 bound_to 10713
  157.1675  130.6253  149.5630 LP  0  0  0  0  0  0  0  0  0  0  0  0  # atno 17371 bound_to 10713
  141.1648  133.6537  156.4443 LP  0  0  0  0  0  0  0  0  0  0  0  0  # atno 17394 bound_to 11000
  140.4711  134.6752  157.5130 LP  0  0  0  0  0  0  0  0  0  0  0  0  # atno 17395 bound_to 11000

$$$$
