#       Name:                AV-unprocessed.smi:2345
#       Creating user name   scv26
#       Creation time:       Fri Mar 27 12:58:49 2020


#       File generated by GOLD software.
#

@<TRIPOS>MOLECULE
AV-unprocessed.smi:2345
    40    41     1
SMALL
NO_CHARGES


@<TRIPOS>ATOM
      1 ****        -3.3121   1.4898   2.6503 C.3            1 S1                 0.0000
      2 ****        -1.9142   1.0855   2.1762 C.3            1 S1                 0.0000
      3 ****        -1.0128   0.1796   3.4639 S.3            1 S1                 0.0000
      4 ****         0.6142   0.0043   2.6728 C.3            1 S1                 0.0000
      5 ****         1.6556  -0.5912   3.6241 C.3            1 S1                 0.0000
      6 ****         2.6850  -1.2317   2.6994 C.3            1 S1                 0.0000
      7 ****         1.8505  -1.8205   1.5617 C.3            1 S1                 0.0000
      8 ****         0.5982  -0.9284   1.4424 C.3            1 S1                 0.0000
      9 ****         0.6175  -0.1513   0.2053 N.am           1 S1                 0.0000
     10 ****         0.1785  -0.5868  -0.9836 C.2            1 S1                 0.0000
     11 ****        -0.2830  -1.7134  -1.1639 O.2            1 S1                 0.0000
     12 ****         0.2945   0.3683  -1.9218 N.am           1 S1                 0.0000
     13 ****        -0.0551   0.3112  -3.2988 C.ar           1 S1                 0.0000
     14 ****        -0.1923  -0.8905  -4.0355 C.ar           1 S1                 0.0000
     15 ****        -0.5266  -0.8096  -5.4023 C.ar           1 S1                 0.0000
     16 ****        -0.7162   0.3569  -6.0545 N.ar           1 S1                 0.0000
     17 ****        -0.5708   1.5006  -5.3527 C.ar           1 S1                 0.0000
     18 ****        -0.2391   1.5314  -3.9833 C.ar           1 S1                 0.0000
     19 ****        -0.1044   2.7163  -3.3392 F              1 S1                 0.0000
     20 ****        -3.8459   2.0304   1.8686 H              1 S1                 0.0000
     21 ****        -3.2578   2.1378   3.5255 H              1 S1                 0.0000
     22 ****        -3.9058   0.6146   2.9154 H              1 S1                 0.0000
     23 ****        -1.9916   0.4604   1.2867 H              1 S1                 0.0000
     24 ****        -1.3440   1.9725   1.8997 H              1 S1                 0.0000
     25 ****         0.9602   0.9984   2.3840 H              1 S1                 0.0000
     26 ****         2.0940   0.1559   4.2863 H              1 S1                 0.0000
     27 ****         1.2010  -1.3629   4.2472 H              1 S1                 0.0000
     28 ****         3.3543  -0.4649   2.3073 H              1 S1                 0.0000
     29 ****         3.2946  -1.9818   3.2038 H              1 S1                 0.0000
     30 ****         2.4230  -1.8930   0.6358 H              1 S1                 0.0000
     31 ****         1.5440  -2.8334   1.8259 H              1 S1                 0.0000
     32 ****        -0.2902  -1.5626   1.4672 H              1 S1                 0.0000
     33 ****         0.9788   0.7895   0.2652 H              1 S1                 0.0000
     34 ****         0.6182   1.2686  -1.5995 H              1 S1                 0.0000
     35 ****        -0.0383  -1.8614  -3.5910 H              1 S1                 0.0000
     36 ****        -0.6387  -1.7090  -5.9897 H              1 S1                 0.0000
     37 ****        -0.7216   2.4198  -5.8994 H              1 S1                 0.0000
     38 ****        -0.3448  -2.3565  -0.4006 LP             1 S1                 0.0000
     39 ****        -0.5963  -1.9857  -2.0737 LP             1 S1                 0.0000
     40 ****        -0.9564   0.3732  -7.0251 LP             1 S1                 0.0000
@<TRIPOS>BOND
    1    1    2 1     
    2    1   20 1     
    3    1   21 1     
    4    1   22 1     
    5    2    3 1     
    6    2   23 1     
    7    2   24 1     
    8    3    4 1     
    9    4    8 1     
   10    4    5 1     
   11    4   25 1     
   12    5    6 1     
   13    5   26 1     
   14    5   27 1     
   15    6    7 1     
   16    6   28 1     
   17    6   29 1     
   18    7    8 1     
   19    7   30 1     
   20    7   31 1     
   21    8    9 1     
   22    8   32 1     
   23    9   10 am    
   24    9   33 1     
   25   10   11 2     
   26   10   12 am    
   27   12   13 1     
   28   12   34 1     
   29   13   18 ar    
   30   13   14 ar    
   31   14   15 ar    
   32   14   35 1     
   33   15   16 ar    
   34   15   36 1     
   35   16   17 ar    
   36   17   18 ar    
   37   17   37 1     
   38   18   19 1     
   39   11   38 1     
   40   11   39 1     
   41   16   40 1     
@<TRIPOS>SUBSTRUCTURE
      1 S1             1
@<TRIPOS>SET
LONE_PAIRS      STATIC     ATOMS    <user>   **** ""
3 38 39 40
DONOR_HYDROGENS      STATIC     ATOMS    <user>   **** ""
2 33 34
ATOM$BLUE        STATIC     ATOMS    COLORGROUP SYSTEM
3 38 39 40
ATOM$RED        STATIC     ATOMS    COLORGROUP SYSTEM
2 33 34
