AV-unprocessed.smi:110|AV-procd|sdf|1065|dock6
  -GOLD-   2262018143D 1   1.00000     0.00000
 Structure written by MMmdl.
 46 50  0  0  0  0  0  0  0  0  1 V2000
  148.7376  131.4725  157.7446 O   0  0  0  0  0  0  0  0  0  0  0  0
  147.7128  132.4420  157.7938 C   0  0  0  0  0  0  0  0  0  0  0  0
  148.1414  133.7036  157.0291 C   0  0  1  0  0  0  0  0  0  0  0  0
  149.3679  134.2005  157.5656 O   0  0  0  0  0  0  0  0  0  0  0  0
  150.1312  134.8105  156.5659 C   0  0  2  0  0  0  0  0  0  0  0  0
  150.3723  136.2478  156.9216 N   0  0  0  0  0  0  0  0  0  0  0  0
  150.0317  136.8774  158.0969 C   0  0  0  0  0  0  0  0  0  0  0  0
  150.3451  138.1420  158.1664 N   0  0  0  0  0  0  0  0  0  0  0  0
  150.9593  138.4110  156.9491 C   0  0  0  0  0  0  0  0  0  0  0  0
  151.5342  139.5717  156.3554 C   0  0  0  0  0  0  0  0  0  0  0  0
  151.5998  140.7884  156.9459 N   0  0  0  0  0  0  0  0  0  0  0  0
  150.7933  141.8902  156.4014 C   0  0  0  0  0  0  0  0  0  0  0  0
  150.6600  142.9589  157.5030 C   0  0  0  0  0  0  0  0  0  0  0  0
  151.5359  142.3816  158.5675 C   0  0  0  0  0  0  0  0  0  0  0  0
  151.8643  142.9591  159.8061 C   0  0  0  0  0  0  0  0  0  0  0  0
  152.7344  142.2493  160.6609 C   0  0  0  0  0  0  0  0  0  0  0  0
  153.2616  140.9980  160.2651 C   0  0  0  0  0  0  0  0  0  0  0  0
  152.9189  140.4380  159.0147 C   0  0  0  0  0  0  0  0  0  0  0  0
  152.0316  141.1422  158.1749 C   0  0  0  0  0  0  0  0  0  0  0  0
  152.0035  139.4624  155.0867 N   0  0  0  0  0  0  0  0  0  0  0  0
  151.9538  138.2887  154.4517 C   0  0  0  0  0  0  0  0  0  0  0  0
  151.4700  137.1255  154.8885 N   0  0  0  0  0  0  0  0  0  0  0  0
  150.9674  137.2299  156.1523 C   0  0  0  0  0  0  0  0  0  0  0  0
  149.3885  134.6265  155.2286 C   0  0  2  0  0  0  0  0  0  0  0  0
  148.6547  135.7711  154.8211 O   0  0  0  0  0  0  0  0  0  0  0  0
  148.4941  133.4413  155.5636 C   0  0  2  0  0  0  0  0  0  0  0  0
  147.3604  133.3402  154.7219 O   0  0  0  0  0  0  0  0  0  0  0  0
  147.3729  134.4764  157.0843 H   0  0  0  0  0  0  0  0  0  0  0  0
  151.1238  134.3584  156.5615 H   0  0  0  0  0  0  0  0  0  0  0  0
  150.1059  134.3838  154.4442 H   0  0  0  0  0  0  0  0  0  0  0  0
  149.0757  132.5214  155.4858 H   0  0  0  0  0  0  0  0  0  0  0  0
  149.2101  131.5751  156.9327 H   0  0  0  0  0  0  0  0  0  0  0  0
  146.7830  132.0334  157.3975 H   0  0  0  0  0  0  0  0  0  0  0  0
  147.5407  132.6805  158.8438 H   0  0  0  0  0  0  0  0  0  0  0  0
  149.5372  136.3649  158.9092 H   0  0  0  0  0  0  0  0  0  0  0  0
  151.2976  142.3046  155.5274 H   0  0  0  0  0  0  0  0  0  0  0  0
  149.8126  141.5343  156.0826 H   0  0  0  0  0  0  0  0  0  0  0  0
  151.0195  143.9360  157.1790 H   0  0  0  0  0  0  0  0  0  0  0  0
  149.6348  143.0496  157.8625 H   0  0  0  0  0  0  0  0  0  0  0  0
  151.4658  143.9208  160.0936 H   0  0  0  0  0  0  0  0  0  0  0  0
  153.0055  142.6678  161.6189 H   0  0  0  0  0  0  0  0  0  0  0  0
  153.9353  140.4680  160.9220 H   0  0  0  0  0  0  0  0  0  0  0  0
  153.3371  139.4894  158.7129 H   0  0  0  0  0  0  0  0  0  0  0  0
  152.3580  138.2801  153.4503 H   0  0  0  0  0  0  0  0  0  0  0  0
  148.8863  135.9730  153.9274 H   0  0  0  0  0  0  0  0  0  0  0  0
  146.6028  133.6408  155.2001 H   0  0  0  0  0  0  0  0  0  0  0  0
  1  2  1  0  0  0  0
  1 32  1  0  0  0  0
  2  3  1  0  0  0  0
  2 33  1  0  0  0  0
  2 34  1  0  0  0  0
  3 28  1  0  0  0  0
  3 26  1  0  0  0  0
  3  4  1  0  0  0  0
  4  5  1  0  0  0  0
  5 29  1  0  0  0  0
  5  6  1  0  0  0  0
  5 24  1  0  0  0  0
  6 23  1  0  0  0  0
  6  7  1  0  0  0  0
  7  8  2  0  0  0  0
  7 35  1  0  0  0  0
  8  9  1  0  0  0  0
  9 23  2  0  0  0  0
  9 10  1  0  0  0  0
 10 11  1  0  0  0  0
 10 20  2  0  0  0  0
 11 19  1  0  0  0  0
 11 12  1  0  0  0  0
 12 13  1  0  0  0  0
 12 36  1  0  0  0  0
 12 37  1  0  0  0  0
 13 14  1  0  0  0  0
 13 38  1  0  0  0  0
 13 39  1  0  0  0  0
 14 19  2  0  0  0  0
 14 15  1  0  0  0  0
 15 16  2  0  0  0  0
 15 40  1  0  0  0  0
 16 17  1  0  0  0  0
 16 41  1  0  0  0  0
 17 18  2  0  0  0  0
 17 42  1  0  0  0  0
 18 19  1  0  0  0  0
 18 43  1  0  0  0  0
 20 21  1  0  0  0  0
 21 22  2  0  0  0  0
 21 44  1  0  0  0  0
 22 23  1  0  0  0  0
 24 30  1  0  0  0  0
 24 25  1  0  0  0  0
 24 26  1  0  0  0  0
 25 45  1  0  0  0  0
 26 31  1  0  0  0  0
 26 27  1  0  0  0  0
 27 46  1  0  0  0  0
M  END
> <s_m_source_file>
AV-unprocessed.smi

> <i_m_source_file_index>
110

> <i_lp_mmshare_version>
43012

> <i_f3d_flags>
0

> <s_epik_input>
W09IXVtDSDJdW0NASF0xT1tDQEhdKFtDQEhdKFtPSF0pW0NAQEhdMVtPSF0pbihbY0hdbjIpYyhjMjMpbltjSF1uYzNOKFtDSDJdW0NIMl00KWMoYzQ1KVtjSF1bY0hdW2NIXVtjSF01

> <s_epik_cmdline>
J2VwaWtfcHl0aG9uJywgJy1waCcsICc3LjAnLCAnLXRuJywgJzgnLCAnLW1hJywgJzIwMCcsICctbWV0YWxfYmluZGluZycsICctaW1hZScsICc8aW5maWxlLm1hZT4nLCAnLW9tYWUnLCAnPG91dGZpbGUubWFlPic=

> <r_lp_tautomer_probability>
1

> <r_epik_Ionization_Penalty>
0.00068475

> <r_epik_Ionization_Penalty_Charging>
0

> <r_epik_Ionization_Penalty_Neutral>
0.00068475

> <r_epik_State_Penalty>
0.000417442

> <r_epik_Charging_Adjusted_Penalty>
0.000417442

> <i_epik_Tot_Q>
0

> <i_epik_Tot_abs_Q>
0

> <r_epik_Metal_State_Penalty>
-0

> <b_epik_Metal_Only>
0

> <s_epik_Chemistry_Notes>
This compound contains an acetal/aminal-like group ( X-CH(R)-Y where X, Y are N, S, or O) that may be acid/base labile, releasing an aldehyde.

> <s_lp_Force_Field>
OPLS_2005

> <r_lp_Energy>
69.6213

> <b_lp_Chiralities_Consistent>
1

> <s_lp_Variant>
AV-unprocessed.smi:110-3

> <Gold.Version>
5.8.1

> <Gold.Id.Protein>
6NUR|6NUR_protein|mol2

> <Gold.PLP.Fitness>
50.2078

> <Gold.PLP.PLP>
-41.2597

> <Gold.PLP.part.hbond>
-4.0000

> <Gold.PLP.part.metal>
0.0000

> <Gold.PLP.part.buried>
-6.3232

> <Gold.PLP.part.nonpolar>
-30.5672

> <Gold.PLP.part.repulsive>
0.1427

> <Gold.PLP.ligand.clash>
0.0000

> <Gold.PLP.ligand.torsion>
1.1428

> <Gold.PLP.Chemscore.Hbond>
3.7130

> <Gold.PLP.Chemscore.CHOScore>
0.0000

> <Gold.PLP.Chemscore.Metal>
0.0000

> <Gold.Chemscore.Hbonds>
donor molecule, donor type, donor heavy atom, donor atom, acceptor molecule, acceptor atom, score
      L1  H    25    45       P1  7948  0.91
      P1  H  6896  6909       L1     4  0.54
      P1  H  7989  7998       L1    20  0.68
      P1  H 10752 10765       L1    22  0.73

> <Gold.PLP.Chemscore.Internal.Correction>
0.0946

> <Gold.Rescore>
     Score         DG    S(hbond)    S(metal)    S(lipo)     H(rot)  DE(clash)    DE(int)     intcor
     15.82     -17.43       3.10        0.00      87.78       3.38       0.57       1.04       ----

> <Gold.Chemscore.Fitness>
15.8202

> <Gold.Chemscore.DG>
-17.4307

> <Gold.Chemscore.ZeroCoef>
-5.4800

> <Gold.Chemscore.Hbond>
3.0965

> <Gold.Chemscore.Metal>
0.0000

> <Gold.Chemscore.Lipo>
87.7842

> <Gold.Chemscore.Internal_Hbond>
0.0000

> <Gold.Chemscore.DEClash>
0.5668

> <Gold.Chemscore.DEInternal>
1.0437

> <Gold.Chemscore.Rot>
3.3837

> <Gold.Chemscore.Internal.Correction>
   9.000000E+99

> <Gold.Chemscore.Hbonds>
donor molecule, donor type, donor heavy atom, donor atom, acceptor molecule, acceptor atom, score
      L1  H    25    45       P1  7948  0.86
      P1  H  6896  6909       L1     4  0.30
      P1  H  7989  7998       L1    20  0.23
      P1  H 10752 10765       L1    22  0.39

> <Gold.Chemscore.Hbond.Weighted>
-10.3422

> <Gold.Chemscore.Metal.Weighted>
-0.0000

> <Gold.Chemscore.Lipo.Weighted>
-10.2707

> <Gold.Chemscore.Internal_Hbond.Weighted>
0.0000

> <Gold.Chemscore.DEClash.Weighted>
0.5668

> <Gold.Chemscore.DEInternal.Weighted>
1.0437

> <Gold.Chemscore.Rot.Weighted>
8.6622

> <Gold.Chemscore.Internal.Correction.Weighted>
   9.000000E+99

> <Gold.Protein.RotatedTorsions>
[ 6907 6896 6895 6894 ] final    7.15 input  -60.11 | X-H torsion
[ 7974 7965 7964 7962 ] final -175.21 input  175.53 | X-H torsion
[ 8008 7997 7996 7995 ] final  102.83 input   59.86 | X-H torsion
[ 10167 10162 10161 10158 ] final   78.19 input  -65.29 | X-H torsion
[ 10718 10713 10712 10709 ] final  -22.29 input   66.30 | X-H torsion
[ 10763 10752 10751 10750 ] final  166.91 input  -60.55 | X-H torsion
[ 11005 11000 10999 10996 ] final  -46.90 input  -57.11 | X-H torsion

> <Gold.Protein.ActiveResidues>
 VAL166  LYS551  ARG553  GLY616  TRP617  ASP618  TYR619  PRO620  LYS621  CYS622 
 ASP623  PHE694  ASN695  SER759  ASP760  ASP761  ALA762  ILE779  LEU786  VAL792 
 PHE793  MET794  SER795  GLU796  ALA797  LYS798  CYS799  TRP800  GLU811  SER814 

> <Gold.Protein.RotatedAtoms>
  151.6852  135.0955  160.0223 H   0  0  0  0  0  0  0  0  0  0  0  0  # atno 6907 bound_to 6896
  152.3811  133.6543  159.6171 H   0  0  0  0  0  0  0  0  0  0  0  0  # atno 6908 bound_to 6896
  150.7748  133.9028  159.3387 H   0  0  0  0  0  0  0  0  0  0  0  0  # atno 6909 bound_to 6896
  144.7129  140.1356  143.6395 H   0  0  0  0  0  0  0  0  0  0  0  0  # atno 7974 bound_to 7965
  156.1429  140.3175  155.8524 H   0  0  0  0  0  0  0  0  0  0  0  0  # atno 8008 bound_to 7997
  155.4119  140.0506  157.3048 H   0  0  0  0  0  0  0  0  0  0  0  0  # atno 8009 bound_to 7997
  154.4992  140.2122  155.9395 H   0  0  0  0  0  0  0  0  0  0  0  0  # atno 8010 bound_to 7997
  139.9736  144.5877  150.7963 H   0  0  0  0  0  0  0  0  0  0  0  0  # atno 10167 bound_to 10162
  156.5065  130.4600  149.6671 H   0  0  0  0  0  0  0  0  0  0  0  0  # atno 10718 bound_to 10713
  154.3460  135.2753  155.2397 H   0  0  0  0  0  0  0  0  0  0  0  0  # atno 10763 bound_to 10752
  154.4647  135.5898  153.6283 H   0  0  0  0  0  0  0  0  0  0  0  0  # atno 10764 bound_to 10752
  152.9853  135.6073  154.3666 H   0  0  0  0  0  0  0  0  0  0  0  0  # atno 10765 bound_to 10752
  141.0607  133.6710  156.3220 H   0  0  0  0  0  0  0  0  0  0  0  0  # atno 11005 bound_to 11000
  145.9248  139.2568  143.1360 LP  0  0  0  0  0  0  0  0  0  0  0  0  # atno 17320 bound_to 7965
  145.9583  140.8855  143.0223 LP  0  0  0  0  0  0  0  0  0  0  0  0  # atno 17321 bound_to 7965
  140.7513  143.2971  151.3176 LP  0  0  0  0  0  0  0  0  0  0  0  0  # atno 17342 bound_to 10162
  139.6463  144.0446  152.2593 LP  0  0  0  0  0  0  0  0  0  0  0  0  # atno 17343 bound_to 10162
  156.3281  130.7317  151.2241 LP  0  0  0  0  0  0  0  0  0  0  0  0  # atno 17370 bound_to 10713
  157.7456  131.0437  150.4758 LP  0  0  0  0  0  0  0  0  0  0  0  0  # atno 17371 bound_to 10713
  140.5874  134.5685  157.5492 LP  0  0  0  0  0  0  0  0  0  0  0  0  # atno 17394 bound_to 11000
  139.9430  134.7752  156.0631 LP  0  0  0  0  0  0  0  0  0  0  0  0  # atno 17395 bound_to 11000

$$$$
