#       Name:                AV-unprocessed.smi:2327
#       Creating user name   scv26
#       Creation time:       Fri Mar 27 12:51:58 2020


#       File generated by GOLD software.
#

@<TRIPOS>MOLECULE
AV-unprocessed.smi:2327
    45    46     1
SMALL
NO_CHARGES


@<TRIPOS>ATOM
      1 ****        -2.1312   1.1435  -3.5065 C.3            1 S1                 0.0000
      2 ****        -2.2765   0.9170  -2.0344 C.2            1 S1                 0.0000
      3 ****        -2.8762  -0.1532  -1.4191 C.2            1 S1                 0.0000
      4 ****        -2.8282  -0.0148   0.3166 S.3            1 S1                 0.0000
      5 ****        -1.9839   1.5203   0.1415 C.2            1 S1                 0.0000
      6 ****        -1.5169   2.3365   1.3097 C.3            1 S1                 0.0000
      7 ****        -2.1572   3.7314   1.3381 C.3            1 S1                 0.0000
      8 ****         0.0207   2.3738   1.4400 C.3            1 S1                 0.0000
      9 ****         0.6070   1.0415   1.3450 N.am           1 S1                 0.0000
     10 ****         0.6790   0.1524   2.3486 C.2            1 S1                 0.0000
     11 ****         0.3736   0.4145   3.5103 O.2            1 S1                 0.0000
     12 ****         1.1249  -1.0633   1.9858 N.am           1 S1                 0.0000
     13 ****         1.3161  -2.2405   2.8359 C.3            1 S1                 0.0000
     14 ****         2.4295  -3.1239   2.2540 C.3            1 S1                 0.0000
     15 ****         2.5538  -4.4341   3.0481 C.3            1 S1                 0.0000
     16 ****         1.3049  -5.1174   3.0570 O.3            1 S1                 0.0000
     17 ****         0.2719  -4.3767   3.6982 C.3            1 S1                 0.0000
     18 ****         0.0193  -3.0611   2.9441 C.3            1 S1                 0.0000
     19 ****        -1.7678   1.8571  -1.1340 N.2            1 S1                 0.0000
     20 ****        -2.6555   0.3797  -4.0812 H              1 S1                 0.0000
     21 ****        -1.0834   1.1209  -3.8065 H              1 S1                 0.0000
     22 ****        -2.5390   2.1115  -3.7985 H              1 S1                 0.0000
     23 ****        -3.3430  -1.0113  -1.8795 H              1 S1                 0.0000
     24 ****        -1.8865   1.8225   2.1984 H              1 S1                 0.0000
     25 ****        -3.2454   3.6634   1.3474 H              1 S1                 0.0000
     26 ****        -1.8667   4.3192   0.4667 H              1 S1                 0.0000
     27 ****        -1.8533   4.2838   2.2277 H              1 S1                 0.0000
     28 ****         0.4417   2.9706   0.6304 H              1 S1                 0.0000
     29 ****         0.3195   2.8602   2.3700 H              1 S1                 0.0000
     30 ****         0.9042   0.7422   0.4277 H              1 S1                 0.0000
     31 ****         1.4597  -1.1518   1.0370 H              1 S1                 0.0000
     32 ****         1.6296  -1.9305   3.8350 H              1 S1                 0.0000
     33 ****         2.2130  -3.3576   1.2106 H              1 S1                 0.0000
     34 ****         3.3803  -2.5894   2.2645 H              1 S1                 0.0000
     35 ****         3.3046  -5.0787   2.5907 H              1 S1                 0.0000
     36 ****         2.8822  -4.2399   4.0705 H              1 S1                 0.0000
     37 ****        -0.6362  -4.9797   3.7121 H              1 S1                 0.0000
     38 ****         0.5407  -4.1829   4.7378 H              1 S1                 0.0000
     39 ****        -0.7576  -2.4880   3.4510 H              1 S1                 0.0000
     40 ****        -0.3606  -3.2867   1.9467 H              1 S1                 0.0000
     41 ****         0.0514   1.3309   3.7480 LP             1 S1                 0.0000
     42 ****         0.4474  -0.2886   4.2175 LP             1 S1                 0.0000
     43 ****         1.4202  -5.9864   3.5383 LP             1 S1                 0.0000
     44 ****         1.0312  -5.2939   2.1115 LP             1 S1                 0.0000
     45 ****        -1.2933   2.6918  -1.4138 LP             1 S1                 0.0000
@<TRIPOS>BOND
    1    1    2 1     
    2    1   20 1     
    3    1   21 1     
    4    1   22 1     
    5    2   19 1     
    6    2    3 2     
    7    3    4 1     
    8    3   23 1     
    9    4    5 1     
   10    5    6 1     
   11    5   19 2     
   12    6    7 1     
   13    6    8 1     
   14    6   24 1     
   15    7   25 1     
   16    7   26 1     
   17    7   27 1     
   18    8    9 1     
   19    8   28 1     
   20    8   29 1     
   21    9   10 am    
   22    9   30 1     
   23   10   11 2     
   24   10   12 am    
   25   12   13 1     
   26   12   31 1     
   27   13   18 1     
   28   13   14 1     
   29   13   32 1     
   30   14   15 1     
   31   14   33 1     
   32   14   34 1     
   33   15   16 1     
   34   15   35 1     
   35   15   36 1     
   36   16   17 1     
   37   17   18 1     
   38   17   37 1     
   39   17   38 1     
   40   18   39 1     
   41   18   40 1     
   42   11   41 1     
   43   11   42 1     
   44   16   43 1     
   45   16   44 1     
   46   19   45 1     
@<TRIPOS>SUBSTRUCTURE
      1 S1             1
@<TRIPOS>SET
LONE_PAIRS      STATIC     ATOMS    <user>   **** ""
5 41 42 43 44 45
DONOR_HYDROGENS      STATIC     ATOMS    <user>   **** ""
2 30 31
ATOM$BLUE        STATIC     ATOMS    COLORGROUP SYSTEM
5 41 42 43 44 45
ATOM$RED        STATIC     ATOMS    COLORGROUP SYSTEM
2 30 31
