AV-unprocessed.smi:1920|AV-procd|sdf|7783|dock7
  -GOLD-   22720 9523D 1   1.00000     0.00000
 Structure written by MMmdl.
 36 37  0  0  0  0  0  0  0  0  1 V2000
  146.9366  140.9161  156.0973 C   0  0  0  0  0  0  0  0  0  0  0  0
  147.8721  141.3368  154.9481 C   0  0  2  0  0  0  0  0  0  0  0  0
  148.4173  140.1401  154.1435 C   0  0  0  0  0  0  0  0  0  0  0  0
  147.3684  139.2580  153.6672 N   0  0  0  0  0  0  0  0  0  0  0  0
  146.9823  139.0542  152.3490 C   0  0  0  0  0  0  0  0  0  0  0  0
  145.9581  138.1349  152.3772 C   0  0  0  0  0  0  0  0  0  0  0  0
  145.7020  137.7585  153.6936 N   0  0  0  0  0  0  0  0  0  0  0  0
  146.5776  138.4620  154.4000 C   0  0  0  0  0  0  0  0  0  0  0  0
  148.9955  142.1108  155.4687 N   0  0  0  0  0  0  0  0  0  0  0  0
  150.0866  141.5996  156.0600 C   0  0  0  0  0  0  0  0  0  0  0  0
  150.2603  140.3936  156.2346 O   0  0  0  0  0  0  0  0  0  0  0  0
  151.1450  142.6049  156.5259 C   0  0  0  0  0  0  0  0  0  0  0  0
  151.0494  142.9494  158.0283 C   0  0  1  0  0  0  0  0  0  0  0  0
  151.6238  141.8842  158.9312 C   0  0  0  0  0  0  0  0  0  0  0  0
  152.5367  142.3617  159.7738 C   0  0  0  0  0  0  0  0  0  0  0  0
  152.7586  143.8390  159.6061 C   0  0  0  0  0  0  0  0  0  0  0  0
  151.8517  144.2187  158.4140 C   0  0  0  0  0  0  0  0  0  0  0  0
  146.0554  140.3938  155.7246 H   0  0  0  0  0  0  0  0  0  0  0  0
  146.5815  141.7826  156.6562 H   0  0  0  0  0  0  0  0  0  0  0  0
  147.4451  140.2541  156.7988 H   0  0  0  0  0  0  0  0  0  0  0  0
  147.3052  141.9688  154.2617 H   0  0  0  0  0  0  0  0  0  0  0  0
  148.9808  140.4917  153.2779 H   0  0  0  0  0  0  0  0  0  0  0  0
  149.1109  139.5575  154.7520 H   0  0  0  0  0  0  0  0  0  0  0  0
  147.4538  139.5676  151.5237 H   0  0  0  0  0  0  0  0  0  0  0  0
  145.3915  137.7175  151.5579 H   0  0  0  0  0  0  0  0  0  0  0  0
  146.6424  138.3996  155.4764 H   0  0  0  0  0  0  0  0  0  0  0  0
  148.9407  143.1141  155.3691 H   0  0  0  0  0  0  0  0  0  0  0  0
  152.1406  142.2189  156.3002 H   0  0  0  0  0  0  0  0  0  0  0  0
  151.0271  143.5138  155.9349 H   0  0  0  0  0  0  0  0  0  0  0  0
  150.0040  143.0864  158.3094 H   0  0  0  0  0  0  0  0  0  0  0  0
  151.2997  140.8544  158.8896 H   0  0  0  0  0  0  0  0  0  0  0  0
  153.0660  141.7802  160.5140 H   0  0  0  0  0  0  0  0  0  0  0  0
  152.4686  144.3641  160.5166 H   0  0  0  0  0  0  0  0  0  0  0  0
  153.8087  144.0487  159.4005 H   0  0  0  0  0  0  0  0  0  0  0  0
  152.4661  144.5617  157.5805 H   0  0  0  0  0  0  0  0  0  0  0  0
  151.1841  145.0408  158.6741 H   0  0  0  0  0  0  0  0  0  0  0  0
  1  2  1  0  0  0  0
  1 18  1  0  0  0  0
  1 19  1  0  0  0  0
  1 20  1  0  0  0  0
  2  3  1  0  0  0  0
  2  9  1  0  0  0  0
  2 21  1  0  0  0  0
  3  4  1  0  0  0  0
  3 22  1  0  0  0  0
  3 23  1  0  0  0  0
  4  8  1  0  0  0  0
  4  5  1  0  0  0  0
  5  6  2  0  0  0  0
  5 24  1  0  0  0  0
  6  7  1  0  0  0  0
  6 25  1  0  0  0  0
  7  8  2  0  0  0  0
  8 26  1  0  0  0  0
  9 10  1  0  0  0  0
  9 27  1  0  0  0  0
 10 11  2  0  0  0  0
 10 12  1  0  0  0  0
 12 13  1  0  0  0  0
 12 28  1  0  0  0  0
 12 29  1  0  0  0  0
 13 17  1  0  0  0  0
 13 14  1  0  0  0  0
 13 30  1  0  0  0  0
 14 15  2  0  0  0  0
 14 31  1  0  0  0  0
 15 16  1  0  0  0  0
 15 32  1  0  0  0  0
 16 17  1  0  0  0  0
 16 33  1  0  0  0  0
 16 34  1  0  0  0  0
 17 35  1  0  0  0  0
 17 36  1  0  0  0  0
M  END
> <s_m_source_file>
AV-unprocessed.smi

> <i_m_source_file_index>
1920

> <i_lp_mmshare_version>
43012

> <i_f3d_flags>
0

> <s_epik_input>
W2NIXTFuW2NIXVtjSF1uMVtDSDJdW0NAQEhdKFtDSDNdKVtOSF1DKD1PKVtDSDJdW0NAQEhdMltDSF09W0NIXVtDSDJdW0NIMl0y

> <s_epik_cmdline>
J2VwaWtfcHl0aG9uJywgJy1waCcsICc3LjAnLCAnLXRuJywgJzgnLCAnLW1hJywgJzIwMCcsICctbWV0YWxfYmluZGluZycsICctaW1hZScsICc8aW5maWxlLm1hZT4nLCAnLW9tYWUnLCAnPG91dGZpbGUubWFlPic=

> <r_lp_tautomer_probability>
1

> <r_epik_Ionization_Penalty>
0.635367

> <r_epik_Ionization_Penalty_Charging>
0.635367

> <r_epik_Ionization_Penalty_Neutral>
2.1249e-08

> <r_epik_State_Penalty>
0.65258

> <r_epik_Charging_Adjusted_Penalty>
1.28795

> <i_epik_Tot_Q>
0

> <i_epik_Tot_abs_Q>
0

> <r_epik_Metal_State_Penalty>
0.310403

> <b_epik_Metal_Only>
0

> <s_lp_Force_Field>
OPLS_2005

> <r_lp_Energy>
18.7511

> <b_lp_Chiralities_Consistent>
1

> <s_lp_Variant>
AV-unprocessed.smi:1920-7

> <Gold.Version>
5.8.1

> <Gold.Id.Protein>
6NUR|6NUR_protein|mol2

> <Gold.PLP.Fitness>
40.2166

> <Gold.PLP.PLP>
-32.6682

> <Gold.PLP.part.hbond>
-1.0000

> <Gold.PLP.part.metal>
0.0000

> <Gold.PLP.part.buried>
-1.7739

> <Gold.PLP.part.nonpolar>
-30.7506

> <Gold.PLP.part.repulsive>
0.3347

> <Gold.PLP.ligand.clash>
0.0000

> <Gold.PLP.ligand.torsion>
0.7527

> <Gold.PLP.Chemscore.Hbond>
1.0000

> <Gold.PLP.Chemscore.CHOScore>
2.0000

> <Gold.PLP.Chemscore.Metal>
0.0000

> <Gold.Chemscore.Hbonds>
donor molecule, donor type, donor heavy atom, donor atom, acceptor molecule, acceptor atom, score
      L1  H     9    27       P1  8028  1.00
      L1  C     5    24       P1  7957  1.00
      L1  C     6    25       P1 10171  1.00

> <Gold.PLP.Chemscore.Internal.Correction>
0.0539

> <Gold.Rescore>
     Score         DG    S(hbond)    S(metal)    S(lipo)     H(rot)  DE(clash)    DE(int)     intcor
     12.51     -14.60       0.99        0.00      91.93       1.93       0.09       2.00       ----

> <Gold.Chemscore.Fitness>
12.5147

> <Gold.Chemscore.DG>
-14.6047

> <Gold.Chemscore.ZeroCoef>
-5.4800

> <Gold.Chemscore.Hbond>
0.9915

> <Gold.Chemscore.Metal>
0.0000

> <Gold.Chemscore.Lipo>
91.9289

> <Gold.Chemscore.Internal_Hbond>
0.0000

> <Gold.Chemscore.DEClash>
0.0889

> <Gold.Chemscore.DEInternal>
2.0011

> <Gold.Chemscore.Rot>
1.9306

> <Gold.Chemscore.Internal.Correction>
   9.000000E+99

> <Gold.Chemscore.Hbonds>
donor molecule, donor type, donor heavy atom, donor atom, acceptor molecule, acceptor atom, score
      L1  H     9    27       P1  8028  0.99

> <Gold.Chemscore.Hbond.Weighted>
-3.3115

> <Gold.Chemscore.Metal.Weighted>
-0.0000

> <Gold.Chemscore.Lipo.Weighted>
-10.7557

> <Gold.Chemscore.Internal_Hbond.Weighted>
0.0000

> <Gold.Chemscore.DEClash.Weighted>
0.0889

> <Gold.Chemscore.DEInternal.Weighted>
2.0011

> <Gold.Chemscore.Rot.Weighted>
4.9424

> <Gold.Chemscore.Internal.Correction.Weighted>
   9.000000E+99

> <Gold.Protein.RotatedTorsions>
[ 6907 6896 6895 6894 ] final -126.58 input  -60.11 | X-H torsion
[ 7974 7965 7964 7962 ] final  108.78 input  175.53 | X-H torsion
[ 8008 7997 7996 7995 ] final   91.23 input   59.86 | X-H torsion
[ 10167 10162 10161 10158 ] final  137.30 input  -65.29 | X-H torsion
[ 10718 10713 10712 10709 ] final -113.81 input   66.30 | X-H torsion
[ 10763 10752 10751 10750 ] final -158.15 input  -60.55 | X-H torsion
[ 11005 11000 10999 10996 ] final  -47.56 input  -57.11 | X-H torsion

> <Gold.Protein.ActiveResidues>
 VAL166  LYS551  ARG553  GLY616  TRP617  ASP618  TYR619  PRO620  LYS621  CYS622 
 ASP623  PHE694  ASN695  SER759  ASP760  ASP761  ALA762  ILE779  LEU786  VAL792 
 PHE793  MET794  SER795  GLU796  ALA797  LYS798  CYS799  TRP800  GLU811  SER814 

> <Gold.Protein.RotatedAtoms>
  150.8984  133.7151  159.2885 H   0  0  0  0  0  0  0  0  0  0  0  0  # atno 6907 bound_to 6896
  151.4678  135.1042  159.9752 H   0  0  0  0  0  0  0  0  0  0  0  0  # atno 6908 bound_to 6896
  152.4862  133.8331  159.7169 H   0  0  0  0  0  0  0  0  0  0  0  0  # atno 6909 bound_to 6896
  145.2763  139.2648  143.3939 H   0  0  0  0  0  0  0  0  0  0  0  0  # atno 7974 bound_to 7965
  156.0213  140.3340  155.7041 H   0  0  0  0  0  0  0  0  0  0  0  0  # atno 8008 bound_to 7997
  155.6019  140.0656  157.2748 H   0  0  0  0  0  0  0  0  0  0  0  0  # atno 8009 bound_to 7997
  154.4317  140.1809  156.1169 H   0  0  0  0  0  0  0  0  0  0  0  0  # atno 8010 bound_to 7997
  139.5149  144.6417  151.5549 H   0  0  0  0  0  0  0  0  0  0  0  0  # atno 10167 bound_to 10162
  156.0790  130.5993  150.8692 H   0  0  0  0  0  0  0  0  0  0  0  0  # atno 10718 bound_to 10713
  154.7579  135.3110  154.8434 H   0  0  0  0  0  0  0  0  0  0  0  0  # atno 10763 bound_to 10752
  153.9203  135.6796  153.4752 H   0  0  0  0  0  0  0  0  0  0  0  0  # atno 10764 bound_to 10752
  153.1178  135.4836  154.9075 H   0  0  0  0  0  0  0  0  0  0  0  0  # atno 10765 bound_to 10752
  141.0648  133.6697  156.3316 H   0  0  0  0  0  0  0  0  0  0  0  0  # atno 11005 bound_to 11000
  146.3231  140.3218  142.8634 LP  0  0  0  0  0  0  0  0  0  0  0  0  # atno 17320 bound_to 7965
  144.9292  140.7955  143.5700 LP  0  0  0  0  0  0  0  0  0  0  0  0  # atno 17321 bound_to 7965
  140.6187  143.9300  150.6509 LP  0  0  0  0  0  0  0  0  0  0  0  0  # atno 17342 bound_to 10162
  140.2566  143.3554  152.1359 LP  0  0  0  0  0  0  0  0  0  0  0  0  # atno 17343 bound_to 10162
  157.5898  131.0945  150.9136 LP  0  0  0  0  0  0  0  0  0  0  0  0  # atno 17370 bound_to 10713
  156.9315  130.5351  149.5279 LP  0  0  0  0  0  0  0  0  0  0  0  0  # atno 17371 bound_to 10713
  140.5795  134.5760  157.5476 LP  0  0  0  0  0  0  0  0  0  0  0  0  # atno 17394 bound_to 11000
  139.9466  134.7691  156.0547 LP  0  0  0  0  0  0  0  0  0  0  0  0  # atno 17395 bound_to 11000

$$$$
