AV-unprocessed.smi:1300|AV-procd|sdf|5419|dock5
  -GOLD-   22720 4573D 1   1.00000     0.00000
 Structure written by MMmdl.
 35 36  0  0  0  0  0  0  0  0  1 V2000
  150.5270  144.9977  159.9837 C   0  0  0  0  0  0  0  0  0  0  0  0
  151.2505  143.7304  159.6162 C   0  0  0  0  0  0  0  0  0  0  0  0
  150.9088  143.1692  158.5036 N   0  0  0  0  0  0  0  0  0  0  0  0
  151.5216  142.0109  158.0638 N   0  0  0  0  0  0  0  0  0  0  0  0
  151.0628  141.5412  156.7473 C   0  0  0  0  0  0  0  0  0  0  0  0
  149.7662  140.6875  156.7879 C   0  0  2  0  0  0  0  0  0  0  0  0
  150.0995  139.3217  156.6319 O   0  0  0  0  0  0  0  0  0  0  0  0
  148.6587  141.1593  155.8467 C   0  0  0  0  0  0  0  0  0  0  0  0
  148.8108  141.0726  154.4435 C   0  0  0  0  0  0  0  0  0  0  0  0
  147.7958  141.5391  153.5866 C   0  0  0  0  0  0  0  0  0  0  0  0
  146.6201  142.0949  154.1243 C   0  0  0  0  0  0  0  0  0  0  0  0
  146.4607  142.1846  155.5199 C   0  0  0  0  0  0  0  0  0  0  0  0
  147.4756  141.7199  156.3790 C   0  0  0  0  0  0  0  0  0  0  0  0
  147.3133  141.8264  157.7197 F   0  0  0  0  0  0  0  0  0  0  0  0
  152.4865  141.3351  158.7496 C   0  0  0  0  0  0  0  0  0  0  0  0
  152.9886  140.2910  158.3316 O   0  0  0  0  0  0  0  0  0  0  0  0
  152.8693  141.9771  160.0090 C   0  0  0  0  0  0  0  0  0  0  0  0
  153.8940  141.3136  160.7485 C   0  0  0  0  0  0  0  0  0  0  0  0
  154.7236  140.7903  161.3632 N   0  0  0  0  0  0  0  0  0  0  0  0
  152.2934  143.1274  160.4395 C   0  0  0  0  0  0  0  0  0  0  0  0
  152.6576  143.8353  161.7373 C   0  0  0  0  0  0  0  0  0  0  0  0
  150.0409  144.8992  160.9545 H   0  0  0  0  0  0  0  0  0  0  0  0
  149.7564  145.2526  159.2546 H   0  0  0  0  0  0  0  0  0  0  0  0
  151.2211  145.8367  160.0353 H   0  0  0  0  0  0  0  0  0  0  0  0
  150.9771  142.3650  156.0358 H   0  0  0  0  0  0  0  0  0  0  0  0
  151.8536  140.9131  156.3322 H   0  0  0  0  0  0  0  0  0  0  0  0
  149.3699  140.7457  157.8024 H   0  0  0  0  0  0  0  0  0  0  0  0
  149.3530  138.8000  156.8837 H   0  0  0  0  0  0  0  0  0  0  0  0
  149.7128  140.6613  154.0146 H   0  0  0  0  0  0  0  0  0  0  0  0
  147.9214  141.4729  152.5159 H   0  0  0  0  0  0  0  0  0  0  0  0
  145.8421  142.4540  153.4668 H   0  0  0  0  0  0  0  0  0  0  0  0
  145.5597  142.6136  155.9326 H   0  0  0  0  0  0  0  0  0  0  0  0
  153.4715  143.3386  162.2642 H   0  0  0  0  0  0  0  0  0  0  0  0
  151.8001  143.8636  162.4104 H   0  0  0  0  0  0  0  0  0  0  0  0
  152.9750  144.8596  161.5401 H   0  0  0  0  0  0  0  0  0  0  0  0
  1  2  1  0  0  0  0
  1 22  1  0  0  0  0
  1 23  1  0  0  0  0
  1 24  1  0  0  0  0
  2 20  1  0  0  0  0
  2  3  2  0  0  0  0
  3  4  1  0  0  0  0
  4  5  1  0  0  0  0
  4 15  1  0  0  0  0
  5  6  1  0  0  0  0
  5 25  1  0  0  0  0
  5 26  1  0  0  0  0
  6  7  1  0  0  0  0
  6  8  1  0  0  0  0
  6 27  1  0  0  0  0
  7 28  1  0  0  0  0
  8 13  1  0  0  0  0
  8  9  2  0  0  0  0
  9 10  1  0  0  0  0
  9 29  1  0  0  0  0
 10 11  2  0  0  0  0
 10 30  1  0  0  0  0
 11 12  1  0  0  0  0
 11 31  1  0  0  0  0
 12 13  2  0  0  0  0
 12 32  1  0  0  0  0
 13 14  1  0  0  0  0
 15 16  2  0  0  0  0
 15 17  1  0  0  0  0
 17 18  1  0  0  0  0
 17 20  2  0  0  0  0
 18 19  3  0  0  0  0
 20 21  1  0  0  0  0
 21 33  1  0  0  0  0
 21 34  1  0  0  0  0
 21 35  1  0  0  0  0
M  END
> <s_m_source_file>
AV-unprocessed.smi

> <i_m_source_file_index>
1300

> <i_lp_mmshare_version>
43012

> <i_f3d_flags>
0

> <s_epik_input>
TiNDYyhjMVtDSDNdKWMoPU8pbihuYzFbQ0gzXSlbQ0gyXVtDQEhdKFtPSF0pYzJbY0hdW2NIXVtjSF1bY0hdYzJG

> <s_epik_cmdline>
J2VwaWtfcHl0aG9uJywgJy1waCcsICc3LjAnLCAnLXRuJywgJzgnLCAnLW1hJywgJzIwMCcsICctbWV0YWxfYmluZGluZycsICctaW1hZScsICc8aW5maWxlLm1hZT4nLCAnLW9tYWUnLCAnPG91dGZpbGUubWFlPic=

> <r_lp_tautomer_probability>
1

> <r_epik_Ionization_Penalty>
7.1854e-08

> <r_epik_Ionization_Penalty_Charging>
1.40848e-10

> <r_epik_Ionization_Penalty_Neutral>
7.17131e-08

> <r_epik_State_Penalty>
-0

> <r_epik_Charging_Adjusted_Penalty>
1.40848e-10

> <i_epik_Tot_Q>
0

> <i_epik_Tot_abs_Q>
0

> <r_epik_Metal_State_Penalty>
-0

> <b_epik_Metal_Only>
0

> <s_lp_Force_Field>
OPLS_2005

> <r_lp_Energy>
27.5545

> <b_lp_Chiralities_Consistent>
1

> <s_lp_Variant>
AV-unprocessed.smi:1300-1

> <Gold.Version>
5.8.1

> <Gold.Id.Protein>
6NUR|6NUR_protein|mol2

> <Gold.PLP.Fitness>
43.8624

> <Gold.PLP.PLP>
-43.2102

> <Gold.PLP.part.hbond>
-1.2378

> <Gold.PLP.part.metal>
0.0000

> <Gold.PLP.part.buried>
-6.4366

> <Gold.PLP.part.nonpolar>
-34.4269

> <Gold.PLP.part.repulsive>
0.1069

> <Gold.PLP.ligand.clash>
0.0000

> <Gold.PLP.ligand.torsion>
1.0684

> <Gold.PLP.Chemscore.Hbond>
0.9048

> <Gold.PLP.Chemscore.CHOScore>
0.0000

> <Gold.PLP.Chemscore.Metal>
0.0000

> <Gold.Chemscore.Hbonds>
donor molecule, donor type, donor heavy atom, donor atom, acceptor molecule, acceptor atom, score
      P1  H  7997  8010       L1    16  0.80

> <Gold.PLP.Chemscore.Internal.Correction>
0.0747

> <Gold.Rescore>
     Score         DG    S(hbond)    S(metal)    S(lipo)     H(rot)  DE(clash)    DE(int)     intcor
     13.56     -14.88       0.96        0.00      96.65       2.00       0.25       1.07       ----

> <Gold.Chemscore.Fitness>
13.5590

> <Gold.Chemscore.DG>
-14.8754

> <Gold.Chemscore.ZeroCoef>
-5.4800

> <Gold.Chemscore.Hbond>
0.9572

> <Gold.Chemscore.Metal>
0.0000

> <Gold.Chemscore.Lipo>
96.6503

> <Gold.Chemscore.Internal_Hbond>
0.0000

> <Gold.Chemscore.DEClash>
0.2474

> <Gold.Chemscore.DEInternal>
1.0689

> <Gold.Chemscore.Rot>
1.9960

> <Gold.Chemscore.Internal.Correction>
   9.000000E+99

> <Gold.Chemscore.Hbonds>
donor molecule, donor type, donor heavy atom, donor atom, acceptor molecule, acceptor atom, score
      P1  H  7997  8010       L1    16  0.77

> <Gold.Chemscore.Hbond.Weighted>
-3.1970

> <Gold.Chemscore.Metal.Weighted>
-0.0000

> <Gold.Chemscore.Lipo.Weighted>
-11.3081

> <Gold.Chemscore.Internal_Hbond.Weighted>
0.0000

> <Gold.Chemscore.DEClash.Weighted>
0.2474

> <Gold.Chemscore.DEInternal.Weighted>
1.0689

> <Gold.Chemscore.Rot.Weighted>
5.1097

> <Gold.Chemscore.Internal.Correction.Weighted>
   9.000000E+99

> <Gold.Protein.RotatedTorsions>
[ 6907 6896 6895 6894 ] final   80.87 input  -60.11 | X-H torsion
[ 7974 7965 7964 7962 ] final  -61.92 input  175.53 | X-H torsion
[ 8008 7997 7996 7995 ] final   39.79 input   59.86 | X-H torsion
[ 10167 10162 10161 10158 ] final   68.14 input  -65.29 | X-H torsion
[ 10718 10713 10712 10709 ] final   60.48 input   66.30 | X-H torsion
[ 10763 10752 10751 10750 ] final   75.72 input  -60.55 | X-H torsion
[ 11005 11000 10999 10996 ] final  105.97 input  -57.11 | X-H torsion

> <Gold.Protein.ActiveResidues>
 VAL166  LYS551  ARG553  GLY616  TRP617  ASP618  TYR619  PRO620  LYS621  CYS622 
 ASP623  PHE694  ASN695  SER759  ASP760  ASP761  ALA762  ILE779  LEU786  VAL792 
 PHE793  MET794  SER795  GLU796  ALA797  LYS798  CYS799  TRP800  GLU811  SER814 

> <Gold.Protein.RotatedAtoms>
  152.5249  134.3292  159.9176 H   0  0  0  0  0  0  0  0  0  0  0  0  # atno 6907 bound_to 6896
  151.3241  133.4021  159.2664 H   0  0  0  0  0  0  0  0  0  0  0  0  # atno 6908 bound_to 6896
  150.9935  134.9281  159.7970 H   0  0  0  0  0  0  0  0  0  0  0  0  # atno 6909 bound_to 6896
  145.7976  140.8674  143.0248 H   0  0  0  0  0  0  0  0  0  0  0  0  # atno 7974 bound_to 7965
  155.2425  140.3346  155.4291 H   0  0  0  0  0  0  0  0  0  0  0  0  # atno 8008 bound_to 7997
  156.2250  140.1825  156.7430 H   0  0  0  0  0  0  0  0  0  0  0  0  # atno 8009 bound_to 7997
  154.5884  140.0642  156.9189 H   0  0  0  0  0  0  0  0  0  0  0  0  # atno 8010 bound_to 7997
  140.0819  144.5063  150.7156 H   0  0  0  0  0  0  0  0  0  0  0  0  # atno 10167 bound_to 10162
  157.5756  130.8941  149.9341 H   0  0  0  0  0  0  0  0  0  0  0  0  # atno 10718 bound_to 10713
  153.0674  135.4978  154.8231 H   0  0  0  0  0  0  0  0  0  0  0  0  # atno 10763 bound_to 10752
  154.6974  135.2995  154.9394 H   0  0  0  0  0  0  0  0  0  0  0  0  # atno 10764 bound_to 10752
  154.0129  135.6752  153.4819 H   0  0  0  0  0  0  0  0  0  0  0  0  # atno 10765 bound_to 10752
  139.8808  134.9354  156.5596 H   0  0  0  0  0  0  0  0  0  0  0  0  # atno 11005 bound_to 11000
  144.6773  140.0212  143.7483 LP  0  0  0  0  0  0  0  0  0  0  0  0  # atno 17320 bound_to 7965
  145.9912  139.3016  143.0984 LP  0  0  0  0  0  0  0  0  0  0  0  0  # atno 17321 bound_to 7965
  140.7073  143.2478  151.4687 LP  0  0  0  0  0  0  0  0  0  0  0  0  # atno 17342 bound_to 10162
  139.5775  144.1786  152.1923 LP  0  0  0  0  0  0  0  0  0  0  0  0  # atno 17343 bound_to 10162
  156.0801  130.3674  150.0598 LP  0  0  0  0  0  0  0  0  0  0  0  0  # atno 17370 bound_to 10713
  156.8745  130.9535  151.3606 LP  0  0  0  0  0  0  0  0  0  0  0  0  # atno 17371 bound_to 10713
  140.8179  133.8377  155.8869 LP  0  0  0  0  0  0  0  0  0  0  0  0  # atno 17394 bound_to 11000
  140.9445  134.1858  157.4773 LP  0  0  0  0  0  0  0  0  0  0  0  0  # atno 17395 bound_to 11000

$$$$
