AV-unprocessed.smi:445|AV-procd|sdf|2589|dock8
  -GOLD-   2262022583D 1   1.00000     0.00000
 Structure written by MMmdl.
 44 45  0  0  0  0  0  0  0  0  3 V2000
  152.9338  141.5214  160.3006 C   0  0  0  0  0  0  0  0  0  0  0  0
  152.4974  142.8759  159.7131 C   0  0  2  0  0  0  0  0  0  0  0  0
  152.3246  143.9208  160.8343 C   0  0  0  0  0  0  0  0  0  0  0  0
  151.8984  145.2889  160.2814 C   0  0  0  0  0  0  0  0  0  0  0  0
  150.6095  145.1721  159.4569 C   0  0  0  0  0  0  0  0  0  0  0  0
  150.7708  144.1463  158.3260 C   0  0  0  0  0  0  0  0  0  0  0  0
  151.2057  142.7666  158.8645 C   0  0  1  0  0  0  0  0  0  0  0  0
  151.4058  141.8424  157.7504 N   0  0  0  0  0  0  0  0  0  0  0  0
  150.4432  141.3865  156.9348 C   0  0  0  0  0  0  0  0  0  0  0  0
  149.2624  141.7241  157.0281 O   0  0  0  0  0  0  0  0  0  0  0  0
  150.8988  140.4179  155.8343 C   0  0  0  0  0  0  0  0  0  0  0  0
  149.9635  139.2977  155.6254 N   0  0  0  0  0  0  0  0  0  0  0  0
  150.4531  138.0106  155.9096 C   0  0  0  0  0  0  0  0  0  0  0  0
  149.7017  136.9067  155.7536 C   0  0  0  0  0  0  0  0  0  0  0  0
  150.2312  135.5920  156.0466 N   0  3  0  0  0  0  0  0  0  0  0  0
  149.5136  134.6135  155.8652 O   0  0  0  0  0  0  0  0  0  0  0  0
  151.3798  135.4923  156.4677 O   0  5  0  0  0  0  0  0  0  0  0  0
  148.3438  137.0741  155.2786 C   0  0  0  0  0  0  0  0  0  0  0  0
  147.8512  138.3065  154.9924 C   0  0  0  0  0  0  0  0  0  0  0  0
  146.4703  138.5238  154.5050 C   0  0  0  0  0  0  0  0  0  0  0  0
  146.3026  139.6562  153.8101 N   0  0  0  0  0  0  0  0  0  0  0  0
  145.5007  137.7845  154.6747 O   0  0  0  0  0  0  0  0  0  0  0  0
  148.6942  139.5216  155.1610 C   0  0  0  0  0  0  0  0  0  0  0  0
  148.3268  140.6737  154.9146 O   0  0  0  0  0  0  0  0  0  0  0  0
  152.1565  141.0990  160.9383 H   0  0  0  0  0  0  0  0  0  0  0  0
  153.8356  141.6286  160.9037 H   0  0  0  0  0  0  0  0  0  0  0  0
  153.1541  140.7937  159.5194 H   0  0  0  0  0  0  0  0  0  0  0  0
  153.3014  143.2233  159.0619 H   0  0  0  0  0  0  0  0  0  0  0  0
  151.5790  143.5723  161.5505 H   0  0  0  0  0  0  0  0  0  0  0  0
  153.2568  144.0293  161.3898 H   0  0  0  0  0  0  0  0  0  0  0  0
  151.7523  145.9923  161.1017 H   0  0  0  0  0  0  0  0  0  0  0  0
  152.6958  145.6985  159.6600 H   0  0  0  0  0  0  0  0  0  0  0  0
  149.7844  144.8756  160.1056 H   0  0  0  0  0  0  0  0  0  0  0  0
  150.3437  146.1448  159.0417 H   0  0  0  0  0  0  0  0  0  0  0  0
  149.8303  144.0586  157.7806 H   0  0  0  0  0  0  0  0  0  0  0  0
  151.5083  144.5123  157.6101 H   0  0  0  0  0  0  0  0  0  0  0  0
  150.4130  142.3798  159.5082 H   0  0  0  0  0  0  0  0  0  0  0  0
  152.3489  141.5157  157.5969 H   0  0  0  0  0  0  0  0  0  0  0  0
  151.0263  140.9895  154.9140 H   0  0  0  0  0  0  0  0  0  0  0  0
  151.8961  140.0408  156.0696 H   0  0  0  0  0  0  0  0  0  0  0  0
  151.4779  137.9861  156.2513 H   0  0  0  0  0  0  0  0  0  0  0  0
  147.7374  136.1890  155.1597 H   0  0  0  0  0  0  0  0  0  0  0  0
  145.3952  139.8917  153.4356 H   0  0  0  0  0  0  0  0  0  0  0  0
  147.0892  140.2721  153.6624 H   0  0  0  0  0  0  0  0  0  0  0  0
  1  2  1  0  0  0  0
  1 25  1  0  0  0  0
  1 26  1  0  0  0  0
  1 27  1  0  0  0  0
  2  7  1  0  0  0  0
  2  3  1  0  0  0  0
  2 28  1  0  0  0  0
  3  4  1  0  0  0  0
  3 29  1  0  0  0  0
  3 30  1  0  0  0  0
  4  5  1  0  0  0  0
  4 31  1  0  0  0  0
  4 32  1  0  0  0  0
  5  6  1  0  0  0  0
  5 33  1  0  0  0  0
  5 34  1  0  0  0  0
  6  7  1  0  0  0  0
  6 35  1  0  0  0  0
  6 36  1  0  0  0  0
  7  8  1  0  0  0  0
  7 37  1  0  0  0  0
  8  9  1  0  0  0  0
  8 38  1  0  0  0  0
  9 10  2  0  0  0  0
  9 11  1  0  0  0  0
 11 12  1  0  0  0  0
 11 39  1  0  0  0  0
 11 40  1  0  0  0  0
 12 23  1  0  0  0  0
 12 13  1  0  0  0  0
 13 14  2  0  0  0  0
 13 41  1  0  0  0  0
 14 15  1  0  0  0  0
 14 18  1  0  0  0  0
 15 16  2  0  0  0  0
 15 17  1  0  0  0  0
 18 19  2  0  0  0  0
 18 42  1  0  0  0  0
 19 20  1  0  0  0  0
 19 23  1  0  0  0  0
 20 21  1  0  0  0  0
 20 22  2  0  0  0  0
 21 43  1  0  0  0  0
 21 44  1  0  0  0  0
 23 24  2  0  0  0  0
M  CHG  1  15   1
M  CHG  1  17  -1
M  END
> <s_m_source_file>
AV-unprocessed.smi

> <i_m_source_file_index>
445

> <i_lp_mmshare_version>
43012

> <i_f3d_flags>
0

> <s_epik_input>
W0NIM11bQ0BASF0xW0NIMl1bQ0gyXVtDSDJdW0NIMl1bQ0BIXTFbTkhdQyg9TylbQ0gyXW4yW2NIXWMoW04rXSg9TylbTy1dKVtjSF1jKGMyPU8pQyg9TylbTkgyXQ==

> <s_epik_cmdline>
J2VwaWtfcHl0aG9uJywgJy1waCcsICc3LjAnLCAnLXRuJywgJzgnLCAnLW1hJywgJzIwMCcsICctbWV0YWxfYmluZGluZycsICctaW1hZScsICc8aW5maWxlLm1hZT4nLCAnLW9tYWUnLCAnPG91dGZpbGUubWFlPic=

> <r_lp_tautomer_probability>
1

> <r_epik_Ionization_Penalty>
2.81321e-06

> <r_epik_Ionization_Penalty_Charging>
2.43777e-12

> <r_epik_Ionization_Penalty_Neutral>
2.81321e-06

> <r_epik_State_Penalty>
-0

> <r_epik_Charging_Adjusted_Penalty>
2.43777e-12

> <i_epik_Tot_Q>
0

> <i_epik_Tot_abs_Q>
2

> <r_epik_Metal_State_Penalty>
-0

> <b_epik_Metal_Only>
0

> <s_lp_Force_Field>
OPLS_2005

> <r_lp_Energy>
28.5082

> <b_lp_Chiralities_Consistent>
1

> <s_lp_Variant>
AV-unprocessed.smi:445-1

> <Gold.Version>
5.8.1

> <Gold.Id.Protein>
6NUR|6NUR_protein|mol2

> <Gold.PLP.Fitness>
43.7314

> <Gold.PLP.PLP>
-38.8817

> <Gold.PLP.part.hbond>
-2.0000

> <Gold.PLP.part.metal>
0.0000

> <Gold.PLP.part.buried>
-5.6733

> <Gold.PLP.part.nonpolar>
-33.0616

> <Gold.PLP.part.repulsive>
1.5467

> <Gold.PLP.ligand.clash>
0.0000

> <Gold.PLP.ligand.torsion>
0.5917

> <Gold.PLP.Chemscore.Hbond>
2.0000

> <Gold.PLP.Chemscore.CHOScore>
0.0000

> <Gold.PLP.Chemscore.Metal>
0.0000

> <Gold.Chemscore.Hbonds>
donor molecule, donor type, donor heavy atom, donor atom, acceptor molecule, acceptor atom, score
      L1  H    21    43       P1 10175  0.96
      P1  H 10752 10765       L1    17  0.44

> <Gold.PLP.Chemscore.Internal.Correction>
0.0330

> <Gold.Rescore>
     Score         DG    S(hbond)    S(metal)    S(lipo)     H(rot)  DE(clash)    DE(int)     intcor
     13.95     -18.51       1.99        0.00      92.20       1.71       0.09       4.48       ----

> <Gold.Chemscore.Fitness>
13.9469

> <Gold.Chemscore.DG>
-18.5148

> <Gold.Chemscore.ZeroCoef>
-5.4800

> <Gold.Chemscore.Hbond>
1.9855

> <Gold.Chemscore.Metal>
0.0000

> <Gold.Chemscore.Lipo>
92.1955

> <Gold.Chemscore.Internal_Hbond>
0.0000

> <Gold.Chemscore.DEClash>
0.0907

> <Gold.Chemscore.DEInternal>
4.4773

> <Gold.Chemscore.Rot>
1.7123

> <Gold.Chemscore.Internal.Correction>
   9.000000E+99

> <Gold.Chemscore.Hbonds>
donor molecule, donor type, donor heavy atom, donor atom, acceptor molecule, acceptor atom, score
      L1  H    21    43       P1 10175  0.90
      P1  H 10752 10765       L1    17  0.43

> <Gold.Chemscore.Hbond.Weighted>
-6.6314

> <Gold.Chemscore.Metal.Weighted>
-0.0000

> <Gold.Chemscore.Lipo.Weighted>
-10.7869

> <Gold.Chemscore.Internal_Hbond.Weighted>
0.0000

> <Gold.Chemscore.DEClash.Weighted>
0.0907

> <Gold.Chemscore.DEInternal.Weighted>
4.4773

> <Gold.Chemscore.Rot.Weighted>
4.3835

> <Gold.Chemscore.Internal.Correction.Weighted>
   9.000000E+99

> <Gold.Protein.RotatedTorsions>
[ 6907 6896 6895 6894 ] final -164.79 input  -60.11 | X-H torsion
[ 7974 7965 7964 7962 ] final   -8.71 input  175.53 | X-H torsion
[ 8008 7997 7996 7995 ] final  142.52 input   59.86 | X-H torsion
[ 10167 10162 10161 10158 ] final  112.28 input  -65.29 | X-H torsion
[ 10718 10713 10712 10709 ] final   -1.10 input   66.30 | X-H torsion
[ 10763 10752 10751 10750 ] final -148.75 input  -60.55 | X-H torsion
[ 11005 11000 10999 10996 ] final  -48.34 input  -57.11 | X-H torsion

> <Gold.Protein.ActiveResidues>
 VAL166  LYS551  ARG553  GLY616  TRP617  ASP618  TYR619  PRO620  LYS621  CYS622 
 ASP623  PHE694  ASN695  SER759  ASP760  ASP761  ALA762  ILE779  LEU786  VAL792 
 PHE793  MET794  SER795  GLU796  ALA797  LYS798  CYS799  TRP800  GLU811  SER814 

> <Gold.Protein.RotatedAtoms>
  151.4174  133.3708  159.2751 H   0  0  0  0  0  0  0  0  0  0  0  0  # atno 6907 bound_to 6896
  150.9318  134.8734  159.7567 H   0  0  0  0  0  0  0  0  0  0  0  0  # atno 6908 bound_to 6896
  152.5032  134.4119  159.9503 H   0  0  0  0  0  0  0  0  0  0  0  0  # atno 6909 bound_to 6896
  146.2273  140.2508  142.8347 H   0  0  0  0  0  0  0  0  0  0  0  0  # atno 7974 bound_to 7965
  156.2948  140.2286  156.4741 H   0  0  0  0  0  0  0  0  0  0  0  0  # atno 8008 bound_to 7997
  154.7910  140.0454  157.1221 H   0  0  0  0  0  0  0  0  0  0  0  0  # atno 8009 bound_to 7997
  154.9646  140.3058  155.5019 H   0  0  0  0  0  0  0  0  0  0  0  0  # atno 8010 bound_to 7997
  139.6547  144.7129  151.1979 H   0  0  0  0  0  0  0  0  0  0  0  0  # atno 10167 bound_to 10162
  156.8107  130.5423  149.5709 H   0  0  0  0  0  0  0  0  0  0  0  0  # atno 10718 bound_to 10713
  154.8216  135.3326  154.7022 H   0  0  0  0  0  0  0  0  0  0  0  0  # atno 10763 bound_to 10752
  153.7654  135.6929  153.4921 H   0  0  0  0  0  0  0  0  0  0  0  0  # atno 10764 bound_to 10752
  153.2081  135.4492  155.0296 H   0  0  0  0  0  0  0  0  0  0  0  0  # atno 10765 bound_to 10752
  141.0695  133.6683  156.3427 H   0  0  0  0  0  0  0  0  0  0  0  0  # atno 11005 bound_to 11000
  144.9413  140.8081  143.5629 LP  0  0  0  0  0  0  0  0  0  0  0  0  # atno 17320 bound_to 7965
  145.2460  139.2052  143.4967 LP  0  0  0  0  0  0  0  0  0  0  0  0  # atno 17321 bound_to 7965
  140.7554  143.6091  150.8623 LP  0  0  0  0  0  0  0  0  0  0  0  0  # atno 17342 bound_to 10162
  139.9743  143.6022  152.2963 LP  0  0  0  0  0  0  0  0  0  0  0  0  # atno 17343 bound_to 10162
  156.1046  130.5995  150.9950 LP  0  0  0  0  0  0  0  0  0  0  0  0  # atno 17370 bound_to 10713
  157.6507  131.0897  150.8056 LP  0  0  0  0  0  0  0  0  0  0  0  0  # atno 17371 bound_to 10713
  140.5703  134.5847  157.5456 LP  0  0  0  0  0  0  0  0  0  0  0  0  # atno 17394 bound_to 11000
  139.9509  134.7618  156.0451 LP  0  0  0  0  0  0  0  0  0  0  0  0  # atno 17395 bound_to 11000

$$$$
