AV-unprocessed.smi:2114|AV-procd|sdf|8622|dock10
  -GOLD-   2272011363D 1   1.00000     0.00000
 Structure written by MMmdl.
 47 48  0  0  0  0  0  0  0  0  1 V2000
  154.0444  141.7177  168.0581 C   0  0  0  0  0  0  0  0  0  0  0  0
  155.0577  141.2210  167.2018 O   0  0  0  0  0  0  0  0  0  0  0  0
  155.0755  139.8039  167.1426 C   0  0  0  0  0  0  0  0  0  0  0  0
  155.8767  139.3578  165.9098 C   0  0  1  0  0  0  0  0  0  0  0  0
  155.9736  137.8284  165.8163 C   0  0  0  0  0  0  0  0  0  0  0  0
  155.2444  139.8785  164.7005 N   0  0  0  0  0  0  0  0  0  0  0  0
  155.5229  139.5008  163.4420 C   0  0  0  0  0  0  0  0  0  0  0  0
  156.3767  138.6638  163.1490 O   0  0  0  0  0  0  0  0  0  0  0  0
  154.7590  140.2247  162.3725 C   0  0  0  0  0  0  0  0  0  0  0  0
  154.7574  139.7779  161.0321 C   0  0  0  0  0  0  0  0  0  0  0  0
  154.0362  140.5090  160.0690 C   0  0  0  0  0  0  0  0  0  0  0  0
  153.3404  141.6657  160.4758 C   0  0  0  0  0  0  0  0  0  0  0  0
  152.6145  142.3917  159.5217 N   0  0  0  0  0  0  0  0  0  0  0  0
  151.5881  141.6147  158.8408 C   0  0  0  0  0  0  0  0  0  0  0  0
  150.9803  142.4400  157.6929 C   0  0  1  0  0  0  0  0  0  0  0  0
  149.8227  141.7051  157.0090 C   0  0  0  0  0  0  0  0  0  0  0  0
  150.4799  143.6731  158.2115 O   0  0  0  0  0  0  0  0  0  0  0  0
  151.4458  144.4732  158.8996 C   0  0  2  0  0  0  0  0  0  0  0  0
  152.4601  145.1114  157.9343 C   0  0  0  0  0  0  0  0  0  0  0  0
  152.1043  143.6578  160.0306 C   0  0  0  0  0  0  0  0  0  0  0  0
  153.3487  142.1095  161.7553 N   0  0  0  0  0  0  0  0  0  0  0  0
  154.0469  141.4067  162.6728 C   0  0  0  0  0  0  0  0  0  0  0  0
  154.0719  142.8074  168.0647 H   0  0  0  0  0  0  0  0  0  0  0  0
  154.1877  141.3715  169.0825 H   0  0  0  0  0  0  0  0  0  0  0  0
  153.0551  141.4083  167.7189 H   0  0  0  0  0  0  0  0  0  0  0  0
  155.5395  139.4105  168.0485 H   0  0  0  0  0  0  0  0  0  0  0  0
  154.0578  139.4118  167.0997 H   0  0  0  0  0  0  0  0  0  0  0  0
  156.8896  139.7520  166.0098 H   0  0  0  0  0  0  0  0  0  0  0  0
  156.4618  137.4123  166.6979 H   0  0  0  0  0  0  0  0  0  0  0  0
  156.5553  137.5244  164.9454 H   0  0  0  0  0  0  0  0  0  0  0  0
  154.9868  137.3712  165.7351 H   0  0  0  0  0  0  0  0  0  0  0  0
  154.5462  140.5959  164.8309 H   0  0  0  0  0  0  0  0  0  0  0  0
  155.2992  138.8915  160.7354 H   0  0  0  0  0  0  0  0  0  0  0  0
  154.0167  140.1846  159.0388 H   0  0  0  0  0  0  0  0  0  0  0  0
  152.0221  140.6922  158.4528 H   0  0  0  0  0  0  0  0  0  0  0  0
  150.8089  141.3321  159.5504 H   0  0  0  0  0  0  0  0  0  0  0  0
  151.7438  142.6405  156.9407 H   0  0  0  0  0  0  0  0  0  0  0  0
  150.1552  140.7569  156.5858 H   0  0  0  0  0  0  0  0  0  0  0  0
  149.4076  142.3030  156.1973 H   0  0  0  0  0  0  0  0  0  0  0  0
  149.0172  141.4942  157.7133 H   0  0  0  0  0  0  0  0  0  0  0  0
  150.8909  145.2910  159.3597 H   0  0  0  0  0  0  0  0  0  0  0  0
  153.0976  145.8229  158.4595 H   0  0  0  0  0  0  0  0  0  0  0  0
  151.9496  145.6524  157.1374 H   0  0  0  0  0  0  0  0  0  0  0  0
  153.1136  144.3716  157.4723 H   0  0  0  0  0  0  0  0  0  0  0  0
  151.3682  143.4572  160.8107 H   0  0  0  0  0  0  0  0  0  0  0  0
  152.9095  144.2304  160.4929 H   0  0  0  0  0  0  0  0  0  0  0  0
  154.0248  141.8002  163.6789 H   0  0  0  0  0  0  0  0  0  0  0  0
  1  2  1  0  0  0  0
  1 23  1  0  0  0  0
  1 24  1  0  0  0  0
  1 25  1  0  0  0  0
  2  3  1  0  0  0  0
  3  4  1  0  0  0  0
  3 26  1  0  0  0  0
  3 27  1  0  0  0  0
  4  5  1  0  0  0  0
  4  6  1  0  0  0  0
  4 28  1  0  0  0  0
  5 29  1  0  0  0  0
  5 30  1  0  0  0  0
  5 31  1  0  0  0  0
  6  7  1  0  0  0  0
  6 32  1  0  0  0  0
  7  8  2  0  0  0  0
  7  9  1  0  0  0  0
  9 22  1  0  0  0  0
  9 10  2  0  0  0  0
 10 11  1  0  0  0  0
 10 33  1  0  0  0  0
 11 12  2  0  0  0  0
 11 34  1  0  0  0  0
 12 13  1  0  0  0  0
 12 21  1  0  0  0  0
 13 20  1  0  0  0  0
 13 14  1  0  0  0  0
 14 15  1  0  0  0  0
 14 35  1  0  0  0  0
 14 36  1  0  0  0  0
 15 16  1  0  0  0  0
 15 17  1  0  0  0  0
 15 37  1  0  0  0  0
 16 38  1  0  0  0  0
 16 39  1  0  0  0  0
 16 40  1  0  0  0  0
 17 18  1  0  0  0  0
 18 19  1  0  0  0  0
 18 20  1  0  0  0  0
 18 41  1  0  0  0  0
 19 42  1  0  0  0  0
 19 43  1  0  0  0  0
 19 44  1  0  0  0  0
 20 45  1  0  0  0  0
 20 46  1  0  0  0  0
 21 22  2  0  0  0  0
 22 47  1  0  0  0  0
M  END
> <s_m_source_file>
AV-unprocessed.smi

> <i_m_source_file_index>
2114

> <i_lp_mmshare_version>
43012

> <i_f3d_flags>
0

> <s_epik_input>
W0NIM11PW0NIMl1bQ0BIXShbQ0gzXSlbTkhdQyg9TyljMVtjSF1bY0hdYyhuW2NIXTEpTjJbQ0gyXVtDQEBIXShbQ0gzXSlPW0NAQEhdKFtDSDNdKVtDSDJdMg==

> <s_epik_cmdline>
J2VwaWtfcHl0aG9uJywgJy1waCcsICc3LjAnLCAnLXRuJywgJzgnLCAnLW1hJywgJzIwMCcsICctbWV0YWxfYmluZGluZycsICctaW1hZScsICc8aW5maWxlLm1hZT4nLCAnLW9tYWUnLCAnPG91dGZpbGUubWFlPic=

> <r_lp_tautomer_probability>
1

> <r_epik_Ionization_Penalty>
1.92915e-05

> <r_epik_Ionization_Penalty_Charging>
0

> <r_epik_Ionization_Penalty_Neutral>
1.92915e-05

> <r_epik_State_Penalty>
-0

> <r_epik_Charging_Adjusted_Penalty>
0

> <i_epik_Tot_Q>
0

> <i_epik_Tot_abs_Q>
0

> <r_epik_Metal_State_Penalty>
-0

> <b_epik_Metal_Only>
0

> <s_lp_Force_Field>
OPLS_2005

> <r_lp_Energy>
24.377

> <b_lp_Chiralities_Consistent>
1

> <s_lp_Variant>
AV-unprocessed.smi:2114-6

> <Gold.Version>
5.8.1

> <Gold.Id.Protein>
6NUR|6NUR_protein|mol2

> <Gold.PLP.Fitness>
40.6374

> <Gold.PLP.PLP>
-41.3107

> <Gold.PLP.part.hbond>
-0.0069

> <Gold.PLP.part.metal>
0.0000

> <Gold.PLP.part.buried>
-4.8894

> <Gold.PLP.part.nonpolar>
-36.6944

> <Gold.PLP.part.repulsive>
0.2447

> <Gold.PLP.ligand.clash>
0.0000

> <Gold.PLP.ligand.torsion>
0.3978

> <Gold.PLP.Chemscore.Hbond>
0.0000

> <Gold.PLP.Chemscore.CHOScore>
0.0000

> <Gold.PLP.Chemscore.Metal>
0.0000

> <Gold.PLP.Chemscore.Internal.Correction>
0.1223

> <Gold.Rescore>
     Score         DG    S(hbond)    S(metal)    S(lipo)     H(rot)  DE(clash)    DE(int)     intcor
     12.22     -13.99       0.00        0.00     106.07       1.52       0.24       1.54       ----

> <Gold.Chemscore.Fitness>
12.2200

> <Gold.Chemscore.DG>
-13.9927

> <Gold.Chemscore.ZeroCoef>
-5.4800

> <Gold.Chemscore.Hbond>
0.0000

> <Gold.Chemscore.Metal>
0.0000

> <Gold.Chemscore.Lipo>
106.0743

> <Gold.Chemscore.Internal_Hbond>
0.0000

> <Gold.Chemscore.DEClash>
0.2363

> <Gold.Chemscore.DEInternal>
1.5364

> <Gold.Chemscore.Rot>
1.5226

> <Gold.Chemscore.Internal.Correction>
   9.000000E+99

> <Gold.Chemscore.Hbond.Weighted>
-0.0000

> <Gold.Chemscore.Metal.Weighted>
-0.0000

> <Gold.Chemscore.Lipo.Weighted>
-12.4107

> <Gold.Chemscore.Internal_Hbond.Weighted>
0.0000

> <Gold.Chemscore.DEClash.Weighted>
0.2363

> <Gold.Chemscore.DEInternal.Weighted>
1.5364

> <Gold.Chemscore.Rot.Weighted>
3.8980

> <Gold.Chemscore.Internal.Correction.Weighted>
   9.000000E+99

> <Gold.Protein.RotatedTorsions>
[ 6907 6896 6895 6894 ] final  164.75 input  -60.11 | X-H torsion
[ 7974 7965 7964 7962 ] final   -3.15 input  175.53 | X-H torsion
[ 8008 7997 7996 7995 ] final   92.75 input   59.86 | X-H torsion
[ 10167 10162 10161 10158 ] final  168.35 input  -65.29 | X-H torsion
[ 10718 10713 10712 10709 ] final  -72.11 input   66.30 | X-H torsion
[ 10763 10752 10751 10750 ] final  -43.53 input  -60.55 | X-H torsion
[ 11005 11000 10999 10996 ] final  -92.55 input  -57.11 | X-H torsion

> <Gold.Protein.ActiveResidues>
 VAL166  LYS551  ARG553  GLY616  TRP617  ASP618  TYR619  PRO620  LYS621  CYS622 
 ASP623  PHE694  ASN695  SER759  ASP760  ASP761  ALA762  ILE779  LEU786  VAL792 
 PHE793  MET794  SER795  GLU796  ALA797  LYS798  CYS799  TRP800  GLU811  SER814 

> <Gold.Protein.RotatedAtoms>
  151.9051  133.3547  159.3843 H   0  0  0  0  0  0  0  0  0  0  0  0  # atno 6907 bound_to 6896
  150.7071  134.4789  159.5470 H   0  0  0  0  0  0  0  0  0  0  0  0  # atno 6908 bound_to 6896
  152.2385  134.8252  160.0514 H   0  0  0  0  0  0  0  0  0  0  0  0  # atno 6909 bound_to 6896
  146.2394  140.1678  142.8332 H   0  0  0  0  0  0  0  0  0  0  0  0  # atno 7974 bound_to 7965
  156.0389  140.3321  155.7222 H   0  0  0  0  0  0  0  0  0  0  0  0  # atno 8008 bound_to 7997
  155.5774  140.0633  157.2809 H   0  0  0  0  0  0  0  0  0  0  0  0  # atno 8009 bound_to 7997
  154.4384  140.1850  156.0929 H   0  0  0  0  0  0  0  0  0  0  0  0  # atno 8010 bound_to 7997
  139.4966  144.3824  151.9608 H   0  0  0  0  0  0  0  0  0  0  0  0  # atno 10167 bound_to 10162
  156.0334  130.4365  150.2543 H   0  0  0  0  0  0  0  0  0  0  0  0  # atno 10718 bound_to 10713
  153.9971  135.6698  153.4757 H   0  0  0  0  0  0  0  0  0  0  0  0  # atno 10763 bound_to 10752
  153.0679  135.4991  154.8236 H   0  0  0  0  0  0  0  0  0  0  0  0  # atno 10764 bound_to 10752
  154.7075  135.3090  154.9211 H   0  0  0  0  0  0  0  0  0  0  0  0  # atno 10765 bound_to 10752
  141.1519  133.7828  157.0036 H   0  0  0  0  0  0  0  0  0  0  0  0  # atno 11005 bound_to 11000
  145.0036  140.8654  143.5266 LP  0  0  0  0  0  0  0  0  0  0  0  0  # atno 17320 bound_to 7965
  145.1701  139.2409  143.5346 LP  0  0  0  0  0  0  0  0  0  0  0  0  # atno 17321 bound_to 7965
  140.3260  144.3372  150.5998 LP  0  0  0  0  0  0  0  0  0  0  0  0  # atno 17342 bound_to 10162
  140.5684  143.2183  151.7643 LP  0  0  0  0  0  0  0  0  0  0  0  0  # atno 17343 bound_to 10162
  157.0644  131.0099  151.3211 LP  0  0  0  0  0  0  0  0  0  0  0  0  # atno 17370 bound_to 10713
  157.5046  130.7901  149.7641 LP  0  0  0  0  0  0  0  0  0  0  0  0  # atno 17371 bound_to 10713
  140.0924  134.9585  157.1796 LP  0  0  0  0  0  0  0  0  0  0  0  0  # atno 17394 bound_to 11000
  140.3428  134.2685  155.7209 LP  0  0  0  0  0  0  0  0  0  0  0  0  # atno 17395 bound_to 11000

$$$$
