AV-unprocessed.smi:1033|AV-procd|sdf|4504|dock8
  -GOLD-   22720 2503D 1   1.00000     0.00000
 Structure written by MMmdl.
 57 59  0  0  0  0  0  0  0  0  3 V2000
  152.2013  145.0512  160.5866 C   0  0  0  0  0  0  0  0  0  0  0  0
  151.9825  143.7882  159.7711 C   0  0  0  0  0  0  0  0  0  0  0  0
  151.1772  143.8649  158.6120 C   0  0  0  0  0  0  0  0  0  0  0  0
  150.9945  142.6927  157.8881 C   0  0  0  0  0  0  0  0  0  0  0  0
  150.2703  142.4403  156.7208 N   0  3  0  0  0  0  0  0  0  0  0  0
  150.3887  141.1251  156.3881 C   0  0  0  0  0  0  0  0  0  0  0  0
  151.1788  140.5349  157.3256 N   0  0  0  0  0  0  0  0  0  0  0  0
  151.6222  139.1398  157.4447 C   0  0  0  0  0  0  0  0  0  0  0  0
  150.6652  138.2720  158.2870 C   0  0  2  0  0  0  0  0  0  0  0  0
  151.4014  137.1880  158.8208 O   0  0  0  0  0  0  0  0  0  0  0  0
  149.5004  137.7253  157.4362 C   0  0  0  0  0  0  0  0  0  0  0  0
  149.8464  137.3547  156.0586 N   0  0  0  0  0  0  0  0  0  0  0  0
  149.0520  136.2314  155.5614 C   0  0  0  0  0  0  0  0  0  0  0  0
  147.5799  136.6017  155.2858 C   0  0  0  0  0  0  0  0  0  0  0  0
  147.5002  137.7298  154.3225 N   0  3  0  0  0  0  0  0  0  0  0  0
  146.0992  138.0807  153.9773 C   0  0  0  0  0  0  0  0  0  0  0  0
  145.9960  138.9375  152.7000 C   0  0  1  0  0  0  0  0  0  0  0  0
  146.4644  140.3855  152.9084 C   0  0  0  0  0  0  0  0  0  0  0  0
  146.8060  138.3508  151.7034 O   0  0  0  0  0  0  0  0  0  0  0  0
  148.3036  138.8874  154.8001 C   0  0  0  0  0  0  0  0  0  0  0  0
  149.7540  138.4490  155.0893 C   0  0  0  0  0  0  0  0  0  0  0  0
  151.5799  141.4737  158.2812 C   0  0  0  0  0  0  0  0  0  0  0  0
  152.3761  141.3798  159.4198 C   0  0  0  0  0  0  0  0  0  0  0  0
  152.5754  142.5616  160.1689 C   0  0  0  0  0  0  0  0  0  0  0  0
  153.4420  142.4917  161.4148 C   0  0  0  0  0  0  0  0  0  0  0  0
  151.6784  145.9032  160.1510 H   0  0  0  0  0  0  0  0  0  0  0  0
  153.2618  145.2993  160.6319 H   0  0  0  0  0  0  0  0  0  0  0  0
  151.8316  144.9184  161.6038 H   0  0  0  0  0  0  0  0  0  0  0  0
  150.7236  144.7951  158.3027 H   0  0  0  0  0  0  0  0  0  0  0  0
  149.9394  140.6387  155.5340 H   0  0  0  0  0  0  0  0  0  0  0  0
  151.7397  138.7319  156.4398 H   0  0  0  0  0  0  0  0  0  0  0  0
  152.6171  139.1505  157.8925 H   0  0  0  0  0  0  0  0  0  0  0  0
  150.2738  138.8708  159.1104 H   0  0  0  0  0  0  0  0  0  0  0  0
  152.1672  137.5306  159.2554 H   0  0  0  0  0  0  0  0  0  0  0  0
  149.1406  136.8219  157.9302 H   0  0  0  0  0  0  0  0  0  0  0  0
  148.6581  138.4165  157.4649 H   0  0  0  0  0  0  0  0  0  0  0  0
  149.5007  135.8599  154.6389 H   0  0  0  0  0  0  0  0  0  0  0  0
  149.0995  135.4015  156.2674 H   0  0  0  0  0  0  0  0  0  0  0  0
  147.0650  135.7334  154.8728 H   0  0  0  0  0  0  0  0  0  0  0  0
  147.0618  136.8627  156.2096 H   0  0  0  0  0  0  0  0  0  0  0  0
  145.5214  137.1670  153.8278 H   0  0  0  0  0  0  0  0  0  0  0  0
  145.6407  138.5947  154.8242 H   0  0  0  0  0  0  0  0  0  0  0  0
  144.9754  138.9369  152.3183 H   0  0  0  0  0  0  0  0  0  0  0  0
  145.8436  140.9002  153.6421 H   0  0  0  0  0  0  0  0  0  0  0  0
  146.4085  140.9535  151.9791 H   0  0  0  0  0  0  0  0  0  0  0  0
  147.4962  140.4241  153.2601 H   0  0  0  0  0  0  0  0  0  0  0  0
  147.3367  137.6758  152.0987 H   0  0  0  0  0  0  0  0  0  0  0  0
  148.3187  139.6714  154.0439 H   0  0  0  0  0  0  0  0  0  0  0  0
  147.8449  139.3213  155.6895 H   0  0  0  0  0  0  0  0  0  0  0  0
  150.3455  139.3019  155.4198 H   0  0  0  0  0  0  0  0  0  0  0  0
  150.2133  138.1283  154.1530 H   0  0  0  0  0  0  0  0  0  0  0  0
  152.8262  140.4458  159.7217 H   0  0  0  0  0  0  0  0  0  0  0  0
  153.8384  141.4877  161.5698 H   0  0  0  0  0  0  0  0  0  0  0  0
  152.8637  142.7615  162.2985 H   0  0  0  0  0  0  0  0  0  0  0  0
  154.2886  143.1735  161.3324 H   0  0  0  0  0  0  0  0  0  0  0  0
  147.9338  137.4008  153.4716 H   0  0  0  0  0  0  0  0  0  0  0  0
  149.7342  143.1134  156.1884 H   0  0  0  0  0  0  0  0  0  0  0  0
  1  2  1  0  0  0  0
  1 26  1  0  0  0  0
  1 27  1  0  0  0  0
  1 28  1  0  0  0  0
  2 24  1  0  0  0  0
  2  3  2  0  0  0  0
  3  4  1  0  0  0  0
  3 29  1  0  0  0  0
  4 22  2  0  0  0  0
  4  5  1  0  0  0  0
  5  6  2  0  0  0  0
  5 57  1  0  0  0  0
  6  7  1  0  0  0  0
  6 30  1  0  0  0  0
  7  8  1  0  0  0  0
  7 22  1  0  0  0  0
  8  9  1  0  0  0  0
  8 31  1  0  0  0  0
  8 32  1  0  0  0  0
  9 10  1  0  0  0  0
  9 11  1  0  0  0  0
  9 33  1  0  0  0  0
 10 34  1  0  0  0  0
 11 12  1  0  0  0  0
 11 35  1  0  0  0  0
 11 36  1  0  0  0  0
 12 21  1  0  0  0  0
 12 13  1  0  0  0  0
 13 14  1  0  0  0  0
 13 37  1  0  0  0  0
 13 38  1  0  0  0  0
 14 15  1  0  0  0  0
 14 39  1  0  0  0  0
 14 40  1  0  0  0  0
 15 16  1  0  0  0  0
 15 20  1  0  0  0  0
 15 56  1  0  0  0  0
 16 17  1  0  0  0  0
 16 41  1  0  0  0  0
 16 42  1  0  0  0  0
 17 18  1  0  0  0  0
 17 19  1  0  0  0  0
 17 43  1  0  0  0  0
 18 44  1  0  0  0  0
 18 45  1  0  0  0  0
 18 46  1  0  0  0  0
 19 47  1  0  0  0  0
 20 21  1  0  0  0  0
 20 48  1  0  0  0  0
 20 49  1  0  0  0  0
 21 50  1  0  0  0  0
 21 51  1  0  0  0  0
 22 23  1  0  0  0  0
 23 24  2  0  0  0  0
 23 52  1  0  0  0  0
 24 25  1  0  0  0  0
 25 53  1  0  0  0  0
 25 54  1  0  0  0  0
 25 55  1  0  0  0  0
M  CHG  1   5   1
M  CHG  1  15   1
M  END
> <s_m_source_file>
AV-unprocessed.smi

> <i_m_source_file_index>
1033

> <i_lp_mmshare_version>
43012

> <i_f3d_flags>
0

> <s_epik_input>
W0NIM11jKFtjSF0xKWMoW0NIM10pW2NIXWMoYzEyKW4oW2NIXW4yKVtDSDJdW0NASF0oW09IXSlbQ0gyXU4zW0NIMl1bQ0gyXU4oW0NIMl1bQ0gyXTMpW0NIMl1bQ0BIXShbQ0gzXSlbT0hd

> <s_epik_cmdline>
J2VwaWtfcHl0aG9uJywgJy1waCcsICc3LjAnLCAnLXRuJywgJzgnLCAnLW1hJywgJzIwMCcsICctbWV0YWxfYmluZGluZycsICctaW1hZScsICc8aW5maWxlLm1hZT4nLCAnLW9tYWUnLCAnPG91dGZpbGUubWFlPic=

> <r_epik_Ionization_Penalty>
1.28617

> <r_epik_Ionization_Penalty_Charging>
1.23646

> <r_epik_Ionization_Penalty_Neutral>
0.0497112

> <r_epik_State_Penalty>
1.79157

> <r_epik_Charging_Adjusted_Penalty>
3.02803

> <i_epik_Tot_Q>
2

> <i_epik_Tot_abs_Q>
2

> <r_epik_Metal_State_Penalty>
5.81739

> <b_epik_Metal_Only>
0

> <s_lp_Force_Field>
OPLS_2005

> <r_lp_Energy>
41.725

> <b_lp_Chiralities_Consistent>
1

> <s_lp_Variant>
AV-unprocessed.smi:1033-15

> <Gold.Version>
5.8.1

> <Gold.Id.Protein>
6NUR|6NUR_protein|mol2

> <Gold.PLP.Fitness>
63.5394

> <Gold.PLP.PLP>
-48.1624

> <Gold.PLP.part.hbond>
-4.9983

> <Gold.PLP.part.metal>
0.0000

> <Gold.PLP.part.buried>
-6.1242

> <Gold.PLP.part.nonpolar>
-39.2139

> <Gold.PLP.part.repulsive>
0.1178

> <Gold.PLP.ligand.clash>
0.0000

> <Gold.PLP.ligand.torsion>
1.4485

> <Gold.PLP.Chemscore.Hbond>
6.0299

> <Gold.PLP.Chemscore.CHOScore>
0.0000

> <Gold.PLP.Chemscore.Metal>
0.0000

> <Gold.Chemscore.Hbonds>
donor molecule, donor type, donor heavy atom, donor atom, acceptor molecule, acceptor atom, score
      L1  H     5    57       P1  8028  2.00
      L1  H    15    56       P1  7948  1.01
      L1  H    19    47       P1  7948  0.63
      P1  H  6896  6909       L1    10  0.25
      P1  H  7954  7966       L1    19  0.01

> <Gold.PLP.Chemscore.Internal.Correction>
0.1844

> <Gold.Rescore>
     Score         DG    S(hbond)    S(metal)    S(lipo)     H(rot)  DE(clash)    DE(int)     intcor
     20.49     -22.52       3.06        0.00     127.24       3.15       0.52       1.51       ----

> <Gold.Chemscore.Fitness>
20.4896

> <Gold.Chemscore.DG>
-22.5194

> <Gold.Chemscore.ZeroCoef>
-5.4800

> <Gold.Chemscore.Hbond>
3.0575

> <Gold.Chemscore.Metal>
0.0000

> <Gold.Chemscore.Lipo>
127.2403

> <Gold.Chemscore.Internal_Hbond>
0.0000

> <Gold.Chemscore.DEClash>
0.5226

> <Gold.Chemscore.DEInternal>
1.5071

> <Gold.Chemscore.Rot>
3.1483

> <Gold.Chemscore.Internal.Correction>
   9.000000E+99

> <Gold.Chemscore.Hbonds>
donor molecule, donor type, donor heavy atom, donor atom, acceptor molecule, acceptor atom, score
      L1  H     5    57       P1  8028  1.00
      L1  H    15    56       P1  7948  0.50
      L1  H    19    47       P1  7948  0.60
      P1  H  6896  6909       L1    10  0.06

> <Gold.Chemscore.Hbond.Weighted>
-10.2120

> <Gold.Chemscore.Metal.Weighted>
-0.0000

> <Gold.Chemscore.Lipo.Weighted>
-14.8871

> <Gold.Chemscore.Internal_Hbond.Weighted>
0.0000

> <Gold.Chemscore.DEClash.Weighted>
0.5226

> <Gold.Chemscore.DEInternal.Weighted>
1.5071

> <Gold.Chemscore.Rot.Weighted>
8.0597

> <Gold.Chemscore.Internal.Correction.Weighted>
   9.000000E+99

> <Gold.Protein.RotatedTorsions>
[ 6907 6896 6895 6894 ] final   98.62 input  -60.11 | X-H torsion
[ 7974 7965 7964 7962 ] final  151.15 input  175.53 | X-H torsion
[ 8008 7997 7996 7995 ] final   61.63 input   59.86 | X-H torsion
[ 10167 10162 10161 10158 ] final  -54.00 input  -65.29 | X-H torsion
[ 10718 10713 10712 10709 ] final -113.19 input   66.30 | X-H torsion
[ 10763 10752 10751 10750 ] final -141.09 input  -60.55 | X-H torsion
[ 11005 11000 10999 10996 ] final   34.21 input  -57.11 | X-H torsion

> <Gold.Protein.ActiveResidues>
 VAL166  LYS551  ARG553  GLY616  TRP617  ASP618  TYR619  PRO620  LYS621  CYS622 
 ASP623  PHE694  ASN695  SER759  ASP760  ASP761  ALA762  ILE779  LEU786  VAL792 
 PHE793  MET794  SER795  GLU796  ALA797  LYS798  CYS799  TRP800  GLU811  SER814 

> <Gold.Protein.RotatedAtoms>
  152.5406  134.0553  159.8127 H   0  0  0  0  0  0  0  0  0  0  0  0  # atno 6907 bound_to 6896
  151.0689  133.5475  159.2636 H   0  0  0  0  0  0  0  0  0  0  0  0  # atno 6908 bound_to 6896
  151.2346  135.0575  159.9055 H   0  0  0  0  0  0  0  0  0  0  0  0  # atno 6909 bound_to 6896
  144.8313  139.6501  143.6057 H   0  0  0  0  0  0  0  0  0  0  0  0  # atno 7974 bound_to 7965
  155.6015  140.3494  155.4595 H   0  0  0  0  0  0  0  0  0  0  0  0  # atno 8008 bound_to 7997
  156.0225  140.1256  157.0367 H   0  0  0  0  0  0  0  0  0  0  0  0  # atno 8009 bound_to 7997
  154.4320  140.1059  156.5969 H   0  0  0  0  0  0  0  0  0  0  0  0  # atno 8010 bound_to 7997
  140.6454  143.2532  151.4873 H   0  0  0  0  0  0  0  0  0  0  0  0  # atno 10167 bound_to 10162
  156.0751  130.5960  150.8609 H   0  0  0  0  0  0  0  0  0  0  0  0  # atno 10718 bound_to 10713
  154.8557  135.3534  154.5812 H   0  0  0  0  0  0  0  0  0  0  0  0  # atno 10763 bound_to 10752
  153.6423  135.6998  153.5242 H   0  0  0  0  0  0  0  0  0  0  0  0  # atno 10764 bound_to 10752
  153.2961  135.4220  155.1170 H   0  0  0  0  0  0  0  0  0  0  0  0  # atno 10765 bound_to 10752
  140.2552  134.3257  155.7876 H   0  0  0  0  0  0  0  0  0  0  0  0  # atno 11005 bound_to 11000
  146.2615  139.6422  142.9358 LP  0  0  0  0  0  0  0  0  0  0  0  0  # atno 17320 bound_to 7965
  145.4890  141.0438  143.2603 LP  0  0  0  0  0  0  0  0  0  0  0  0  # atno 17321 bound_to 7965
  139.5665  144.2031  152.1772 LP  0  0  0  0  0  0  0  0  0  0  0  0  # atno 17342 bound_to 10162
  140.1314  144.5285  150.6800 LP  0  0  0  0  0  0  0  0  0  0  0  0  # atno 17343 bound_to 10162
  157.5842  131.0946  150.9222 LP  0  0  0  0  0  0  0  0  0  0  0  0  # atno 17370 bound_to 10713
  156.9411  130.5385  149.5280 LP  0  0  0  0  0  0  0  0  0  0  0  0  # atno 17371 bound_to 10713
  141.2197  133.7377  156.9100 LP  0  0  0  0  0  0  0  0  0  0  0  0  # atno 17394 bound_to 11000
  140.1519  134.9224  157.2603 LP  0  0  0  0  0  0  0  0  0  0  0  0  # atno 17395 bound_to 11000

$$$$
