AV-unprocessed.smi:2356|AV-procd|sdf|9396|dock4
  -GOLD-   2272013 33D 1   1.00000     0.00000
 Structure written by MMmdl.
 53 56  0  0  0  0  0  0  0  0  1 V2000
  151.0107  137.9939  154.4498 C   0  0  0  0  0  0  0  0  0  0  0  0
  150.3550  139.3263  154.7701 C   0  0  0  0  0  0  0  0  0  0  0  0
  151.0906  140.1644  155.5321 N   0  0  0  0  0  0  0  0  0  0  0  0
  150.5844  141.3758  155.8601 C   0  0  0  0  0  0  0  0  0  0  0  0
  151.3865  142.2195  156.6535 N   0  0  0  0  0  0  0  0  0  0  0  0
  151.8003  141.8415  157.9959 C   0  0  0  0  0  0  0  0  0  0  0  0
  152.5172  143.0755  158.5410 C   0  0  0  0  0  0  0  0  0  0  0  0
  151.7746  144.2312  157.8703 C   0  0  0  0  0  0  0  0  0  0  0  0
  151.3571  143.6685  156.5067 C   0  0  0  0  0  0  0  0  0  0  0  0
  149.3098  141.7922  155.4122 C   0  0  0  0  0  0  0  0  0  0  0  0
  148.5420  140.9199  154.6181 C   0  0  0  0  0  0  0  0  0  0  0  0
  149.0633  139.6462  154.2895 C   0  0  0  0  0  0  0  0  0  0  0  0
  148.3843  138.6870  153.4867 N   0  0  0  0  0  0  0  0  0  0  0  0
  147.0745  138.3773  153.4245 C   0  0  0  0  0  0  0  0  0  0  0  0
  146.1918  138.9000  154.1004 O   0  0  0  0  0  0  0  0  0  0  0  0
  146.7865  137.4103  152.5337 N   0  0  0  0  0  0  0  0  0  0  0  0
  145.4774  136.8357  152.2129 C   0  0  1  0  0  0  0  0  0  0  0  0
  145.6254  135.7967  151.0933 C   0  0  0  0  0  0  0  0  0  0  0  0
  144.2807  135.1081  150.8120 C   0  0  0  0  0  0  0  0  0  0  0  0
  143.7666  134.5129  152.0015 O   0  0  0  0  0  0  0  0  0  0  0  0
  143.5485  135.4121  153.0902 C   0  0  2  0  0  0  0  0  0  0  0  0
  142.3723  136.3445  152.8311 C   0  0  0  0  0  0  0  0  0  0  0  0
  141.9625  137.3755  153.8567 C   0  0  0  0  0  0  0  0  0  0  0  0
  141.0802  136.1780  153.5951 C   0  0  0  0  0  0  0  0  0  0  0  0
  144.8506  136.1562  153.4447 C   0  0  0  0  0  0  0  0  0  0  0  0
  151.1261  137.8804  153.3717 H   0  0  0  0  0  0  0  0  0  0  0  0
  150.4000  137.1699  154.8193 H   0  0  0  0  0  0  0  0  0  0  0  0
  151.9987  137.9119  154.9047 H   0  0  0  0  0  0  0  0  0  0  0  0
  150.9196  141.6110  158.5970 H   0  0  0  0  0  0  0  0  0  0  0  0
  152.4520  140.9673  157.9865 H   0  0  0  0  0  0  0  0  0  0  0  0
  152.5005  143.1299  159.6298 H   0  0  0  0  0  0  0  0  0  0  0  0
  153.5593  143.0699  158.2183 H   0  0  0  0  0  0  0  0  0  0  0  0
  150.8845  144.4761  158.4513 H   0  0  0  0  0  0  0  0  0  0  0  0
  152.3790  145.1349  157.7877 H   0  0  0  0  0  0  0  0  0  0  0  0
  152.0697  143.9586  155.7340 H   0  0  0  0  0  0  0  0  0  0  0  0
  150.3707  144.0355  156.2204 H   0  0  0  0  0  0  0  0  0  0  0  0
  148.9152  142.7673  155.6562 H   0  0  0  0  0  0  0  0  0  0  0  0
  147.5787  141.2585  154.2724 H   0  0  0  0  0  0  0  0  0  0  0  0
  148.9841  138.1324  152.8937 H   0  0  0  0  0  0  0  0  0  0  0  0
  147.5644  137.0472  152.0018 H   0  0  0  0  0  0  0  0  0  0  0  0
  144.8173  137.6256  151.8510 H   0  0  0  0  0  0  0  0  0  0  0  0
  145.9987  136.2691  150.1839 H   0  0  0  0  0  0  0  0  0  0  0  0
  146.3614  135.0436  151.3791 H   0  0  0  0  0  0  0  0  0  0  0  0
  143.5623  135.8128  150.3928 H   0  0  0  0  0  0  0  0  0  0  0  0
  144.4150  134.3251  150.0657 H   0  0  0  0  0  0  0  0  0  0  0  0
  143.2817  134.7902  153.9455 H   0  0  0  0  0  0  0  0  0  0  0  0
  142.2647  136.6570  151.7949 H   0  0  0  0  0  0  0  0  0  0  0  0
  142.5109  137.4020  154.7963 H   0  0  0  0  0  0  0  0  0  0  0  0
  141.6197  138.3409  153.4900 H   0  0  0  0  0  0  0  0  0  0  0  0
  140.1522  136.3444  153.0520 H   0  0  0  0  0  0  0  0  0  0  0  0
  141.0403  135.4066  154.3617 H   0  0  0  0  0  0  0  0  0  0  0  0
  145.5616  135.4384  153.8564 H   0  0  0  0  0  0  0  0  0  0  0  0
  144.6587  136.8812  154.2364 H   0  0  0  0  0  0  0  0  0  0  0  0
  1  2  1  0  0  0  0
  1 26  1  0  0  0  0
  1 27  1  0  0  0  0
  1 28  1  0  0  0  0
  2 12  1  0  0  0  0
  2  3  2  0  0  0  0
  3  4  1  0  0  0  0
  4  5  1  0  0  0  0
  4 10  2  0  0  0  0
  5  9  1  0  0  0  0
  5  6  1  0  0  0  0
  6  7  1  0  0  0  0
  6 29  1  0  0  0  0
  6 30  1  0  0  0  0
  7  8  1  0  0  0  0
  7 31  1  0  0  0  0
  7 32  1  0  0  0  0
  8  9  1  0  0  0  0
  8 33  1  0  0  0  0
  8 34  1  0  0  0  0
  9 35  1  0  0  0  0
  9 36  1  0  0  0  0
 10 11  1  0  0  0  0
 10 37  1  0  0  0  0
 11 12  2  0  0  0  0
 11 38  1  0  0  0  0
 12 13  1  0  0  0  0
 13 14  1  0  0  0  0
 13 39  1  0  0  0  0
 14 15  2  0  0  0  0
 14 16  1  0  0  0  0
 16 17  1  0  0  0  0
 16 40  1  0  0  0  0
 17 25  1  0  0  0  0
 17 18  1  0  0  0  0
 17 41  1  0  0  0  0
 18 19  1  0  0  0  0
 18 42  1  0  0  0  0
 18 43  1  0  0  0  0
 19 20  1  0  0  0  0
 19 44  1  0  0  0  0
 19 45  1  0  0  0  0
 20 21  1  0  0  0  0
 21 22  1  0  0  0  0
 21 25  1  0  0  0  0
 21 46  1  0  0  0  0
 22 24  1  0  0  0  0
 22 23  1  0  0  0  0
 22 47  1  0  0  0  0
 23 24  1  0  0  0  0
 23 48  1  0  0  0  0
 23 49  1  0  0  0  0
 24 50  1  0  0  0  0
 24 51  1  0  0  0  0
 25 52  1  0  0  0  0
 25 53  1  0  0  0  0
M  END
> <s_m_source_file>
AV-unprocessed.smi

> <i_m_source_file_index>
2356

> <i_lp_mmshare_version>
43012

> <i_f3d_flags>
0

> <s_epik_input>
W0NIMl0xW0NIMl1bQ0gyXVtDSDJdTjFjKG5jMltDSDNdKVtjSF1bY0hdYzJbTkhdQyg9TylbTkhdW0NAQEhdM1tDSDJdW0NIMl1PW0NASF0oW0NIMl0zKVtDSF00W0NIMl1bQ0gyXTQ=

> <s_epik_cmdline>
J2VwaWtfcHl0aG9uJywgJy1waCcsICc3LjAnLCAnLXRuJywgJzgnLCAnLW1hJywgJzIwMCcsICctbWV0YWxfYmluZGluZycsICctaW1hZScsICc8aW5maWxlLm1hZT4nLCAnLW9tYWUnLCAnPG91dGZpbGUubWFlPic=

> <r_lp_tautomer_probability>
1

> <r_epik_Ionization_Penalty>
0.308781

> <r_epik_Ionization_Penalty_Charging>
0

> <r_epik_Ionization_Penalty_Neutral>
0.308781

> <r_epik_State_Penalty>
0.302092

> <r_epik_Charging_Adjusted_Penalty>
0.302092

> <i_epik_Tot_Q>
0

> <i_epik_Tot_abs_Q>
0

> <r_epik_Metal_State_Penalty>
0.197467

> <b_epik_Metal_Only>
0

> <s_lp_Force_Field>
OPLS_2005

> <r_lp_Energy>
54.1465

> <b_lp_Chiralities_Consistent>
1

> <s_lp_Variant>
AV-unprocessed.smi:2356-4

> <Gold.Version>
5.8.1

> <Gold.Id.Protein>
6NUR|6NUR_protein|mol2

> <Gold.PLP.Fitness>
47.4703

> <Gold.PLP.PLP>
-45.2659

> <Gold.PLP.part.hbond>
-3.6657

> <Gold.PLP.part.metal>
0.0000

> <Gold.PLP.part.buried>
-4.4920

> <Gold.PLP.part.nonpolar>
-38.5877

> <Gold.PLP.part.repulsive>
0.3787

> <Gold.PLP.ligand.clash>
0.0000

> <Gold.PLP.ligand.torsion>
1.7863

> <Gold.PLP.Chemscore.Hbond>
1.5016

> <Gold.PLP.Chemscore.CHOScore>
0.0000

> <Gold.PLP.Chemscore.Metal>
0.0000

> <Gold.Chemscore.Hbonds>
donor molecule, donor type, donor heavy atom, donor atom, acceptor molecule, acceptor atom, score
      L1  H    13    39       P1  7948  0.61
      L1  H    16    40       P1  7948  1.00

> <Gold.PLP.Chemscore.Internal.Correction>
1.2722

> <Gold.Rescore>
     Score         DG    S(hbond)    S(metal)    S(lipo)     H(rot)  DE(clash)    DE(int)     intcor
     16.46     -19.07       0.95        0.00     113.87       1.14       0.37       2.24       ----

> <Gold.Chemscore.Fitness>
16.4576

> <Gold.Chemscore.DG>
-19.0711

> <Gold.Chemscore.ZeroCoef>
-5.4800

> <Gold.Chemscore.Hbond>
0.9537

> <Gold.Chemscore.Metal>
0.0000

> <Gold.Chemscore.Lipo>
113.8699

> <Gold.Chemscore.Internal_Hbond>
0.0000

> <Gold.Chemscore.DEClash>
0.3705

> <Gold.Chemscore.DEInternal>
2.2430

> <Gold.Chemscore.Rot>
1.1395

> <Gold.Chemscore.Internal.Correction>
   9.000000E+99

> <Gold.Chemscore.Hbonds>
donor molecule, donor type, donor heavy atom, donor atom, acceptor molecule, acceptor atom, score
      L1  H    13    39       P1  7948  0.59
      L1  H    16    40       P1  7948  0.96

> <Gold.Chemscore.Hbond.Weighted>
-3.1854

> <Gold.Chemscore.Metal.Weighted>
-0.0000

> <Gold.Chemscore.Lipo.Weighted>
-13.3228

> <Gold.Chemscore.Internal_Hbond.Weighted>
0.0000

> <Gold.Chemscore.DEClash.Weighted>
0.3705

> <Gold.Chemscore.DEInternal.Weighted>
2.2430

> <Gold.Chemscore.Rot.Weighted>
2.9171

> <Gold.Chemscore.Internal.Correction.Weighted>
   9.000000E+99

> <Gold.Protein.RotatedTorsions>
[ 6907 6896 6895 6894 ] final  118.93 input  -60.11 | X-H torsion
[ 7974 7965 7964 7962 ] final  102.14 input  175.53 | X-H torsion
[ 8008 7997 7996 7995 ] final  -39.88 input   59.86 | X-H torsion
[ 10167 10162 10161 10158 ] final  117.31 input  -65.29 | X-H torsion
[ 10718 10713 10712 10709 ] final   54.15 input   66.30 | X-H torsion
[ 10763 10752 10751 10750 ] final   57.17 input  -60.55 | X-H torsion
[ 11005 11000 10999 10996 ] final  -35.38 input  -57.11 | X-H torsion

> <Gold.Protein.ActiveResidues>
 VAL166  LYS551  ARG553  GLY616  TRP617  ASP618  TYR619  PRO620  LYS621  CYS622 
 ASP623  PHE694  ASN695  SER759  ASP760  ASP761  ALA762  ILE779  LEU786  VAL792 
 PHE793  MET794  SER795  GLU796  ALA797  LYS798  CYS799  TRP800  GLU811  SER814 

> <Gold.Protein.RotatedAtoms>
  152.4508  133.7626  159.6754 H   0  0  0  0  0  0  0  0  0  0  0  0  # atno 6907 bound_to 6896
  150.8420  133.7911  159.3063 H   0  0  0  0  0  0  0  0  0  0  0  0  # atno 6908 bound_to 6896
  151.5533  135.1070  160.0007 H   0  0  0  0  0  0  0  0  0  0  0  0  # atno 6909 bound_to 6896
  145.3630  139.2414  143.3496 H   0  0  0  0  0  0  0  0  0  0  0  0  # atno 7974 bound_to 7965
  154.4018  140.1540  156.2935 H   0  0  0  0  0  0  0  0  0  0  0  0  # atno 8008 bound_to 7997
  155.8764  140.3446  155.5835 H   0  0  0  0  0  0  0  0  0  0  0  0  # atno 8009 bound_to 7997
  155.7716  140.0831  157.2095 H   0  0  0  0  0  0  0  0  0  0  0  0  # atno 8010 bound_to 7997
  139.6187  144.7097  151.2682 H   0  0  0  0  0  0  0  0  0  0  0  0  # atno 10167 bound_to 10162
  157.5231  130.8578  149.8585 H   0  0  0  0  0  0  0  0  0  0  0  0  # atno 10718 bound_to 10713
  152.9845  135.5651  154.5347 H   0  0  0  0  0  0  0  0  0  0  0  0  # atno 10763 bound_to 10752
  154.4812  135.2788  155.1571 H   0  0  0  0  0  0  0  0  0  0  0  0  # atno 10764 bound_to 10752
  154.3079  135.6294  153.5506 H   0  0  0  0  0  0  0  0  0  0  0  0  # atno 10765 bound_to 10752
  140.9792  133.7066  156.1654 H   0  0  0  0  0  0  0  0  0  0  0  0  # atno 11005 bound_to 11000
  146.2919  140.4267  142.8736 LP  0  0  0  0  0  0  0  0  0  0  0  0  # atno 17320 bound_to 7965
  144.8632  140.7170  143.6094 LP  0  0  0  0  0  0  0  0  0  0  0  0  # atno 17321 bound_to 7965
  140.7368  143.6697  150.8092 LP  0  0  0  0  0  0  0  0  0  0  0  0  # atno 17342 bound_to 10162
  140.0304  143.5449  152.2762 LP  0  0  0  0  0  0  0  0  0  0  0  0  # atno 17343 bound_to 10162
  156.0367  130.3749  150.1541 LP  0  0  0  0  0  0  0  0  0  0  0  0  # atno 17370 bound_to 10713
  156.9728  130.9840  151.3455 LP  0  0  0  0  0  0  0  0  0  0  0  0  # atno 17371 bound_to 10713
  140.7213  134.4356  157.5574 LP  0  0  0  0  0  0  0  0  0  0  0  0  # atno 17394 bound_to 11000
  139.8943  134.8710  156.2183 LP  0  0  0  0  0  0  0  0  0  0  0  0  # atno 17395 bound_to 11000

$$$$
