AV-unprocessed.smi:249|AV-procd|sdf|1902|dock10
  -GOLD-   2262020583D 1   1.00000     0.00000
 Structure written by MMmdl.
 64 67  0  0  0  0  0  0  0  0  2 V2000
  152.4847  145.2823  158.6553 C   0  0  0  0  0  0  0  0  0  0  0  0
  151.3839  144.3014  158.2194 C   0  0  0  0  0  0  0  0  0  0  0  0
  151.8382  142.8809  158.1688 N   0  3  2  0  0  0  0  0  0  0  0  0
  151.0468  142.0826  157.1885 C   0  0  0  0  0  0  0  0  0  0  0  0
  151.5862  140.6548  157.0327 C   0  0  0  0  0  0  0  0  0  0  0  0
  151.5964  139.9296  158.3878 C   0  0  1  0  0  0  0  0  0  0  0  0
  152.0192  138.5256  158.2971 N   0  0  0  0  0  0  0  0  0  0  0  0
  153.0873  138.0927  159.1910 C   0  0  0  0  0  0  0  0  0  0  0  0
  151.0546  137.5922  158.1143 C   0  0  0  0  0  0  0  0  0  0  0  0
  150.1723  137.3258  159.1134 N   0  0  0  0  0  0  0  0  0  0  0  0
  149.2185  136.4062  158.9361 C   0  0  0  0  0  0  0  0  0  0  0  0
  148.9758  135.6516  157.8620 N   0  0  0  0  0  0  0  0  0  0  0  0
  149.8670  135.9114  156.8628 C   0  0  0  0  0  0  0  0  0  0  0  0
  150.9285  136.8573  156.9053 C   0  0  0  0  0  0  0  0  0  0  0  0
  151.6281  136.8433  155.7050 N   0  0  0  0  0  0  0  0  0  0  0  0
  151.0155  135.9367  154.9924 C   0  0  0  0  0  0  0  0  0  0  0  0
  149.9433  135.3321  155.6097 N   0  0  0  0  0  0  0  0  0  0  0  0
  149.0869  134.2978  155.0574 C   0  0  0  0  0  0  0  0  0  0  0  0
  149.7540  132.9003  155.0380 C   0  0  1  0  0  0  0  0  0  0  0  0
  149.8265  132.2564  156.4437 C   0  0  0  0  0  0  0  0  0  0  0  0
  150.6767  132.9871  157.3037 O   0  0  0  0  0  0  0  0  0  0  0  0
  149.0894  131.9705  153.9917 C   0  0  2  0  0  0  0  0  0  0  0  0
  147.5873  131.8035  154.1420 C   0  0  0  0  0  0  0  0  0  0  0  0
  147.3249  130.5352  153.3386 C   0  0  0  0  0  0  0  0  0  0  0  0
  148.4823  129.7273  153.5150 O   0  0  0  0  0  0  0  0  0  0  0  0
  149.5409  130.5070  154.0635 C   0  0  0  0  0  0  0  0  0  0  0  0
  152.4235  140.7665  159.3797 C   0  0  0  0  0  0  0  0  0  0  0  0
  151.8871  142.2089  159.5091 C   0  0  1  0  0  0  0  0  0  0  0  0
  152.7530  142.9624  160.5405 C   0  0  0  0  0  0  0  0  0  0  0  0
  152.0635  146.2733  158.8254 H   0  0  0  0  0  0  0  0  0  0  0  0
  153.2631  145.3991  157.9022 H   0  0  0  0  0  0  0  0  0  0  0  0
  152.9540  144.9615  159.5859 H   0  0  0  0  0  0  0  0  0  0  0  0
  150.5834  144.4187  158.9458 H   0  0  0  0  0  0  0  0  0  0  0  0
  150.9718  144.5952  157.2529 H   0  0  0  0  0  0  0  0  0  0  0  0
  150.0015  142.0548  157.5010 H   0  0  0  0  0  0  0  0  0  0  0  0
  151.0676  142.5484  156.2048 H   0  0  0  0  0  0  0  0  0  0  0  0
  150.9687  140.1151  156.3143 H   0  0  0  0  0  0  0  0  0  0  0  0
  152.5912  140.6955  156.6113 H   0  0  0  0  0  0  0  0  0  0  0  0
  150.5711  139.9072  158.7606 H   0  0  0  0  0  0  0  0  0  0  0  0
  153.4639  137.1128  158.8944 H   0  0  0  0  0  0  0  0  0  0  0  0
  152.7424  138.0280  160.2234 H   0  0  0  0  0  0  0  0  0  0  0  0
  153.9210  138.7941  159.1549 H   0  0  0  0  0  0  0  0  0  0  0  0
  148.5555  136.2517  159.7747 H   0  0  0  0  0  0  0  0  0  0  0  0
  151.3266  135.6857  153.9885 H   0  0  0  0  0  0  0  0  0  0  0  0
  148.1621  134.2686  155.6350 H   0  0  0  0  0  0  0  0  0  0  0  0
  148.8089  134.6057  154.0492 H   0  0  0  0  0  0  0  0  0  0  0  0
  150.7871  133.0481  154.7198 H   0  0  0  0  0  0  0  0  0  0  0  0
  148.8370  132.1980  156.8963 H   0  0  0  0  0  0  0  0  0  0  0  0
  150.1871  131.2293  156.3847 H   0  0  0  0  0  0  0  0  0  0  0  0
  151.3997  133.3245  156.7970 H   0  0  0  0  0  0  0  0  0  0  0  0
  149.2937  132.3451  152.9872 H   0  0  0  0  0  0  0  0  0  0  0  0
  147.3222  131.6454  155.1884 H   0  0  0  0  0  0  0  0  0  0  0  0
  147.0189  132.6559  153.7688 H   0  0  0  0  0  0  0  0  0  0  0  0
  146.4211  130.0160  153.6578 H   0  0  0  0  0  0  0  0  0  0  0  0
  147.2249  130.7715  152.2787 H   0  0  0  0  0  0  0  0  0  0  0  0
  150.4726  130.3327  153.5245 H   0  0  0  0  0  0  0  0  0  0  0  0
  149.6885  130.1960  155.0987 H   0  0  0  0  0  0  0  0  0  0  0  0
  152.4074  140.2825  160.3570 H   0  0  0  0  0  0  0  0  0  0  0  0
  153.4684  140.8036  159.0677 H   0  0  0  0  0  0  0  0  0  0  0  0
  150.8682  142.1600  159.8970 H   0  0  0  0  0  0  0  0  0  0  0  0
  152.8914  142.3644  161.4419 H   0  0  0  0  0  0  0  0  0  0  0  0
  152.2942  143.8942  160.8691 H   0  0  0  0  0  0  0  0  0  0  0  0
  153.7433  143.1874  160.1428 H   0  0  0  0  0  0  0  0  0  0  0  0
  152.7888  142.8983  157.8277 H   0  0  0  0  0  0  0  0  0  0  0  0
  1  2  1  0  0  0  0
  1 30  1  0  0  0  0
  1 31  1  0  0  0  0
  1 32  1  0  0  0  0
  2  3  1  0  0  0  0
  2 33  1  0  0  0  0
  2 34  1  0  0  0  0
  3 28  1  0  0  0  0
  3  4  1  0  0  0  0
  3 64  1  0  0  0  0
  4  5  1  0  0  0  0
  4 35  1  0  0  0  0
  4 36  1  0  0  0  0
  5  6  1  0  0  0  0
  5 37  1  0  0  0  0
  5 38  1  0  0  0  0
  6  7  1  0  0  0  0
  6 27  1  0  0  0  0
  6 39  1  0  0  0  0
  7  8  1  0  0  0  0
  7  9  1  0  0  0  0
  8 40  1  0  0  0  0
  8 41  1  0  0  0  0
  8 42  1  0  0  0  0
  9 14  1  0  0  0  0
  9 10  2  0  0  0  0
 10 11  1  0  0  0  0
 11 12  2  0  0  0  0
 11 43  1  0  0  0  0
 12 13  1  0  0  0  0
 13 17  1  0  0  0  0
 13 14  2  0  0  0  0
 14 15  1  0  0  0  0
 15 16  2  0  0  0  0
 16 17  1  0  0  0  0
 16 44  1  0  0  0  0
 17 18  1  0  0  0  0
 18 19  1  0  0  0  0
 18 45  1  0  0  0  0
 18 46  1  0  0  0  0
 19 20  1  0  0  0  0
 19 22  1  0  0  0  0
 19 47  1  0  0  0  0
 20 21  1  0  0  0  0
 20 48  1  0  0  0  0
 20 49  1  0  0  0  0
 21 50  1  0  0  0  0
 22 26  1  0  0  0  0
 22 23  1  0  0  0  0
 22 51  1  0  0  0  0
 23 24  1  0  0  0  0
 23 52  1  0  0  0  0
 23 53  1  0  0  0  0
 24 25  1  0  0  0  0
 24 54  1  0  0  0  0
 24 55  1  0  0  0  0
 25 26  1  0  0  0  0
 26 56  1  0  0  0  0
 26 57  1  0  0  0  0
 27 28  1  0  0  0  0
 27 58  1  0  0  0  0
 27 59  1  0  0  0  0
 28 29  1  0  0  0  0
 28 60  1  0  0  0  0
 29 61  1  0  0  0  0
 29 62  1  0  0  0  0
 29 63  1  0  0  0  0
M  CHG  1   3   1
M  END
> <s_m_source_file>
AV-unprocessed.smi

> <i_m_source_file_index>
249

> <i_lp_mmshare_version>
43012

> <i_f3d_flags>
0

> <s_epik_input>
W0NIM11bQ0gyXU4xW0NIMl1bQ0gyXVtDQEhdKFtDSDJdW0NASF0xW0NIM10pTihbQ0gzXSljKG5bY0hdbjIpYyhjMjMpbltjSF1uM1tDSDJdW0NASF0oW0NIMl1bT0hdKVtDQEBIXTRbQ0gyXVtDSDJdT1tDSDJdNA==

> <s_epik_cmdline>
J2VwaWtfcHl0aG9uJywgJy1waCcsICc3LjAnLCAnLXRuJywgJzgnLCAnLW1hJywgJzIwMCcsICctbWV0YWxfYmluZGluZycsICctaW1hZScsICc8aW5maWxlLm1hZT4nLCAnLW9tYWUnLCAnPG91dGZpbGUubWFlPic=

> <r_lp_tautomer_probability>
1

> <r_epik_Ionization_Penalty>
0.00294688

> <r_epik_Ionization_Penalty_Charging>
0.00169971

> <r_epik_Ionization_Penalty_Neutral>
0.00124717

> <r_epik_State_Penalty>
-0

> <r_epik_Charging_Adjusted_Penalty>
0.00169971

> <i_epik_Tot_Q>
1

> <i_epik_Tot_abs_Q>
1

> <r_epik_Metal_State_Penalty>
-0

> <b_epik_Metal_Only>
0

> <s_lp_Force_Field>
OPLS_2005

> <r_lp_Energy>
53.6229

> <b_lp_Chiralities_Consistent>
1

> <s_lp_Variant>
AV-unprocessed.smi:249-5

> <Gold.Version>
5.8.1

> <Gold.Id.Protein>
6NUR|6NUR_protein|mol2

> <Gold.PLP.Fitness>
46.3351

> <Gold.PLP.PLP>
-43.8251

> <Gold.PLP.part.hbond>
-1.9131

> <Gold.PLP.part.metal>
0.0000

> <Gold.PLP.part.buried>
-6.1242

> <Gold.PLP.part.nonpolar>
-35.7304

> <Gold.PLP.part.repulsive>
0.1961

> <Gold.PLP.ligand.clash>
0.0000

> <Gold.PLP.ligand.torsion>
2.1937

> <Gold.PLP.Chemscore.Hbond>
1.0000

> <Gold.PLP.Chemscore.CHOScore>
1.0000

> <Gold.PLP.Chemscore.Metal>
0.0000

> <Gold.Chemscore.Hbonds>
donor molecule, donor type, donor heavy atom, donor atom, acceptor molecule, acceptor atom, score
      P1  H  6896  6908       L1    21  1.00
      L1  C    16    44       P1  7949  1.00

> <Gold.PLP.Chemscore.Internal.Correction>
0.8973

> <Gold.Rescore>
     Score         DG    S(hbond)    S(metal)    S(lipo)     H(rot)  DE(clash)    DE(int)     intcor
      7.91     -11.35       0.01        0.00     113.51       2.90       0.10       3.35       ----

> <Gold.Chemscore.Fitness>
7.9053

> <Gold.Chemscore.DG>
-11.3526

> <Gold.Chemscore.ZeroCoef>
-5.4800

> <Gold.Chemscore.Hbond>
0.0052

> <Gold.Chemscore.Metal>
0.0000

> <Gold.Chemscore.Lipo>
113.5113

> <Gold.Chemscore.Internal_Hbond>
0.0000

> <Gold.Chemscore.DEClash>
0.1003

> <Gold.Chemscore.DEInternal>
3.3469

> <Gold.Chemscore.Rot>
2.9006

> <Gold.Chemscore.Internal.Correction>
   9.000000E+99

> <Gold.Chemscore.Hbonds>
donor molecule, donor type, donor heavy atom, donor atom, acceptor molecule, acceptor atom, score
      P1  H  6896  6908       L1    21  0.47

> <Gold.Chemscore.Hbond.Weighted>
-0.0174

> <Gold.Chemscore.Metal.Weighted>
-0.0000

> <Gold.Chemscore.Lipo.Weighted>
-13.2808

> <Gold.Chemscore.Internal_Hbond.Weighted>
0.0000

> <Gold.Chemscore.DEClash.Weighted>
0.1003

> <Gold.Chemscore.DEInternal.Weighted>
3.3469

> <Gold.Chemscore.Rot.Weighted>
7.4256

> <Gold.Chemscore.Internal.Correction.Weighted>
   9.000000E+99

> <Gold.Protein.RotatedTorsions>
[ 6907 6896 6895 6894 ] final   95.56 input  -60.11 | X-H torsion
[ 7974 7965 7964 7962 ] final   -6.26 input  175.53 | X-H torsion
[ 8008 7997 7996 7995 ] final  -34.20 input   59.86 | X-H torsion
[ 10167 10162 10161 10158 ] final   17.79 input  -65.29 | X-H torsion
[ 10718 10713 10712 10709 ] final  -93.43 input   66.30 | X-H torsion
[ 10763 10752 10751 10750 ] final  -46.33 input  -60.55 | X-H torsion
[ 11005 11000 10999 10996 ] final -133.40 input  -57.11 | X-H torsion

> <Gold.Protein.ActiveResidues>
 VAL166  LYS551  ARG553  GLY616  TRP617  ASP618  TYR619  PRO620  LYS621  CYS622 
 ASP623  PHE694  ASN695  SER759  ASP760  ASP761  ALA762  ILE779  LEU786  VAL792 
 PHE793  MET794  SER795  GLU796  ALA797  LYS798  CYS799  TRP800  GLU811  SER814 

> <Gold.Protein.RotatedAtoms>
  152.5442  134.1020  159.8321 H   0  0  0  0  0  0  0  0  0  0  0  0  # atno 6907 bound_to 6896
  151.1097  133.5175  159.2613 H   0  0  0  0  0  0  0  0  0  0  0  0  # atno 6908 bound_to 6896
  151.1898  135.0407  159.8882 H   0  0  0  0  0  0  0  0  0  0  0  0  # atno 6909 bound_to 6896
  146.2335  140.2143  142.8336 H   0  0  0  0  0  0  0  0  0  0  0  0  # atno 7974 bound_to 7965
  154.4127  140.1690  156.2011 H   0  0  0  0  0  0  0  0  0  0  0  0  # atno 8008 bound_to 7997
  155.9523  140.3400  155.6395 H   0  0  0  0  0  0  0  0  0  0  0  0  # atno 8009 bound_to 7997
  155.6854  140.0727  157.2459 H   0  0  0  0  0  0  0  0  0  0  0  0  # atno 8010 bound_to 7997
  140.5700  143.9179  150.6705 H   0  0  0  0  0  0  0  0  0  0  0  0  # atno 10167 bound_to 10162
  156.0013  130.5026  150.5774 H   0  0  0  0  0  0  0  0  0  0  0  0  # atno 10718 bound_to 10713
  154.0432  135.6641  153.4792 H   0  0  0  0  0  0  0  0  0  0  0  0  # atno 10763 bound_to 10752
  153.0493  135.5094  154.7822 H   0  0  0  0  0  0  0  0  0  0  0  0  # atno 10764 bound_to 10752
  154.6805  135.3044  154.9586 H   0  0  0  0  0  0  0  0  0  0  0  0  # atno 10765 bound_to 10752
  140.9084  134.1600  157.4408 H   0  0  0  0  0  0  0  0  0  0  0  0  # atno 11005 bound_to 11000
  144.9682  140.8342  143.5472 LP  0  0  0  0  0  0  0  0  0  0  0  0  # atno 17320 bound_to 7965
  145.2122  139.2199  143.5137 LP  0  0  0  0  0  0  0  0  0  0  0  0  # atno 17321 bound_to 7965
  140.2652  143.3495  152.1287 LP  0  0  0  0  0  0  0  0  0  0  0  0  # atno 17342 bound_to 10162
  139.5112  144.6897  151.5792 LP  0  0  0  0  0  0  0  0  0  0  0  0  # atno 17343 bound_to 10162
  157.3660  131.0757  151.1597 LP  0  0  0  0  0  0  0  0  0  0  0  0  # atno 17370 bound_to 10713
  157.2366  130.6550  149.5872 LP  0  0  0  0  0  0  0  0  0  0  0  0  # atno 17371 bound_to 10713
  139.8753  134.9926  156.5604 LP  0  0  0  0  0  0  0  0  0  0  0  0  # atno 17394 bound_to 11000
  140.8142  133.8405  155.8837 LP  0  0  0  0  0  0  0  0  0  0  0  0  # atno 17395 bound_to 11000

$$$$
