AV-unprocessed.smi:3280|AV-procd|sdf|12553|dock2
  -GOLD-   2272018473D 1   1.00000     0.00000
 Structure written by MMmdl.
 39 40  0  0  0  0  0  0  0  0  2 V2000
  145.2085  145.1185  153.7118 C   0  0  0  0  0  0  0  0  0  0  0  0
  144.8487  144.0161  154.7188 C   0  0  0  0  0  0  0  0  0  0  0  0
  144.4465  144.5693  156.0941 C   0  0  0  0  0  0  0  0  0  0  0  0
  145.9346  142.9896  154.8294 C   0  0  0  0  0  0  0  0  0  0  0  0
  145.6921  141.7792  155.3198 N   0  0  0  0  0  0  0  0  0  0  0  0
  146.9383  141.1411  155.2460 O   0  0  0  0  0  0  0  0  0  0  0  0
  147.7916  142.0580  154.7319 C   0  0  0  0  0  0  0  0  0  0  0  0
  149.2077  141.6633  154.4791 C   0  0  0  0  0  0  0  0  0  0  0  0
  149.9097  141.1692  155.7500 C   0  0  0  0  0  0  0  0  0  0  0  0
  149.9924  142.2403  156.7631 N   0  3  0  0  0  0  0  0  0  0  0  0
  151.2996  142.3463  157.4472 C   0  0  1  0  0  0  0  0  0  0  0  0
  151.4262  143.7281  158.1166 C   0  0  0  0  0  0  0  0  0  0  0  0
  152.7885  143.9348  158.7992 C   0  0  0  0  0  0  0  0  0  0  0  0
  153.0476  142.9114  159.9135 C   0  0  0  0  0  0  0  0  0  0  0  0
  153.0812  141.2223  159.2553 S   0  0  0  0  0  0  0  0  0  0  0  0
  151.4467  141.2051  158.4691 C   0  0  0  0  0  0  0  0  0  0  0  0
  147.2182  143.2201  154.4327 N   0  0  0  0  0  0  0  0  0  0  0  0
  145.4194  144.6973  152.7283 H   0  0  0  0  0  0  0  0  0  0  0  0
  146.0884  145.6776  154.0313 H   0  0  0  0  0  0  0  0  0  0  0  0
  144.3885  145.8281  153.5980 H   0  0  0  0  0  0  0  0  0  0  0  0
  143.9660  143.5127  154.3205 H   0  0  0  0  0  0  0  0  0  0  0  0
  144.1260  143.7679  156.7606 H   0  0  0  0  0  0  0  0  0  0  0  0
  143.6208  145.2757  156.0061 H   0  0  0  0  0  0  0  0  0  0  0  0
  145.2773  145.0887  156.5726 H   0  0  0  0  0  0  0  0  0  0  0  0
  149.2198  140.8848  153.7151 H   0  0  0  0  0  0  0  0  0  0  0  0
  149.7382  142.5206  154.0623 H   0  0  0  0  0  0  0  0  0  0  0  0
  149.3686  140.3198  156.1693 H   0  0  0  0  0  0  0  0  0  0  0  0
  150.9170  140.8262  155.5087 H   0  0  0  0  0  0  0  0  0  0  0  0
  149.7996  143.1227  156.3108 H   0  0  0  0  0  0  0  0  0  0  0  0
  152.0985  142.2489  156.7096 H   0  0  0  0  0  0  0  0  0  0  0  0
  151.2865  144.5084  157.3673 H   0  0  0  0  0  0  0  0  0  0  0  0
  150.6285  143.8617  158.8487 H   0  0  0  0  0  0  0  0  0  0  0  0
  153.5863  143.8809  158.0573 H   0  0  0  0  0  0  0  0  0  0  0  0
  152.8308  144.9403  159.2191 H   0  0  0  0  0  0  0  0  0  0  0  0
  154.0019  143.1159  160.3998 H   0  0  0  0  0  0  0  0  0  0  0  0
  152.2765  142.9801  160.6814 H   0  0  0  0  0  0  0  0  0  0  0  0
  150.6823  141.2806  159.2436 H   0  0  0  0  0  0  0  0  0  0  0  0
  151.3139  140.2384  157.9822 H   0  0  0  0  0  0  0  0  0  0  0  0
  149.2808  142.0769  157.4612 H   0  0  0  0  0  0  0  0  0  0  0  0
  1  2  1  0  0  0  0
  1 18  1  0  0  0  0
  1 19  1  0  0  0  0
  1 20  1  0  0  0  0
  2  3  1  0  0  0  0
  2  4  1  0  0  0  0
  2 21  1  0  0  0  0
  3 22  1  0  0  0  0
  3 23  1  0  0  0  0
  3 24  1  0  0  0  0
  4 17  1  0  0  0  0
  4  5  2  0  0  0  0
  5  6  1  0  0  0  0
  6  7  1  0  0  0  0
  7  8  1  0  0  0  0
  7 17  2  0  0  0  0
  8  9  1  0  0  0  0
  8 25  1  0  0  0  0
  8 26  1  0  0  0  0
  9 10  1  0  0  0  0
  9 27  1  0  0  0  0
  9 28  1  0  0  0  0
 10 11  1  0  0  0  0
 10 29  1  0  0  0  0
 10 39  1  0  0  0  0
 11 16  1  0  0  0  0
 11 12  1  0  0  0  0
 11 30  1  0  0  0  0
 12 13  1  0  0  0  0
 12 31  1  0  0  0  0
 12 32  1  0  0  0  0
 13 14  1  0  0  0  0
 13 33  1  0  0  0  0
 13 34  1  0  0  0  0
 14 15  1  0  0  0  0
 14 35  1  0  0  0  0
 14 36  1  0  0  0  0
 15 16  1  0  0  0  0
 16 37  1  0  0  0  0
 16 38  1  0  0  0  0
M  CHG  1  10   1
M  END
> <s_m_source_file>
AV-unprocessed.smi

> <i_m_source_file_index>
3280

> <i_lp_mmshare_version>
43012

> <i_f3d_flags>
0

> <s_epik_input>
W0NIM11bQ0hdKFtDSDNdKWMxbm9jKG4xKVtDSDJdW0NIMl1bTkhdW0NAQEhdMltDSDJdW0NIMl1bQ0gyXVNbQ0gyXTI=

> <s_epik_cmdline>
J2VwaWtfcHl0aG9uJywgJy1waCcsICc3LjAnLCAnLXRuJywgJzgnLCAnLW1hJywgJzIwMCcsICctbWV0YWxfYmluZGluZycsICctaW1hZScsICc8aW5maWxlLm1hZT4nLCAnLW9tYWUnLCAnPG91dGZpbGUubWFlPic=

> <r_lp_tautomer_probability>
1

> <r_epik_Ionization_Penalty>
0.0103043

> <r_epik_Ionization_Penalty_Charging>
0.0103043

> <r_epik_Ionization_Penalty_Neutral>
2.61801e-13

> <r_epik_State_Penalty>
0.0078728

> <r_epik_Charging_Adjusted_Penalty>
0.0181771

> <i_epik_Tot_Q>
1

> <i_epik_Tot_abs_Q>
1

> <r_epik_Metal_State_Penalty>
0.0078728

> <b_epik_Metal_Only>
0

> <s_lp_Force_Field>
OPLS_2005

> <r_lp_Energy>
2.51022

> <b_lp_Chiralities_Consistent>
1

> <s_lp_Variant>
AV-unprocessed.smi:3280-2

> <Gold.Version>
5.8.1

> <Gold.Id.Protein>
6NUR|6NUR_protein|mol2

> <Gold.PLP.Fitness>
44.2882

> <Gold.PLP.PLP>
-39.0722

> <Gold.PLP.part.hbond>
-2.0000

> <Gold.PLP.part.metal>
0.0000

> <Gold.PLP.part.buried>
-0.2566

> <Gold.PLP.part.nonpolar>
-38.0523

> <Gold.PLP.part.repulsive>
2.3061

> <Gold.PLP.ligand.clash>
0.0000

> <Gold.PLP.ligand.torsion>
0.8740

> <Gold.PLP.Chemscore.Hbond>
2.2886

> <Gold.PLP.Chemscore.CHOScore>
0.0000

> <Gold.PLP.Chemscore.Metal>
0.0000

> <Gold.Chemscore.Hbonds>
donor molecule, donor type, donor heavy atom, donor atom, acceptor molecule, acceptor atom, score
      L1  H    10    29       P1  8028  2.00
      P1  H  8022  8030       L1    17  0.35

> <Gold.PLP.Chemscore.Internal.Correction>
0.0983

> <Gold.Rescore>
     Score         DG    S(hbond)    S(metal)    S(lipo)     H(rot)  DE(clash)    DE(int)     intcor
     13.57     -15.22       0.98        0.00      93.63       1.76       0.64       1.01       ----

> <Gold.Chemscore.Fitness>
13.5723

> <Gold.Chemscore.DG>
-15.2215

> <Gold.Chemscore.ZeroCoef>
-5.4800

> <Gold.Chemscore.Hbond>
0.9837

> <Gold.Chemscore.Metal>
0.0000

> <Gold.Chemscore.Lipo>
93.6262

> <Gold.Chemscore.Internal_Hbond>
0.0000

> <Gold.Chemscore.DEClash>
0.6391

> <Gold.Chemscore.DEInternal>
1.0101

> <Gold.Chemscore.Rot>
1.7572

> <Gold.Chemscore.Internal.Correction>
   9.000000E+99

> <Gold.Chemscore.Hbonds>
donor molecule, donor type, donor heavy atom, donor atom, acceptor molecule, acceptor atom, score
      L1  H    10    29       P1  8028  0.99
      P1  H  8022  8030       L1    17  0.33

> <Gold.Chemscore.Hbond.Weighted>
-3.2856

> <Gold.Chemscore.Metal.Weighted>
-0.0000

> <Gold.Chemscore.Lipo.Weighted>
-10.9543

> <Gold.Chemscore.Internal_Hbond.Weighted>
0.0000

> <Gold.Chemscore.DEClash.Weighted>
0.6391

> <Gold.Chemscore.DEInternal.Weighted>
1.0101

> <Gold.Chemscore.Rot.Weighted>
4.4984

> <Gold.Chemscore.Internal.Correction.Weighted>
   9.000000E+99

> <Gold.Protein.RotatedTorsions>
[ 6907 6896 6895 6894 ] final  146.40 input  -60.11 | X-H torsion
[ 7974 7965 7964 7962 ] final  -87.70 input  175.53 | X-H torsion
[ 8008 7997 7996 7995 ] final -166.72 input   59.86 | X-H torsion
[ 10167 10162 10161 10158 ] final -127.26 input  -65.29 | X-H torsion
[ 10718 10713 10712 10709 ] final  -56.75 input   66.30 | X-H torsion
[ 10763 10752 10751 10750 ] final -137.07 input  -60.55 | X-H torsion
[ 11005 11000 10999 10996 ] final  -32.58 input  -57.11 | X-H torsion

> <Gold.Protein.ActiveResidues>
 VAL166  LYS551  ARG553  GLY616  TRP617  ASP618  TYR619  PRO620  LYS621  CYS622 
 ASP623  PHE694  ASN695  SER759  ASP760  ASP761  ALA762  ILE779  LEU786  VAL792 
 PHE793  MET794  SER795  GLU796  ALA797  LYS798  CYS799  TRP800  GLU811  SER814 

> <Gold.Protein.RotatedAtoms>
  152.1684  133.4627  159.4896 H   0  0  0  0  0  0  0  0  0  0  0  0  # atno 6907 bound_to 6896
  150.6916  134.1984  159.4321 H   0  0  0  0  0  0  0  0  0  0  0  0  # atno 6908 bound_to 6896
  151.9890  134.9989  160.0611 H   0  0  0  0  0  0  0  0  0  0  0  0  # atno 6909 bound_to 6896
  145.4630  140.9561  143.1959 H   0  0  0  0  0  0  0  0  0  0  0  0  # atno 7974 bound_to 7965
  155.8677  140.0988  157.1571 H   0  0  0  0  0  0  0  0  0  0  0  0  # atno 8008 bound_to 7997
  154.3995  140.1353  156.4102 H   0  0  0  0  0  0  0  0  0  0  0  0  # atno 8009 bound_to 7997
  155.7785  140.3459  155.5287 H   0  0  0  0  0  0  0  0  0  0  0  0  # atno 8010 bound_to 7997
  139.9627  143.5932  152.2439 H   0  0  0  0  0  0  0  0  0  0  0  0  # atno 10167 bound_to 10162
  156.1264  130.4162  150.0348 H   0  0  0  0  0  0  0  0  0  0  0  0  # atno 10718 bound_to 10713
  154.8670  135.3653  154.5163 H   0  0  0  0  0  0  0  0  0  0  0  0  # atno 10763 bound_to 10752
  153.5796  135.7018  153.5474 H   0  0  0  0  0  0  0  0  0  0  0  0  # atno 10764 bound_to 10752
  153.3469  135.4082  155.1578 H   0  0  0  0  0  0  0  0  0  0  0  0  # atno 10765 bound_to 10752
  140.9564  133.7190  156.1300 H   0  0  0  0  0  0  0  0  0  0  0  0  # atno 11005 bound_to 11000
  144.7991  139.6176  143.7079 LP  0  0  0  0  0  0  0  0  0  0  0  0  # atno 17320 bound_to 7965
  146.2440  139.6059  142.9472 LP  0  0  0  0  0  0  0  0  0  0  0  0  # atno 17321 bound_to 7965
  139.6541  144.7661  151.2090 LP  0  0  0  0  0  0  0  0  0  0  0  0  # atno 17342 bound_to 10162
  140.7548  143.6113  150.8602 LP  0  0  0  0  0  0  0  0  0  0  0  0  # atno 17343 bound_to 10162
  156.8272  130.9379  151.3639 LP  0  0  0  0  0  0  0  0  0  0  0  0  # atno 17370 bound_to 10713
  157.6445  130.8833  149.9512 LP  0  0  0  0  0  0  0  0  0  0  0  0  # atno 17371 bound_to 10713
  140.7530  134.4024  157.5538 LP  0  0  0  0  0  0  0  0  0  0  0  0  # atno 17394 bound_to 11000
  139.8863  134.8912  156.2589 LP  0  0  0  0  0  0  0  0  0  0  0  0  # atno 17395 bound_to 11000

$$$$
