AV-unprocessed.smi:1175|AV-procd|sdf|4950|dock7
  -GOLD-   22720 3543D 1   1.00000     0.00000
 Structure written by MMmdl.
 36 37  0  0  0  0  0  0  0  0  1 V2000
  153.9849  138.1965  159.7364 O   0  0  0  0  0  0  0  0  0  0  0  0
  153.7926  139.3454  159.3351 C   0  0  0  0  0  0  0  0  0  0  0  0
  154.6803  140.5073  159.8043 C   0  0  0  0  0  0  0  0  0  0  0  0
  153.9505  141.5300  160.5725 N   0  0  0  0  0  0  0  0  0  0  0  0
  153.0991  142.3874  159.8481 C   0  0  0  0  0  0  0  0  0  0  0  0
  152.3814  143.3690  160.4273 C   0  0  0  0  0  0  0  0  0  0  0  0
  151.4225  144.2378  159.6281 C   0  0  0  0  0  0  0  0  0  0  0  0
  150.8783  145.1828  160.3952 F   0  0  0  0  0  0  0  0  0  0  0  0
  152.0765  144.8364  158.6333 F   0  0  0  0  0  0  0  0  0  0  0  0
  150.4386  143.5094  159.0986 F   0  0  0  0  0  0  0  0  0  0  0  0
  152.4998  143.4905  161.8671 C   0  0  0  0  0  0  0  0  0  0  0  0
  153.2978  142.6690  162.5770 C   0  0  0  0  0  0  0  0  0  0  0  0
  154.0842  141.6161  161.9299 C   0  0  0  0  0  0  0  0  0  0  0  0
  154.8156  140.8582  162.5676 O   0  0  0  0  0  0  0  0  0  0  0  0
  152.8069  139.6690  158.4849 N   0  0  0  0  0  0  0  0  0  0  0  0
  151.8504  138.7268  157.9140 C   0  0  0  0  0  0  0  0  0  0  0  0
  151.0104  139.3664  156.7927 C   0  0  2  0  0  0  0  0  0  0  0  0
  150.1810  138.3894  155.9826 C   0  0  0  0  0  0  0  0  0  0  0  0
  149.8880  139.1990  154.7238 C   0  0  0  0  0  0  0  0  0  0  0  0
  151.0216  140.0402  154.5317 O   0  0  0  0  0  0  0  0  0  0  0  0
  151.8431  140.0297  155.6959 C   0  0  0  0  0  0  0  0  0  0  0  0
  155.5073  140.1091  160.3951 H   0  0  0  0  0  0  0  0  0  0  0  0
  155.1486  140.9551  158.9266 H   0  0  0  0  0  0  0  0  0  0  0  0
  153.0580  142.1868  158.7872 H   0  0  0  0  0  0  0  0  0  0  0  0
  151.9414  144.2555  162.3862 H   0  0  0  0  0  0  0  0  0  0  0  0
  153.3619  142.7894  163.6484 H   0  0  0  0  0  0  0  0  0  0  0  0
  152.7161  140.6358  158.2073 H   0  0  0  0  0  0  0  0  0  0  0  0
  152.3738  137.8460  157.5380 H   0  0  0  0  0  0  0  0  0  0  0  0
  151.2011  138.3774  158.7174 H   0  0  0  0  0  0  0  0  0  0  0  0
  150.3431  140.1183  157.2181 H   0  0  0  0  0  0  0  0  0  0  0  0
  150.7688  137.5054  155.7309 H   0  0  0  0  0  0  0  0  0  0  0  0
  149.2758  138.0636  156.4962 H   0  0  0  0  0  0  0  0  0  0  0  0
  149.7068  138.5673  153.8539 H   0  0  0  0  0  0  0  0  0  0  0  0
  149.0107  139.8296  154.8736 H   0  0  0  0  0  0  0  0  0  0  0  0
  152.1615  141.0365  155.9672 H   0  0  0  0  0  0  0  0  0  0  0  0
  152.7357  139.4419  155.4773 H   0  0  0  0  0  0  0  0  0  0  0  0
  1  2  2  0  0  0  0
  2  3  1  0  0  0  0
  2 15  1  0  0  0  0
  3  4  1  0  0  0  0
  3 22  1  0  0  0  0
  3 23  1  0  0  0  0
  4 13  1  0  0  0  0
  4  5  1  0  0  0  0
  5  6  2  0  0  0  0
  5 24  1  0  0  0  0
  6  7  1  0  0  0  0
  6 11  1  0  0  0  0
  7  8  1  0  0  0  0
  7  9  1  0  0  0  0
  7 10  1  0  0  0  0
 11 12  2  0  0  0  0
 11 25  1  0  0  0  0
 12 13  1  0  0  0  0
 12 26  1  0  0  0  0
 13 14  2  0  0  0  0
 15 16  1  0  0  0  0
 15 27  1  0  0  0  0
 16 17  1  0  0  0  0
 16 28  1  0  0  0  0
 16 29  1  0  0  0  0
 17 21  1  0  0  0  0
 17 18  1  0  0  0  0
 17 30  1  0  0  0  0
 18 19  1  0  0  0  0
 18 31  1  0  0  0  0
 18 32  1  0  0  0  0
 19 20  1  0  0  0  0
 19 33  1  0  0  0  0
 19 34  1  0  0  0  0
 20 21  1  0  0  0  0
 21 35  1  0  0  0  0
 21 36  1  0  0  0  0
M  END
> <s_m_source_file>
AV-unprocessed.smi

> <i_m_source_file_index>
1175

> <i_lp_mmshare_version>
43012

> <i_f3d_flags>
0

> <s_epik_input>
W0NIMl0xT1tDSDJdW0NIMl1bQ0BIXTFbQ0gyXVtOSF1DKD1PKVtDSDJdbjJbY0hdYyhDKEYpKEYpRilbY0hdW2NIXWMyPU8=

> <s_epik_cmdline>
J2VwaWtfcHl0aG9uJywgJy1waCcsICc3LjAnLCAnLXRuJywgJzgnLCAnLW1hJywgJzIwMCcsICctbWV0YWxfYmluZGluZycsICctaW1hZScsICc8aW5maWxlLm1hZT4nLCAnLW9tYWUnLCAnPG91dGZpbGUubWFlPic=

> <r_lp_tautomer_probability>
1

> <r_epik_Ionization_Penalty>
3.67963e-08

> <r_epik_Ionization_Penalty_Charging>
1.809e-08

> <r_epik_Ionization_Penalty_Neutral>
1.87063e-08

> <r_epik_State_Penalty>
-0

> <r_epik_Charging_Adjusted_Penalty>
1.809e-08

> <i_epik_Tot_Q>
0

> <i_epik_Tot_abs_Q>
0

> <r_epik_Metal_State_Penalty>
-0

> <b_epik_Metal_Only>
0

> <s_lp_Force_Field>
OPLS_2005

> <r_lp_Energy>
30.0254

> <b_lp_Chiralities_Consistent>
1

> <s_lp_Variant>
AV-unprocessed.smi:1175-1

> <Gold.Version>
5.8.1

> <Gold.Id.Protein>
6NUR|6NUR_protein|mol2

> <Gold.PLP.Fitness>
53.5408

> <Gold.PLP.PLP>
-51.2605

> <Gold.PLP.part.hbond>
-1.8656

> <Gold.PLP.part.metal>
0.0000

> <Gold.PLP.part.buried>
-5.2459

> <Gold.PLP.part.nonpolar>
-43.2541

> <Gold.PLP.part.repulsive>
0.2080

> <Gold.PLP.ligand.clash>
0.0000

> <Gold.PLP.ligand.torsion>
0.3693

> <Gold.PLP.Chemscore.Hbond>
0.9913

> <Gold.PLP.Chemscore.CHOScore>
0.0000

> <Gold.PLP.Chemscore.Metal>
0.0000

> <Gold.Chemscore.Hbonds>
donor molecule, donor type, donor heavy atom, donor atom, acceptor molecule, acceptor atom, score
      P1  H  7989  7998       L1    20  0.81

> <Gold.PLP.Chemscore.Internal.Correction>
0.0453

> <Gold.Rescore>
     Score         DG    S(hbond)    S(metal)    S(lipo)     H(rot)  DE(clash)    DE(int)     intcor
     14.36     -14.86       0.97        0.00      93.21       1.87       0.02       0.48       ----

> <Gold.Chemscore.Fitness>
14.3552

> <Gold.Chemscore.DG>
-14.8569

> <Gold.Chemscore.ZeroCoef>
-5.4800

> <Gold.Chemscore.Hbond>
0.9741

> <Gold.Chemscore.Metal>
0.0000

> <Gold.Chemscore.Lipo>
93.2118

> <Gold.Chemscore.Internal_Hbond>
0.0000

> <Gold.Chemscore.DEClash>
0.0224

> <Gold.Chemscore.DEInternal>
0.4793

> <Gold.Chemscore.Rot>
1.8681

> <Gold.Chemscore.Internal.Correction>
   9.000000E+99

> <Gold.Chemscore.Hbonds>
donor molecule, donor type, donor heavy atom, donor atom, acceptor molecule, acceptor atom, score
      P1  H  7989  7998       L1    20  0.60

> <Gold.Chemscore.Hbond.Weighted>
-3.2534

> <Gold.Chemscore.Metal.Weighted>
-0.0000

> <Gold.Chemscore.Lipo.Weighted>
-10.9058

> <Gold.Chemscore.Internal_Hbond.Weighted>
0.0000

> <Gold.Chemscore.DEClash.Weighted>
0.0224

> <Gold.Chemscore.DEInternal.Weighted>
0.4793

> <Gold.Chemscore.Rot.Weighted>
4.7822

> <Gold.Chemscore.Internal.Correction.Weighted>
   9.000000E+99

> <Gold.Protein.RotatedTorsions>
[ 6907 6896 6895 6894 ] final  -46.97 input  -60.11 | X-H torsion
[ 7974 7965 7964 7962 ] final   13.91 input  175.53 | X-H torsion
[ 8008 7997 7996 7995 ] final  169.65 input   59.86 | X-H torsion
[ 10167 10162 10161 10158 ] final  120.37 input  -65.29 | X-H torsion
[ 10718 10713 10712 10709 ] final   69.91 input   66.30 | X-H torsion
[ 10763 10752 10751 10750 ] final   33.40 input  -60.55 | X-H torsion
[ 11005 11000 10999 10996 ] final  154.09 input  -57.11 | X-H torsion

> <Gold.Protein.ActiveResidues>
 VAL166  LYS551  ARG553  GLY616  TRP617  ASP618  TYR619  PRO620  LYS621  CYS622 
 ASP623  PHE694  ASN695  SER759  ASP760  ASP761  ALA762  ILE779  LEU786  VAL792 
 PHE793  MET794  SER795  GLU796  ALA797  LYS798  CYS799  TRP800  GLU811  SER814 

> <Gold.Protein.RotatedAtoms>
  150.9057  134.8472  159.7390 H   0  0  0  0  0  0  0  0  0  0  0  0  # atno 6907 bound_to 6896
  152.4917  134.4435  159.9561 H   0  0  0  0  0  0  0  0  0  0  0  0  # atno 6908 bound_to 6896
  151.4482  133.3585  159.2826 H   0  0  0  0  0  0  0  0  0  0  0  0  # atno 6909 bound_to 6896
  146.2318  139.9119  142.8523 H   0  0  0  0  0  0  0  0  0  0  0  0  # atno 7974 bound_to 7965
  156.1438  140.1558  156.8879 H   0  0  0  0  0  0  0  0  0  0  0  0  # atno 8008 bound_to 7997
  154.5010  140.0825  156.7836 H   0  0  0  0  0  0  0  0  0  0  0  0  # atno 8009 bound_to 7997
  155.4028  140.3415  155.4260 H   0  0  0  0  0  0  0  0  0  0  0  0  # atno 8010 bound_to 7997
  139.5986  144.7050  151.3116 H   0  0  0  0  0  0  0  0  0  0  0  0  # atno 10167 bound_to 10162
  157.6372  130.9450  150.0579 H   0  0  0  0  0  0  0  0  0  0  0  0  # atno 10718 bound_to 10713
  153.0214  135.6388  154.1506 H   0  0  0  0  0  0  0  0  0  0  0  0  # atno 10763 bound_to 10752
  154.1240  135.2845  155.3203 H   0  0  0  0  0  0  0  0  0  0  0  0  # atno 10764 bound_to 10752
  154.6243  135.5514  153.7671 H   0  0  0  0  0  0  0  0  0  0  0  0  # atno 10765 bound_to 10752
  140.1457  134.8709  157.2389 H   0  0  0  0  0  0  0  0  0  0  0  0  # atno 11005 bound_to 11000
  145.2222  140.9939  143.4039 LP  0  0  0  0  0  0  0  0  0  0  0  0  # atno 17320 bound_to 7965
  144.9601  139.3989  143.6360 LP  0  0  0  0  0  0  0  0  0  0  0  0  # atno 17321 bound_to 7965
  140.7232  143.7078  150.7794 LP  0  0  0  0  0  0  0  0  0  0  0  0  # atno 17342 bound_to 10162
  140.0649  143.5118  152.2609 LP  0  0  0  0  0  0  0  0  0  0  0  0  # atno 17343 bound_to 10162
  156.1620  130.3644  149.9285 LP  0  0  0  0  0  0  0  0  0  0  0  0  # atno 17370 bound_to 10713
  156.7281  130.9032  151.3623 LP  0  0  0  0  0  0  0  0  0  0  0  0  # atno 17371 bound_to 10713
  140.2667  134.3508  155.7387 LP  0  0  0  0  0  0  0  0  0  0  0  0  # atno 17394 bound_to 11000
  141.2192  133.7400  156.9161 LP  0  0  0  0  0  0  0  0  0  0  0  0  # atno 17395 bound_to 11000

$$$$
