#       Name:                AV-unprocessed.smi:1490
#       Creating user name   scv26
#       Creation time:       Fri Mar 27 06:13:15 2020


#       File generated by GOLD software.
#

@<TRIPOS>MOLECULE
AV-unprocessed.smi:1490
    43    44     1
SMALL
NO_CHARGES


@<TRIPOS>ATOM
      1 ****         0.9678   1.0776   3.5455 C.3            1 S1                 0.0000
      2 ****         0.5301   1.2627   2.2113 O.3            1 S1                 0.0000
      3 ****        -0.5373   2.1911   2.1103 C.3            1 S1                 0.0000
      4 ****        -0.9774   2.3226   0.6454 C.3            1 S1                 0.0000
      5 ****        -1.3965   1.0451   0.0868 N.pl3          1 S1                 0.0000
      6 ****        -0.6579   0.1537  -0.6208 C.2            1 S1                 0.0000
      7 ****         1.0416   0.4547  -1.0046 S.3            1 S1                 0.0000
      8 ****         1.6322  -1.2584  -1.1386 C.3            1 S1                 0.0000
      9 ****         3.1466  -1.3359  -1.3079 C.2            1 S1                 0.0000
     10 ****         3.8513  -1.7525  -0.3895 O.2            1 S1                 0.0000
     11 ****         3.6396  -0.9359  -2.4887 N.am           1 S1                 0.0000
     12 ****         5.0541  -0.9431  -2.8332 C.3            1 S1                 0.0000
     13 ****         5.5777  -2.3017  -3.0476 C.1            1 S1                 0.0000
     14 ****         5.9890  -3.3697  -3.2170 N.1            1 S1                 0.0000
     15 ****        -1.3059  -0.9472  -1.0071 N.2            1 S1                 0.0000
     16 ****        -2.5740  -0.7560  -0.4956 C.ar           1 S1                 0.0000
     17 ****        -3.7244  -1.5741  -0.5610 C.ar           1 S1                 0.0000
     18 ****        -4.9277  -1.1637   0.0498 C.ar           1 S1                 0.0000
     19 ****        -6.3230  -2.1745  -0.0388 Cl             1 S1                 0.0000
     20 ****        -4.9963   0.0682   0.7331 C.ar           1 S1                 0.0000
     21 ****        -3.8615   0.8982   0.8092 C.ar           1 S1                 0.0000
     22 ****        -2.6639   0.4833   0.1967 C.ar           1 S1                 0.0000
     23 ****         1.7890   0.3612   3.5645 H              1 S1                 0.0000
     24 ****         0.1654   0.6870   4.1727 H              1 S1                 0.0000
     25 ****         1.3263   2.0132   3.9766 H              1 S1                 0.0000
     26 ****        -1.3781   1.8589   2.7215 H              1 S1                 0.0000
     27 ****        -0.2229   3.1643   2.4900 H              1 S1                 0.0000
     28 ****        -1.8096   3.0229   0.5693 H              1 S1                 0.0000
     29 ****        -0.1738   2.7424   0.0410 H              1 S1                 0.0000
     30 ****         1.3424  -1.8066  -0.2410 H              1 S1                 0.0000
     31 ****         1.1512  -1.7474  -1.9865 H              1 S1                 0.0000
     32 ****         2.9940  -0.6064  -3.1916 H              1 S1                 0.0000
     33 ****         5.2000  -0.3757  -3.7522 H              1 S1                 0.0000
     34 ****         5.6439  -0.4586  -2.0536 H              1 S1                 0.0000
     35 ****        -3.6796  -2.5192  -1.0817 H              1 S1                 0.0000
     36 ****        -5.9206   0.3767   1.1994 H              1 S1                 0.0000
     37 ****        -3.9108   1.8414   1.3325 H              1 S1                 0.0000
     38 ****         0.2237   0.3821   1.8499 LP             1 S1                 0.0000
     39 ****         1.2984   1.5978   1.6660 LP             1 S1                 0.0000
     40 ****         3.4318  -2.0415   0.4711 LP             1 S1                 0.0000
     41 ****         4.8435  -1.8020  -0.5035 LP             1 S1                 0.0000
     42 ****         6.3445  -4.2928  -3.3634 LP             1 S1                 0.0000
     43 ****        -0.9583  -1.7207  -1.5370 LP             1 S1                 0.0000
@<TRIPOS>BOND
    1    1    2 1     
    2    1   23 1     
    3    1   24 1     
    4    1   25 1     
    5    2    3 1     
    6    3    4 1     
    7    3   26 1     
    8    3   27 1     
    9    4    5 1     
   10    4   28 1     
   11    4   29 1     
   12    5   22 1     
   13    5    6 1     
   14    6    7 1     
   15    6   15 2     
   16    7    8 1     
   17    8    9 1     
   18    8   30 1     
   19    8   31 1     
   20    9   10 2     
   21    9   11 am    
   22   11   12 1     
   23   11   32 1     
   24   12   13 1     
   25   12   33 1     
   26   12   34 1     
   27   13   14 3     
   28   15   16 1     
   29   16   22 ar    
   30   16   17 ar    
   31   17   18 ar    
   32   17   35 1     
   33   18   19 1     
   34   18   20 ar    
   35   20   21 ar    
   36   20   36 1     
   37   21   22 ar    
   38   21   37 1     
   39    2   38 1     
   40    2   39 1     
   41   10   40 1     
   42   10   41 1     
   43   14   42 1     
   44   15   43 1     
@<TRIPOS>SUBSTRUCTURE
      1 S1             1
@<TRIPOS>SET
LONE_PAIRS      STATIC     ATOMS    <user>   **** ""
6 38 39 40 41 42 43
DONOR_HYDROGENS      STATIC     ATOMS    <user>   **** ""
1 32
ATOM$BLUE        STATIC     ATOMS    COLORGROUP SYSTEM
6 38 39 40 41 42 43
ATOM$RED        STATIC     ATOMS    COLORGROUP SYSTEM
1 32
