AV-unprocessed.smi:924|AV-procd|sdf|4180|dock6
  -GOLD-   22720 2 83D 1   1.00000     0.00000
 Structure written by MMmdl.
 45 48  0  0  0  0  0  0  0  0  2 V2000
  147.7996  134.8795  156.2781 O   0  0  0  0  0  0  0  0  0  0  0  0
  148.2417  135.9217  156.7629 C   0  0  0  0  0  0  0  0  0  0  0  0
  148.3564  137.1965  155.9171 C   0  0  0  0  0  0  0  0  0  0  0  0
  149.7536  137.5483  155.6181 N   0  0  0  0  0  0  0  0  0  0  0  0
  150.1367  138.8849  155.8287 C   0  0  0  0  0  0  0  0  0  0  0  0
  151.3943  139.3087  155.6018 C   0  0  0  0  0  0  0  0  0  0  0  0
  152.3726  138.3400  155.1235 C   0  0  0  0  0  0  0  0  0  0  0  0
  153.5248  138.7099  154.9058 O   0  0  0  0  0  0  0  0  0  0  0  0
  151.9540  137.0536  154.9392 N   0  5  0  0  0  0  0  0  0  0  0  0
  150.6722  136.6354  155.1793 C   0  0  0  0  0  0  0  0  0  0  0  0
  150.3196  135.4674  155.0134 O   0  0  0  0  0  0  0  0  0  0  0  0
  148.6506  136.0239  158.0368 N   0  0  0  0  0  0  0  0  0  0  0  0
  148.6918  134.9328  159.0076 C   0  0  0  0  0  0  0  0  0  0  0  0
  147.7643  135.1620  160.2291 C   0  0  0  0  0  0  0  0  0  0  0  0
  147.8264  133.9761  161.2323 C   0  0  0  0  0  0  0  0  0  0  0  0
  146.8636  134.2168  162.4143 C   0  0  1  0  0  0  0  0  0  0  0  0
  147.2656  135.5125  163.1493 C   0  0  0  0  0  0  0  0  0  0  0  0
  147.1803  136.7011  162.1685 C   0  0  2  0  0  0  0  0  0  0  0  0
  145.7363  136.8352  161.6428 C   0  0  0  0  0  0  0  0  0  0  0  0
  145.3404  135.5356  160.9118 C   0  0  2  0  0  0  0  0  0  0  0  0
  145.4195  134.3444  161.8884 C   0  0  0  0  0  0  0  0  0  0  0  0
  146.3018  135.2964  159.7285 C   0  0  0  0  0  0  0  0  0  0  0  0
  148.1438  136.4651  160.9849 C   0  0  0  0  0  0  0  0  0  0  0  0
  147.7699  137.0644  155.0066 H   0  0  0  0  0  0  0  0  0  0  0  0
  147.8825  138.0271  156.4429 H   0  0  0  0  0  0  0  0  0  0  0  0
  149.3525  139.5342  156.1903 H   0  0  0  0  0  0  0  0  0  0  0  0
  151.6727  140.3381  155.7729 H   0  0  0  0  0  0  0  0  0  0  0  0
  148.9887  136.9218  158.3508 H   0  0  0  0  0  0  0  0  0  0  0  0
  148.3882  134.0256  158.4841 H   0  0  0  0  0  0  0  0  0  0  0  0
  149.7163  134.7537  159.3388 H   0  0  0  0  0  0  0  0  0  0  0  0
  147.5745  133.0417  160.7293 H   0  0  0  0  0  0  0  0  0  0  0  0
  148.8368  133.8501  161.6222 H   0  0  0  0  0  0  0  0  0  0  0  0
  146.9237  133.3756  163.1056 H   0  0  0  0  0  0  0  0  0  0  0  0
  146.6107  135.6806  164.0052 H   0  0  0  0  0  0  0  0  0  0  0  0
  148.2771  135.4227  163.5476 H   0  0  0  0  0  0  0  0  0  0  0  0
  147.4622  137.6182  162.6866 H   0  0  0  0  0  0  0  0  0  0  0  0
  145.0496  137.0297  162.4676 H   0  0  0  0  0  0  0  0  0  0  0  0
  145.6569  137.6883  160.9677 H   0  0  0  0  0  0  0  0  0  0  0  0
  144.3209  135.6280  160.5365 H   0  0  0  0  0  0  0  0  0  0  0  0
  145.1167  133.4238  161.3878 H   0  0  0  0  0  0  0  0  0  0  0  0
  144.7261  134.4879  162.7179 H   0  0  0  0  0  0  0  0  0  0  0  0
  146.2201  136.1191  159.0168 H   0  0  0  0  0  0  0  0  0  0  0  0
  146.0036  134.3966  159.1883 H   0  0  0  0  0  0  0  0  0  0  0  0
  149.1670  136.4101  161.3587 H   0  0  0  0  0  0  0  0  0  0  0  0
  148.1125  137.3183  160.3059 H   0  0  0  0  0  0  0  0  0  0  0  0
  1  2  2  0  0  0  0
  2  3  1  0  0  0  0
  2 12  1  0  0  0  0
  3  4  1  0  0  0  0
  3 24  1  0  0  0  0
  3 25  1  0  0  0  0
  4 10  1  0  0  0  0
  4  5  1  0  0  0  0
  5  6  2  0  0  0  0
  5 26  1  0  0  0  0
  6  7  1  0  0  0  0
  6 27  1  0  0  0  0
  7  8  2  0  0  0  0
  7  9  1  0  0  0  0
  9 10  1  0  0  0  0
 10 11  2  0  0  0  0
 12 13  1  0  0  0  0
 12 28  1  0  0  0  0
 13 14  1  0  0  0  0
 13 29  1  0  0  0  0
 13 30  1  0  0  0  0
 14 22  1  0  0  0  0
 14 23  1  0  0  0  0
 14 15  1  0  0  0  0
 15 16  1  0  0  0  0
 15 31  1  0  0  0  0
 15 32  1  0  0  0  0
 16 21  1  0  0  0  0
 16 17  1  0  0  0  0
 16 33  1  0  0  0  0
 17 18  1  0  0  0  0
 17 34  1  0  0  0  0
 17 35  1  0  0  0  0
 18 19  1  0  0  0  0
 18 23  1  0  0  0  0
 18 36  1  0  0  0  0
 19 20  1  0  0  0  0
 19 37  1  0  0  0  0
 19 38  1  0  0  0  0
 20 21  1  0  0  0  0
 20 22  1  0  0  0  0
 20 39  1  0  0  0  0
 21 40  1  0  0  0  0
 21 41  1  0  0  0  0
 22 42  1  0  0  0  0
 22 43  1  0  0  0  0
 23 44  1  0  0  0  0
 23 45  1  0  0  0  0
M  CHG  1   9  -1
M  END
> <s_m_source_file>
AV-unprocessed.smi

> <i_m_source_file_index>
924

> <i_lp_mmshare_version>
43012

> <i_f3d_flags>
0

> <s_epik_input>
Tz1jMVtuSF1jKD1PKVtjSF1bY0hdbjFbQ0gyXUMoPU8pW05IXVtDSDJdQzIzW0NIMl1bQ0BIXTRbQ0gyXVtDQEBIXShbQ0gyXTMpW0NIMl1bQ0BIXShbQ0gyXTQpW0NIMl0y

> <s_epik_cmdline>
J2VwaWtfcHl0aG9uJywgJy1waCcsICc3LjAnLCAnLXRuJywgJzgnLCAnLW1hJywgJzIwMCcsICctbWV0YWxfYmluZGluZycsICctaW1hZScsICc8aW5maWxlLm1hZT4nLCAnLW9tYWUnLCAnPG91dGZpbGUubWFlPic=

> <r_lp_tautomer_probability>
0.999537

> <r_epik_Ionization_Penalty>
3.12434

> <r_epik_Ionization_Penalty_Charging>
2.83226e-08

> <r_epik_Ionization_Penalty_Neutral>
3.12434

> <r_epik_State_Penalty>
3.12343

> <r_epik_Charging_Adjusted_Penalty>
3.12343

> <i_epik_Tot_Q>
-1

> <i_epik_Tot_abs_Q>
1

> <r_epik_Metal_State_Penalty>
0.463885

> <b_epik_Metal_Only>
1

> <s_lp_Force_Field>
OPLS_2005

> <r_lp_Energy>
43.5062

> <b_lp_Chiralities_Consistent>
1

> <s_lp_Variant>
AV-unprocessed.smi:924-2

> <Gold.Version>
5.8.1

> <Gold.Id.Protein>
6NUR|6NUR_protein|mol2

> <Gold.PLP.Fitness>
42.4928

> <Gold.PLP.PLP>
-34.0511

> <Gold.PLP.part.hbond>
-2.0000

> <Gold.PLP.part.metal>
0.0000

> <Gold.PLP.part.buried>
-4.5521

> <Gold.PLP.part.nonpolar>
-28.1407

> <Gold.PLP.part.repulsive>
0.4091

> <Gold.PLP.ligand.clash>
0.0000

> <Gold.PLP.ligand.torsion>
0.2485

> <Gold.PLP.Chemscore.Hbond>
2.9760

> <Gold.PLP.Chemscore.CHOScore>
0.0000

> <Gold.PLP.Chemscore.Metal>
0.0000

> <Gold.Chemscore.Hbonds>
donor molecule, donor type, donor heavy atom, donor atom, acceptor molecule, acceptor atom, score
      P1  H  7997  8010       L1     8  0.98
      P1  H 10752 10763       L1     9  1.92

> <Gold.PLP.Chemscore.Internal.Correction>
0.0106

> <Gold.Rescore>
     Score         DG    S(hbond)    S(metal)    S(lipo)     H(rot)  DE(clash)    DE(int)     intcor
     13.03     -16.09       1.68        0.00      84.10       1.90       0.07       2.99       ----

> <Gold.Chemscore.Fitness>
13.0273

> <Gold.Chemscore.DG>
-16.0888

> <Gold.Chemscore.ZeroCoef>
-5.4800

> <Gold.Chemscore.Hbond>
1.6835

> <Gold.Chemscore.Metal>
0.0000

> <Gold.Chemscore.Lipo>
84.0974

> <Gold.Chemscore.Internal_Hbond>
0.0000

> <Gold.Chemscore.DEClash>
0.0682

> <Gold.Chemscore.DEInternal>
2.9932

> <Gold.Chemscore.Rot>
1.8959

> <Gold.Chemscore.Internal.Correction>
   9.000000E+99

> <Gold.Chemscore.Hbonds>
donor molecule, donor type, donor heavy atom, donor atom, acceptor molecule, acceptor atom, score
      P1  H  7997  8010       L1     8  0.90
      P1  H 10752 10763       L1     9  0.65

> <Gold.Chemscore.Hbond.Weighted>
-5.6229

> <Gold.Chemscore.Metal.Weighted>
-0.0000

> <Gold.Chemscore.Lipo.Weighted>
-9.8394

> <Gold.Chemscore.Internal_Hbond.Weighted>
0.0000

> <Gold.Chemscore.DEClash.Weighted>
0.0682

> <Gold.Chemscore.DEInternal.Weighted>
2.9932

> <Gold.Chemscore.Rot.Weighted>
4.8535

> <Gold.Chemscore.Internal.Correction.Weighted>
   9.000000E+99

> <Gold.Protein.RotatedTorsions>
[ 6907 6896 6895 6894 ] final   49.01 input  -60.11 | X-H torsion
[ 7974 7965 7964 7962 ] final   88.04 input  175.53 | X-H torsion
[ 8008 7997 7996 7995 ] final  111.79 input   59.86 | X-H torsion
[ 10167 10162 10161 10158 ] final  -22.85 input  -65.29 | X-H torsion
[ 10718 10713 10712 10709 ] final  -87.39 input   66.30 | X-H torsion
[ 10763 10752 10751 10750 ] final   50.80 input  -60.55 | X-H torsion
[ 11005 11000 10999 10996 ] final   21.07 input  -57.11 | X-H torsion

> <Gold.Protein.ActiveResidues>
 VAL166  LYS551  ARG553  GLY616  TRP617  ASP618  TYR619  PRO620  LYS621  CYS622 
 ASP623  PHE694  ASN695  SER759  ASP760  ASP761  ALA762  ILE779  LEU786  VAL792 
 PHE793  MET794  SER795  GLU796  ALA797  LYS798  CYS799  TRP800  GLU811  SER814 

> <Gold.Protein.RotatedAtoms>
  152.2859  134.7776  160.0387 H   0  0  0  0  0  0  0  0  0  0  0  0  # atno 6907 bound_to 6896
  151.8339  133.3407  159.3630 H   0  0  0  0  0  0  0  0  0  0  0  0  # atno 6908 bound_to 6896
  150.7209  134.5385  159.5780 H   0  0  0  0  0  0  0  0  0  0  0  0  # atno 6909 bound_to 6896
  145.5510  139.2295  143.2513 H   0  0  0  0  0  0  0  0  0  0  0  0  # atno 7974 bound_to 7965
  156.2148  140.3012  155.9815 H   0  0  0  0  0  0  0  0  0  0  0  0  # atno 8008 bound_to 7997
  155.2633  140.0430  157.3016 H   0  0  0  0  0  0  0  0  0  0  0  0  # atno 8009 bound_to 7997
  154.5752  140.2359  155.8141 H   0  0  0  0  0  0  0  0  0  0  0  0  # atno 8010 bound_to 7997
  140.7287  143.4496  151.0535 H   0  0  0  0  0  0  0  0  0  0  0  0  # atno 10167 bound_to 10162
  155.9985  130.4798  150.4860 H   0  0  0  0  0  0  0  0  0  0  0  0  # atno 10718 bound_to 10713
  152.9784  135.5867  154.4311 H   0  0  0  0  0  0  0  0  0  0  0  0  # atno 10763 bound_to 10752
  154.3924  135.2768  155.2149 H   0  0  0  0  0  0  0  0  0  0  0  0  # atno 10764 bound_to 10752
  154.4015  135.6102  153.5954 H   0  0  0  0  0  0  0  0  0  0  0  0  # atno 10765 bound_to 10752
  140.3956  134.1773  155.7663 H   0  0  0  0  0  0  0  0  0  0  0  0  # atno 11005 bound_to 11000
  146.1917  140.6333  142.9143 LP  0  0  0  0  0  0  0  0  0  0  0  0  # atno 17320 bound_to 7965
  144.7529  140.5237  143.6789 LP  0  0  0  0  0  0  0  0  0  0  0  0  # atno 17321 bound_to 7965
  139.8171  143.7870  152.3175 LP  0  0  0  0  0  0  0  0  0  0  0  0  # atno 17342 bound_to 10162
  139.7940  144.7399  150.9915 LP  0  0  0  0  0  0  0  0  0  0  0  0  # atno 17343 bound_to 10162
  157.2860  131.0616  151.2166 LP  0  0  0  0  0  0  0  0  0  0  0  0  # atno 17370 bound_to 10713
  157.3195  130.6930  149.6261 LP  0  0  0  0  0  0  0  0  0  0  0  0  # atno 17371 bound_to 10713
  141.1875  133.8279  157.1029 LP  0  0  0  0  0  0  0  0  0  0  0  0  # atno 17394 bound_to 11000
  140.0374  134.9871  157.0897 LP  0  0  0  0  0  0  0  0  0  0  0  0  # atno 17395 bound_to 11000

$$$$
