#       Name:                AV-unprocessed.smi:158
#       Creating user name   scv26
#       Creation time:       Thu Mar 26 19:02:37 2020


#       File generated by GOLD software.
#

@<TRIPOS>MOLECULE
AV-unprocessed.smi:158
    40    42     1
SMALL
NO_CHARGES


@<TRIPOS>ATOM
      1 ****        -5.1128  -0.1907   1.4133 N.pl3          1 S1                 0.0000
      2 ****        -3.9019   0.1567   0.9548 C.ar           1 S1                 0.0000
      3 ****        -3.7716   1.3423   0.3153 N.ar           1 S1                 0.0000
      4 ****        -2.5797   1.7281  -0.1569 C.ar           1 S1                 0.0000
      5 ****        -2.5282   3.2568  -0.9528 Cl             1 S1                 0.0000
      6 ****        -1.4230   1.0622  -0.0796 N.ar           1 S1                 0.0000
      7 ****        -1.5496  -0.1343   0.5650 C.ar           1 S1                 0.0000
      8 ****        -2.7532  -0.6575   1.1087 C.ar           1 S1                 0.0000
      9 ****        -2.5125  -1.8958   1.6887 N.2            1 S1                 0.0000
     10 ****        -1.2349  -2.0892   1.4961 C.2            1 S1                 0.0000
     11 ****        -0.5776  -1.0793   0.8282 N.pl3          1 S1                 0.0000
     12 ****         0.8730  -1.0175   0.4679 C.3            1 S1                 0.0000
     13 ****         1.3330   0.2941   0.6156 O.3            1 S1                 0.0000
     14 ****         2.0480   0.7011  -0.5525 C.3            1 S1                 0.0000
     15 ****         3.2679   1.5369  -0.1355 C.3            1 S1                 0.0000
     16 ****         3.9039   2.0890  -1.2686 O.3            1 S1                 0.0000
     17 ****         2.3805  -0.6152  -1.2656 C.3            1 S1                 0.0000
     18 ****         2.6125  -0.4738  -2.6531 O.3            1 S1                 0.0000
     19 ****         1.1369  -1.4344  -0.9827 C.3            1 S1                 0.0000
     20 ****         0.1195  -1.0521  -1.7610 F              1 S1                 0.0000
     21 ****         1.3751  -1.6592   1.1932 H              1 S1                 0.0000
     22 ****         1.3656   1.2989  -1.1599 H              1 S1                 0.0000
     23 ****         3.2464  -1.0887  -0.8003 H              1 S1                 0.0000
     24 ****         1.2691  -2.5123  -1.0784 H              1 S1                 0.0000
     25 ****        -5.2348  -1.0702   1.8943 H              1 S1                 0.0000
     26 ****        -5.8996   0.4277   1.2789 H              1 S1                 0.0000
     27 ****        -0.7324  -2.9817   1.8391 H              1 S1                 0.0000
     28 ****         2.9534   2.3563   0.5113 H              1 S1                 0.0000
     29 ****         3.9810   0.9361   0.4298 H              1 S1                 0.0000
     30 ****         4.6187   2.6337  -0.9760 H              1 S1                 0.0000
     31 ****         3.3285   0.1313  -2.7760 H              1 S1                 0.0000
     32 ****        -4.5695   1.9331   0.1948 LP             1 S1                 0.0000
     33 ****        -0.5602   1.4031  -0.4529 LP             1 S1                 0.0000
     34 ****        -3.1651  -2.4991   2.1471 LP             1 S1                 0.0000
     35 ****         1.9402   0.3438   1.4085 LP             1 S1                 0.0000
     36 ****         0.5528   0.9041   0.7545 LP             1 S1                 0.0000
     37 ****         3.2502   2.6402  -1.7872 LP             1 S1                 0.0000
     38 ****         4.2553   1.3547  -1.8494 LP             1 S1                 0.0000
     39 ****         1.7904  -0.1191  -3.0986 LP             1 S1                 0.0000
     40 ****         2.8490  -1.3615  -3.0482 LP             1 S1                 0.0000
@<TRIPOS>BOND
    1    1    2 1     
    2    1   25 1     
    3    1   26 1     
    4    2    8 ar    
    5    2    3 ar    
    6    3    4 ar    
    7    4    5 1     
    8    4    6 ar    
    9    6    7 ar    
   10    7   11 1     
   11    7    8 ar    
   12    8    9 1     
   13    9   10 2     
   14   10   11 1     
   15   10   27 1     
   16   11   12 1     
   17   12   21 1     
   18   12   19 1     
   19   12   13 1     
   20   13   14 1     
   21   14   22 1     
   22   14   15 1     
   23   14   17 1     
   24   15   16 1     
   25   15   28 1     
   26   15   29 1     
   27   16   30 1     
   28   17   23 1     
   29   17   18 1     
   30   17   19 1     
   31   18   31 1     
   32   19   24 1     
   33   19   20 1     
   34    3   32 1     
   35    6   33 1     
   36    9   34 1     
   37   13   35 1     
   38   13   36 1     
   39   16   37 1     
   40   16   38 1     
   41   18   39 1     
   42   18   40 1     
@<TRIPOS>SUBSTRUCTURE
      1 S1             1
@<TRIPOS>SET
LONE_PAIRS      STATIC     ATOMS    <user>   **** ""
9 32 33 34 35 36 37 38 39 40
DONOR_HYDROGENS      STATIC     ATOMS    <user>   **** ""
4 25 26 30 31
ATOM$BLUE        STATIC     ATOMS    COLORGROUP SYSTEM
9 32 33 34 35 36 37 38 39 40
ATOM$RED        STATIC     ATOMS    COLORGROUP SYSTEM
4 25 26 30 31
