AV-unprocessed.smi:3287|AV-procd|sdf|12597|dock3
  -GOLD-   2272018523D 1   1.00000     0.00000
 Structure written by MMmdl.
 43 44  0  0  0  0  0  0  0  0  2 V2000
  151.3016  141.8182  157.1772 C   0  0  0  0  0  0  0  0  0  0  0  0
  150.5855  141.2065  155.9619 C   0  0  1  0  0  0  0  0  0  0  0  0
  151.0676  139.7714  155.6748 C   0  0  0  0  0  0  0  0  0  0  0  0
  150.4128  139.1966  154.4084 C   0  0  0  0  0  0  0  0  0  0  0  0
  148.8727  139.2490  154.4871 C   0  0  2  0  0  0  0  0  0  0  0  0
  148.2407  138.7683  153.2379 N   0  3  0  0  0  0  0  0  0  0  0  0
  146.7615  138.7439  153.2366 C   0  0  0  0  0  0  0  0  0  0  0  0
  146.2084  138.2554  151.8865 C   0  0  1  0  0  0  0  0  0  0  0  0
  147.1273  138.5916  150.8646 O   0  0  0  0  0  0  0  0  0  0  0  0
  145.9186  136.7625  151.9203 C   0  0  0  0  0  0  0  0  0  0  0  0
  145.9559  136.0354  153.1304 C   0  0  0  0  0  0  0  0  0  0  0  0
  145.6729  134.6552  153.0968 C   0  0  0  0  0  0  0  0  0  0  0  0
  145.3625  133.9900  151.9637 N   0  0  0  0  0  0  0  0  0  0  0  0
  145.3247  134.6903  150.8104 C   0  0  0  0  0  0  0  0  0  0  0  0
  145.5921  136.0720  150.7344 C   0  0  0  0  0  0  0  0  0  0  0  0
  148.4019  140.6876  154.7828 C   0  0  0  0  0  0  0  0  0  0  0  0
  149.0403  141.2785  156.0578 C   0  0  1  0  0  0  0  0  0  0  0  0
  148.4539  140.6448  157.3357 C   0  0  0  0  0  0  0  0  0  0  0  0
  151.1447  141.2274  158.0799 H   0  0  0  0  0  0  0  0  0  0  0  0
  150.9500  142.8315  157.3729 H   0  0  0  0  0  0  0  0  0  0  0  0
  152.3775  141.8725  157.0077 H   0  0  0  0  0  0  0  0  0  0  0  0
  150.8750  141.8145  155.1032 H   0  0  0  0  0  0  0  0  0  0  0  0
  152.1515  139.7623  155.5545 H   0  0  0  0  0  0  0  0  0  0  0  0
  150.8530  139.1250  156.5262 H   0  0  0  0  0  0  0  0  0  0  0  0
  150.7572  139.7564  153.5373 H   0  0  0  0  0  0  0  0  0  0  0  0
  150.7576  138.1716  154.2731 H   0  0  0  0  0  0  0  0  0  0  0  0
  148.5350  138.6023  155.2980 H   0  0  0  0  0  0  0  0  0  0  0  0
  148.5327  139.3845  152.4928 H   0  0  0  0  0  0  0  0  0  0  0  0
  146.3961  138.1052  154.0412 H   0  0  0  0  0  0  0  0  0  0  0  0
  146.3944  139.7518  153.4352 H   0  0  0  0  0  0  0  0  0  0  0  0
  145.2770  138.7800  151.6686 H   0  0  0  0  0  0  0  0  0  0  0  0
  147.6620  139.3105  151.1673 H   0  0  0  0  0  0  0  0  0  0  0  0
  146.1951  136.5186  154.0663 H   0  0  0  0  0  0  0  0  0  0  0  0
  145.6949  134.0708  154.0047 H   0  0  0  0  0  0  0  0  0  0  0  0
  145.0723  134.1334  149.9201 H   0  0  0  0  0  0  0  0  0  0  0  0
  145.5460  136.5844  149.7847 H   0  0  0  0  0  0  0  0  0  0  0  0
  148.6538  141.3277  153.9357 H   0  0  0  0  0  0  0  0  0  0  0  0
  147.3147  140.7171  154.8658 H   0  0  0  0  0  0  0  0  0  0  0  0
  148.7654  142.3338  156.0885 H   0  0  0  0  0  0  0  0  0  0  0  0
  148.7295  139.5959  157.4412 H   0  0  0  0  0  0  0  0  0  0  0  0
  147.3649  140.6990  157.3314 H   0  0  0  0  0  0  0  0  0  0  0  0
  148.7920  141.1668  158.2307 H   0  0  0  0  0  0  0  0  0  0  0  0
  148.5809  137.8393  153.0328 H   0  0  0  0  0  0  0  0  0  0  0  0
  1  2  1  0  0  0  0
  1 19  1  0  0  0  0
  1 20  1  0  0  0  0
  1 21  1  0  0  0  0
  2 17  1  0  0  0  0
  2  3  1  0  0  0  0
  2 22  1  0  0  0  0
  3  4  1  0  0  0  0
  3 23  1  0  0  0  0
  3 24  1  0  0  0  0
  4  5  1  0  0  0  0
  4 25  1  0  0  0  0
  4 26  1  0  0  0  0
  5  6  1  0  0  0  0
  5 16  1  0  0  0  0
  5 27  1  0  0  0  0
  6  7  1  0  0  0  0
  6 28  1  0  0  0  0
  6 43  1  0  0  0  0
  7  8  1  0  0  0  0
  7 29  1  0  0  0  0
  7 30  1  0  0  0  0
  8  9  1  0  0  0  0
  8 10  1  0  0  0  0
  8 31  1  0  0  0  0
  9 32  1  0  0  0  0
 10 15  1  0  0  0  0
 10 11  2  0  0  0  0
 11 12  1  0  0  0  0
 11 33  1  0  0  0  0
 12 13  2  0  0  0  0
 12 34  1  0  0  0  0
 13 14  1  0  0  0  0
 14 15  2  0  0  0  0
 14 35  1  0  0  0  0
 15 36  1  0  0  0  0
 16 17  1  0  0  0  0
 16 37  1  0  0  0  0
 16 38  1  0  0  0  0
 17 18  1  0  0  0  0
 17 39  1  0  0  0  0
 18 40  1  0  0  0  0
 18 41  1  0  0  0  0
 18 42  1  0  0  0  0
M  CHG  1   6   1
M  END
> <s_m_source_file>
AV-unprocessed.smi

> <i_m_source_file_index>
3287

> <i_lp_mmshare_version>
43012

> <i_f3d_flags>
0

> <s_epik_input>
W0NIM11bQ0BASF0xW0NIMl1bQ0gyXVtDQEhdKFtDSDJdW0NASF0xW0NIM10pW05IXVtDSDJdW0NASF0oW09IXSljMltjSF1bY0hdbltjSF1bY0hdMg==

> <s_epik_cmdline>
J2VwaWtfcHl0aG9uJywgJy1waCcsICc3LjAnLCAnLXRuJywgJzgnLCAnLW1hJywgJzIwMCcsICctbWV0YWxfYmluZGluZycsICctaW1hZScsICc8aW5maWxlLm1hZT4nLCAnLW9tYWUnLCAnPG91dGZpbGUubWFlPic=

> <r_lp_tautomer_probability>
1

> <r_epik_Ionization_Penalty>
0.00537262

> <r_epik_Ionization_Penalty_Charging>
0.00321624

> <r_epik_Ionization_Penalty_Neutral>
0.00215638

> <r_epik_State_Penalty>
-0

> <r_epik_Charging_Adjusted_Penalty>
0.00321624

> <i_epik_Tot_Q>
1

> <i_epik_Tot_abs_Q>
1

> <r_epik_Metal_State_Penalty>
-0

> <b_epik_Metal_Only>
0

> <s_lp_Force_Field>
OPLS_2005

> <r_lp_Energy>
18.2577

> <b_lp_Chiralities_Consistent>
1

> <s_lp_Variant>
AV-unprocessed.smi:3287-8

> <Gold.Version>
5.8.1

> <Gold.Id.Protein>
6NUR|6NUR_protein|mol2

> <Gold.PLP.Fitness>
48.4075

> <Gold.PLP.PLP>
-33.3582

> <Gold.PLP.part.hbond>
-4.6638

> <Gold.PLP.part.metal>
0.0000

> <Gold.PLP.part.buried>
1.2741

> <Gold.PLP.part.nonpolar>
-28.8089

> <Gold.PLP.part.repulsive>
0.1438

> <Gold.PLP.ligand.clash>
0.0000

> <Gold.PLP.ligand.torsion>
0.6442

> <Gold.PLP.Chemscore.Hbond>
4.7529

> <Gold.PLP.Chemscore.CHOScore>
0.6868

> <Gold.PLP.Chemscore.Metal>
0.0000

> <Gold.Chemscore.Hbonds>
donor molecule, donor type, donor heavy atom, donor atom, acceptor molecule, acceptor atom, score
      L1  H     6    28       P1  7957  1.00
      L1  H     6    43       P1  7948  2.00
      L1  H     9    32       P1  7957  0.83
      P1  H  7954  7966       L1     9  0.90
      L1  C    14    35       P1  7921  0.63

> <Gold.PLP.Chemscore.Internal.Correction>
0.0187

> <Gold.Rescore>
     Score         DG    S(hbond)    S(metal)    S(lipo)     H(rot)  DE(clash)    DE(int)     intcor
     19.58     -20.62       2.98        0.00      86.08       1.90       0.37       0.67       ----

> <Gold.Chemscore.Fitness>
19.5802

> <Gold.Chemscore.DG>
-20.6195

> <Gold.Chemscore.ZeroCoef>
-5.4800

> <Gold.Chemscore.Hbond>
2.9763

> <Gold.Chemscore.Metal>
0.0000

> <Gold.Chemscore.Lipo>
86.0806

> <Gold.Chemscore.Internal_Hbond>
0.0000

> <Gold.Chemscore.DEClash>
0.3682

> <Gold.Chemscore.DEInternal>
0.6711

> <Gold.Chemscore.Rot>
1.9035

> <Gold.Chemscore.Internal.Correction>
   9.000000E+99

> <Gold.Chemscore.Hbonds>
donor molecule, donor type, donor heavy atom, donor atom, acceptor molecule, acceptor atom, score
      L1  H     6    28       P1  7957  0.99
      L1  H     6    43       P1  7948  0.94
      L1  H     9    32       P1  7957  0.61
      P1  H  7954  7966       L1     9  0.19

> <Gold.Chemscore.Hbond.Weighted>
-9.9410

> <Gold.Chemscore.Metal.Weighted>
-0.0000

> <Gold.Chemscore.Lipo.Weighted>
-10.0714

> <Gold.Chemscore.Internal_Hbond.Weighted>
0.0000

> <Gold.Chemscore.DEClash.Weighted>
0.3682

> <Gold.Chemscore.DEInternal.Weighted>
0.6711

> <Gold.Chemscore.Rot.Weighted>
4.8729

> <Gold.Chemscore.Internal.Correction.Weighted>
   9.000000E+99

> <Gold.Protein.RotatedTorsions>
[ 6907 6896 6895 6894 ] final  127.38 input  -60.11 | X-H torsion
[ 7974 7965 7964 7962 ] final  160.99 input  175.53 | X-H torsion
[ 8008 7997 7996 7995 ] final  -54.27 input   59.86 | X-H torsion
[ 10167 10162 10161 10158 ] final   -9.15 input  -65.29 | X-H torsion
[ 10718 10713 10712 10709 ] final -143.91 input   66.30 | X-H torsion
[ 10763 10752 10751 10750 ] final   34.69 input  -60.55 | X-H torsion
[ 11005 11000 10999 10996 ] final   -7.23 input  -57.11 | X-H torsion

> <Gold.Protein.ActiveResidues>
 VAL166  LYS551  ARG553  GLY616  TRP617  ASP618  TYR619  PRO620  LYS621  CYS622 
 ASP623  PHE694  ASN695  SER759  ASP760  ASP761  ALA762  ILE779  LEU786  VAL792 
 PHE793  MET794  SER795  GLU796  ALA797  LYS798  CYS799  TRP800  GLU811  SER814 

> <Gold.Protein.RotatedAtoms>
  152.3818  133.6556  159.6166 H   0  0  0  0  0  0  0  0  0  0  0  0  # atno 6907 bound_to 6896
  150.7747  133.9101  159.3376 H   0  0  0  0  0  0  0  0  0  0  0  0  # atno 6908 bound_to 6896
  151.6905  135.0948  160.0284 H   0  0  0  0  0  0  0  0  0  0  0  0  # atno 6909 bound_to 6896
  144.7708  139.7835  143.6297 H   0  0  0  0  0  0  0  0  0  0  0  0  # atno 7974 bound_to 7965
  154.4157  140.1180  156.5288 H   0  0  0  0  0  0  0  0  0  0  0  0  # atno 8008 bound_to 7997
  155.6626  140.3496  155.4769 H   0  0  0  0  0  0  0  0  0  0  0  0  # atno 8009 bound_to 7997
  155.9700  140.1139  157.0810 H   0  0  0  0  0  0  0  0  0  0  0  0  # atno 8010 bound_to 7997
  140.7079  143.5890  150.8914 H   0  0  0  0  0  0  0  0  0  0  0  0  # atno 10167 bound_to 10162
  156.3636  130.7751  151.1922 H   0  0  0  0  0  0  0  0  0  0  0  0  # atno 10718 bound_to 10713
  153.0153  135.6353  154.1708 H   0  0  0  0  0  0  0  0  0  0  0  0  # atno 10763 bound_to 10752
  154.1447  135.2832  155.3153 H   0  0  0  0  0  0  0  0  0  0  0  0  # atno 10764 bound_to 10752
  154.6098  135.5560  153.7522 H   0  0  0  0  0  0  0  0  0  0  0  0  # atno 10765 bound_to 10752
  140.7105  133.8913  155.8747 H   0  0  0  0  0  0  0  0  0  0  0  0  # atno 11005 bound_to 11000
  146.1853  139.5066  142.9840 LP  0  0  0  0  0  0  0  0  0  0  0  0  # atno 17320 bound_to 7965
  145.6329  141.0300  143.1853 LP  0  0  0  0  0  0  0  0  0  0  0  0  # atno 17321 bound_to 7965
  139.9615  143.6158  152.3001 LP  0  0  0  0  0  0  0  0  0  0  0  0  # atno 17342 bound_to 10162
  139.6713  144.7660  151.1779 LP  0  0  0  0  0  0  0  0  0  0  0  0  # atno 17343 bound_to 10162
  157.7476  131.0393  150.4542 LP  0  0  0  0  0  0  0  0  0  0  0  0  # atno 17370 bound_to 10713
  156.4757  130.4062  149.6491 LP  0  0  0  0  0  0  0  0  0  0  0  0  # atno 17371 bound_to 10713
  141.0088  134.1049  157.4242 LP  0  0  0  0  0  0  0  0  0  0  0  0  # atno 17394 bound_to 11000
  139.8873  135.0088  156.6551 LP  0  0  0  0  0  0  0  0  0  0  0  0  # atno 17395 bound_to 11000

$$$$
