AV-unprocessed.smi:155|AV-procd|sdf|1273|dock8
  -GOLD-   2262018533D 1   1.00000     0.00000
 Structure written by MMmdl.
 63 66  0  0  0  0  0  0  0  0  2 V2000
  152.8148  142.7683  159.0912 C   0  0  0  0  0  0  0  0  0  0  0  0
  151.8636  143.5000  158.2615 N   0  0  0  0  0  0  0  0  0  0  0  0
  150.7697  143.9482  159.1122 C   0  0  0  0  0  0  0  0  0  0  0  0
  151.3331  142.6576  157.1889 C   0  0  0  0  0  0  0  0  0  0  0  0
  150.8990  141.2711  157.7093 C   0  0  0  0  0  0  0  0  0  0  0  0
  150.7810  140.2779  156.6099 N   0  3  2  0  0  0  0  0  0  0  0  0
  152.0797  139.9871  155.9342 C   0  0  0  0  0  0  0  0  0  0  0  0
  151.9586  139.1080  154.6713 C   0  0  0  0  0  0  0  0  0  0  0  0
  151.1574  137.8089  154.8806 C   0  0  0  0  0  0  0  0  0  0  0  0
  149.7976  138.0520  155.3747 N   0  0  0  0  0  0  0  0  0  0  0  0
  149.2917  137.2384  156.3430 C   0  0  0  0  0  0  0  0  0  0  0  0
  149.8657  136.0176  156.5119 N   0  0  0  0  0  0  0  0  0  0  0  0
  149.4231  135.1781  157.4512 C   0  0  0  0  0  0  0  0  0  0  0  0
  148.4331  135.3548  158.3256 N   0  0  0  0  0  0  0  0  0  0  0  0
  147.8482  136.5758  158.1678 C   0  0  0  0  0  0  0  0  0  0  0  0
  148.2059  137.5691  157.2103 C   0  0  0  0  0  0  0  0  0  0  0  0
  147.3833  138.6796  157.3703 N   0  0  0  0  0  0  0  0  0  0  0  0
  146.5798  138.3555  158.3450 C   0  0  0  0  0  0  0  0  0  0  0  0
  146.7888  137.1074  158.8819 N   0  0  0  0  0  0  0  0  0  0  0  0
  146.0448  136.4883  159.9664 C   0  0  0  0  0  0  0  0  0  0  0  0
  146.9095  136.1291  161.1960 C   0  0  1  0  0  0  0  0  0  0  0  0
  147.3628  137.2998  161.8488 O   0  0  0  0  0  0  0  0  0  0  0  0
  146.2465  135.1676  162.2097 C   0  0  1  0  0  0  0  0  0  0  0  0
  144.8414  135.5575  162.6885 C   0  0  0  0  0  0  0  0  0  0  0  0
  144.1401  134.2219  162.9051 C   0  0  0  0  0  0  0  0  0  0  0  0
  145.2108  133.1770  162.5945 C   0  0  0  0  0  0  0  0  0  0  0  0
  146.0896  133.8480  161.7082 O   0  0  0  0  0  0  0  0  0  0  0  0
  149.1034  139.2823  154.9856 C   0  0  0  0  0  0  0  0  0  0  0  0
  149.6541  140.5583  155.6765 C   0  0  0  0  0  0  0  0  0  0  0  0
  153.6853  142.4513  158.5186 H   0  0  0  0  0  0  0  0  0  0  0  0
  152.3582  141.8831  159.5361 H   0  0  0  0  0  0  0  0  0  0  0  0
  153.1777  143.4033  159.9003 H   0  0  0  0  0  0  0  0  0  0  0  0
  150.0476  144.5281  158.5363 H   0  0  0  0  0  0  0  0  0  0  0  0
  151.1433  144.5906  159.9107 H   0  0  0  0  0  0  0  0  0  0  0  0
  150.2473  143.1052  159.5671 H   0  0  0  0  0  0  0  0  0  0  0  0
  150.4914  143.1612  156.7106 H   0  0  0  0  0  0  0  0  0  0  0  0
  152.0845  142.5328  156.4093 H   0  0  0  0  0  0  0  0  0  0  0  0
  151.6060  140.9304  158.4648 H   0  0  0  0  0  0  0  0  0  0  0  0
  149.9408  141.3502  158.2240 H   0  0  0  0  0  0  0  0  0  0  0  0
  152.5651  140.9247  155.6603 H   0  0  0  0  0  0  0  0  0  0  0  0
  152.7416  139.4876  156.6411 H   0  0  0  0  0  0  0  0  0  0  0  0
  151.5285  139.6856  153.8526 H   0  0  0  0  0  0  0  0  0  0  0  0
  152.9612  138.8475  154.3308 H   0  0  0  0  0  0  0  0  0  0  0  0
  151.0946  137.2552  153.9436 H   0  0  0  0  0  0  0  0  0  0  0  0
  151.7139  137.1819  155.5785 H   0  0  0  0  0  0  0  0  0  0  0  0
  149.9371  134.2301  157.5120 H   0  0  0  0  0  0  0  0  0  0  0  0
  145.8079  139.0218  158.7014 H   0  0  0  0  0  0  0  0  0  0  0  0
  145.2462  137.1672  160.2675 H   0  0  0  0  0  0  0  0  0  0  0  0
  145.5524  135.5963  159.5770 H   0  0  0  0  0  0  0  0  0  0  0  0
  147.8060  135.6340  160.8212 H   0  0  0  0  0  0  0  0  0  0  0  0
  147.0569  137.2824  162.7425 H   0  0  0  0  0  0  0  0  0  0  0  0
  146.8954  135.0966  163.0850 H   0  0  0  0  0  0  0  0  0  0  0  0
  144.8855  136.1540  163.6004 H   0  0  0  0  0  0  0  0  0  0  0  0
  144.2996  136.1383  161.9417 H   0  0  0  0  0  0  0  0  0  0  0  0
  143.7438  134.1127  163.9149 H   0  0  0  0  0  0  0  0  0  0  0  0
  143.3082  134.1250  162.2067 H   0  0  0  0  0  0  0  0  0  0  0  0
  145.7542  132.8961  163.4980 H   0  0  0  0  0  0  0  0  0  0  0  0
  144.8008  132.2723  162.1456 H   0  0  0  0  0  0  0  0  0  0  0  0
  149.2006  139.3920  153.9050 H   0  0  0  0  0  0  0  0  0  0  0  0
  148.0307  139.1862  155.1549 H   0  0  0  0  0  0  0  0  0  0  0  0
  148.8250  141.0115  156.2202 H   0  0  0  0  0  0  0  0  0  0  0  0
  149.9605  141.3001  154.9378 H   0  0  0  0  0  0  0  0  0  0  0  0
  150.5084  139.4201  157.0694 H   0  0  0  0  0  0  0  0  0  0  0  0
  1  2  1  0  0  0  0
  1 30  1  0  0  0  0
  1 31  1  0  0  0  0
  1 32  1  0  0  0  0
  2  3  1  0  0  0  0
  2  4  1  0  0  0  0
  3 33  1  0  0  0  0
  3 34  1  0  0  0  0
  3 35  1  0  0  0  0
  4  5  1  0  0  0  0
  4 36  1  0  0  0  0
  4 37  1  0  0  0  0
  5  6  1  0  0  0  0
  5 38  1  0  0  0  0
  5 39  1  0  0  0  0
  6 29  1  0  0  0  0
  6  7  1  0  0  0  0
  6 63  1  0  0  0  0
  7  8  1  0  0  0  0
  7 40  1  0  0  0  0
  7 41  1  0  0  0  0
  8  9  1  0  0  0  0
  8 42  1  0  0  0  0
  8 43  1  0  0  0  0
  9 10  1  0  0  0  0
  9 44  1  0  0  0  0
  9 45  1  0  0  0  0
 10 11  1  0  0  0  0
 10 28  1  0  0  0  0
 11 16  1  0  0  0  0
 11 12  2  0  0  0  0
 12 13  1  0  0  0  0
 13 14  2  0  0  0  0
 13 46  1  0  0  0  0
 14 15  1  0  0  0  0
 15 19  1  0  0  0  0
 15 16  2  0  0  0  0
 16 17  1  0  0  0  0
 17 18  2  0  0  0  0
 18 19  1  0  0  0  0
 18 47  1  0  0  0  0
 19 20  1  0  0  0  0
 20 21  1  0  0  0  0
 20 48  1  0  0  0  0
 20 49  1  0  0  0  0
 21 22  1  0  0  0  0
 21 23  1  0  0  0  0
 21 50  1  0  0  0  0
 22 51  1  0  0  0  0
 23 27  1  0  0  0  0
 23 24  1  0  0  0  0
 23 52  1  0  0  0  0
 24 25  1  0  0  0  0
 24 53  1  0  0  0  0
 24 54  1  0  0  0  0
 25 26  1  0  0  0  0
 25 55  1  0  0  0  0
 25 56  1  0  0  0  0
 26 27  1  0  0  0  0
 26 57  1  0  0  0  0
 26 58  1  0  0  0  0
 28 29  1  0  0  0  0
 28 59  1  0  0  0  0
 28 60  1  0  0  0  0
 29 61  1  0  0  0  0
 29 62  1  0  0  0  0
M  CHG  1   6   1
M  END
> <s_m_source_file>
AV-unprocessed.smi

> <i_m_source_file_index>
155

> <i_lp_mmshare_version>
43012

> <i_f3d_flags>
0

> <s_epik_input>
W0NIM11OKFtDSDNdKVtDSDJdW0NIMl1OMVtDSDJdW0NIMl1bQ0gyXU4oW0NIMl1bQ0gyXTEpYyhuW2NIXW4yKWMoYzIzKW5bY0hdbjNbQ0gyXVtDQEhdKFtPSF0pW0NAQEhdNFtDSDJdW0NIMl1bQ0gyXU80

> <s_epik_cmdline>
J2VwaWtfcHl0aG9uJywgJy1waCcsICc3LjAnLCAnLXRuJywgJzgnLCAnLW1hJywgJzIwMCcsICctbWV0YWxfYmluZGluZycsICctaW1hZScsICc8aW5maWxlLm1hZT4nLCAnLW9tYWUnLCAnPG91dGZpbGUubWFlPic=

> <r_epik_Ionization_Penalty>
0.0619615

> <r_epik_Ionization_Penalty_Charging>
0.0161638

> <r_epik_Ionization_Penalty_Neutral>
0.0457976

> <r_epik_State_Penalty>
0.403408

> <r_epik_Charging_Adjusted_Penalty>
0.419572

> <i_epik_Tot_Q>
1

> <i_epik_Tot_abs_Q>
1

> <r_epik_Metal_State_Penalty>
0.404222

> <b_epik_Metal_Only>
0

> <s_lp_Force_Field>
OPLS_2005

> <r_lp_Energy>
55.0815

> <b_lp_Chiralities_Consistent>
1

> <s_lp_Variant>
AV-unprocessed.smi:155-7

> <Gold.Version>
5.8.1

> <Gold.Id.Protein>
6NUR|6NUR_protein|mol2

> <Gold.PLP.Fitness>
43.5197

> <Gold.PLP.PLP>
-39.2610

> <Gold.PLP.part.hbond>
-2.0000

> <Gold.PLP.part.metal>
0.0000

> <Gold.PLP.part.buried>
-5.6320

> <Gold.PLP.part.nonpolar>
-31.8992

> <Gold.PLP.part.repulsive>
0.1440

> <Gold.PLP.ligand.clash>
0.0000

> <Gold.PLP.ligand.torsion>
0.5290

> <Gold.PLP.Chemscore.Hbond>
1.7120

> <Gold.PLP.Chemscore.CHOScore>
0.0000

> <Gold.PLP.Chemscore.Metal>
0.0000

> <Gold.Chemscore.Hbonds>
donor molecule, donor type, donor heavy atom, donor atom, acceptor molecule, acceptor atom, score
      P1  H  6931  6943       L1    22  0.85
      P1  H  6934  6947       L1    22  0.75

> <Gold.PLP.Chemscore.Internal.Correction>
0.1807

> <Gold.Rescore>
     Score         DG    S(hbond)    S(metal)    S(lipo)     H(rot)  DE(clash)    DE(int)     intcor
     13.94     -15.62       1.26        0.00     108.22       2.63       0.16       1.52       ----

> <Gold.Chemscore.Fitness>
13.9446

> <Gold.Chemscore.DG>
-15.6200

> <Gold.Chemscore.ZeroCoef>
-5.4800

> <Gold.Chemscore.Hbond>
1.2627

> <Gold.Chemscore.Metal>
0.0000

> <Gold.Chemscore.Lipo>
108.2187

> <Gold.Chemscore.Internal_Hbond>
0.0000

> <Gold.Chemscore.DEClash>
0.1580

> <Gold.Chemscore.DEInternal>
1.5174

> <Gold.Chemscore.Rot>
2.6324

> <Gold.Chemscore.Internal.Correction>
   9.000000E+99

> <Gold.Chemscore.Hbonds>
donor molecule, donor type, donor heavy atom, donor atom, acceptor molecule, acceptor atom, score
      P1  H  6931  6943       L1    22  0.41
      P1  H  6934  6947       L1    22  0.66

> <Gold.Chemscore.Hbond.Weighted>
-4.2173

> <Gold.Chemscore.Metal.Weighted>
-0.0000

> <Gold.Chemscore.Lipo.Weighted>
-12.6616

> <Gold.Chemscore.Internal_Hbond.Weighted>
0.0000

> <Gold.Chemscore.DEClash.Weighted>
0.1580

> <Gold.Chemscore.DEInternal.Weighted>
1.5174

> <Gold.Chemscore.Rot.Weighted>
6.7389

> <Gold.Chemscore.Internal.Correction.Weighted>
   9.000000E+99

> <Gold.Protein.RotatedTorsions>
[ 6907 6896 6895 6894 ] final   63.35 input  -60.11 | X-H torsion
[ 7974 7965 7964 7962 ] final   66.34 input  175.53 | X-H torsion
[ 8008 7997 7996 7995 ] final -105.27 input   59.86 | X-H torsion
[ 10167 10162 10161 10158 ] final -156.50 input  -65.29 | X-H torsion
[ 10718 10713 10712 10709 ] final   76.65 input   66.30 | X-H torsion
[ 10763 10752 10751 10750 ] final  -10.26 input  -60.55 | X-H torsion
[ 11005 11000 10999 10996 ] final  149.01 input  -57.11 | X-H torsion

> <Gold.Protein.ActiveResidues>
 VAL166  LYS551  ARG553  GLY616  TRP617  ASP618  TYR619  PRO620  LYS621  CYS622 
 ASP623  PHE694  ASN695  SER759  ASP760  ASP761  ALA762  ILE779  LEU786  VAL792 
 PHE793  MET794  SER795  GLU796  ALA797  LYS798  CYS799  TRP800  GLU811  SER814 

> <Gold.Protein.RotatedAtoms>
  152.4246  134.5892  159.9969 H   0  0  0  0  0  0  0  0  0  0  0  0  # atno 6907 bound_to 6896
  151.6032  133.3348  159.3060 H   0  0  0  0  0  0  0  0  0  0  0  0  # atno 6908 bound_to 6896
  150.8135  134.7341  159.6774 H   0  0  0  0  0  0  0  0  0  0  0  0  # atno 6909 bound_to 6896
  145.8278  139.3121  143.1005 H   0  0  0  0  0  0  0  0  0  0  0  0  # atno 7974 bound_to 7965
  154.8975  140.0414  157.1874 H   0  0  0  0  0  0  0  0  0  0  0  0  # atno 8008 bound_to 7997
  154.8478  140.2924  155.5597 H   0  0  0  0  0  0  0  0  0  0  0  0  # atno 8009 bound_to 7997
  156.2995  140.2470  156.3432 H   0  0  0  0  0  0  0  0  0  0  0  0  # atno 8010 bound_to 7997
  139.6845  143.9524  152.2354 H   0  0  0  0  0  0  0  0  0  0  0  0  # atno 10167 bound_to 10162
  157.6681  130.9784  150.1527 H   0  0  0  0  0  0  0  0  0  0  0  0  # atno 10718 bound_to 10713
  153.4666  135.7016  153.6018 H   0  0  0  0  0  0  0  0  0  0  0  0  # atno 10763 bound_to 10752
  153.4290  135.3807  155.2159 H   0  0  0  0  0  0  0  0  0  0  0  0  # atno 10764 bound_to 10752
  154.8726  135.3946  154.4099 H   0  0  0  0  0  0  0  0  0  0  0  0  # atno 10765 bound_to 10752
  140.1008  134.8984  157.1793 H   0  0  0  0  0  0  0  0  0  0  0  0  # atno 11005 bound_to 11000
  145.9605  140.8839  143.0213 LP  0  0  0  0  0  0  0  0  0  0  0  0  # atno 17320 bound_to 7965
  144.6742  140.1805  143.7406 LP  0  0  0  0  0  0  0  0  0  0  0  0  # atno 17321 bound_to 7965
  139.9323  144.6733  150.8350 LP  0  0  0  0  0  0  0  0  0  0  0  0  # atno 17342 bound_to 10162
  140.7663  143.3300  151.2431 LP  0  0  0  0  0  0  0  0  0  0  0  0  # atno 17343 bound_to 10162
  156.2322  130.3683  149.8431 LP  0  0  0  0  0  0  0  0  0  0  0  0  # atno 17370 bound_to 10713
  156.6255  130.8644  151.3484 LP  0  0  0  0  0  0  0  0  0  0  0  0  # atno 17371 bound_to 10713
  140.3223  134.2903  155.7244 LP  0  0  0  0  0  0  0  0  0  0  0  0  # atno 17394 bound_to 11000
  141.2105  133.7717  156.9928 LP  0  0  0  0  0  0  0  0  0  0  0  0  # atno 17395 bound_to 11000

$$$$
