AV-unprocessed.smi:2902|AV-procd|sdf|11152|dock4
  -GOLD-   2272016 33D 1   1.00000     0.00000
 Structure written by MMmdl.
 47 48  0  0  0  0  0  0  0  0  1 V2000
  147.4804  138.9677  157.1769 C   0  0  0  0  0  0  0  0  0  0  0  0
  147.0435  137.5689  157.6307 C   0  0  0  0  0  0  0  0  0  0  0  0
  147.7913  137.0914  158.8896 C   0  0  1  0  0  0  0  0  0  0  0  0
  147.1484  135.9055  159.3566 O   0  0  0  0  0  0  0  0  0  0  0  0
  146.9221  135.8126  160.7610 C   0  0  0  0  0  0  0  0  0  0  0  0
  148.1436  136.3165  161.5260 C   0  0  0  0  0  0  0  0  0  0  0  0
  148.0138  135.6880  162.9166 C   0  0  0  0  0  0  0  0  0  0  0  0
  147.1817  134.4092  162.7309 C   0  0  0  0  0  0  0  0  0  0  0  0
  146.7743  134.3700  161.2530 C   0  0  0  0  0  0  0  0  0  0  0  0
  149.2706  136.8027  158.5893 C   0  0  0  0  0  0  0  0  0  0  0  0
  149.6952  135.6473  158.6158 O   0  0  0  0  0  0  0  0  0  0  0  0
  150.0392  137.8711  158.3238 N   0  0  0  0  0  0  0  0  0  0  0  0
  151.4758  137.8542  158.0536 C   0  0  2  0  0  0  0  0  0  0  0  0
  152.0203  139.2853  158.2117 C   0  0  0  0  0  0  0  0  0  0  0  0
  151.7511  137.2371  156.6572 C   0  0  2  0  0  0  0  0  0  0  0  0
  153.2517  137.0127  156.3855 C   0  0  0  0  0  0  0  0  0  0  0  0
  151.1549  138.0247  155.5866 N   0  0  0  0  0  0  0  0  0  0  0  0
  151.3420  139.3018  155.2474 C   0  0  0  0  0  0  0  0  0  0  0  0
  150.6280  139.6896  154.1998 N   0  0  0  0  0  0  0  0  0  0  0  0
  149.9757  138.5216  153.9233 C   0  0  0  0  0  0  0  0  0  0  0  0
  150.2546  137.4930  154.7237 N   0  0  0  0  0  0  0  0  0  0  0  0
  146.9396  139.2711  156.2805 H   0  0  0  0  0  0  0  0  0  0  0  0
  148.5458  138.9926  156.9471 H   0  0  0  0  0  0  0  0  0  0  0  0
  147.2864  139.7125  157.9492 H   0  0  0  0  0  0  0  0  0  0  0  0
  145.9678  137.5698  157.8120 H   0  0  0  0  0  0  0  0  0  0  0  0
  147.2160  136.8686  156.8120 H   0  0  0  0  0  0  0  0  0  0  0  0
  147.7242  137.8770  159.6439 H   0  0  0  0  0  0  0  0  0  0  0  0
  146.0584  136.4014  161.0727 H   0  0  0  0  0  0  0  0  0  0  0  0
  149.0541  135.9527  161.0476 H   0  0  0  0  0  0  0  0  0  0  0  0
  148.1985  137.4050  161.5586 H   0  0  0  0  0  0  0  0  0  0  0  0
  148.9896  135.4837  163.3579 H   0  0  0  0  0  0  0  0  0  0  0  0
  147.4894  136.3718  163.5851 H   0  0  0  0  0  0  0  0  0  0  0  0
  147.7446  133.5168  163.0065 H   0  0  0  0  0  0  0  0  0  0  0  0
  146.2976  134.4463  163.3682 H   0  0  0  0  0  0  0  0  0  0  0  0
  145.7676  133.9768  161.1097 H   0  0  0  0  0  0  0  0  0  0  0  0
  147.4628  133.7249  160.7050 H   0  0  0  0  0  0  0  0  0  0  0  0
  149.5939  138.7771  158.3297 H   0  0  0  0  0  0  0  0  0  0  0  0
  151.9831  137.2365  158.7968 H   0  0  0  0  0  0  0  0  0  0  0  0
  153.1057  139.3179  158.1157 H   0  0  0  0  0  0  0  0  0  0  0  0
  151.7736  139.6898  159.1941 H   0  0  0  0  0  0  0  0  0  0  0  0
  151.5985  139.9548  157.4614 H   0  0  0  0  0  0  0  0  0  0  0  0
  151.2681  136.2588  156.6261 H   0  0  0  0  0  0  0  0  0  0  0  0
  153.6867  136.3068  157.0930 H   0  0  0  0  0  0  0  0  0  0  0  0
  153.8138  137.9440  156.4607 H   0  0  0  0  0  0  0  0  0  0  0  0
  153.4119  136.6073  155.3861 H   0  0  0  0  0  0  0  0  0  0  0  0
  152.0161  139.9606  155.7748 H   0  0  0  0  0  0  0  0  0  0  0  0
  149.2744  138.4263  153.1073 H   0  0  0  0  0  0  0  0  0  0  0  0
  1  2  1  0  0  0  0
  1 22  1  0  0  0  0
  1 23  1  0  0  0  0
  1 24  1  0  0  0  0
  2  3  1  0  0  0  0
  2 25  1  0  0  0  0
  2 26  1  0  0  0  0
  3  4  1  0  0  0  0
  3 10  1  0  0  0  0
  3 27  1  0  0  0  0
  4  5  1  0  0  0  0
  5  9  1  0  0  0  0
  5  6  1  0  0  0  0
  5 28  1  0  0  0  0
  6  7  1  0  0  0  0
  6 29  1  0  0  0  0
  6 30  1  0  0  0  0
  7  8  1  0  0  0  0
  7 31  1  0  0  0  0
  7 32  1  0  0  0  0
  8  9  1  0  0  0  0
  8 33  1  0  0  0  0
  8 34  1  0  0  0  0
  9 35  1  0  0  0  0
  9 36  1  0  0  0  0
 10 11  2  0  0  0  0
 10 12  1  0  0  0  0
 12 13  1  0  0  0  0
 12 37  1  0  0  0  0
 13 14  1  0  0  0  0
 13 15  1  0  0  0  0
 13 38  1  0  0  0  0
 14 39  1  0  0  0  0
 14 40  1  0  0  0  0
 14 41  1  0  0  0  0
 15 16  1  0  0  0  0
 15 17  1  0  0  0  0
 15 42  1  0  0  0  0
 16 43  1  0  0  0  0
 16 44  1  0  0  0  0
 16 45  1  0  0  0  0
 17 21  1  0  0  0  0
 17 18  1  0  0  0  0
 18 19  2  0  0  0  0
 18 46  1  0  0  0  0
 19 20  1  0  0  0  0
 20 21  2  0  0  0  0
 20 47  1  0  0  0  0
M  END
> <s_m_source_file>
AV-unprocessed.smi

> <i_m_source_file_index>
2902

> <i_lp_mmshare_version>
43012

> <i_f3d_flags>
0

> <s_epik_input>
W0NIMl0xW0NIMl1bQ0gyXVtDSDJdW0NIXTFPW0NAQEhdKFtDSDJdW0NIM10pQyg9TylbTkhdW0NASF0oW0NIM10pW0NASF0oW0NIM10pbjJbY0hdbltjSF1uMg==

> <s_epik_cmdline>
J2VwaWtfcHl0aG9uJywgJy1waCcsICc3LjAnLCAnLXRuJywgJzgnLCAnLW1hJywgJzIwMCcsICctbWV0YWxfYmluZGluZycsICctaW1hZScsICc8aW5maWxlLm1hZT4nLCAnLW9tYWUnLCAnPG91dGZpbGUubWFlPic=

> <r_lp_tautomer_probability>
1

> <r_epik_Ionization_Penalty>
6.95617e-05

> <r_epik_Ionization_Penalty_Charging>
0

> <r_epik_Ionization_Penalty_Neutral>
6.95617e-05

> <r_epik_State_Penalty>
-0

> <r_epik_Charging_Adjusted_Penalty>
0

> <i_epik_Tot_Q>
0

> <i_epik_Tot_abs_Q>
0

> <r_epik_Metal_State_Penalty>
-0

> <b_epik_Metal_Only>
0

> <s_lp_Force_Field>
OPLS_2005

> <r_lp_Energy>
28.6706

> <b_lp_Chiralities_Consistent>
1

> <s_lp_Variant>
AV-unprocessed.smi:2902-2

> <Gold.Version>
5.8.1

> <Gold.Id.Protein>
6NUR|6NUR_protein|mol2

> <Gold.PLP.Fitness>
39.8059

> <Gold.PLP.PLP>
-30.7172

> <Gold.PLP.part.hbond>
-2.0000

> <Gold.PLP.part.metal>
0.0000

> <Gold.PLP.part.buried>
-4.6885

> <Gold.PLP.part.nonpolar>
-24.5690

> <Gold.PLP.part.repulsive>
0.4370

> <Gold.PLP.ligand.clash>
0.0000

> <Gold.PLP.ligand.torsion>
1.2748

> <Gold.PLP.Chemscore.Hbond>
2.0000

> <Gold.PLP.Chemscore.CHOScore>
1.7990

> <Gold.PLP.Chemscore.Metal>
0.0000

> <Gold.Chemscore.Hbonds>
donor molecule, donor type, donor heavy atom, donor atom, acceptor molecule, acceptor atom, score
      P1  H  6896  6908       L1    11  1.00
      P1  H  7989  7998       L1    19  1.00
      L1  C    20    47       P1  7948  0.83
      L1  C    20    47       P1  7957  0.72

> <Gold.PLP.Chemscore.Internal.Correction>
0.2413

> <Gold.Rescore>
     Score         DG    S(hbond)    S(metal)    S(lipo)     H(rot)  DE(clash)    DE(int)     intcor
     11.11     -12.35       1.99        0.00      60.87       2.69       0.00       1.24       ----

> <Gold.Chemscore.Fitness>
11.1129

> <Gold.Chemscore.DG>
-12.3530

> <Gold.Chemscore.ZeroCoef>
-5.4800

> <Gold.Chemscore.Hbond>
1.9899

> <Gold.Chemscore.Metal>
0.0000

> <Gold.Chemscore.Lipo>
60.8719

> <Gold.Chemscore.Internal_Hbond>
0.0000

> <Gold.Chemscore.DEClash>
0.0000

> <Gold.Chemscore.DEInternal>
1.2401

> <Gold.Chemscore.Rot>
2.6935

> <Gold.Chemscore.Internal.Correction>
   9.000000E+99

> <Gold.Chemscore.Hbonds>
donor molecule, donor type, donor heavy atom, donor atom, acceptor molecule, acceptor atom, score
      P1  H  6896  6908       L1    11  1.00
      P1  H  7989  7998       L1    19  0.40

> <Gold.Chemscore.Hbond.Weighted>
-6.6464

> <Gold.Chemscore.Metal.Weighted>
-0.0000

> <Gold.Chemscore.Lipo.Weighted>
-7.1220

> <Gold.Chemscore.Internal_Hbond.Weighted>
0.0000

> <Gold.Chemscore.DEClash.Weighted>
0.0000

> <Gold.Chemscore.DEInternal.Weighted>
1.2401

> <Gold.Chemscore.Rot.Weighted>
6.8954

> <Gold.Chemscore.Internal.Correction.Weighted>
   9.000000E+99

> <Gold.Protein.RotatedTorsions>
[ 6907 6896 6895 6894 ] final  167.52 input  -60.11 | X-H torsion
[ 7974 7965 7964 7962 ] final -108.11 input  175.53 | X-H torsion
[ 8008 7997 7996 7995 ] final  122.52 input   59.86 | X-H torsion
[ 10167 10162 10161 10158 ] final -130.72 input  -65.29 | X-H torsion
[ 10718 10713 10712 10709 ] final  153.99 input   66.30 | X-H torsion
[ 10763 10752 10751 10750 ] final  142.23 input  -60.55 | X-H torsion
[ 11005 11000 10999 10996 ] final -110.33 input  -57.11 | X-H torsion

> <Gold.Protein.ActiveResidues>
 VAL166  LYS551  ARG553  GLY616  TRP617  ASP618  TYR619  PRO620  LYS621  CYS622 
 ASP623  PHE694  ASN695  SER759  ASP760  ASP761  ALA762  ILE779  LEU786  VAL792 
 PHE793  MET794  SER795  GLU796  ALA797  LYS798  CYS799  TRP800  GLU811  SER814 

> <Gold.Protein.RotatedAtoms>
  151.8620  133.3459  159.3706 H   0  0  0  0  0  0  0  0  0  0  0  0  # atno 6907 bound_to 6896
  150.7176  134.5197  159.5657 H   0  0  0  0  0  0  0  0  0  0  0  0  # atno 6908 bound_to 6896
  152.2712  134.7931  160.0465 H   0  0  0  0  0  0  0  0  0  0  0  0  # atno 6909 bound_to 6896
  145.1969  140.9039  143.3392 H   0  0  0  0  0  0  0  0  0  0  0  0  # atno 7974 bound_to 7965
  156.2730  140.2784  156.1480 H   0  0  0  0  0  0  0  0  0  0  0  0  # atno 8008 bound_to 7997
  155.0883  140.0388  157.2678 H   0  0  0  0  0  0  0  0  0  0  0  0  # atno 8009 bound_to 7997
  154.6909  140.2629  155.6819 H   0  0  0  0  0  0  0  0  0  0  0  0  # atno 8010 bound_to 7997
  139.9264  143.6323  152.2541 H   0  0  0  0  0  0  0  0  0  0  0  0  # atno 10167 bound_to 10162
  157.2376  131.0752  151.1813 H   0  0  0  0  0  0  0  0  0  0  0  0  # atno 10718 bound_to 10713
  153.9523  135.2968  155.3438 H   0  0  0  0  0  0  0  0  0  0  0  0  # atno 10763 bound_to 10752
  154.7420  135.5020  153.9141 H   0  0  0  0  0  0  0  0  0  0  0  0  # atno 10764 bound_to 10752
  153.0988  135.6728  153.9821 H   0  0  0  0  0  0  0  0  0  0  0  0  # atno 10765 bound_to 10752
  141.0798  133.9240  157.2314 H   0  0  0  0  0  0  0  0  0  0  0  0  # atno 11005 bound_to 11000
  144.9986  139.3620  143.6179 LP  0  0  0  0  0  0  0  0  0  0  0  0  # atno 17320 bound_to 7965
  146.3425  139.9199  142.8768 LP  0  0  0  0  0  0  0  0  0  0  0  0  # atno 17321 bound_to 7965
  139.6819  144.7655  151.1594 LP  0  0  0  0  0  0  0  0  0  0  0  0  # atno 17342 bound_to 10162
  140.7649  143.5713  150.8993 LP  0  0  0  0  0  0  0  0  0  0  0  0  # atno 17343 bound_to 10162
  157.3413  130.7035  149.6383 LP  0  0  0  0  0  0  0  0  0  0  0  0  # atno 17370 bound_to 10713
  155.9672  130.4279  150.4764 LP  0  0  0  0  0  0  0  0  0  0  0  0  # atno 17371 bound_to 10713
  139.9611  135.0154  156.9263 LP  0  0  0  0  0  0  0  0  0  0  0  0  # atno 17394 bound_to 11000
  140.5494  134.0642  155.7365 LP  0  0  0  0  0  0  0  0  0  0  0  0  # atno 17395 bound_to 11000

$$$$
