#       Name:                AV-unprocessed.smi:2471
#       Creating user name   scv26
#       Creation time:       Fri Mar 27 13:38:03 2020


#       File generated by GOLD software.
#

@<TRIPOS>MOLECULE
AV-unprocessed.smi:2471
    45    46     1
SMALL
NO_CHARGES


@<TRIPOS>ATOM
      1 ****        -3.5487   4.5822   0.3816 C.3            1 S1                 0.0000
      2 ****        -3.8236   3.1441   0.7686 C.ar           1 S1                 0.0000
      3 ****        -5.1380   2.6958   1.0059 C.ar           1 S1                 0.0000
      4 ****        -5.3250   1.3466   1.3558 C.ar           1 S1                 0.0000
      5 ****        -4.1984   0.5075   1.4538 C.ar           1 S1                 0.0000
      6 ****        -2.9128   1.0372   1.2020 C.ar           1 S1                 0.0000
      7 ****        -1.8454   0.1095   1.3299 N.am           1 S1                 0.0000
      8 ****        -0.5276   0.3306   1.1797 C.2            1 S1                 0.0000
      9 ****        -0.0129   1.4137   0.8999 O.2            1 S1                 0.0000
     10 ****         0.1761  -0.7938   1.3745 N.am           1 S1                 0.0000
     11 ****         1.6291  -0.9027   1.2871 C.3            1 S1                 0.0000
     12 ****         2.1399  -0.9618  -0.1712 C.3            1 S1                 0.0000
     13 ****         1.5412  -2.1364  -0.9787 C.3            1 S1                 0.0000
     14 ****         2.0376  -2.1323  -2.4336 C.3            1 S1                 0.0000
     15 ****         3.5716  -2.1535  -2.5051 C.3            1 S1                 0.0000
     16 ****         4.1840  -0.9918  -1.7034 C.3            1 S1                 0.0000
     17 ****         3.6865  -0.9675  -0.2450 C.3            1 S1                 0.0000
     18 ****         4.2268  -2.0773   0.4479 O.3            1 S1                 0.0000
     19 ****        -2.7430   2.3396   0.8634 N.ar           1 S1                 0.0000
     20 ****        -4.4498   5.1911   0.4581 H              1 S1                 0.0000
     21 ****        -3.1884   4.6341  -0.6461 H              1 S1                 0.0000
     22 ****        -2.7902   5.0153   1.0344 H              1 S1                 0.0000
     23 ****        -5.9817   3.3651   0.9222 H              1 S1                 0.0000
     24 ****        -6.3153   0.9602   1.5462 H              1 S1                 0.0000
     25 ****        -4.3249  -0.5315   1.7216 H              1 S1                 0.0000
     26 ****        -2.1172  -0.8330   1.5671 H              1 S1                 0.0000
     27 ****        -0.3286  -1.6384   1.6005 H              1 S1                 0.0000
     28 ****         2.0887  -0.0656   1.8153 H              1 S1                 0.0000
     29 ****         1.9240  -1.8030   1.8264 H              1 S1                 0.0000
     30 ****         1.8130  -0.0429  -0.6605 H              1 S1                 0.0000
     31 ****         1.7993  -3.0841  -0.5044 H              1 S1                 0.0000
     32 ****         0.4524  -2.0813  -0.9790 H              1 S1                 0.0000
     33 ****         1.6292  -2.9912  -2.9670 H              1 S1                 0.0000
     34 ****         1.6613  -1.2449  -2.9442 H              1 S1                 0.0000
     35 ****         3.9425  -3.1043  -2.1206 H              1 S1                 0.0000
     36 ****         3.8952  -2.0966  -3.5447 H              1 S1                 0.0000
     37 ****         5.2728  -1.0496  -1.7312 H              1 S1                 0.0000
     38 ****         3.9184  -0.0501  -2.1856 H              1 S1                 0.0000
     39 ****         4.0712  -0.0700   0.2409 H              1 S1                 0.0000
     40 ****         3.9105  -2.8678   0.0378 H              1 S1                 0.0000
     41 ****        -0.5880   2.2206   0.7650 LP             1 S1                 0.0000
     42 ****         0.9802   1.4864   0.8075 LP             1 S1                 0.0000
     43 ****         3.9353  -2.0530   1.4041 LP             1 S1                 0.0000
     44 ****         5.2254  -2.0499   0.4031 LP             1 S1                 0.0000
     45 ****        -1.8274   2.7003   0.6858 LP             1 S1                 0.0000
@<TRIPOS>BOND
    1    1    2 1     
    2    1   20 1     
    3    1   21 1     
    4    1   22 1     
    5    2   19 ar    
    6    2    3 ar    
    7    3    4 ar    
    8    3   23 1     
    9    4    5 ar    
   10    4   24 1     
   11    5    6 ar    
   12    5   25 1     
   13    6    7 1     
   14    6   19 ar    
   15    7    8 am    
   16    7   26 1     
   17    8    9 2     
   18    8   10 am    
   19   10   11 1     
   20   10   27 1     
   21   11   12 1     
   22   11   28 1     
   23   11   29 1     
   24   12   17 1     
   25   12   13 1     
   26   12   30 1     
   27   13   14 1     
   28   13   31 1     
   29   13   32 1     
   30   14   15 1     
   31   14   33 1     
   32   14   34 1     
   33   15   16 1     
   34   15   35 1     
   35   15   36 1     
   36   16   17 1     
   37   16   37 1     
   38   16   38 1     
   39   17   18 1     
   40   17   39 1     
   41   18   40 1     
   42    9   41 1     
   43    9   42 1     
   44   18   43 1     
   45   18   44 1     
   46   19   45 1     
@<TRIPOS>SUBSTRUCTURE
      1 S1             1
@<TRIPOS>SET
LONE_PAIRS      STATIC     ATOMS    <user>   **** ""
5 41 42 43 44 45
DONOR_HYDROGENS      STATIC     ATOMS    <user>   **** ""
3 26 27 40
ATOM$BLUE        STATIC     ATOMS    COLORGROUP SYSTEM
5 41 42 43 44 45
ATOM$RED        STATIC     ATOMS    COLORGROUP SYSTEM
3 26 27 40
