AV-unprocessed.smi:1882|AV-procd|sdf|7641|dock2
  -GOLD-   22720 9373D 1   1.00000     0.00000
 Structure written by MMmdl.
 25 26  0  0  0  0  0  0  0  0  1 V2000
  153.2573  142.4585  160.8186 C   0  0  0  0  0  0  0  0  0  0  0  0
  152.5326  142.8323  159.5712 C   0  0  0  0  0  0  0  0  0  0  0  0
  151.9073  141.9501  158.7878 N   0  0  0  0  0  0  0  0  0  0  0  0
  151.3036  142.5471  157.6760 C   0  0  0  0  0  0  0  0  0  0  0  0
  150.5531  141.7014  156.6883 C   0  0  0  0  0  0  0  0  0  0  0  0
  151.3611  140.4499  156.3413 C   0  0  0  0  0  0  0  0  0  0  0  0
  152.3671  140.1672  156.9922 O   0  0  0  0  0  0  0  0  0  0  0  0
  150.9089  139.7133  155.3150 N   0  0  0  0  0  0  0  0  0  0  0  0
  151.5126  138.5177  154.8226 C   0  0  0  0  0  0  0  0  0  0  0  0
  150.6579  137.2695  154.7727 C   0  0  0  0  0  0  0  0  0  0  0  0
  151.7440  137.3905  155.8057 C   0  0  0  0  0  0  0  0  0  0  0  0
  151.4769  143.9092  157.6355 C   0  0  0  0  0  0  0  0  0  0  0  0
  152.4147  144.4867  158.9854 S   0  0  0  0  0  0  0  0  0  0  0  0
  153.2158  141.3806  160.9790 H   0  0  0  0  0  0  0  0  0  0  0  0
  152.8049  142.9572  161.6757 H   0  0  0  0  0  0  0  0  0  0  0  0
  154.3020  142.7610  160.7473 H   0  0  0  0  0  0  0  0  0  0  0  0
  149.5860  141.3969  157.0913 H   0  0  0  0  0  0  0  0  0  0  0  0
  150.3404  142.2688  155.7812 H   0  0  0  0  0  0  0  0  0  0  0  0
  150.0732  140.0262  154.8429 H   0  0  0  0  0  0  0  0  0  0  0  0
  152.2527  138.6206  154.0300 H   0  0  0  0  0  0  0  0  0  0  0  0
  149.6278  137.3422  155.1166 H   0  0  0  0  0  0  0  0  0  0  0  0
  150.8247  136.5800  153.9476 H   0  0  0  0  0  0  0  0  0  0  0  0
  152.6369  136.7833  155.6702 H   0  0  0  0  0  0  0  0  0  0  0  0
  151.4384  137.5438  156.8390 H   0  0  0  0  0  0  0  0  0  0  0  0
  151.1148  144.6050  156.8934 H   0  0  0  0  0  0  0  0  0  0  0  0
  1  2  1  0  0  0  0
  1 14  1  0  0  0  0
  1 15  1  0  0  0  0
  1 16  1  0  0  0  0
  2 13  1  0  0  0  0
  2  3  2  0  0  0  0
  3  4  1  0  0  0  0
  4  5  1  0  0  0  0
  4 12  2  0  0  0  0
  5  6  1  0  0  0  0
  5 17  1  0  0  0  0
  5 18  1  0  0  0  0
  6  7  2  0  0  0  0
  6  8  1  0  0  0  0
  8  9  1  0  0  0  0
  8 19  1  0  0  0  0
  9 11  1  0  0  0  0
  9 10  1  0  0  0  0
  9 20  1  0  0  0  0
 10 11  1  0  0  0  0
 10 21  1  0  0  0  0
 10 22  1  0  0  0  0
 11 23  1  0  0  0  0
 11 24  1  0  0  0  0
 12 13  1  0  0  0  0
 12 25  1  0  0  0  0
M  END
> <s_m_source_file>
AV-unprocessed.smi

> <i_m_source_file_index>
1882

> <i_lp_mmshare_version>
43012

> <i_f3d_flags>
0

> <s_epik_input>
W0NIM11jMW5jKFtjSF1zMSlbQ0gyXUMoPU8pW05IXVtDSF0yW0NIMl1bQ0gyXTI=

> <s_epik_cmdline>
J2VwaWtfcHl0aG9uJywgJy1waCcsICc3LjAnLCAnLXRuJywgJzgnLCAnLW1hJywgJzIwMCcsICctbWV0YWxfYmluZGluZycsICctaW1hZScsICc8aW5maWxlLm1hZT4nLCAnLW9tYWUnLCAnPG91dGZpbGUubWFlPic=

> <r_lp_tautomer_probability>
1

> <r_epik_Ionization_Penalty>
5.52242e-05

> <r_epik_Ionization_Penalty_Charging>
0

> <r_epik_Ionization_Penalty_Neutral>
5.52242e-05

> <r_epik_State_Penalty>
-0

> <r_epik_Charging_Adjusted_Penalty>
0

> <i_epik_Tot_Q>
0

> <i_epik_Tot_abs_Q>
0

> <r_epik_Metal_State_Penalty>
-0

> <b_epik_Metal_Only>
0

> <s_lp_Force_Field>
OPLS_2005

> <r_lp_Energy>
14.0294

> <b_lp_Chiralities_Consistent>
1

> <s_lp_Variant>
AV-unprocessed.smi:1882-1

> <Gold.Version>
5.8.1

> <Gold.Id.Protein>
6NUR|6NUR_protein|mol2

> <Gold.PLP.Fitness>
37.6012

> <Gold.PLP.PLP>
-32.1617

> <Gold.PLP.part.hbond>
-1.0000

> <Gold.PLP.part.metal>
0.0000

> <Gold.PLP.part.buried>
-3.4882

> <Gold.PLP.part.nonpolar>
-29.8195

> <Gold.PLP.part.repulsive>
0.4506

> <Gold.PLP.ligand.clash>
0.0000

> <Gold.PLP.ligand.torsion>
0.2969

> <Gold.PLP.Chemscore.Hbond>
1.0000

> <Gold.PLP.Chemscore.CHOScore>
0.9993

> <Gold.PLP.Chemscore.Metal>
0.0000

> <Gold.Chemscore.Hbonds>
donor molecule, donor type, donor heavy atom, donor atom, acceptor molecule, acceptor atom, score
      P1  H  7997  8010       L1     7  0.99
      L1  C    12    25       P1  8028  1.00

> <Gold.PLP.Chemscore.Internal.Correction>
0.0355

> <Gold.Rescore>
     Score         DG    S(hbond)    S(metal)    S(lipo)     H(rot)  DE(clash)    DE(int)     intcor
     13.62     -15.28       0.98        0.00      85.49       1.36       0.02       1.64       ----

> <Gold.Chemscore.Fitness>
13.6211

> <Gold.Chemscore.DG>
-15.2801

> <Gold.Chemscore.ZeroCoef>
-5.4800

> <Gold.Chemscore.Hbond>
0.9795

> <Gold.Chemscore.Metal>
0.0000

> <Gold.Chemscore.Lipo>
85.4910

> <Gold.Chemscore.Internal_Hbond>
0.0000

> <Gold.Chemscore.DEClash>
0.0240

> <Gold.Chemscore.DEInternal>
1.6350

> <Gold.Chemscore.Rot>
1.3570

> <Gold.Chemscore.Internal.Correction>
   9.000000E+99

> <Gold.Chemscore.Hbonds>
donor molecule, donor type, donor heavy atom, donor atom, acceptor molecule, acceptor atom, score
      P1  H  7997  8010       L1     7  0.90

> <Gold.Chemscore.Hbond.Weighted>
-3.2717

> <Gold.Chemscore.Metal.Weighted>
-0.0000

> <Gold.Chemscore.Lipo.Weighted>
-10.0024

> <Gold.Chemscore.Internal_Hbond.Weighted>
0.0000

> <Gold.Chemscore.DEClash.Weighted>
0.0240

> <Gold.Chemscore.DEInternal.Weighted>
1.6350

> <Gold.Chemscore.Rot.Weighted>
3.4740

> <Gold.Chemscore.Internal.Correction.Weighted>
   9.000000E+99

> <Gold.Protein.RotatedTorsions>
[ 6907 6896 6895 6894 ] final -113.55 input  -60.11 | X-H torsion
[ 7974 7965 7964 7962 ] final  104.12 input  175.53 | X-H torsion
[ 8008 7997 7996 7995 ] final   62.30 input   59.86 | X-H torsion
[ 10167 10162 10161 10158 ] final  -92.70 input  -65.29 | X-H torsion
[ 10718 10713 10712 10709 ] final   88.70 input   66.30 | X-H torsion
[ 10763 10752 10751 10750 ] final   42.59 input  -60.55 | X-H torsion
[ 11005 11000 10999 10996 ] final  -17.57 input  -57.11 | X-H torsion

> <Gold.Protein.ActiveResidues>
 VAL166  LYS551  ARG553  GLY616  TRP617  ASP618  TYR619  PRO620  LYS621  CYS622 
 ASP623  PHE694  ASN695  SER759  ASP760  ASP761  ALA762  ILE779  LEU786  VAL792 
 PHE793  MET794  SER795  GLU796  ALA797  LYS798  CYS799  TRP800  GLU811  SER814 

> <Gold.Protein.RotatedAtoms>
  150.7837  133.8929  159.3318 H   0  0  0  0  0  0  0  0  0  0  0  0  # atno 6907 bound_to 6896
  151.6785  135.0963  160.0221 H   0  0  0  0  0  0  0  0  0  0  0  0  # atno 6908 bound_to 6896
  152.3895  133.6620  159.6261 H   0  0  0  0  0  0  0  0  0  0  0  0  # atno 6909 bound_to 6896
  145.3369  139.2472  143.3630 H   0  0  0  0  0  0  0  0  0  0  0  0  # atno 7974 bound_to 7965
  155.6122  140.3495  155.4626 H   0  0  0  0  0  0  0  0  0  0  0  0  # atno 8008 bound_to 7997
  156.0145  140.1240  157.0444 H   0  0  0  0  0  0  0  0  0  0  0  0  # atno 8009 bound_to 7997
  154.4293  140.1075  156.5863 H   0  0  0  0  0  0  0  0  0  0  0  0  # atno 8010 bound_to 7997
  140.3321  143.2989  151.9930 H   0  0  0  0  0  0  0  0  0  0  0  0  # atno 10167 bound_to 10162
  157.6951  131.0305  150.3314 H   0  0  0  0  0  0  0  0  0  0  0  0  # atno 10718 bound_to 10713
  152.9879  135.6127  154.2974 H   0  0  0  0  0  0  0  0  0  0  0  0  # atno 10763 bound_to 10752
  154.2697  135.2780  155.2745 H   0  0  0  0  0  0  0  0  0  0  0  0  # atno 10764 bound_to 10752
  154.5133  135.5835  153.6679 H   0  0  0  0  0  0  0  0  0  0  0  0  # atno 10765 bound_to 10752
  140.8182  133.8089  155.9632 H   0  0  0  0  0  0  0  0  0  0  0  0  # atno 11005 bound_to 11000
  146.3023  140.3958  142.8699 LP  0  0  0  0  0  0  0  0  0  0  0  0  # atno 17320 bound_to 7965
  144.8820  140.7413  143.5980 LP  0  0  0  0  0  0  0  0  0  0  0  0  # atno 17321 bound_to 7965
  139.4854  144.6226  151.7226 LP  0  0  0  0  0  0  0  0  0  0  0  0  # atno 17342 bound_to 10162
  140.5387  144.0614  150.6080 LP  0  0  0  0  0  0  0  0  0  0  0  0  # atno 17343 bound_to 10162
  156.3787  130.3876  149.7118 LP  0  0  0  0  0  0  0  0  0  0  0  0  # atno 17370 bound_to 10713
  156.4508  130.7906  151.2927 LP  0  0  0  0  0  0  0  0  0  0  0  0  # atno 17371 bound_to 10713
  140.9127  134.2240  157.4976 LP  0  0  0  0  0  0  0  0  0  0  0  0  # atno 17394 bound_to 11000
  139.8710  134.9757  156.4894 LP  0  0  0  0  0  0  0  0  0  0  0  0  # atno 17395 bound_to 11000

$$$$
