AV-unprocessed.smi:55|AV-procd|sdf|574|dock10
  -GOLD-   2262016473D 1   1.00000     0.00000
 Structure written by MMmdl.
 30 31  0  0  0  0  0  0  0  0  2 V2000
  152.3902  144.7628  158.0817 C   0  0  0  0  0  0  0  0  0  0  0  0
  152.0197  143.3122  158.3357 C   0  0  0  0  0  0  0  0  0  0  0  0
  151.1373  142.6461  157.5580 C   0  0  0  0  0  0  0  0  0  0  0  0
  150.8019  141.3249  157.7962 N   0  0  0  0  0  0  0  0  0  0  0  0
  149.7943  140.6166  156.9232 C   0  0  1  0  0  0  0  0  0  0  0  0
  149.3653  141.4971  155.7566 C   0  0  0  0  0  0  0  0  0  0  0  0
  149.0366  140.4667  154.6827 C   0  0  1  0  0  0  0  0  0  0  0  0
  149.5744  140.8754  153.4383 O   0  0  0  0  0  0  0  0  0  0  0  0
  149.6037  139.1294  155.2206 C   0  0  1  0  0  0  0  0  0  0  0  0
  150.4645  138.3103  154.2403 C   0  0  0  0  0  0  0  0  0  0  0  0
  149.7635  138.1046  153.0321 O   0  0  0  0  0  0  0  0  0  0  0  0
  150.3881  139.5013  156.3477 O   0  0  0  0  0  0  0  0  0  0  0  0
  151.3670  140.6447  158.9055 C   0  0  0  0  0  0  0  0  0  0  0  0
  151.0138  139.4841  159.1161 O   0  0  0  0  0  0  0  0  0  0  0  0
  152.2654  141.3055  159.6903 N   0  5  0  0  0  0  0  0  0  0  0  0
  152.6292  142.6012  159.4665 C   0  0  0  0  0  0  0  0  0  0  0  0
  153.4438  143.1845  160.1817 O   0  0  0  0  0  0  0  0  0  0  0  0
  148.9706  140.2915  157.5616 H   0  0  0  0  0  0  0  0  0  0  0  0
  147.9556  140.3788  154.5682 H   0  0  0  0  0  0  0  0  0  0  0  0
  148.7648  138.5266  155.5740 H   0  0  0  0  0  0  0  0  0  0  0  0
  151.8607  145.1620  157.2163 H   0  0  0  0  0  0  0  0  0  0  0  0
  153.4603  144.8557  157.8953 H   0  0  0  0  0  0  0  0  0  0  0  0
  152.1357  145.3770  158.9460 H   0  0  0  0  0  0  0  0  0  0  0  0
  150.6774  143.1669  156.7313 H   0  0  0  0  0  0  0  0  0  0  0  0
  148.5241  142.1325  156.0351 H   0  0  0  0  0  0  0  0  0  0  0  0
  150.2047  142.1276  155.4572 H   0  0  0  0  0  0  0  0  0  0  0  0
  149.3539  140.2267  152.7877 H   0  0  0  0  0  0  0  0  0  0  0  0
  151.3760  138.8515  153.9856 H   0  0  0  0  0  0  0  0  0  0  0  0
  150.7599  137.3553  154.6764 H   0  0  0  0  0  0  0  0  0  0  0  0
  149.7543  138.9164  152.5484 H   0  0  0  0  0  0  0  0  0  0  0  0
  1  2  1  0  0  0  0
  1 21  1  0  0  0  0
  1 22  1  0  0  0  0
  1 23  1  0  0  0  0
  2 16  1  0  0  0  0
  2  3  2  0  0  0  0
  3  4  1  0  0  0  0
  3 24  1  0  0  0  0
  4  5  1  0  0  0  0
  4 13  1  0  0  0  0
  5 18  1  0  0  0  0
  5 12  1  0  0  0  0
  5  6  1  0  0  0  0
  6  7  1  0  0  0  0
  6 25  1  0  0  0  0
  6 26  1  0  0  0  0
  7 19  1  0  0  0  0
  7  8  1  0  0  0  0
  7  9  1  0  0  0  0
  8 27  1  0  0  0  0
  9 20  1  0  0  0  0
  9 10  1  0  0  0  0
  9 12  1  0  0  0  0
 10 11  1  0  0  0  0
 10 28  1  0  0  0  0
 10 29  1  0  0  0  0
 11 30  1  0  0  0  0
 13 14  2  0  0  0  0
 13 15  1  0  0  0  0
 15 16  1  0  0  0  0
 16 17  2  0  0  0  0
M  CHG  1  15  -1
M  END
> <s_m_source_file>
AV-unprocessed.smi

> <i_m_source_file_index>
55

> <i_lp_mmshare_version>
43012

> <i_f3d_flags>
0

> <s_epik_input>
Tz1jMVtuSF1jKD1PKW4oW2NIXWMxW0NIM10pW0NAQEhdMltDSDJdW0NAQEhdKFtPSF0pW0NAQEhdKE8yKVtDSDJdW09IXQ==

> <s_epik_cmdline>
J2VwaWtfcHl0aG9uJywgJy1waCcsICc3LjAnLCAnLXRuJywgJzgnLCAnLW1hJywgJzIwMCcsICctbWV0YWxfYmluZGluZycsICctaW1hZScsICc8aW5maWxlLm1hZT4nLCAnLW9tYWUnLCAnPG91dGZpbGUubWFlPic=

> <r_lp_tautomer_probability>
0.999537

> <r_epik_Ionization_Penalty>
3.66603

> <r_epik_Ionization_Penalty_Charging>
1.09773e-07

> <r_epik_Ionization_Penalty_Neutral>
3.66603

> <r_epik_State_Penalty>
3.66562

> <r_epik_Charging_Adjusted_Penalty>
3.66562

> <i_epik_Tot_Q>
-1

> <i_epik_Tot_abs_Q>
1

> <r_epik_Metal_State_Penalty>
0.234536

> <b_epik_Metal_Only>
1

> <s_epik_Chemistry_Notes>
This compound contains an acetal/aminal-like group ( X-CH(R)-Y where X, Y are N, S, or O) that may be acid/base labile, releasing an aldehyde.

> <s_lp_Force_Field>
OPLS_2005

> <r_lp_Energy>
40.7451

> <b_lp_Chiralities_Consistent>
1

> <s_lp_Variant>
AV-unprocessed.smi:55-14

> <Gold.Version>
5.8.1

> <Gold.Id.Protein>
6NUR|6NUR_protein|mol2

> <Gold.PLP.Fitness>
42.3658

> <Gold.PLP.PLP>
-30.6039

> <Gold.PLP.part.hbond>
-5.3078

> <Gold.PLP.part.metal>
0.0000

> <Gold.PLP.part.buried>
-1.6335

> <Gold.PLP.part.nonpolar>
-24.6015

> <Gold.PLP.part.repulsive>
0.0000

> <Gold.PLP.ligand.clash>
0.0000

> <Gold.PLP.ligand.torsion>
0.0516

> <Gold.PLP.Chemscore.Hbond>
3.0213

> <Gold.PLP.Chemscore.CHOScore>
0.9256

> <Gold.PLP.Chemscore.Metal>
0.0000

> <Gold.Chemscore.Hbonds>
donor molecule, donor type, donor heavy atom, donor atom, acceptor molecule, acceptor atom, score
      L1  H     8    27       P1  7957  0.70
      L1  H    11    30       P1  7957  1.00
      P1  H  7989  7998       L1     8  0.29
      P1  H  8011  8017       L1     8  1.00
      L1  C     3    24       P1  8028  0.84

> <Gold.PLP.Chemscore.Internal.Correction>
0.0242

> <Gold.Rescore>
     Score         DG    S(hbond)    S(metal)    S(lipo)     H(rot)  DE(clash)    DE(int)     intcor
     10.66     -12.11       1.90        0.00      61.19       2.69       0.13       1.32       ----

> <Gold.Chemscore.Fitness>
10.6625

> <Gold.Chemscore.DG>
-12.1116

> <Gold.Chemscore.ZeroCoef>
-5.4800

> <Gold.Chemscore.Hbond>
1.9015

> <Gold.Chemscore.Metal>
0.0000

> <Gold.Chemscore.Lipo>
61.1929

> <Gold.Chemscore.Internal_Hbond>
0.0000

> <Gold.Chemscore.DEClash>
0.1275

> <Gold.Chemscore.DEInternal>
1.3216

> <Gold.Chemscore.Rot>
2.6871

> <Gold.Chemscore.Internal.Correction>
   9.000000E+99

> <Gold.Chemscore.Hbonds>
donor molecule, donor type, donor heavy atom, donor atom, acceptor molecule, acceptor atom, score
      L1  H     8    27       P1  7957  0.72
      L1  H    11    30       P1  7957  0.74
      P1  H  7989  7998       L1     8  0.10
      P1  H  8011  8017       L1     8  0.25

> <Gold.Chemscore.Hbond.Weighted>
-6.3510

> <Gold.Chemscore.Metal.Weighted>
-0.0000

> <Gold.Chemscore.Lipo.Weighted>
-7.1596

> <Gold.Chemscore.Internal_Hbond.Weighted>
0.0000

> <Gold.Chemscore.DEClash.Weighted>
0.1275

> <Gold.Chemscore.DEInternal.Weighted>
1.3216

> <Gold.Chemscore.Rot.Weighted>
6.8791

> <Gold.Chemscore.Internal.Correction.Weighted>
   9.000000E+99

> <Gold.Protein.RotatedTorsions>
[ 6907 6896 6895 6894 ] final  163.52 input  -60.11 | X-H torsion
[ 7974 7965 7964 7962 ] final    1.08 input  175.53 | X-H torsion
[ 8008 7997 7996 7995 ] final -111.33 input   59.86 | X-H torsion
[ 10167 10162 10161 10158 ] final   36.81 input  -65.29 | X-H torsion
[ 10718 10713 10712 10709 ] final -175.31 input   66.30 | X-H torsion
[ 10763 10752 10751 10750 ] final  -71.62 input  -60.55 | X-H torsion
[ 11005 11000 10999 10996 ] final  102.76 input  -57.11 | X-H torsion

> <Gold.Protein.ActiveResidues>
 VAL166  LYS551  ARG553  GLY616  TRP617  ASP618  TYR619  PRO620  LYS621  CYS622 
 ASP623  PHE694  ASN695  SER759  ASP760  ASP761  ALA762  ILE779  LEU786  VAL792 
 PHE793  MET794  SER795  GLU796  ALA797  LYS798  CYS799  TRP800  GLU811  SER814 

> <Gold.Protein.RotatedAtoms>
  151.9240  133.3593  159.3906 H   0  0  0  0  0  0  0  0  0  0  0  0  # atno 6907 bound_to 6896
  150.7031  134.4606  159.5388 H   0  0  0  0  0  0  0  0  0  0  0  0  # atno 6908 bound_to 6896
  152.2235  134.8391  160.0534 H   0  0  0  0  0  0  0  0  0  0  0  0  # atno 6909 bound_to 6896
  146.2438  140.1041  142.8346 H   0  0  0  0  0  0  0  0  0  0  0  0  # atno 7974 bound_to 7965
  154.9881  140.0395  157.2307 H   0  0  0  0  0  0  0  0  0  0  0  0  # atno 8008 bound_to 7997
  154.7653  140.2792  155.6159 H   0  0  0  0  0  0  0  0  0  0  0  0  # atno 8009 bound_to 7997
  156.2911  140.2620  156.2442 H   0  0  0  0  0  0  0  0  0  0  0  0  # atno 8010 bound_to 7997
  140.4092  144.1616  150.6138 H   0  0  0  0  0  0  0  0  0  0  0  0  # atno 10167 bound_to 10162
  156.7980  130.9542  151.3119 H   0  0  0  0  0  0  0  0  0  0  0  0  # atno 10718 bound_to 10713
  154.4342  135.5956  153.6088 H   0  0  0  0  0  0  0  0  0  0  0  0  # atno 10763 bound_to 10752
  152.9801  135.5982  154.3801 H   0  0  0  0  0  0  0  0  0  0  0  0  # atno 10764 bound_to 10752
  154.3643  135.2841  155.2281 H   0  0  0  0  0  0  0  0  0  0  0  0  # atno 10765 bound_to 10752
  139.8779  134.9237  156.5107 H   0  0  0  0  0  0  0  0  0  0  0  0  # atno 11005 bound_to 11000
  145.0543  140.9041  143.4976 LP  0  0  0  0  0  0  0  0  0  0  0  0  # atno 17320 bound_to 7965
  145.1144  139.2735  143.5621 LP  0  0  0  0  0  0  0  0  0  0  0  0  # atno 17321 bound_to 7965
  140.4656  143.2432  151.9160 LP  0  0  0  0  0  0  0  0  0  0  0  0  # atno 17342 bound_to 10162
  139.4783  144.5423  151.8510 LP  0  0  0  0  0  0  0  0  0  0  0  0  # atno 17343 bound_to 10162
  157.6568  130.8931  149.9745 LP  0  0  0  0  0  0  0  0  0  0  0  0  # atno 17370 bound_to 10713
  156.1118  130.3649  150.0036 LP  0  0  0  0  0  0  0  0  0  0  0  0  # atno 17371 bound_to 10713
  140.8522  133.8123  155.9180 LP  0  0  0  0  0  0  0  0  0  0  0  0  # atno 17394 bound_to 11000
  140.9133  134.2234  157.4972 LP  0  0  0  0  0  0  0  0  0  0  0  0  # atno 17395 bound_to 11000

$$$$
