AV-unprocessed.smi:1258|AV-procd|sdf|5289|dock8
  -GOLD-   22720 4413D 1   1.00000     0.00000
 Structure written by MMmdl.
 33 34  0  0  0  0  0  0  0  0  1 V2000
  151.9356  145.3035  159.1731 C   0  0  0  0  0  0  0  0  0  0  0  0
  151.8774  143.7842  159.3856 C   0  0  2  0  0  0  0  0  0  0  0  0
  153.1116  143.2753  160.1546 C   0  0  0  0  0  0  0  0  0  0  0  0
  153.0538  141.7547  160.3674 C   0  0  0  0  0  0  0  0  0  0  0  0
  152.9020  141.0114  159.0316 C   0  0  0  0  0  0  0  0  0  0  0  0
  151.6680  141.5044  158.2542 C   0  0  2  0  0  0  0  0  0  0  0  0
  151.5891  140.8092  156.9726 N   0  0  0  0  0  0  0  0  0  0  0  0
  150.5510  140.8603  156.1241 C   0  0  0  0  0  0  0  0  0  0  0  0
  149.5389  141.5296  156.3380 O   0  0  0  0  0  0  0  0  0  0  0  0
  150.6954  140.0224  154.8477 C   0  0  0  0  0  0  0  0  0  0  0  0
  151.0893  138.6499  155.1158 N   0  0  0  0  0  0  0  0  0  0  0  0
  150.8501  137.5214  154.4446 C   0  0  0  0  0  0  0  0  0  0  0  0
  151.3944  136.4725  155.0421 N   0  0  0  0  0  0  0  0  0  0  0  0
  152.0039  137.0259  156.1556 N   0  0  0  0  0  0  0  0  0  0  0  0
  151.8267  138.3177  156.2045 N   0  0  0  0  0  0  0  0  0  0  0  0
  151.7269  143.0328  158.0480 C   0  0  0  0  0  0  0  0  0  0  0  0
  152.8019  145.5878  158.5750 H   0  0  0  0  0  0  0  0  0  0  0  0
  152.0005  145.8308  160.1252 H   0  0  0  0  0  0  0  0  0  0  0  0
  151.0436  145.6619  158.6588 H   0  0  0  0  0  0  0  0  0  0  0  0
  150.9942  143.5720  159.9901 H   0  0  0  0  0  0  0  0  0  0  0  0
  154.0200  143.5310  159.6072 H   0  0  0  0  0  0  0  0  0  0  0  0
  153.1827  143.7763  161.1208 H   0  0  0  0  0  0  0  0  0  0  0  0
  153.9546  141.4168  160.8804 H   0  0  0  0  0  0  0  0  0  0  0  0
  152.2156  141.5082  161.0204 H   0  0  0  0  0  0  0  0  0  0  0  0
  153.8019  141.1596  158.4326 H   0  0  0  0  0  0  0  0  0  0  0  0
  152.8251  139.9390  159.2157 H   0  0  0  0  0  0  0  0  0  0  0  0
  150.7799  141.2617  158.8413 H   0  0  0  0  0  0  0  0  0  0  0  0
  152.3804  140.2356  156.7187 H   0  0  0  0  0  0  0  0  0  0  0  0
  149.7464  140.0097  154.3102 H   0  0  0  0  0  0  0  0  0  0  0  0
  151.4335  140.4850  154.1906 H   0  0  0  0  0  0  0  0  0  0  0  0
  150.2813  137.4690  153.5279 H   0  0  0  0  0  0  0  0  0  0  0  0
  150.8247  143.3741  157.5390 H   0  0  0  0  0  0  0  0  0  0  0  0
  152.5627  143.2833  157.3927 H   0  0  0  0  0  0  0  0  0  0  0  0
  1  2  1  0  0  0  0
  1 17  1  0  0  0  0
  1 18  1  0  0  0  0
  1 19  1  0  0  0  0
  2 16  1  0  0  0  0
  2  3  1  0  0  0  0
  2 20  1  0  0  0  0
  3  4  1  0  0  0  0
  3 21  1  0  0  0  0
  3 22  1  0  0  0  0
  4  5  1  0  0  0  0
  4 23  1  0  0  0  0
  4 24  1  0  0  0  0
  5  6  1  0  0  0  0
  5 25  1  0  0  0  0
  5 26  1  0  0  0  0
  6  7  1  0  0  0  0
  6 16  1  0  0  0  0
  6 27  1  0  0  0  0
  7  8  1  0  0  0  0
  7 28  1  0  0  0  0
  8  9  2  0  0  0  0
  8 10  1  0  0  0  0
 10 11  1  0  0  0  0
 10 29  1  0  0  0  0
 10 30  1  0  0  0  0
 11 15  1  0  0  0  0
 11 12  1  0  0  0  0
 12 13  2  0  0  0  0
 12 31  1  0  0  0  0
 13 14  1  0  0  0  0
 14 15  2  0  0  0  0
 16 32  1  0  0  0  0
 16 33  1  0  0  0  0
M  END
> <s_m_source_file>
AV-unprocessed.smi

> <i_m_source_file_index>
1258

> <i_lp_mmshare_version>
43012

> <i_f3d_flags>
0

> <s_epik_input>
W0NIM11bQ0BASF0xW0NIMl1bQ0gyXVtDSDJdW0NASF0oW0NIMl0xKVtOSF1DKD1PKVtDSDJdbjJbY0hdbm5uMg==

> <s_epik_cmdline>
J2VwaWtfcHl0aG9uJywgJy1waCcsICc3LjAnLCAnLXRuJywgJzgnLCAnLW1hJywgJzIwMCcsICctbWV0YWxfYmluZGluZycsICctaW1hZScsICc8aW5maWxlLm1hZT4nLCAnLW9tYWUnLCAnPG91dGZpbGUubWFlPic=

> <r_lp_tautomer_probability>
1

> <r_epik_Ionization_Penalty>
5.03816e-07

> <r_epik_Ionization_Penalty_Charging>
0

> <r_epik_Ionization_Penalty_Neutral>
5.03816e-07

> <r_epik_State_Penalty>
-0

> <r_epik_Charging_Adjusted_Penalty>
0

> <i_epik_Tot_Q>
0

> <i_epik_Tot_abs_Q>
0

> <r_epik_Metal_State_Penalty>
-0

> <b_epik_Metal_Only>
0

> <s_lp_Force_Field>
OPLS_2005

> <r_lp_Energy>
11.1566

> <b_lp_Chiralities_Consistent>
1

> <s_lp_Variant>
AV-unprocessed.smi:1258-3

> <Gold.Version>
5.8.1

> <Gold.Id.Protein>
6NUR|6NUR_protein|mol2

> <Gold.PLP.Fitness>
39.7951

> <Gold.PLP.PLP>
-34.3562

> <Gold.PLP.part.hbond>
-2.0000

> <Gold.PLP.part.metal>
0.0000

> <Gold.PLP.part.buried>
-1.6173

> <Gold.PLP.part.nonpolar>
-31.3726

> <Gold.PLP.part.repulsive>
0.3278

> <Gold.PLP.ligand.clash>
0.0000

> <Gold.PLP.ligand.torsion>
0.5270

> <Gold.PLP.Chemscore.Hbond>
1.0000

> <Gold.PLP.Chemscore.CHOScore>
1.1628

> <Gold.PLP.Chemscore.Metal>
0.0000

> <Gold.Chemscore.Hbonds>
donor molecule, donor type, donor heavy atom, donor atom, acceptor molecule, acceptor atom, score
      P1  H 10752 10763       L1    13  0.80
      L1  C    12    31       P1  7948  0.91
      L1  C    12    31       P1  7949  0.17

> <Gold.PLP.Chemscore.Internal.Correction>
0.0045

> <Gold.Rescore>
     Score         DG    S(hbond)    S(metal)    S(lipo)     H(rot)  DE(clash)    DE(int)     intcor
      9.67     -12.79       0.87        0.00      79.52       1.92       1.10       2.02       ----

> <Gold.Chemscore.Fitness>
9.6653

> <Gold.Chemscore.DG>
-12.7874

> <Gold.Chemscore.ZeroCoef>
-5.4800

> <Gold.Chemscore.Hbond>
0.8715

> <Gold.Chemscore.Metal>
0.0000

> <Gold.Chemscore.Lipo>
79.5205

> <Gold.Chemscore.Internal_Hbond>
0.0000

> <Gold.Chemscore.DEClash>
1.1031

> <Gold.Chemscore.DEInternal>
2.0191

> <Gold.Chemscore.Rot>
1.9169

> <Gold.Chemscore.Internal.Correction>
   9.000000E+99

> <Gold.Chemscore.Hbonds>
donor molecule, donor type, donor heavy atom, donor atom, acceptor molecule, acceptor atom, score
      P1  H 10752 10763       L1    13  0.12

> <Gold.Chemscore.Hbond.Weighted>
-2.9108

> <Gold.Chemscore.Metal.Weighted>
-0.0000

> <Gold.Chemscore.Lipo.Weighted>
-9.3039

> <Gold.Chemscore.Internal_Hbond.Weighted>
0.0000

> <Gold.Chemscore.DEClash.Weighted>
1.1031

> <Gold.Chemscore.DEInternal.Weighted>
2.0191

> <Gold.Chemscore.Rot.Weighted>
4.9073

> <Gold.Chemscore.Internal.Correction.Weighted>
   9.000000E+99

> <Gold.Protein.RotatedTorsions>
[ 6907 6896 6895 6894 ] final   -3.67 input  -60.11 | X-H torsion
[ 7974 7965 7964 7962 ] final  149.65 input  175.53 | X-H torsion
[ 8008 7997 7996 7995 ] final  -85.02 input   59.86 | X-H torsion
[ 10167 10162 10161 10158 ] final   60.65 input  -65.29 | X-H torsion
[ 10718 10713 10712 10709 ] final    4.04 input   66.30 | X-H torsion
[ 10763 10752 10751 10750 ] final   45.06 input  -60.55 | X-H torsion
[ 11005 11000 10999 10996 ] final   13.47 input  -57.11 | X-H torsion

> <Gold.Protein.ActiveResidues>
 VAL166  LYS551  ARG553  GLY616  TRP617  ASP618  TYR619  PRO620  LYS621  CYS622 
 ASP623  PHE694  ASN695  SER759  ASP760  ASP761  ALA762  ILE779  LEU786  VAL792 
 PHE793  MET794  SER795  GLU796  ALA797  LYS798  CYS799  TRP800  GLU811  SER814 

> <Gold.Protein.RotatedAtoms>
  151.5100  135.1064  159.9851 H   0  0  0  0  0  0  0  0  0  0  0  0  # atno 6907 bound_to 6896
  152.4665  133.7931  159.6923 H   0  0  0  0  0  0  0  0  0  0  0  0  # atno 6908 bound_to 6896
  150.8652  133.7521  159.3004 H   0  0  0  0  0  0  0  0  0  0  0  0  # atno 6909 bound_to 6896
  144.8422  139.6308  143.6011 H   0  0  0  0  0  0  0  0  0  0  0  0  # atno 7974 bound_to 7965
  154.6361  140.0597  156.9790 H   0  0  0  0  0  0  0  0  0  0  0  0  # atno 8008 bound_to 7997
  155.1589  140.3281  155.4397 H   0  0  0  0  0  0  0  0  0  0  0  0  # atno 8009 bound_to 7997
  156.2508  140.1934  156.6697 H   0  0  0  0  0  0  0  0  0  0  0  0  # atno 8010 bound_to 7997
  140.1633  144.4349  150.6698 H   0  0  0  0  0  0  0  0  0  0  0  0  # atno 10167 bound_to 10162
  156.8867  130.5673  149.5651 H   0  0  0  0  0  0  0  0  0  0  0  0  # atno 10718 bound_to 10713
  152.9830  135.6051  154.3376 H   0  0  0  0  0  0  0  0  0  0  0  0  # atno 10763 bound_to 10752
  154.3075  135.2771  155.2584 H   0  0  0  0  0  0  0  0  0  0  0  0  # atno 10764 bound_to 10752
  154.4808  135.5917  153.6444 H   0  0  0  0  0  0  0  0  0  0  0  0  # atno 10765 bound_to 10752
  140.4804  134.0941  155.7750 H   0  0  0  0  0  0  0  0  0  0  0  0  # atno 11005 bound_to 11000
  146.2713  139.6641  142.9294 LP  0  0  0  0  0  0  0  0  0  0  0  0  # atno 17320 bound_to 7965
  145.4670  141.0435  143.2719 LP  0  0  0  0  0  0  0  0  0  0  0  0  # atno 17321 bound_to 7965
  140.6629  143.2258  151.5812 LP  0  0  0  0  0  0  0  0  0  0  0  0  # atno 17342 bound_to 10162
  139.5371  144.2750  152.1274 LP  0  0  0  0  0  0  0  0  0  0  0  0  # atno 17343 bound_to 10162
  156.0649  130.5695  150.9269 LP  0  0  0  0  0  0  0  0  0  0  0  0  # atno 17370 bound_to 10713
  157.6108  131.0936  150.8798 LP  0  0  0  0  0  0  0  0  0  0  0  0  # atno 17371 bound_to 10713
  141.1534  133.8927  157.2040 LP  0  0  0  0  0  0  0  0  0  0  0  0  # atno 17394 bound_to 11000
  139.9830  135.0091  156.9796 LP  0  0  0  0  0  0  0  0  0  0  0  0  # atno 17395 bound_to 11000

$$$$
