AV-unprocessed.smi:1978|AV-procd|sdf|8014|dock7
  -GOLD-   2272010203D 1   1.00000     0.00000
 Structure written by MMmdl.
 44 45  0  0  0  0  0  0  0  0  3 V2000
  146.9726  135.0878  162.4357 C   0  0  0  0  0  0  0  0  0  0  0  0
  147.5242  135.6066  161.1523 C   0  0  0  0  0  0  0  0  0  0  0  0
  147.8802  135.0011  159.9802 C   0  0  0  0  0  0  0  0  0  0  0  0
  148.3302  136.0861  159.1815 C   0  0  0  0  0  0  0  0  0  0  0  0
  148.7960  135.8654  157.8582 N   0  0  0  0  0  0  0  0  0  0  0  0
  149.1330  134.7053  157.2654 C   0  0  0  0  0  0  0  0  0  0  0  0
  149.0376  133.6378  157.8827 O   0  0  0  0  0  0  0  0  0  0  0  0
  149.5584  134.8867  155.9850 N   0  5  0  0  0  0  0  0  0  0  0  0
  148.6729  135.1146  154.8435 C   0  0  0  0  0  0  0  0  0  0  0  0
  148.1512  133.7575  154.2749 C   0  0  2  0  0  0  0  0  0  0  0  0
  149.3504  132.7722  154.1159 C   0  0  0  0  0  0  0  0  0  0  0  0
  147.3616  133.9811  153.0079 N   0  3  2  0  0  0  0  0  0  0  0  0
  146.2014  134.9211  153.1440 C   0  0  0  0  0  0  0  0  0  0  0  0
  145.7249  135.4002  151.7626 C   0  0  0  0  0  0  0  0  0  0  0  0
  145.3494  134.2207  150.8579 C   0  0  0  0  0  0  0  0  0  0  0  0
  146.4996  133.2030  150.8043 C   0  0  0  0  0  0  0  0  0  0  0  0
  146.9698  132.7718  152.2108 C   0  0  2  0  0  0  0  0  0  0  0  0
  145.9191  131.8769  152.9127 C   0  0  0  0  0  0  0  0  0  0  0  0
  148.2534  137.2495  159.8106 N   0  0  0  0  0  0  0  0  0  0  0  0
  147.7370  136.9482  161.0764 O   0  0  0  0  0  0  0  0  0  0  0  0
  146.8277  134.0084  162.3896 H   0  0  0  0  0  0  0  0  0  0  0  0
  146.0100  135.5492  162.6567 H   0  0  0  0  0  0  0  0  0  0  0  0
  147.6503  135.3032  163.2619 H   0  0  0  0  0  0  0  0  0  0  0  0
  147.8271  133.9509  159.7354 H   0  0  0  0  0  0  0  0  0  0  0  0
  148.8929  136.6919  157.2874 H   0  0  0  0  0  0  0  0  0  0  0  0
  147.8283  135.7369  155.1374 H   0  0  0  0  0  0  0  0  0  0  0  0
  149.1668  135.6683  154.0439 H   0  0  0  0  0  0  0  0  0  0  0  0
  147.4610  133.3122  154.9940 H   0  0  0  0  0  0  0  0  0  0  0  0
  149.9010  132.6278  155.0482 H   0  0  0  0  0  0  0  0  0  0  0  0
  150.0703  133.1119  153.3684 H   0  0  0  0  0  0  0  0  0  0  0  0
  149.0379  131.7715  153.8280 H   0  0  0  0  0  0  0  0  0  0  0  0
  145.3874  134.4435  153.6885 H   0  0  0  0  0  0  0  0  0  0  0  0
  146.4538  135.8048  153.7277 H   0  0  0  0  0  0  0  0  0  0  0  0
  144.8711  136.0695  151.8734 H   0  0  0  0  0  0  0  0  0  0  0  0
  146.5154  135.9849  151.2901 H   0  0  0  0  0  0  0  0  0  0  0  0
  144.4404  133.7461  151.2273 H   0  0  0  0  0  0  0  0  0  0  0  0
  145.1186  134.5780  149.8537 H   0  0  0  0  0  0  0  0  0  0  0  0
  146.1983  132.3314  150.2221 H   0  0  0  0  0  0  0  0  0  0  0  0
  147.3398  133.6477  150.2688 H   0  0  0  0  0  0  0  0  0  0  0  0
  147.8575  132.1663  152.0339 H   0  0  0  0  0  0  0  0  0  0  0  0
  145.7924  130.9406  152.3684 H   0  0  0  0  0  0  0  0  0  0  0  0
  144.9376  132.3454  152.9666 H   0  0  0  0  0  0  0  0  0  0  0  0
  146.1980  131.6209  153.9330 H   0  0  0  0  0  0  0  0  0  0  0  0
  148.0205  134.4625  152.4125 H   0  0  0  0  0  0  0  0  0  0  0  0
  1  2  1  0  0  0  0
  1 21  1  0  0  0  0
  1 22  1  0  0  0  0
  1 23  1  0  0  0  0
  2 20  1  0  0  0  0
  2  3  2  0  0  0  0
  3  4  1  0  0  0  0
  3 24  1  0  0  0  0
  4  5  1  0  0  0  0
  4 19  2  0  0  0  0
  5  6  1  0  0  0  0
  5 25  1  0  0  0  0
  6  7  2  0  0  0  0
  6  8  1  0  0  0  0
  8  9  1  0  0  0  0
  9 10  1  0  0  0  0
  9 26  1  0  0  0  0
  9 27  1  0  0  0  0
 10 11  1  0  0  0  0
 10 12  1  0  0  0  0
 10 28  1  0  0  0  0
 11 29  1  0  0  0  0
 11 30  1  0  0  0  0
 11 31  1  0  0  0  0
 12 17  1  0  0  0  0
 12 13  1  0  0  0  0
 12 44  1  0  0  0  0
 13 14  1  0  0  0  0
 13 32  1  0  0  0  0
 13 33  1  0  0  0  0
 14 15  1  0  0  0  0
 14 34  1  0  0  0  0
 14 35  1  0  0  0  0
 15 16  1  0  0  0  0
 15 36  1  0  0  0  0
 15 37  1  0  0  0  0
 16 17  1  0  0  0  0
 16 38  1  0  0  0  0
 16 39  1  0  0  0  0
 17 18  1  0  0  0  0
 17 40  1  0  0  0  0
 18 41  1  0  0  0  0
 18 42  1  0  0  0  0
 18 43  1  0  0  0  0
 19 20  1  0  0  0  0
M  CHG  1   8  -1
M  CHG  1  12   1
M  END
> <s_m_source_file>
AV-unprocessed.smi

> <i_m_source_file_index>
1978

> <i_lp_mmshare_version>
43012

> <i_f3d_flags>
0

> <s_epik_input>
W0NIM11jMVtjSF1jKG5vMSlbTkhdQyg9TylbTkhdW0NIMl1bQ0BIXShbQ0gzXSlOMltDSDJdW0NIMl1bQ0gyXVtDSDJdW0NASF0yW0NIM10=

> <s_epik_cmdline>
J2VwaWtfcHl0aG9uJywgJy1waCcsICc3LjAnLCAnLXRuJywgJzgnLCAnLW1hJywgJzIwMCcsICctbWV0YWxfYmluZGluZycsICctaW1hZScsICc8aW5maWxlLm1hZT4nLCAnLW9tYWUnLCAnPG91dGZpbGUubWFlPic=

> <r_epik_Ionization_Penalty>
6.7666

> <r_epik_Ionization_Penalty_Charging>
6.7666

> <r_epik_Ionization_Penalty_Neutral>
5.77131e-06

> <r_epik_State_Penalty>
6.79217

> <r_epik_Charging_Adjusted_Penalty>
13.5588

> <i_epik_Tot_Q>
0

> <i_epik_Tot_abs_Q>
2

> <r_epik_Metal_State_Penalty>
2.72569

> <b_epik_Metal_Only>
1

> <s_lp_Force_Field>
OPLS_2005

> <r_lp_Energy>
25.8045

> <b_lp_Chiralities_Consistent>
1

> <s_lp_Variant>
AV-unprocessed.smi:1978-23

> <Gold.Version>
5.8.1

> <Gold.Id.Protein>
6NUR|6NUR_protein|mol2

> <Gold.PLP.Fitness>
43.1718

> <Gold.PLP.PLP>
-32.6597

> <Gold.PLP.part.hbond>
-6.0000

> <Gold.PLP.part.metal>
0.0000

> <Gold.PLP.part.buried>
-2.0585

> <Gold.PLP.part.nonpolar>
-24.5270

> <Gold.PLP.part.repulsive>
0.1125

> <Gold.PLP.ligand.clash>
0.0000

> <Gold.PLP.ligand.torsion>
1.0531

> <Gold.PLP.Chemscore.Hbond>
4.1664

> <Gold.PLP.Chemscore.CHOScore>
0.0000

> <Gold.PLP.Chemscore.Metal>
0.0000

> <Gold.Chemscore.Hbonds>
donor molecule, donor type, donor heavy atom, donor atom, acceptor molecule, acceptor atom, score
      L1  H    12    44       P1  7948  2.00
      P1  H  6896  6908       L1     7  0.52
      P1  H  6931  6943       L1    20  0.50

> <Gold.PLP.Chemscore.Internal.Correction>
0.1191

> <Gold.Rescore>
     Score         DG    S(hbond)    S(metal)    S(lipo)     H(rot)  DE(clash)    DE(int)     intcor
     15.63     -18.08       2.82        0.00      60.30       1.52       0.00       2.44       ----

> <Gold.Chemscore.Fitness>
15.6317

> <Gold.Chemscore.DG>
-18.0772

> <Gold.Chemscore.ZeroCoef>
-5.4800

> <Gold.Chemscore.Hbond>
2.8234

> <Gold.Chemscore.Metal>
0.0000

> <Gold.Chemscore.Lipo>
60.3045

> <Gold.Chemscore.Internal_Hbond>
0.0000

> <Gold.Chemscore.DEClash>
0.0038

> <Gold.Chemscore.DEInternal>
2.4417

> <Gold.Chemscore.Rot>
1.5190

> <Gold.Chemscore.Internal.Correction>
   9.000000E+99

> <Gold.Chemscore.Hbonds>
donor molecule, donor type, donor heavy atom, donor atom, acceptor molecule, acceptor atom, score
      L1  H    12    44       P1  7948  0.31
      P1  H  6896  6908       L1     7  0.13
      P1  H  6931  6943       L1    20  0.02

> <Gold.Chemscore.Hbond.Weighted>
-9.4302

> <Gold.Chemscore.Metal.Weighted>
-0.0000

> <Gold.Chemscore.Lipo.Weighted>
-7.0556

> <Gold.Chemscore.Internal_Hbond.Weighted>
0.0000

> <Gold.Chemscore.DEClash.Weighted>
0.0038

> <Gold.Chemscore.DEInternal.Weighted>
2.4417

> <Gold.Chemscore.Rot.Weighted>
3.8886

> <Gold.Chemscore.Internal.Correction.Weighted>
   9.000000E+99

> <Gold.Protein.RotatedTorsions>
[ 6907 6896 6895 6894 ] final  121.29 input  -60.11 | X-H torsion
[ 7974 7965 7964 7962 ] final  -50.17 input  175.53 | X-H torsion
[ 8008 7997 7996 7995 ] final  160.18 input   59.86 | X-H torsion
[ 10167 10162 10161 10158 ] final  -53.59 input  -65.29 | X-H torsion
[ 10718 10713 10712 10709 ] final  109.42 input   66.30 | X-H torsion
[ 10763 10752 10751 10750 ] final -127.50 input  -60.55 | X-H torsion
[ 11005 11000 10999 10996 ] final   20.01 input  -57.11 | X-H torsion

> <Gold.Protein.ActiveResidues>
 VAL166  LYS551  ARG553  GLY616  TRP617  ASP618  TYR619  PRO620  LYS621  CYS622 
 ASP623  PHE694  ASN695  SER759  ASP760  ASP761  ALA762  ILE779  LEU786  VAL792 
 PHE793  MET794  SER795  GLU796  ALA797  LYS798  CYS799  TRP800  GLU811  SER814 

> <Gold.Protein.RotatedAtoms>
  152.4333  133.7316  159.6590 H   0  0  0  0  0  0  0  0  0  0  0  0  # atno 6907 bound_to 6896
  150.8214  133.8236  159.3143 H   0  0  0  0  0  0  0  0  0  0  0  0  # atno 6908 bound_to 6896
  151.5917  135.1055  160.0092 H   0  0  0  0  0  0  0  0  0  0  0  0  # atno 6909 bound_to 6896
  145.9327  140.7735  142.9591 H   0  0  0  0  0  0  0  0  0  0  0  0  # atno 7974 bound_to 7965
  156.2189  140.1811  156.7523 H   0  0  0  0  0  0  0  0  0  0  0  0  # atno 8008 bound_to 7997
  154.5834  140.0662  156.9166 H   0  0  0  0  0  0  0  0  0  0  0  0  # atno 8009 bound_to 7997
  155.2461  140.3325  155.4289 H   0  0  0  0  0  0  0  0  0  0  0  0  # atno 8010 bound_to 7997
  140.6477  143.2545  151.4813 H   0  0  0  0  0  0  0  0  0  0  0  0  # atno 10167 bound_to 10162
  157.6542  131.0913  150.6451 H   0  0  0  0  0  0  0  0  0  0  0  0  # atno 10718 bound_to 10713
  154.8752  135.3959  154.3605 H   0  0  0  0  0  0  0  0  0  0  0  0  # atno 10763 bound_to 10752
  153.4378  135.7026  153.6194 H   0  0  0  0  0  0  0  0  0  0  0  0  # atno 10764 bound_to 10752
  153.4788  135.3774  155.2400 H   0  0  0  0  0  0  0  0  0  0  0  0  # atno 10765 bound_to 10752
  140.4073  134.1655  155.7666 H   0  0  0  0  0  0  0  0  0  0  0  0  # atno 11005 bound_to 11000
  144.6767  140.2153  143.7372 LP  0  0  0  0  0  0  0  0  0  0  0  0  # atno 17320 bound_to 7965
  145.8405  139.2127  143.1830 LP  0  0  0  0  0  0  0  0  0  0  0  0  # atno 17321 bound_to 7965
  139.5689  144.1977  152.1806 LP  0  0  0  0  0  0  0  0  0  0  0  0  # atno 17342 bound_to 10162
  140.1267  144.5325  150.6828 LP  0  0  0  0  0  0  0  0  0  0  0  0  # atno 17343 bound_to 10162
  156.6759  130.4553  149.5643 LP  0  0  0  0  0  0  0  0  0  0  0  0  # atno 17370 bound_to 10713
  156.1964  130.6592  151.1119 LP  0  0  0  0  0  0  0  0  0  0  0  0  # atno 17371 bound_to 10713
  141.1834  133.8365  157.1175 LP  0  0  0  0  0  0  0  0  0  0  0  0  # atno 17394 bound_to 11000
  140.0292  134.9909  157.0748 LP  0  0  0  0  0  0  0  0  0  0  0  0  # atno 17395 bound_to 11000

$$$$
