#       Name:                AV-unprocessed.smi:651
#       Creating user name   scv26
#       Creation time:       Fri Mar 27 00:11:05 2020


#       File generated by GOLD software.
#

@<TRIPOS>MOLECULE
AV-unprocessed.smi:651
    43    44     1
SMALL
NO_CHARGES


@<TRIPOS>ATOM
      1 ****        -3.1585   4.5112  -1.0835 C.3            1 S1                 0.0000
      2 ****        -2.7765   3.0529  -1.2252 C.ar           1 S1                 0.0000
      3 ****        -2.2992   2.5455  -2.4522 C.ar           1 S1                 0.0000
      4 ****        -1.9576   1.1814  -2.5265 C.ar           1 S1                 0.0000
      5 ****        -2.1055   0.3795  -1.3756 C.ar           1 S1                 0.0000
      6 ****        -1.7405  -1.0956  -1.3992 C.3            1 S1                 0.0000
      7 ****        -0.2311  -1.3003  -1.2430 C.2            1 S1                 0.0000
      8 ****         0.3764  -2.0162  -2.0385 O.2            1 S1                 0.0000
      9 ****         0.3590  -0.6868  -0.2049 N.am           1 S1                 0.0000
     10 ****         1.7815  -0.7652   0.1284 C.3            1 S1                 0.0000
     11 ****         2.2234   0.4543   0.9596 C.3            1 S1                 0.0000
     12 ****         3.1274  -0.0736   2.0804 C.3            1 S1                 0.0000
     13 ****         3.4114  -1.5374   1.7340 C.3            1 S1                 0.0000
     14 ****         2.1895  -2.0238   0.9400 C.3            1 S1                 0.0000
     15 ****         1.1004  -2.5761   1.8856 C.2            1 S1                 0.0000
     16 ****         0.7357  -3.8486   1.7097 N.am           1 S1                 0.0000
     17 ****         0.5910  -1.8690   2.7535 O.2            1 S1                 0.0000
     18 ****        -2.5972   0.9849  -0.1993 C.ar           1 S1                 0.0000
     19 ****        -2.9255   2.2918  -0.1188 N.ar           1 S1                 0.0000
     20 ****        -2.7916   5.0982  -1.9261 H              1 S1                 0.0000
     21 ****        -2.7370   4.9312  -0.1697 H              1 S1                 0.0000
     22 ****        -4.2430   4.6139  -1.0408 H              1 S1                 0.0000
     23 ****        -2.1951   3.1843  -3.3171 H              1 S1                 0.0000
     24 ****        -1.5846   0.7608  -3.4488 H              1 S1                 0.0000
     25 ****        -2.2573  -1.6226  -0.5961 H              1 S1                 0.0000
     26 ****        -2.0798  -1.5373  -2.3373 H              1 S1                 0.0000
     27 ****        -0.2199  -0.1242   0.4020 H              1 S1                 0.0000
     28 ****         2.3601  -0.7588  -0.7976 H              1 S1                 0.0000
     29 ****         2.7567   1.1673   0.3299 H              1 S1                 0.0000
     30 ****         1.3726   0.9836   1.3917 H              1 S1                 0.0000
     31 ****         4.0446   0.5074   2.1798 H              1 S1                 0.0000
     32 ****         2.6024  -0.0139   3.0345 H              1 S1                 0.0000
     33 ****         4.2976  -1.5966   1.1006 H              1 S1                 0.0000
     34 ****         3.6149  -2.1350   2.6240 H              1 S1                 0.0000
     35 ****         2.4848  -2.8221   0.2568 H              1 S1                 0.0000
     36 ****         0.0303  -4.2583   2.3048 H              1 S1                 0.0000
     37 ****         1.1709  -4.3982   0.9830 H              1 S1                 0.0000
     38 ****        -2.7233   0.4078   0.7050 H              1 S1                 0.0000
     39 ****        -0.1157  -2.4632  -2.7856 LP             1 S1                 0.0000
     40 ****         1.3622  -2.1509  -1.9380 LP             1 S1                 0.0000
     41 ****         0.8806  -0.9174   2.8567 LP             1 S1                 0.0000
     42 ****        -0.1128  -2.2456   3.3558 LP             1 S1                 0.0000
     43 ****        -3.2687   2.6849   0.7342 LP             1 S1                 0.0000
@<TRIPOS>BOND
    1    1    2 1     
    2    1   20 1     
    3    1   21 1     
    4    1   22 1     
    5    2   19 ar    
    6    2    3 ar    
    7    3    4 ar    
    8    3   23 1     
    9    4    5 ar    
   10    4   24 1     
   11    5    6 1     
   12    5   18 ar    
   13    6    7 1     
   14    6   25 1     
   15    6   26 1     
   16    7    8 2     
   17    7    9 am    
   18    9   10 1     
   19    9   27 1     
   20   10   14 1     
   21   10   11 1     
   22   10   28 1     
   23   11   12 1     
   24   11   29 1     
   25   11   30 1     
   26   12   13 1     
   27   12   31 1     
   28   12   32 1     
   29   13   14 1     
   30   13   33 1     
   31   13   34 1     
   32   14   15 1     
   33   14   35 1     
   34   15   16 am    
   35   15   17 2     
   36   16   36 1     
   37   16   37 1     
   38   18   19 ar    
   39   18   38 1     
   40    8   39 1     
   41    8   40 1     
   42   17   41 1     
   43   17   42 1     
   44   19   43 1     
@<TRIPOS>SUBSTRUCTURE
      1 S1             1
@<TRIPOS>SET
LONE_PAIRS      STATIC     ATOMS    <user>   **** ""
5 39 40 41 42 43
DONOR_HYDROGENS      STATIC     ATOMS    <user>   **** ""
3 27 36 37
ATOM$BLUE        STATIC     ATOMS    COLORGROUP SYSTEM
5 39 40 41 42 43
ATOM$RED        STATIC     ATOMS    COLORGROUP SYSTEM
3 27 36 37
