AV-unprocessed.smi:2355|AV-procd|sdf|9386|dock2
  -GOLD-   2272013 13D 1   1.00000     0.00000
 Structure written by MMmdl.
 48 49  0  0  0  0  0  0  0  0  1 V2000
  152.0139  145.9413  160.4750 C   0  0  0  0  0  0  0  0  0  0  0  0
  152.0383  144.5587  159.8583 C   0  0  0  0  0  0  0  0  0  0  0  0
  152.7742  143.5166  160.4538 C   0  0  0  0  0  0  0  0  0  0  0  0
  152.7603  142.2532  159.8313 C   0  0  0  0  0  0  0  0  0  0  0  0
  153.5281  141.0866  160.4169 C   0  0  0  0  0  0  0  0  0  0  0  0
  152.0788  142.0002  158.6938 N   0  0  0  0  0  0  0  0  0  0  0  0
  151.3673  142.9964  158.1103 C   0  0  0  0  0  0  0  0  0  0  0  0
  150.6158  142.8316  156.9163 N   0  0  0  0  0  0  0  0  0  0  0  0
  150.1269  141.6925  156.3951 C   0  0  0  0  0  0  0  0  0  0  0  0
  150.2703  140.5687  156.8784 O   0  0  0  0  0  0  0  0  0  0  0  0
  149.4563  141.9264  155.2567 N   0  0  0  0  0  0  0  0  0  0  0  0
  148.8187  140.9033  154.4283 C   0  0  1  0  0  0  0  0  0  0  0  0
  149.7537  139.6855  154.3255 C   0  0  0  0  0  0  0  0  0  0  0  0
  147.3876  140.5472  154.9489 C   0  0  2  0  0  0  0  0  0  0  0  0
  146.7428  139.4772  154.0296 C   0  0  0  0  0  0  0  0  0  0  0  0
  146.5118  141.7225  155.1700 N   0  0  0  0  0  0  0  0  0  0  0  0
  146.2226  142.4457  153.9264 C   0  0  0  0  0  0  0  0  0  0  0  0
  145.2945  143.6535  154.1390 C   0  0  0  0  0  0  0  0  0  0  0  0
  144.0825  143.2234  154.7425 O   0  0  0  0  0  0  0  0  0  0  0  0
  144.3067  142.5832  155.9909 C   0  0  0  0  0  0  0  0  0  0  0  0
  145.2320  141.3695  155.7957 C   0  0  0  0  0  0  0  0  0  0  0  0
  151.3264  144.2928  158.6711 C   0  0  0  0  0  0  0  0  0  0  0  0
  152.3531  145.9156  161.5109 H   0  0  0  0  0  0  0  0  0  0  0  0
  151.0031  146.3499  160.4594 H   0  0  0  0  0  0  0  0  0  0  0  0
  152.6657  146.6134  159.9167 H   0  0  0  0  0  0  0  0  0  0  0  0
  153.3345  143.6814  161.3628 H   0  0  0  0  0  0  0  0  0  0  0  0
  153.9338  141.3329  161.3985 H   0  0  0  0  0  0  0  0  0  0  0  0
  154.3568  140.8137  159.7630 H   0  0  0  0  0  0  0  0  0  0  0  0
  152.8771  140.2189  160.5274 H   0  0  0  0  0  0  0  0  0  0  0  0
  150.4303  143.6784  156.3996 H   0  0  0  0  0  0  0  0  0  0  0  0
  149.3879  142.8797  154.9316 H   0  0  0  0  0  0  0  0  0  0  0  0
  148.7551  141.3408  153.4329 H   0  0  0  0  0  0  0  0  0  0  0  0
  149.3282  138.9136  153.6840 H   0  0  0  0  0  0  0  0  0  0  0  0
  149.9479  139.2386  155.3006 H   0  0  0  0  0  0  0  0  0  0  0  0
  150.7158  139.9683  153.8976 H   0  0  0  0  0  0  0  0  0  0  0  0
  147.5259  140.0665  155.9187 H   0  0  0  0  0  0  0  0  0  0  0  0
  147.4293  138.6685  153.7822 H   0  0  0  0  0  0  0  0  0  0  0  0
  146.3981  139.9127  153.0912 H   0  0  0  0  0  0  0  0  0  0  0  0
  145.8894  138.9954  154.5055 H   0  0  0  0  0  0  0  0  0  0  0  0
  147.1411  142.8219  153.4788 H   0  0  0  0  0  0  0  0  0  0  0  0
  145.7715  141.7672  153.2006 H   0  0  0  0  0  0  0  0  0  0  0  0
  145.7762  144.4065  154.7649 H   0  0  0  0  0  0  0  0  0  0  0  0
  145.0670  144.1286  153.1846 H   0  0  0  0  0  0  0  0  0  0  0  0
  144.7423  143.2901  156.6989 H   0  0  0  0  0  0  0  0  0  0  0  0
  143.3493  142.2659  156.4041 H   0  0  0  0  0  0  0  0  0  0  0  0
  144.7204  140.6165  155.1941 H   0  0  0  0  0  0  0  0  0  0  0  0
  145.3903  140.9360  156.7809 H   0  0  0  0  0  0  0  0  0  0  0  0
  150.7566  145.0784  158.1959 H   0  0  0  0  0  0  0  0  0  0  0  0
  1  2  1  0  0  0  0
  1 23  1  0  0  0  0
  1 24  1  0  0  0  0
  1 25  1  0  0  0  0
  2 22  1  0  0  0  0
  2  3  2  0  0  0  0
  3  4  1  0  0  0  0
  3 26  1  0  0  0  0
  4  5  1  0  0  0  0
  4  6  2  0  0  0  0
  5 27  1  0  0  0  0
  5 28  1  0  0  0  0
  5 29  1  0  0  0  0
  6  7  1  0  0  0  0
  7  8  1  0  0  0  0
  7 22  2  0  0  0  0
  8  9  1  0  0  0  0
  8 30  1  0  0  0  0
  9 10  2  0  0  0  0
  9 11  1  0  0  0  0
 11 12  1  0  0  0  0
 11 31  1  0  0  0  0
 12 13  1  0  0  0  0
 12 14  1  0  0  0  0
 12 32  1  0  0  0  0
 13 33  1  0  0  0  0
 13 34  1  0  0  0  0
 13 35  1  0  0  0  0
 14 15  1  0  0  0  0
 14 16  1  0  0  0  0
 14 36  1  0  0  0  0
 15 37  1  0  0  0  0
 15 38  1  0  0  0  0
 15 39  1  0  0  0  0
 16 21  1  0  0  0  0
 16 17  1  0  0  0  0
 17 18  1  0  0  0  0
 17 40  1  0  0  0  0
 17 41  1  0  0  0  0
 18 19  1  0  0  0  0
 18 42  1  0  0  0  0
 18 43  1  0  0  0  0
 19 20  1  0  0  0  0
 20 21  1  0  0  0  0
 20 44  1  0  0  0  0
 20 45  1  0  0  0  0
 21 46  1  0  0  0  0
 21 47  1  0  0  0  0
 22 48  1  0  0  0  0
M  END
> <s_m_source_file>
AV-unprocessed.smi

> <i_m_source_file_index>
2355

> <i_lp_mmshare_version>
43012

> <i_f3d_flags>
0

> <s_epik_input>
W0NIM11jMVtjSF1jKFtDSDNdKW5jKFtjSF0xKVtOSF1DKD1PKVtOSF1bQ0BIXShbQ0gzXSlbQ0BIXShbQ0gzXSlOMltDSDJdW0NIMl1PW0NIMl1bQ0gyXTI=

> <s_epik_cmdline>
J2VwaWtfcHl0aG9uJywgJy1waCcsICc3LjAnLCAnLXRuJywgJzgnLCAnLW1hJywgJzIwMCcsICctbWV0YWxfYmluZGluZycsICctaW1hZScsICc8aW5maWxlLm1hZT4nLCAnLW9tYWUnLCAnPG91dGZpbGUubWFlPic=

> <r_epik_Ionization_Penalty>
0.266238

> <r_epik_Ionization_Penalty_Charging>
0

> <r_epik_Ionization_Penalty_Neutral>
0.266238

> <r_epik_State_Penalty>
0.257924

> <r_epik_Charging_Adjusted_Penalty>
0.257924

> <i_epik_Tot_Q>
0

> <i_epik_Tot_abs_Q>
0

> <r_epik_Metal_State_Penalty>
0.257904

> <b_epik_Metal_Only>
0

> <s_lp_Force_Field>
OPLS_2005

> <r_lp_Energy>
33.1774

> <b_lp_Chiralities_Consistent>
1

> <s_lp_Variant>
AV-unprocessed.smi:2355-2

> <Gold.Version>
5.8.1

> <Gold.Id.Protein>
6NUR|6NUR_protein|mol2

> <Gold.PLP.Fitness>
48.8393

> <Gold.PLP.PLP>
-44.9929

> <Gold.PLP.part.hbond>
-2.0000

> <Gold.PLP.part.metal>
0.0000

> <Gold.PLP.part.buried>
-7.6908

> <Gold.PLP.part.nonpolar>
-37.9026

> <Gold.PLP.part.repulsive>
0.8488

> <Gold.PLP.ligand.clash>
0.0000

> <Gold.PLP.ligand.torsion>
0.4485

> <Gold.PLP.Chemscore.Hbond>
1.5453

> <Gold.PLP.Chemscore.CHOScore>
0.0000

> <Gold.PLP.Chemscore.Metal>
0.0000

> <Gold.Chemscore.Hbonds>
donor molecule, donor type, donor heavy atom, donor atom, acceptor molecule, acceptor atom, score
      L1  H     8    30       P1  8028  0.82
      L1  H    11    31       P1  8028  0.80

> <Gold.PLP.Chemscore.Internal.Correction>
0.1075

> <Gold.Rescore>
     Score         DG    S(hbond)    S(metal)    S(lipo)     H(rot)  DE(clash)    DE(int)     intcor
     16.75     -20.54       1.79        0.00     108.20       1.40       0.53       3.26       ----

> <Gold.Chemscore.Fitness>
16.7511

> <Gold.Chemscore.DG>
-20.5421

> <Gold.Chemscore.ZeroCoef>
-5.4800

> <Gold.Chemscore.Hbond>
1.7935

> <Gold.Chemscore.Metal>
0.0000

> <Gold.Chemscore.Lipo>
108.2027

> <Gold.Chemscore.Internal_Hbond>
0.0000

> <Gold.Chemscore.DEClash>
0.5274

> <Gold.Chemscore.DEInternal>
3.2636

> <Gold.Chemscore.Rot>
1.4015

> <Gold.Chemscore.Internal.Correction>
   9.000000E+99

> <Gold.Chemscore.Hbonds>
donor molecule, donor type, donor heavy atom, donor atom, acceptor molecule, acceptor atom, score
      L1  H     8    30       P1  8028  0.79
      L1  H    11    31       P1  8028  0.74

> <Gold.Chemscore.Hbond.Weighted>
-5.9902

> <Gold.Chemscore.Metal.Weighted>
-0.0000

> <Gold.Chemscore.Lipo.Weighted>
-12.6597

> <Gold.Chemscore.Internal_Hbond.Weighted>
0.0000

> <Gold.Chemscore.DEClash.Weighted>
0.5274

> <Gold.Chemscore.DEInternal.Weighted>
3.2636

> <Gold.Chemscore.Rot.Weighted>
3.5878

> <Gold.Chemscore.Internal.Correction.Weighted>
   9.000000E+99

> <Gold.Protein.RotatedTorsions>
[ 6907 6896 6895 6894 ] final  166.69 input  -60.11 | X-H torsion
[ 7974 7965 7964 7962 ] final  148.23 input  175.53 | X-H torsion
[ 8008 7997 7996 7995 ] final -160.28 input   59.86 | X-H torsion
[ 10167 10162 10161 10158 ] final -177.02 input  -65.29 | X-H torsion
[ 10718 10713 10712 10709 ] final   56.56 input   66.30 | X-H torsion
[ 10763 10752 10751 10750 ] final  -42.89 input  -60.55 | X-H torsion
[ 11005 11000 10999 10996 ] final    3.78 input  -57.11 | X-H torsion

> <Gold.Protein.ActiveResidues>
 VAL166  LYS551  ARG553  GLY616  TRP617  ASP618  TYR619  PRO620  LYS621  CYS622 
 ASP623  PHE694  ASN695  SER759  ASP760  ASP761  ALA762  ILE779  LEU786  VAL792 
 PHE793  MET794  SER795  GLU796  ALA797  LYS798  CYS799  TRP800  GLU811  SER814 

> <Gold.Protein.RotatedAtoms>
  151.8750  133.3483  159.3747 H   0  0  0  0  0  0  0  0  0  0  0  0  # atno 6907 bound_to 6896
  150.7142  134.5075  159.5600 H   0  0  0  0  0  0  0  0  0  0  0  0  # atno 6908 bound_to 6896
  152.2615  134.8029  160.0481 H   0  0  0  0  0  0  0  0  0  0  0  0  # atno 6909 bound_to 6896
  144.8530  139.6128  143.5965 H   0  0  0  0  0  0  0  0  0  0  0  0  # atno 7974 bound_to 7965
  155.7752  140.0857  157.2088 H   0  0  0  0  0  0  0  0  0  0  0  0  # atno 8008 bound_to 7997
  154.3993  140.1518  156.3045 H   0  0  0  0  0  0  0  0  0  0  0  0  # atno 8009 bound_to 7997
  155.8708  140.3425  155.5823 H   0  0  0  0  0  0  0  0  0  0  0  0  # atno 8010 bound_to 7997
  139.5501  144.2132  152.1061 H   0  0  0  0  0  0  0  0  0  0  0  0  # atno 10167 bound_to 10162
  157.5441  130.8718  149.8865 H   0  0  0  0  0  0  0  0  0  0  0  0  # atno 10718 bound_to 10713
  153.9865  135.6710  153.4752 H   0  0  0  0  0  0  0  0  0  0  0  0  # atno 10763 bound_to 10752
  153.0724  135.4967  154.8330 H   0  0  0  0  0  0  0  0  0  0  0  0  # atno 10764 bound_to 10752
  154.7134  135.3102  154.9123 H   0  0  0  0  0  0  0  0  0  0  0  0  # atno 10765 bound_to 10752
  140.5893  133.9939  155.8081 H   0  0  0  0  0  0  0  0  0  0  0  0  # atno 11005 bound_to 11000
  146.2800  139.6852  142.9236 LP  0  0  0  0  0  0  0  0  0  0  0  0  # atno 17320 bound_to 7965
  145.4462  141.0425  143.2830 LP  0  0  0  0  0  0  0  0  0  0  0  0  # atno 17321 bound_to 7965
  140.1626  144.5011  150.6624 LP  0  0  0  0  0  0  0  0  0  0  0  0  # atno 17342 bound_to 10162
  140.6761  143.2305  151.5504 LP  0  0  0  0  0  0  0  0  0  0  0  0  # atno 17343 bound_to 10162
  156.0521  130.3715  150.1177 LP  0  0  0  0  0  0  0  0  0  0  0  0  # atno 17370 bound_to 10713
  156.9355  130.9727  151.3525 LP  0  0  0  0  0  0  0  0  0  0  0  0  # atno 17371 bound_to 10713
  141.0945  133.9864  157.3182 LP  0  0  0  0  0  0  0  0  0  0  0  0  # atno 17394 bound_to 11000
  139.9281  135.0201  156.8306 LP  0  0  0  0  0  0  0  0  0  0  0  0  # atno 17395 bound_to 11000

$$$$
