AV-unprocessed.smi:3306|AV-procd|sdf|12703|dock6
  -GOLD-   2272019 33D 1   1.00000     0.00000
 Structure written by MMmdl.
 44 45  0  0  0  0  0  0  0  0  2 V2000
  151.3143  141.0157  158.1378 C   0  0  0  0  0  0  0  0  0  0  0  0
  151.6725  141.6816  156.7902 C   0  0  0  0  0  0  0  0  0  0  0  0
  151.3255  143.1839  156.8906 C   0  0  0  0  0  0  0  0  0  0  0  0
  150.9852  141.0289  155.6552 N   0  0  0  0  0  0  0  0  0  0  0  0
  149.5519  141.3630  155.6351 C   0  0  0  0  0  0  0  0  0  0  0  0
  148.8521  140.7600  154.4049 C   0  0  0  0  0  0  0  0  0  0  0  0
  148.9824  139.2338  154.3866 C   0  0  0  0  0  0  0  0  0  0  0  0
  148.3669  138.6834  153.1585 N   0  3  0  0  0  0  0  0  0  0  0  0
  146.8894  138.6600  153.1488 C   0  0  0  0  0  0  0  0  0  0  0  0
  146.3582  138.1227  151.8128 C   0  0  0  0  0  0  0  0  0  0  0  0
  145.3932  136.9674  152.0002 C   0  0  0  0  0  0  0  0  0  0  0  0
  145.5284  135.7840  151.2433 C   0  0  0  0  0  0  0  0  0  0  0  0
  144.6025  134.7438  151.4544 C   0  0  0  0  0  0  0  0  0  0  0  0
  143.5825  134.9269  152.4077 C   0  0  0  0  0  0  0  0  0  0  0  0
  143.5325  136.1472  153.1103 C   0  0  0  0  0  0  0  0  0  0  0  0
  144.4142  137.1517  152.9143 N   0  0  0  0  0  0  0  0  0  0  0  0
  150.4738  138.8861  154.4935 C   0  0  0  0  0  0  0  0  0  0  0  0
  151.1142  139.5642  155.7177 C   0  0  0  0  0  0  0  0  0  0  0  0
  151.6956  141.5994  158.9763 H   0  0  0  0  0  0  0  0  0  0  0  0
  151.7542  140.0251  158.2462 H   0  0  0  0  0  0  0  0  0  0  0  0
  150.2347  140.9284  158.2660 H   0  0  0  0  0  0  0  0  0  0  0  0
  152.7504  141.5934  156.6446 H   0  0  0  0  0  0  0  0  0  0  0  0
  151.7034  143.6120  157.8196 H   0  0  0  0  0  0  0  0  0  0  0  0
  150.2474  143.3474  156.8716 H   0  0  0  0  0  0  0  0  0  0  0  0
  151.7767  143.7711  156.0916 H   0  0  0  0  0  0  0  0  0  0  0  0
  149.0734  141.0183  156.5532 H   0  0  0  0  0  0  0  0  0  0  0  0
  149.4033  142.4395  155.5821 H   0  0  0  0  0  0  0  0  0  0  0  0
  147.7990  141.0442  154.4092 H   0  0  0  0  0  0  0  0  0  0  0  0
  149.2838  141.1860  153.4976 H   0  0  0  0  0  0  0  0  0  0  0  0
  148.4517  138.8320  155.2513 H   0  0  0  0  0  0  0  0  0  0  0  0
  148.6646  139.2599  152.3845 H   0  0  0  0  0  0  0  0  0  0  0  0
  146.5271  138.0366  153.9664 H   0  0  0  0  0  0  0  0  0  0  0  0
  146.5101  139.6689  153.3170 H   0  0  0  0  0  0  0  0  0  0  0  0
  145.8586  138.9204  151.2616 H   0  0  0  0  0  0  0  0  0  0  0  0
  147.1877  137.7905  151.1864 H   0  0  0  0  0  0  0  0  0  0  0  0
  146.3205  135.6724  150.5176 H   0  0  0  0  0  0  0  0  0  0  0  0
  144.6732  133.8224  150.8955 H   0  0  0  0  0  0  0  0  0  0  0  0
  142.8554  134.1506  152.5961 H   0  0  0  0  0  0  0  0  0  0  0  0
  142.7636  136.3214  153.8485 H   0  0  0  0  0  0  0  0  0  0  0  0
  150.6105  137.8079  154.5759 H   0  0  0  0  0  0  0  0  0  0  0  0
  150.9985  139.1971  153.5886 H   0  0  0  0  0  0  0  0  0  0  0  0
  152.1606  139.2656  155.7272 H   0  0  0  0  0  0  0  0  0  0  0  0
  150.6660  139.1885  156.6390 H   0  0  0  0  0  0  0  0  0  0  0  0
  148.7144  137.7465  153.0108 H   0  0  0  0  0  0  0  0  0  0  0  0
  1  2  1  0  0  0  0
  1 19  1  0  0  0  0
  1 20  1  0  0  0  0
  1 21  1  0  0  0  0
  2  3  1  0  0  0  0
  2  4  1  0  0  0  0
  2 22  1  0  0  0  0
  3 23  1  0  0  0  0
  3 24  1  0  0  0  0
  3 25  1  0  0  0  0
  4 18  1  0  0  0  0
  4  5  1  0  0  0  0
  5  6  1  0  0  0  0
  5 26  1  0  0  0  0
  5 27  1  0  0  0  0
  6  7  1  0  0  0  0
  6 28  1  0  0  0  0
  6 29  1  0  0  0  0
  7  8  1  0  0  0  0
  7 17  1  0  0  0  0
  7 30  1  0  0  0  0
  8  9  1  0  0  0  0
  8 31  1  0  0  0  0
  8 44  1  0  0  0  0
  9 10  1  0  0  0  0
  9 32  1  0  0  0  0
  9 33  1  0  0  0  0
 10 11  1  0  0  0  0
 10 34  1  0  0  0  0
 10 35  1  0  0  0  0
 11 16  1  0  0  0  0
 11 12  2  0  0  0  0
 12 13  1  0  0  0  0
 12 36  1  0  0  0  0
 13 14  2  0  0  0  0
 13 37  1  0  0  0  0
 14 15  1  0  0  0  0
 14 38  1  0  0  0  0
 15 16  2  0  0  0  0
 15 39  1  0  0  0  0
 17 18  1  0  0  0  0
 17 40  1  0  0  0  0
 17 41  1  0  0  0  0
 18 42  1  0  0  0  0
 18 43  1  0  0  0  0
M  CHG  1   8   1
M  END
> <s_m_source_file>
AV-unprocessed.smi

> <i_m_source_file_index>
3306

> <i_lp_mmshare_version>
43012

> <i_f3d_flags>
0

> <s_epik_input>
W0NIM11bQ0hdKFtDSDNdKU4xW0NIMl1bQ0gyXVtDSF0oW0NIMl1bQ0gyXTEpW05IXVtDSDJdW0NIMl1jMltjSF1bY0hdW2NIXVtjSF1uMg==

> <s_epik_cmdline>
J2VwaWtfcHl0aG9uJywgJy1waCcsICc3LjAnLCAnLXRuJywgJzgnLCAnLW1hJywgJzIwMCcsICctbWV0YWxfYmluZGluZycsICctaW1hZScsICc8aW5maWxlLm1hZT4nLCAnLW9tYWUnLCAnPG91dGZpbGUubWFlPic=

> <r_epik_Ionization_Penalty>
1.34673

> <r_epik_Ionization_Penalty_Charging>
0.000531593

> <r_epik_Ionization_Penalty_Neutral>
1.3462

> <r_epik_State_Penalty>
1.43277

> <r_epik_Charging_Adjusted_Penalty>
1.4333

> <i_epik_Tot_Q>
1

> <i_epik_Tot_abs_Q>
1

> <r_epik_Metal_State_Penalty>
1.43418

> <b_epik_Metal_Only>
0

> <s_lp_Force_Field>
OPLS_2005

> <r_lp_Energy>
21.3297

> <b_lp_Chiralities_Consistent>
1

> <s_lp_Variant>
AV-unprocessed.smi:3306-3

> <Gold.Version>
5.8.1

> <Gold.Id.Protein>
6NUR|6NUR_protein|mol2

> <Gold.PLP.Fitness>
44.0941

> <Gold.PLP.PLP>
-36.3509

> <Gold.PLP.part.hbond>
-2.7612

> <Gold.PLP.part.metal>
0.0000

> <Gold.PLP.part.buried>
-2.3180

> <Gold.PLP.part.nonpolar>
-32.5222

> <Gold.PLP.part.repulsive>
0.3193

> <Gold.PLP.ligand.clash>
0.0000

> <Gold.PLP.ligand.torsion>
0.7540

> <Gold.PLP.Chemscore.Hbond>
3.0686

> <Gold.PLP.Chemscore.CHOScore>
0.0000

> <Gold.PLP.Chemscore.Metal>
0.0000

> <Gold.Chemscore.Hbonds>
donor molecule, donor type, donor heavy atom, donor atom, acceptor molecule, acceptor atom, score
      L1  H     8    31       P1  7957  1.00
      L1  H     8    44       P1  7948  1.98
      P1  H  7989  7998       L1     4  0.13

> <Gold.PLP.Chemscore.Internal.Correction>
0.0452

> <Gold.Rescore>
     Score         DG    S(hbond)    S(metal)    S(lipo)     H(rot)  DE(clash)    DE(int)     intcor
     18.57     -19.45       1.91        0.00      95.69       1.41       0.22       0.65       ----

> <Gold.Chemscore.Fitness>
18.5730

> <Gold.Chemscore.DG>
-19.4494

> <Gold.Chemscore.ZeroCoef>
-5.4800

> <Gold.Chemscore.Hbond>
1.9116

> <Gold.Chemscore.Metal>
0.0000

> <Gold.Chemscore.Lipo>
95.6922

> <Gold.Chemscore.Internal_Hbond>
0.0000

> <Gold.Chemscore.DEClash>
0.2231

> <Gold.Chemscore.DEInternal>
0.6533

> <Gold.Chemscore.Rot>
1.4106

> <Gold.Chemscore.Internal.Correction>
   9.000000E+99

> <Gold.Chemscore.Hbonds>
donor molecule, donor type, donor heavy atom, donor atom, acceptor molecule, acceptor atom, score
      L1  H     8    31       P1  7957  1.00
      L1  H     8    44       P1  7948  0.93

> <Gold.Chemscore.Hbond.Weighted>
-6.3846

> <Gold.Chemscore.Metal.Weighted>
-0.0000

> <Gold.Chemscore.Lipo.Weighted>
-11.1960

> <Gold.Chemscore.Internal_Hbond.Weighted>
0.0000

> <Gold.Chemscore.DEClash.Weighted>
0.2231

> <Gold.Chemscore.DEInternal.Weighted>
0.6533

> <Gold.Chemscore.Rot.Weighted>
3.6112

> <Gold.Chemscore.Internal.Correction.Weighted>
   9.000000E+99

> <Gold.Protein.RotatedTorsions>
[ 6907 6896 6895 6894 ] final   44.19 input  -60.11 | X-H torsion
[ 7974 7965 7964 7962 ] final  112.31 input  175.53 | X-H torsion
[ 8008 7997 7996 7995 ] final   22.60 input   59.86 | X-H torsion
[ 10167 10162 10161 10158 ] final  -18.63 input  -65.29 | X-H torsion
[ 10718 10713 10712 10709 ] final -107.16 input   66.30 | X-H torsion
[ 10763 10752 10751 10750 ] final  174.22 input  -60.55 | X-H torsion
[ 11005 11000 10999 10996 ] final  129.26 input  -57.11 | X-H torsion

> <Gold.Protein.ActiveResidues>
 VAL166  LYS551  ARG553  GLY616  TRP617  ASP618  TYR619  PRO620  LYS621  CYS622 
 ASP623  PHE694  ASN695  SER759  ASP760  ASP761  ALA762  ILE779  LEU786  VAL792 
 PHE793  MET794  SER795  GLU796  ALA797  LYS798  CYS799  TRP800  GLU811  SER814 

> <Gold.Protein.RotatedAtoms>
  152.2295  134.8336  160.0475 H   0  0  0  0  0  0  0  0  0  0  0  0  # atno 6907 bound_to 6896
  151.9090  133.3551  159.3865 H   0  0  0  0  0  0  0  0  0  0  0  0  # atno 6908 bound_to 6896
  150.7021  134.4677  159.5454 H   0  0  0  0  0  0  0  0  0  0  0  0  # atno 6909 bound_to 6896
  145.2312  139.2819  143.4167 H   0  0  0  0  0  0  0  0  0  0  0  0  # atno 7974 bound_to 7965
  154.9681  140.3086  155.5000 H   0  0  0  0  0  0  0  0  0  0  0  0  # atno 8008 bound_to 7997
  156.2969  140.2289  156.4711 H   0  0  0  0  0  0  0  0  0  0  0  0  # atno 8009 bound_to 7997
  154.7902  140.0440  157.1183 H   0  0  0  0  0  0  0  0  0  0  0  0  # atno 8010 bound_to 7997
  140.7260  143.4897  151.0007 H   0  0  0  0  0  0  0  0  0  0  0  0  # atno 10167 bound_to 10162
  156.0423  130.5649  150.7782 H   0  0  0  0  0  0  0  0  0  0  0  0  # atno 10718 bound_to 10713
  154.4509  135.2764  155.1782 H   0  0  0  0  0  0  0  0  0  0  0  0  # atno 10763 bound_to 10752
  154.3609  135.6129  153.5694 H   0  0  0  0  0  0  0  0  0  0  0  0  # atno 10764 bound_to 10752
  152.9847  135.5834  154.4853 H   0  0  0  0  0  0  0  0  0  0  0  0  # atno 10765 bound_to 10752
  139.9606  134.9603  156.9123 H   0  0  0  0  0  0  0  0  0  0  0  0  # atno 11005 bound_to 11000
  146.3352  140.2647  142.8603 LP  0  0  0  0  0  0  0  0  0  0  0  0  # atno 17320 bound_to 7965
  144.9675  140.8336  143.5476 LP  0  0  0  0  0  0  0  0  0  0  0  0  # atno 17321 bound_to 7965
  139.8601  143.7326  152.3174 LP  0  0  0  0  0  0  0  0  0  0  0  0  # atno 17342 bound_to 10162
  139.7538  144.7526  151.0466 LP  0  0  0  0  0  0  0  0  0  0  0  0  # atno 17343 bound_to 10162
  157.5257  131.0934  151.0021 LP  0  0  0  0  0  0  0  0  0  0  0  0  # atno 17370 bound_to 10713
  157.0340  130.5722  149.5347 LP  0  0  0  0  0  0  0  0  0  0  0  0  # atno 17371 bound_to 10713
  140.5509  134.0628  155.7369 LP  0  0  0  0  0  0  0  0  0  0  0  0  # atno 17394 bound_to 11000
  141.1282  133.9346  157.2590 LP  0  0  0  0  0  0  0  0  0  0  0  0  # atno 17395 bound_to 11000

$$$$
