AV-unprocessed.smi:2888|AV-procd|sdf|11106|dock5
  -GOLD-   2272015573D 1   1.00000     0.00000
 Structure written by MMmdl.
 34 36  0  0  0  0  0  0  0  0  2 V2000
  152.6590  140.0780  158.9370 C   0  0  0  0  0  0  0  0  0  0  0  0
  152.1014  141.3608  158.3572 C   0  0  0  0  0  0  0  0  0  0  0  0
  152.4329  142.6186  158.8897 C   0  0  0  0  0  0  0  0  0  0  0  0
  151.8533  143.7412  158.2672 C   0  0  0  0  0  0  0  0  0  0  0  0
  152.1231  145.1530  158.7423 C   0  0  0  0  0  0  0  0  0  0  0  0
  151.0208  143.5778  157.2085 N   0  3  0  0  0  0  0  0  0  0  0  0
  150.7470  142.3454  156.7537 C   0  0  0  0  0  0  0  0  0  0  0  0
  149.8887  142.2395  155.6742 N   0  0  0  0  0  0  0  0  0  0  0  0
  149.4935  140.9746  155.0652 C   0  0  2  0  0  0  0  0  0  0  0  0
  148.6005  141.1488  153.8340 C   0  0  0  0  0  0  0  0  0  0  0  0
  147.3983  140.2624  154.1903 C   0  0  2  0  0  0  0  0  0  0  0  0
  146.5047  140.9258  155.2460 C   0  0  0  0  0  0  0  0  0  0  0  0
  147.3595  140.7908  156.5049 C   0  0  0  0  0  0  0  0  0  0  0  0
  148.6144  140.0833  155.9647 C   0  0  1  0  0  0  0  0  0  0  0  0
  148.0237  139.2594  154.9739 O   0  0  0  0  0  0  0  0  0  0  0  0
  151.2685  141.2393  157.3042 N   0  0  0  0  0  0  0  0  0  0  0  0
  153.3884  140.2842  159.7209 H   0  0  0  0  0  0  0  0  0  0  0  0
  153.1518  139.4917  158.1609 H   0  0  0  0  0  0  0  0  0  0  0  0
  151.8574  139.4764  159.3666 H   0  0  0  0  0  0  0  0  0  0  0  0
  153.0987  142.7190  159.7349 H   0  0  0  0  0  0  0  0  0  0  0  0
  152.9058  145.1691  159.5012 H   0  0  0  0  0  0  0  0  0  0  0  0
  151.2203  145.5859  159.1737 H   0  0  0  0  0  0  0  0  0  0  0  0
  152.4434  145.7817  157.9111 H   0  0  0  0  0  0  0  0  0  0  0  0
  149.3851  143.0707  155.4013 H   0  0  0  0  0  0  0  0  0  0  0  0
  150.3896  140.4250  154.7731 H   0  0  0  0  0  0  0  0  0  0  0  0
  148.3032  142.1816  153.6461 H   0  0  0  0  0  0  0  0  0  0  0  0
  149.1084  140.7773  152.9433 H   0  0  0  0  0  0  0  0  0  0  0  0
  146.8536  139.8847  153.3244 H   0  0  0  0  0  0  0  0  0  0  0  0
  146.2704  141.9620  155.0003 H   0  0  0  0  0  0  0  0  0  0  0  0
  145.5666  140.3814  155.3605 H   0  0  0  0  0  0  0  0  0  0  0  0
  147.5760  141.7486  156.9784 H   0  0  0  0  0  0  0  0  0  0  0  0
  146.8536  140.1622  157.2384 H   0  0  0  0  0  0  0  0  0  0  0  0
  149.1712  139.5335  156.7241 H   0  0  0  0  0  0  0  0  0  0  0  0
  150.6072  144.4000  156.7682 H   0  0  0  0  0  0  0  0  0  0  0  0
  1  2  1  0  0  0  0
  1 17  1  0  0  0  0
  1 18  1  0  0  0  0
  1 19  1  0  0  0  0
  2 16  1  0  0  0  0
  2  3  2  0  0  0  0
  3  4  1  0  0  0  0
  3 20  1  0  0  0  0
  4  5  1  0  0  0  0
  4  6  2  0  0  0  0
  5 21  1  0  0  0  0
  5 22  1  0  0  0  0
  5 23  1  0  0  0  0
  6  7  1  0  0  0  0
  6 34  1  0  0  0  0
  7  8  1  0  0  0  0
  7 16  2  0  0  0  0
  8  9  1  0  0  0  0
  8 24  1  0  0  0  0
  9 14  1  0  0  0  0
  9 10  1  0  0  0  0
  9 25  1  0  0  0  0
 10 11  1  0  0  0  0
 10 26  1  0  0  0  0
 10 27  1  0  0  0  0
 11 15  1  0  0  0  0
 11 12  1  0  0  0  0
 11 28  1  0  0  0  0
 12 13  1  0  0  0  0
 12 29  1  0  0  0  0
 12 30  1  0  0  0  0
 13 14  1  0  0  0  0
 13 31  1  0  0  0  0
 13 32  1  0  0  0  0
 14 15  1  0  0  0  0
 14 33  1  0  0  0  0
M  CHG  1   6   1
M  END
> <s_m_source_file>
AV-unprocessed.smi

> <i_m_source_file_index>
2888

> <i_lp_mmshare_version>
43012

> <i_f3d_flags>
0

> <s_epik_input>
W0NIM11jMVtjSF1jKFtDSDNdKW5jKG4xKVtOSF1bQ0BIXShbQ0gyXVtDQEBIXTIzKVtDQEBIXShPMylbQ0gyXVtDSDJdMg==

> <s_epik_cmdline>
J2VwaWtfcHl0aG9uJywgJy1waCcsICc3LjAnLCAnLXRuJywgJzgnLCAnLW1hJywgJzIwMCcsICctbWV0YWxfYmluZGluZycsICctaW1hZScsICc8aW5maWxlLm1hZT4nLCAnLW9tYWUnLCAnPG91dGZpbGUubWFlPic=

> <r_lp_tautomer_probability>
0.505494

> <r_epik_Ionization_Penalty>
2.49163

> <r_epik_Ionization_Penalty_Charging>
2.49163

> <r_epik_Ionization_Penalty_Neutral>
3.7631e-06

> <r_epik_State_Penalty>
2.656

> <r_epik_Charging_Adjusted_Penalty>
5.14762

> <i_epik_Tot_Q>
1

> <i_epik_Tot_abs_Q>
1

> <r_epik_Metal_State_Penalty>
2.66479

> <b_epik_Metal_Only>
0

> <s_lp_Force_Field>
OPLS_2005

> <r_lp_Energy>
36.4538

> <b_lp_Chiralities_Consistent>
1

> <s_lp_Variant>
AV-unprocessed.smi:2888-7

> <Gold.Version>
5.8.1

> <Gold.Id.Protein>
6NUR|6NUR_protein|mol2

> <Gold.PLP.Fitness>
38.9851

> <Gold.PLP.PLP>
-28.6258

> <Gold.PLP.part.hbond>
-2.0000

> <Gold.PLP.part.metal>
0.0000

> <Gold.PLP.part.buried>
-2.6177

> <Gold.PLP.part.nonpolar>
-24.8561

> <Gold.PLP.part.repulsive>
0.2545

> <Gold.PLP.ligand.clash>
0.0000

> <Gold.PLP.ligand.torsion>
0.0327

> <Gold.PLP.Chemscore.Hbond>
3.4720

> <Gold.PLP.Chemscore.CHOScore>
0.0000

> <Gold.PLP.Chemscore.Metal>
0.0000

> <Gold.Chemscore.Hbonds>
donor molecule, donor type, donor heavy atom, donor atom, acceptor molecule, acceptor atom, score
      L1  H     6    34       P1  8028  1.37
      L1  H     8    24       P1  8028  2.00

> <Gold.PLP.Chemscore.Internal.Correction>
0.0087

> <Gold.Rescore>
     Score         DG    S(hbond)    S(metal)    S(lipo)     H(rot)  DE(clash)    DE(int)     intcor
     17.66     -17.91       1.66        0.00      80.62       1.00       0.17       0.07       ----

> <Gold.Chemscore.Fitness>
17.6604

> <Gold.Chemscore.DG>
-17.9060

> <Gold.Chemscore.ZeroCoef>
-5.4800

> <Gold.Chemscore.Hbond>
1.6628

> <Gold.Chemscore.Metal>
0.0000

> <Gold.Chemscore.Lipo>
80.6173

> <Gold.Chemscore.Internal_Hbond>
0.0000

> <Gold.Chemscore.DEClash>
0.1736

> <Gold.Chemscore.DEInternal>
0.0719

> <Gold.Chemscore.Rot>
1.0000

> <Gold.Chemscore.Internal.Correction>
   9.000000E+99

> <Gold.Chemscore.Hbonds>
donor molecule, donor type, donor heavy atom, donor atom, acceptor molecule, acceptor atom, score
      L1  H     6    34       P1  8028  0.62
      L1  H     8    24       P1  8028  0.97

> <Gold.Chemscore.Hbond.Weighted>
-5.5537

> <Gold.Chemscore.Metal.Weighted>
-0.0000

> <Gold.Chemscore.Lipo.Weighted>
-9.4322

> <Gold.Chemscore.Internal_Hbond.Weighted>
0.0000

> <Gold.Chemscore.DEClash.Weighted>
0.1736

> <Gold.Chemscore.DEInternal.Weighted>
0.0719

> <Gold.Chemscore.Rot.Weighted>
2.5600

> <Gold.Chemscore.Internal.Correction.Weighted>
   9.000000E+99

> <Gold.Protein.RotatedTorsions>
[ 6907 6896 6895 6894 ] final -136.90 input  -60.11 | X-H torsion
[ 7974 7965 7964 7962 ] final  -14.11 input  175.53 | X-H torsion
[ 8008 7997 7996 7995 ] final -110.79 input   59.86 | X-H torsion
[ 10167 10162 10161 10158 ] final -127.23 input  -65.29 | X-H torsion
[ 10718 10713 10712 10709 ] final  107.11 input   66.30 | X-H torsion
[ 10763 10752 10751 10750 ] final   78.79 input  -60.55 | X-H torsion
[ 11005 11000 10999 10996 ] final  119.43 input  -57.11 | X-H torsion

> <Gold.Protein.ActiveResidues>
 VAL166  LYS551  ARG553  GLY616  TRP617  ASP618  TYR619  PRO620  LYS621  CYS622 
 ASP623  PHE694  ASN695  SER759  ASP760  ASP761  ALA762  ILE779  LEU786  VAL792 
 PHE793  MET794  SER795  GLU796  ALA797  LYS798  CYS799  TRP800  GLU811  SER814 

> <Gold.Protein.RotatedAtoms>
  151.0158  133.5923  159.2676 H   0  0  0  0  0  0  0  0  0  0  0  0  # atno 6907 bound_to 6896
  151.3058  135.0780  159.9264 H   0  0  0  0  0  0  0  0  0  0  0  0  # atno 6908 bound_to 6896
  152.5311  133.9831  159.7870 H   0  0  0  0  0  0  0  0  0  0  0  0  # atno 6909 bound_to 6896
  146.2087  140.3301  142.8398 H   0  0  0  0  0  0  0  0  0  0  0  0  # atno 7974 bound_to 7965
  154.9800  140.0396  157.2273 H   0  0  0  0  0  0  0  0  0  0  0  0  # atno 8008 bound_to 7997
  154.7723  140.2804  155.6106 H   0  0  0  0  0  0  0  0  0  0  0  0  # atno 8009 bound_to 7997
  156.2923  140.2607  156.2528 H   0  0  0  0  0  0  0  0  0  0  0  0  # atno 8010 bound_to 7997
  139.9631  143.5928  152.2438 H   0  0  0  0  0  0  0  0  0  0  0  0  # atno 10167 bound_to 10162
  157.6642  131.0865  150.6107 H   0  0  0  0  0  0  0  0  0  0  0  0  # atno 10718 bound_to 10713
  153.0902  135.4864  154.8675 H   0  0  0  0  0  0  0  0  0  0  0  0  # atno 10763 bound_to 10752
  154.7260  135.3049  154.8973 H   0  0  0  0  0  0  0  0  0  0  0  0  # atno 10764 bound_to 10752
  153.9623  135.6811  153.4798 H   0  0  0  0  0  0  0  0  0  0  0  0  # atno 10765 bound_to 10752
  139.9146  134.9628  156.7654 H   0  0  0  0  0  0  0  0  0  0  0  0  # atno 11005 bound_to 11000
  144.8858  140.7460  143.5958 LP  0  0  0  0  0  0  0  0  0  0  0  0  # atno 17320 bound_to 7965
  145.3223  139.1785  143.4581 LP  0  0  0  0  0  0  0  0  0  0  0  0  # atno 17321 bound_to 7965
  139.6539  144.7661  151.2094 LP  0  0  0  0  0  0  0  0  0  0  0  0  # atno 17342 bound_to 10162
  140.7547  143.6117  150.8599 LP  0  0  0  0  0  0  0  0  0  0  0  0  # atno 17343 bound_to 10162
  156.6408  130.4458  149.5753 LP  0  0  0  0  0  0  0  0  0  0  0  0  # atno 17370 bound_to 10713
  156.2211  130.6737  151.1369 LP  0  0  0  0  0  0  0  0  0  0  0  0  # atno 17371 bound_to 10713
  140.6664  133.9599  155.7832 LP  0  0  0  0  0  0  0  0  0  0  0  0  # atno 17394 bound_to 11000
  141.0608  134.0349  157.3661 LP  0  0  0  0  0  0  0  0  0  0  0  0  # atno 17395 bound_to 11000

$$$$
