#       Name:                AV-unprocessed.smi:2738
#       Creating user name   scv26
#       Creation time:       Fri Mar 27 14:59:57 2020


#       File generated by GOLD software.
#

@<TRIPOS>MOLECULE
AV-unprocessed.smi:2738
    36    37     1
SMALL
NO_CHARGES


@<TRIPOS>ATOM
      1 ****        -3.0249   2.1811  -0.7619 C.3            1 S1                 0.0000
      2 ****        -2.5622   1.8360   0.6592 C.3            1 S1                 0.0000
      3 ****        -1.3837   0.9732   0.6377 N.am           1 S1                 0.0000
      4 ****        -0.0903   1.3735   0.6489 C.2            1 S1                 0.0000
      5 ****         0.3060   2.5384   0.6791 O.2            1 S1                 0.0000
      6 ****         0.6918   0.2697   0.6024 N.am           1 S1                 0.0000
      7 ****         2.1528   0.2398   0.5838 C.3            1 S1                 0.0000
      8 ****         2.7017   0.1789  -0.8549 C.3            1 S1                 0.0000
      9 ****         4.1235  -0.3963  -0.9007 C.3            1 S1                 0.0000
     10 ****         2.7678   1.4891  -1.3798 O.3            1 S1                 0.0000
     11 ****        -0.1242  -0.8685   0.5307 C.ar           1 S1                 0.0000
     12 ****         0.1981  -2.2338   0.4388 C.ar           1 S1                 0.0000
     13 ****        -0.8786  -3.1490   0.3742 C.ar           1 S1                 0.0000
     14 ****        -2.2226  -2.6937   0.3997 C.ar           1 S1                 0.0000
     15 ****        -2.5186  -1.3132   0.4894 C.ar           1 S1                 0.0000
     16 ****        -1.4302  -0.4258   0.5542 C.ar           1 S1                 0.0000
     17 ****        -3.9034   2.8260  -0.7370 H              1 S1                 0.0000
     18 ****        -3.2880   1.2825  -1.3204 H              1 S1                 0.0000
     19 ****        -2.2442   2.7041  -1.3151 H              1 S1                 0.0000
     20 ****        -2.3417   2.7519   1.2095 H              1 S1                 0.0000
     21 ****        -3.3669   1.3428   1.2052 H              1 S1                 0.0000
     22 ****         2.5696   1.0885   1.1292 H              1 S1                 0.0000
     23 ****         2.4696  -0.6450   1.1369 H              1 S1                 0.0000
     24 ****         2.0541  -0.4287  -1.4885 H              1 S1                 0.0000
     25 ****         4.1424  -1.4211  -0.5291 H              1 S1                 0.0000
     26 ****         4.8108   0.1914  -0.2908 H              1 S1                 0.0000
     27 ****         4.5103  -0.4106  -1.9202 H              1 S1                 0.0000
     28 ****         1.9034   1.8705  -1.3488 H              1 S1                 0.0000
     29 ****         1.2227  -2.5744   0.4148 H              1 S1                 0.0000
     30 ****        -0.6749  -4.2073   0.3027 H              1 S1                 0.0000
     31 ****        -3.0298  -3.4095   0.3478 H              1 S1                 0.0000
     32 ****        -3.5392  -0.9605   0.5044 H              1 S1                 0.0000
     33 ****        -0.3530   3.2904   0.6979 LP             1 S1                 0.0000
     34 ****         1.2869   2.7329   0.6847 LP             1 S1                 0.0000
     35 ****         3.0880   1.4569  -2.3266 LP             1 S1                 0.0000
     36 ****         3.3987   2.0396  -0.8331 LP             1 S1                 0.0000
@<TRIPOS>BOND
    1    1    2 1     
    2    1   17 1     
    3    1   18 1     
    4    1   19 1     
    5    2    3 1     
    6    2   20 1     
    7    2   21 1     
    8    3   16 1     
    9    3    4 am    
   10    4    5 2     
   11    4    6 am    
   12    6    7 1     
   13    6   11 1     
   14    7    8 1     
   15    7   22 1     
   16    7   23 1     
   17    8    9 1     
   18    8   10 1     
   19    8   24 1     
   20    9   25 1     
   21    9   26 1     
   22    9   27 1     
   23   10   28 1     
   24   11   16 ar    
   25   11   12 ar    
   26   12   13 ar    
   27   12   29 1     
   28   13   14 ar    
   29   13   30 1     
   30   14   15 ar    
   31   14   31 1     
   32   15   16 ar    
   33   15   32 1     
   34    5   33 1     
   35    5   34 1     
   36   10   35 1     
   37   10   36 1     
@<TRIPOS>SUBSTRUCTURE
      1 S1             1
@<TRIPOS>SET
LONE_PAIRS      STATIC     ATOMS    <user>   **** ""
4 33 34 35 36
DONOR_HYDROGENS      STATIC     ATOMS    <user>   **** ""
1 28
ATOM$BLUE        STATIC     ATOMS    COLORGROUP SYSTEM
4 33 34 35 36
ATOM$RED        STATIC     ATOMS    COLORGROUP SYSTEM
1 28
