AV-unprocessed.smi:989|AV-procd|sdf|4325|dock3
  -GOLD-   22720 2233D 1   1.00000     0.00000
 Structure written by MMmdl.
 26 27  0  0  0  0  0  0  0  0  2 V2000
  153.2312  138.4902  156.8607 O   0  0  0  0  0  0  0  0  0  0  0  0
  152.7562  137.4441  157.3552 C   0  0  0  0  0  0  0  0  0  0  0  0
  152.5953  136.3622  156.7473 O   0  5  0  0  0  0  0  0  0  0  0  0
  152.3151  137.5008  158.8203 C   0  0  0  0  0  0  0  0  0  0  0  0
  152.6708  138.8517  159.3738 C   0  0  0  0  0  0  0  0  0  0  0  0
  153.5025  139.1128  160.4365 C   0  0  0  0  0  0  0  0  0  0  0  0
  153.6482  140.8198  160.7534 S   0  0  0  0  0  0  0  0  0  0  0  0
  152.5332  141.1234  159.4182 C   0  0  0  0  0  0  0  0  0  0  0  0
  152.1189  142.4117  158.9630 N   0  0  0  0  0  0  0  0  0  0  0  0
  152.7158  143.5825  159.6314 C   0  0  0  0  0  0  0  0  0  0  0  0
  151.7267  144.7467  159.7197 C   0  0  0  0  0  0  0  0  0  0  0  0
  151.1380  145.0126  158.3365 C   0  0  0  0  0  0  0  0  0  0  0  0
  150.7497  143.7643  157.6894 N   0  0  0  0  0  0  0  0  0  0  0  0
  151.2797  142.5408  157.8956 C   0  0  0  0  0  0  0  0  0  0  0  0
  150.9554  141.6053  157.1646 O   0  0  0  0  0  0  0  0  0  0  0  0
  152.1219  140.0076  158.8062 N   0  0  0  0  0  0  0  0  0  0  0  0
  151.2431  137.3130  158.8965 H   0  0  0  0  0  0  0  0  0  0  0  0
  152.8156  136.7074  159.3764 H   0  0  0  0  0  0  0  0  0  0  0  0
  154.0456  138.4024  161.0416 H   0  0  0  0  0  0  0  0  0  0  0  0
  153.0498  143.3301  160.6390 H   0  0  0  0  0  0  0  0  0  0  0  0
  153.6026  143.8851  159.0726 H   0  0  0  0  0  0  0  0  0  0  0  0
  150.9260  144.4890  160.4145 H   0  0  0  0  0  0  0  0  0  0  0  0
  152.2107  145.6407  160.1137 H   0  0  0  0  0  0  0  0  0  0  0  0
  150.2745  145.6744  158.4063 H   0  0  0  0  0  0  0  0  0  0  0  0
  151.8744  145.5100  157.7043 H   0  0  0  0  0  0  0  0  0  0  0  0
  150.0834  143.8476  156.9352 H   0  0  0  0  0  0  0  0  0  0  0  0
  1  2  2  0  0  0  0
  2  3  1  0  0  0  0
  2  4  1  0  0  0  0
  4  5  1  0  0  0  0
  4 17  1  0  0  0  0
  4 18  1  0  0  0  0
  5 16  1  0  0  0  0
  5  6  2  0  0  0  0
  6  7  1  0  0  0  0
  6 19  1  0  0  0  0
  7  8  1  0  0  0  0
  8  9  1  0  0  0  0
  8 16  2  0  0  0  0
  9 14  1  0  0  0  0
  9 10  1  0  0  0  0
 10 11  1  0  0  0  0
 10 20  1  0  0  0  0
 10 21  1  0  0  0  0
 11 12  1  0  0  0  0
 11 22  1  0  0  0  0
 11 23  1  0  0  0  0
 12 13  1  0  0  0  0
 12 24  1  0  0  0  0
 12 25  1  0  0  0  0
 13 14  1  0  0  0  0
 13 26  1  0  0  0  0
 14 15  2  0  0  0  0
M  CHG  1   3  -1
M  END
> <s_m_source_file>
AV-unprocessed.smi

> <i_m_source_file_index>
989

> <i_lp_mmshare_version>
43012

> <i_f3d_flags>
0

> <s_epik_input>
Tz1DKFtPSF0pW0NIMl1jMVtjSF1zYyhuMSlOMltDSDJdW0NIMl1bQ0gyXVtOSF1DMj1P

> <s_epik_cmdline>
J2VwaWtfcHl0aG9uJywgJy1waCcsICc3LjAnLCAnLXRuJywgJzgnLCAnLW1hJywgJzIwMCcsICctbWV0YWxfYmluZGluZycsICctaW1hZScsICc8aW5maWxlLm1hZT4nLCAnLW9tYWUnLCAnPG91dGZpbGUubWFlPic=

> <r_lp_tautomer_probability>
1

> <r_epik_Ionization_Penalty>
0.00100312

> <r_epik_Ionization_Penalty_Charging>
0.000722293

> <r_epik_Ionization_Penalty_Neutral>
0.000280832

> <r_epik_State_Penalty>
0.000460635

> <r_epik_Charging_Adjusted_Penalty>
0.00118293

> <i_epik_Tot_Q>
-1

> <i_epik_Tot_abs_Q>
1

> <r_epik_Metal_State_Penalty>
-0

> <b_epik_Metal_Only>
0

> <s_lp_Force_Field>
OPLS_2005

> <r_lp_Energy>
35.7011

> <b_lp_Chiralities_Consistent>
1

> <s_lp_Variant>
AV-unprocessed.smi:989-1

> <Gold.Version>
5.8.1

> <Gold.Id.Protein>
6NUR|6NUR_protein|mol2

> <Gold.PLP.Fitness>
46.3713

> <Gold.PLP.PLP>
-31.4017

> <Gold.PLP.part.hbond>
-3.0000

> <Gold.PLP.part.metal>
0.0000

> <Gold.PLP.part.buried>
-5.6267

> <Gold.PLP.part.nonpolar>
-23.3819

> <Gold.PLP.part.repulsive>
0.0578

> <Gold.PLP.ligand.clash>
0.0000

> <Gold.PLP.ligand.torsion>
0.0187

> <Gold.PLP.Chemscore.Hbond>
5.0000

> <Gold.PLP.Chemscore.CHOScore>
0.0000

> <Gold.PLP.Chemscore.Metal>
0.0000

> <Gold.Chemscore.Hbonds>
donor molecule, donor type, donor heavy atom, donor atom, acceptor molecule, acceptor atom, score
      L1  H    13    26       P1  8028  1.00
      P1  H  7997  8008       L1     1  2.00
      P1  H 10752 10763       L1     3  2.00

> <Gold.PLP.Chemscore.Internal.Correction>
0.0070

> <Gold.Rescore>
     Score         DG    S(hbond)    S(metal)    S(lipo)     H(rot)  DE(clash)    DE(int)     intcor
     15.49     -18.66       2.93        0.00      62.76       1.54       0.00       3.17       ----

> <Gold.Chemscore.Fitness>
15.4901

> <Gold.Chemscore.DG>
-18.6578

> <Gold.Chemscore.ZeroCoef>
-5.4800

> <Gold.Chemscore.Hbond>
2.9263

> <Gold.Chemscore.Metal>
0.0000

> <Gold.Chemscore.Lipo>
62.7589

> <Gold.Chemscore.Internal_Hbond>
0.0000

> <Gold.Chemscore.DEClash>
0.0000

> <Gold.Chemscore.DEInternal>
3.1677

> <Gold.Chemscore.Rot>
1.5386

> <Gold.Chemscore.Internal.Correction>
   9.000000E+99

> <Gold.Chemscore.Hbonds>
donor molecule, donor type, donor heavy atom, donor atom, acceptor molecule, acceptor atom, score
      L1  H    13    26       P1  8028  0.96
      P1  H  7997  8008       L1     1  0.95
      P1  H 10752 10763       L1     3  0.98

> <Gold.Chemscore.Hbond.Weighted>
-9.7738

> <Gold.Chemscore.Metal.Weighted>
-0.0000

> <Gold.Chemscore.Lipo.Weighted>
-7.3428

> <Gold.Chemscore.Internal_Hbond.Weighted>
0.0000

> <Gold.Chemscore.DEClash.Weighted>
0.0000

> <Gold.Chemscore.DEInternal.Weighted>
3.1677

> <Gold.Chemscore.Rot.Weighted>
3.9388

> <Gold.Chemscore.Internal.Correction.Weighted>
   9.000000E+99

> <Gold.Protein.RotatedTorsions>
[ 6907 6896 6895 6894 ] final   17.49 input  -60.11 | X-H torsion
[ 7974 7965 7964 7962 ] final  136.90 input  175.53 | X-H torsion
[ 8008 7997 7996 7995 ] final  -62.28 input   59.86 | X-H torsion
[ 10167 10162 10161 10158 ] final  174.60 input  -65.29 | X-H torsion
[ 10718 10713 10712 10709 ] final  -97.87 input   66.30 | X-H torsion
[ 10763 10752 10751 10750 ] final  116.85 input  -60.55 | X-H torsion
[ 11005 11000 10999 10996 ] final  -33.90 input  -57.11 | X-H torsion

> <Gold.Protein.ActiveResidues>
 VAL166  LYS551  ARG553  GLY616  TRP617  ASP618  TYR619  PRO620  LYS621  CYS622 
 ASP623  PHE694  ASN695  SER759  ASP760  ASP761  ALA762  ILE779  LEU786  VAL792 
 PHE793  MET794  SER795  GLU796  ALA797  LYS798  CYS799  TRP800  GLU811  SER814 

> <Gold.Protein.RotatedAtoms>
  151.8505  135.0559  160.0458 H   0  0  0  0  0  0  0  0  0  0  0  0  # atno 6907 bound_to 6896
  152.2740  133.5404  159.5465 H   0  0  0  0  0  0  0  0  0  0  0  0  # atno 6908 bound_to 6896
  150.7163  134.0574  159.3861 H   0  0  0  0  0  0  0  0  0  0  0  0  # atno 6909 bound_to 6896
  144.9520  139.4808  143.5521 H   0  0  0  0  0  0  0  0  0  0  0  0  # atno 7974 bound_to 7965
  154.4491  140.0999  156.6563 H   0  0  0  0  0  0  0  0  0  0  0  0  # atno 8008 bound_to 7997
  155.5342  140.3482  155.4414 H   0  0  0  0  0  0  0  0  0  0  0  0  # atno 8009 bound_to 7997
  156.0642  140.1334  156.9894 H   0  0  0  0  0  0  0  0  0  0  0  0  # atno 8010 bound_to 7997
  139.5148  144.3127  152.0276 H   0  0  0  0  0  0  0  0  0  0  0  0  # atno 10167 bound_to 10162
  156.0094  130.5213  150.6438 H   0  0  0  0  0  0  0  0  0  0  0  0  # atno 10718 bound_to 10713
  153.5434  135.3554  155.2728 H   0  0  0  0  0  0  0  0  0  0  0  0  # atno 10763 bound_to 10752
  154.8715  135.4096  154.3018 H   0  0  0  0  0  0  0  0  0  0  0  0  # atno 10764 bound_to 10752
  153.3730  135.7065  153.6692 H   0  0  0  0  0  0  0  0  0  0  0  0  # atno 10765 bound_to 10752
  140.9673  133.7130  156.1465 H   0  0  0  0  0  0  0  0  0  0  0  0  # atno 11005 bound_to 11000
  146.3324  139.8612  142.8856 LP  0  0  0  0  0  0  0  0  0  0  0  0  # atno 17320 bound_to 7965
  145.2829  141.0144  143.3707 LP  0  0  0  0  0  0  0  0  0  0  0  0  # atno 17321 bound_to 7965
  140.2571  144.4106  150.6199 LP  0  0  0  0  0  0  0  0  0  0  0  0  # atno 17342 bound_to 10162
  140.6183  143.2174  151.6746 LP  0  0  0  0  0  0  0  0  0  0  0  0  # atno 17343 bound_to 10162
  157.4213  131.0837  151.1128 LP  0  0  0  0  0  0  0  0  0  0  0  0  # atno 17370 bound_to 10713
  157.1729  130.6275  149.5646 LP  0  0  0  0  0  0  0  0  0  0  0  0  # atno 17371 bound_to 10713
  140.7381  134.4180  157.5558 LP  0  0  0  0  0  0  0  0  0  0  0  0  # atno 17394 bound_to 11000
  139.8899  134.8818  156.2397 LP  0  0  0  0  0  0  0  0  0  0  0  0  # atno 17395 bound_to 11000

$$$$
