AV-unprocessed.smi:2391|AV-procd|sdf|9486|dock1
  -GOLD-   2272013113D 1   1.00000     0.00000
 Structure written by MMmdl.
 34 35  0  0  0  0  0  0  0  0  2 V2000
  150.6305  140.7091  158.3196 O   0  0  0  0  0  0  0  0  0  0  0  0
  151.8161  140.8298  158.0040 C   0  0  0  0  0  0  0  0  0  0  0  0
  152.4726  140.1049  157.0684 N   0  5  0  0  0  0  0  0  0  0  0  0
  151.8042  139.5581  156.0417 C   0  0  0  0  0  0  0  0  0  0  0  0
  152.0894  138.2387  155.6244 C   0  0  0  0  0  0  0  0  0  0  0  0
  151.3733  137.7108  154.5370 C   0  0  0  0  0  0  0  0  0  0  0  0
  150.4177  138.5444  153.9325 C   0  0  0  0  0  0  0  0  0  0  0  0
  150.1804  139.8035  154.3589 N   0  0  0  0  0  0  0  0  0  0  0  0
  150.8677  140.2978  155.3949 N   0  0  0  0  0  0  0  0  0  0  0  0
  152.5877  141.7414  158.6142 N   0  0  0  0  0  0  0  0  0  0  0  0
  152.1824  142.6786  159.6652 C   0  0  1  0  0  0  0  0  0  0  0  0
  153.2305  142.6628  160.8090 C   0  0  0  0  0  0  0  0  0  0  0  0
  153.7127  141.2624  161.2092 C   0  0  0  0  0  0  0  0  0  0  0  0
  154.3666  141.4456  162.5802 C   0  0  0  0  0  0  0  0  0  0  0  0
  153.6802  142.6618  163.2160 C   0  0  0  0  0  0  0  0  0  0  0  0
  152.7455  143.2398  162.1457 C   0  0  0  0  0  0  0  0  0  0  0  0
  151.9727  144.0720  159.0296 C   0  0  0  0  0  0  0  0  0  0  0  0
  150.9681  144.0243  158.1535 F   0  0  0  0  0  0  0  0  0  0  0  0
  151.6579  144.9774  159.9550 F   0  0  0  0  0  0  0  0  0  0  0  0
  153.0750  144.4710  158.3935 F   0  0  0  0  0  0  0  0  0  0  0  0
  152.8378  137.6446  156.1284 H   0  0  0  0  0  0  0  0  0  0  0  0
  151.5501  136.7070  154.1807 H   0  0  0  0  0  0  0  0  0  0  0  0
  149.8344  138.1982  153.0922 H   0  0  0  0  0  0  0  0  0  0  0  0
  153.5497  141.7974  158.3136 H   0  0  0  0  0  0  0  0  0  0  0  0
  151.2221  142.3688  160.0809 H   0  0  0  0  0  0  0  0  0  0  0  0
  154.1046  143.2346  160.4927 H   0  0  0  0  0  0  0  0  0  0  0  0
  152.8595  140.5884  161.2995 H   0  0  0  0  0  0  0  0  0  0  0  0
  154.3995  140.8284  160.4818 H   0  0  0  0  0  0  0  0  0  0  0  0
  154.2757  140.5502  163.1956 H   0  0  0  0  0  0  0  0  0  0  0  0
  155.4305  141.6506  162.4561 H   0  0  0  0  0  0  0  0  0  0  0  0
  153.1234  142.3868  164.1124 H   0  0  0  0  0  0  0  0  0  0  0  0
  154.4280  143.3991  163.5103 H   0  0  0  0  0  0  0  0  0  0  0  0
  152.7474  144.3300  162.1555 H   0  0  0  0  0  0  0  0  0  0  0  0
  151.7246  142.9097  162.3429 H   0  0  0  0  0  0  0  0  0  0  0  0
  1  2  2  0  0  0  0
  2  3  1  0  0  0  0
  2 10  1  0  0  0  0
  3  4  1  0  0  0  0
  4  9  1  0  0  0  0
  4  5  2  0  0  0  0
  5  6  1  0  0  0  0
  5 21  1  0  0  0  0
  6  7  2  0  0  0  0
  6 22  1  0  0  0  0
  7  8  1  0  0  0  0
  7 23  1  0  0  0  0
  8  9  2  0  0  0  0
 10 11  1  0  0  0  0
 10 24  1  0  0  0  0
 11 12  1  0  0  0  0
 11 17  1  0  0  0  0
 11 25  1  0  0  0  0
 12 16  1  0  0  0  0
 12 13  1  0  0  0  0
 12 26  1  0  0  0  0
 13 14  1  0  0  0  0
 13 27  1  0  0  0  0
 13 28  1  0  0  0  0
 14 15  1  0  0  0  0
 14 29  1  0  0  0  0
 14 30  1  0  0  0  0
 15 16  1  0  0  0  0
 15 31  1  0  0  0  0
 15 32  1  0  0  0  0
 16 33  1  0  0  0  0
 16 34  1  0  0  0  0
 17 18  1  0  0  0  0
 17 19  1  0  0  0  0
 17 20  1  0  0  0  0
M  CHG  1   3  -1
M  END
> <s_m_source_file>
AV-unprocessed.smi

> <i_m_source_file_index>
2391

> <i_lp_mmshare_version>
43012

> <i_f3d_flags>
0

> <s_epik_input>
W0NIMl0xW0NIMl1bQ0gyXVtDSDJdW0NIXTFbQ0BIXShDKEYpKEYpRilbTkhdQyg9TylbTkhdYzJbY0hdW2NIXVtjSF1ubjI=

> <s_epik_cmdline>
J2VwaWtfcHl0aG9uJywgJy1waCcsICc3LjAnLCAnLXRuJywgJzgnLCAnLW1hJywgJzIwMCcsICctbWV0YWxfYmluZGluZycsICctaW1hZScsICc8aW5maWxlLm1hZT4nLCAnLW9tYWUnLCAnPG91dGZpbGUubWFlPic=

> <r_lp_tautomer_probability>
1

> <r_epik_Ionization_Penalty>
8.90766

> <r_epik_Ionization_Penalty_Charging>
5.82661

> <r_epik_Ionization_Penalty_Neutral>
3.08106

> <r_epik_State_Penalty>
5.83894

> <r_epik_Charging_Adjusted_Penalty>
11.6655

> <i_epik_Tot_Q>
-1

> <i_epik_Tot_abs_Q>
1

> <r_epik_Metal_State_Penalty>
1.80768

> <b_epik_Metal_Only>
1

> <s_lp_Force_Field>
OPLS_2005

> <r_lp_Energy>
28.2955

> <b_lp_Chiralities_Consistent>
1

> <s_lp_Variant>
AV-unprocessed.smi:2391-6

> <Gold.Version>
5.8.1

> <Gold.Id.Protein>
6NUR|6NUR_protein|mol2

> <Gold.PLP.Fitness>
60.4926

> <Gold.PLP.PLP>
-50.8084

> <Gold.PLP.part.hbond>
-3.0000

> <Gold.PLP.part.metal>
0.0000

> <Gold.PLP.part.buried>
-1.7467

> <Gold.PLP.part.nonpolar>
-44.5246

> <Gold.PLP.part.repulsive>
0.2483

> <Gold.PLP.ligand.clash>
0.0000

> <Gold.PLP.ligand.torsion>
0.9973

> <Gold.PLP.Chemscore.Hbond>
2.0000

> <Gold.PLP.Chemscore.CHOScore>
1.7101

> <Gold.PLP.Chemscore.Metal>
0.0000

> <Gold.Chemscore.Hbonds>
donor molecule, donor type, donor heavy atom, donor atom, acceptor molecule, acceptor atom, score
      P1  H  7997  8010       L1     3  2.00
      L1  C     7    23       P1  7948  1.00
      L1  C     7    23       P1  7957  0.45

> <Gold.PLP.Chemscore.Internal.Correction>
0.5486

> <Gold.Rescore>
     Score         DG    S(hbond)    S(metal)    S(lipo)     H(rot)  DE(clash)    DE(int)     intcor
     14.28     -16.82       0.94        0.00      98.93       1.32       0.39       2.15       ----

> <Gold.Chemscore.Fitness>
14.2823

> <Gold.Chemscore.DG>
-16.8221

> <Gold.Chemscore.ZeroCoef>
-5.4800

> <Gold.Chemscore.Hbond>
0.9403

> <Gold.Chemscore.Metal>
0.0000

> <Gold.Chemscore.Lipo>
98.9327

> <Gold.Chemscore.Internal_Hbond>
0.0000

> <Gold.Chemscore.DEClash>
0.3893

> <Gold.Chemscore.DEInternal>
2.1505

> <Gold.Chemscore.Rot>
1.3179

> <Gold.Chemscore.Internal.Correction>
   9.000000E+99

> <Gold.Chemscore.Hbonds>
donor molecule, donor type, donor heavy atom, donor atom, acceptor molecule, acceptor atom, score
      P1  H  7997  8010       L1     3  0.43

> <Gold.Chemscore.Hbond.Weighted>
-3.1407

> <Gold.Chemscore.Metal.Weighted>
-0.0000

> <Gold.Chemscore.Lipo.Weighted>
-11.5751

> <Gold.Chemscore.Internal_Hbond.Weighted>
0.0000

> <Gold.Chemscore.DEClash.Weighted>
0.3893

> <Gold.Chemscore.DEInternal.Weighted>
2.1505

> <Gold.Chemscore.Rot.Weighted>
3.3737

> <Gold.Chemscore.Internal.Correction.Weighted>
   9.000000E+99

> <Gold.Protein.RotatedTorsions>
[ 6907 6896 6895 6894 ] final  110.96 input  -60.11 | X-H torsion
[ 7974 7965 7964 7962 ] final  136.64 input  175.53 | X-H torsion
[ 8008 7997 7996 7995 ] final   70.71 input   59.86 | X-H torsion
[ 10167 10162 10161 10158 ] final  131.90 input  -65.29 | X-H torsion
[ 10718 10713 10712 10709 ] final  102.21 input   66.30 | X-H torsion
[ 10763 10752 10751 10750 ] final  -18.72 input  -60.55 | X-H torsion
[ 11005 11000 10999 10996 ] final -103.98 input  -57.11 | X-H torsion

> <Gold.Protein.ActiveResidues>
 VAL166  LYS551  ARG553  GLY616  TRP617  ASP618  TYR619  PRO620  LYS621  CYS622 
 ASP623  PHE694  ASN695  SER759  ASP760  ASP761  ALA762  ILE779  LEU786  VAL792 
 PHE793  MET794  SER795  GLU796  ALA797  LYS798  CYS799  TRP800  GLU811  SER814 

> <Gold.Protein.RotatedAtoms>
  152.4993  133.8725  159.7305 H   0  0  0  0  0  0  0  0  0  0  0  0  # atno 6907 bound_to 6896
  150.9208  133.6874  159.2839 H   0  0  0  0  0  0  0  0  0  0  0  0  # atno 6908 bound_to 6896
  151.4251  135.1007  159.9678 H   0  0  0  0  0  0  0  0  0  0  0  0  # atno 6909 bound_to 6896
  144.9545  139.4780  143.5509 H   0  0  0  0  0  0  0  0  0  0  0  0  # atno 7974 bound_to 7965
  155.7429  140.3490  155.5113 H   0  0  0  0  0  0  0  0  0  0  0  0  # atno 8008 bound_to 7997
  155.9077  140.1045  157.1324 H   0  0  0  0  0  0  0  0  0  0  0  0  # atno 8009 bound_to 7997
  154.4052  140.1274  156.4504 H   0  0  0  0  0  0  0  0  0  0  0  0  # atno 8010 bound_to 7997
  139.5363  144.6686  151.4773 H   0  0  0  0  0  0  0  0  0  0  0  0  # atno 10167 bound_to 10162
  157.6808  131.0747  150.5370 H   0  0  0  0  0  0  0  0  0  0  0  0  # atno 10718 bound_to 10713
  153.5937  135.7001  153.5413 H   0  0  0  0  0  0  0  0  0  0  0  0  # atno 10763 bound_to 10752
  153.3157  135.4088  155.1373 H   0  0  0  0  0  0  0  0  0  0  0  0  # atno 10764 bound_to 10752
  154.8596  135.3683  154.5469 H   0  0  0  0  0  0  0  0  0  0  0  0  # atno 10765 bound_to 10752
  141.1121  133.8685  157.1554 H   0  0  0  0  0  0  0  0  0  0  0  0  # atno 11005 bound_to 11000
  146.3332  139.8653  142.8849 LP  0  0  0  0  0  0  0  0  0  0  0  0  # atno 17320 bound_to 7965
  145.2793  141.0133  143.3727 LP  0  0  0  0  0  0  0  0  0  0  0  0  # atno 17321 bound_to 7965
  140.6572  143.8575  150.6847 LP  0  0  0  0  0  0  0  0  0  0  0  0  # atno 17342 bound_to 10162
  140.1958  143.3999  152.1829 LP  0  0  0  0  0  0  0  0  0  0  0  0  # atno 17343 bound_to 10162
  156.5678  130.4272  149.6033 LP  0  0  0  0  0  0  0  0  0  0  0  0  # atno 17370 bound_to 10713
  156.2766  130.7047  151.1860 LP  0  0  0  0  0  0  0  0  0  0  0  0  # atno 17371 bound_to 10713
  140.0021  135.0023  157.0213 LP  0  0  0  0  0  0  0  0  0  0  0  0  # atno 17394 bound_to 11000
  140.4746  134.1351  155.7208 LP  0  0  0  0  0  0  0  0  0  0  0  0  # atno 17395 bound_to 11000

$$$$
