#       Name:                AV-unprocessed.smi:3265
#       Creating user name   scv26
#       Creation time:       Fri Mar 27 18:40:10 2020


#       File generated by GOLD software.
#

@<TRIPOS>MOLECULE
AV-unprocessed.smi:3265
    44    45     1
SMALL
NO_CHARGES


@<TRIPOS>ATOM
      1 ****         0.2576   2.2855  -1.2858 C.3            1 S1                 0.0000
      2 ****        -0.7373   1.5079  -2.1628 C.3            1 S1                 0.0000
      3 ****        -2.1786   1.5594  -1.6210 C.3            1 S1                 0.0000
      4 ****        -2.3465   0.6590  -0.3884 C.3            1 S1                 0.0000
      5 ****        -1.8712  -0.7721  -0.6825 C.3            1 S1                 0.0000
      6 ****        -0.4652  -0.7745  -1.1582 N.4            1 S1                 1.0000
      7 ****         0.0950  -2.1428  -1.2982 C.3            1 S1                 0.0000
      8 ****         1.6222  -2.1780  -1.0798 C.3            1 S1                 0.0000
      9 ****         2.0264  -1.4833   0.1395 N.am           1 S1                 0.0000
     10 ****         1.7937  -1.9217   1.3866 C.2            1 S1                 0.0000
     11 ****         1.2482  -2.9958   1.6365 O.2            1 S1                 0.0000
     12 ****         2.2152  -0.9952   2.5261 C.3            1 S1                 0.0000
     13 ****         1.2508   0.0769   2.7004 N.pl3          1 S1                 0.0000
     14 ****         0.0116   0.0260   3.3049 C.2            1 S1                 0.0000
     15 ****        -0.5312   1.2764   3.2262 C.2            1 S1                 0.0000
     16 ****         0.4653   2.0355   2.5520 C.2            1 S1                 0.0000
     17 ****         1.5274   1.3135   2.2322 N.2            1 S1                 0.0000
     18 ****        -0.2936   0.0476  -2.3853 C.3            1 S1                 0.0000
     19 ****         0.3523   1.8415  -0.2965 H              1 S1                 0.0000
     20 ****        -0.0566   3.3216  -1.1574 H              1 S1                 0.0000
     21 ****         1.2507   2.2974  -1.7356 H              1 S1                 0.0000
     22 ****        -0.7387   2.0016  -3.1356 H              1 S1                 0.0000
     23 ****        -2.4631   2.5849  -1.3829 H              1 S1                 0.0000
     24 ****        -2.8659   1.2256  -2.3998 H              1 S1                 0.0000
     25 ****        -1.7841   1.0676   0.4516 H              1 S1                 0.0000
     26 ****        -3.3916   0.6463  -0.0782 H              1 S1                 0.0000
     27 ****        -1.9542  -1.3666   0.2281 H              1 S1                 0.0000
     28 ****        -2.5127  -1.2404  -1.4309 H              1 S1                 0.0000
     29 ****        -0.3650  -2.7984  -0.5579 H              1 S1                 0.0000
     30 ****        -0.1677  -2.5633  -2.2700 H              1 S1                 0.0000
     31 ****         1.9759  -3.2098  -1.0547 H              1 S1                 0.0000
     32 ****         2.1327  -1.7035  -1.9176 H              1 S1                 0.0000
     33 ****         2.4929  -0.5938   0.0298 H              1 S1                 0.0000
     34 ****         2.2863  -1.5571   3.4583 H              1 S1                 0.0000
     35 ****         3.2031  -0.5762   2.3267 H              1 S1                 0.0000
     36 ****        -0.3758  -0.8862   3.7346 H              1 S1                 0.0000
     37 ****        -1.4922   1.6008   3.5968 H              1 S1                 0.0000
     38 ****         0.4462   3.0808   2.2807 H              1 S1                 0.0000
     39 ****        -0.8788  -0.3952  -3.1930 H              1 S1                 0.0000
     40 ****         0.7471   0.0274  -2.7099 H              1 S1                 0.0000
     41 ****         0.0713  -0.3279  -0.4278 H              1 S1                 0.0000
     42 ****         0.9530  -3.5923   0.8901 LP             1 S1                 0.0000
     43 ****         1.0999  -3.2724   2.5860 LP             1 S1                 0.0000
     44 ****         2.3505   1.6157   1.7515 LP             1 S1                 0.0000
@<TRIPOS>BOND
    1    1    2 1     
    2    1   19 1     
    3    1   20 1     
    4    1   21 1     
    5    2   18 1     
    6    2    3 1     
    7    2   22 1     
    8    3    4 1     
    9    3   23 1     
   10    3   24 1     
   11    4    5 1     
   12    4   25 1     
   13    4   26 1     
   14    5    6 1     
   15    5   27 1     
   16    5   28 1     
   17    6    7 1     
   18    6   18 1     
   19    6   41 1     
   20    7    8 1     
   21    7   29 1     
   22    7   30 1     
   23    8    9 1     
   24    8   31 1     
   25    8   32 1     
   26    9   10 am    
   27    9   33 1     
   28   10   11 2     
   29   10   12 1     
   30   12   13 1     
   31   12   34 1     
   32   12   35 1     
   33   13   17 1     
   34   13   14 1     
   35   14   15 2     
   36   14   36 1     
   37   15   16 1     
   38   15   37 1     
   39   16   17 2     
   40   16   38 1     
   41   18   39 1     
   42   18   40 1     
   43   11   42 1     
   44   11   43 1     
   45   17   44 1     
@<TRIPOS>SUBSTRUCTURE
      1 S1             1
@<TRIPOS>SET
LONE_PAIRS      STATIC     ATOMS    <user>   **** ""
3 42 43 44
DONOR_HYDROGENS      STATIC     ATOMS    <user>   **** ""
2 41 33
ATOM$BLUE        STATIC     ATOMS    COLORGROUP SYSTEM
3 42 43 44
ATOM$RED        STATIC     ATOMS    COLORGROUP SYSTEM
2 41 33
