#       Name:                AV-unprocessed.smi:1965
#       Creating user name   scv26
#       Creation time:       Fri Mar 27 10:10:59 2020


#       File generated by GOLD software.
#

@<TRIPOS>MOLECULE
AV-unprocessed.smi:1965
    40    42     1
SMALL
NO_CHARGES


@<TRIPOS>ATOM
      1 ****        -2.0740  -2.6048  -1.0039 O.2            1 S1                 0.0000
      2 ****        -0.8605  -2.6109  -0.8017 C.2            1 S1                 0.0000
      3 ****        -0.1088  -3.7422  -0.7920 N.pl3          1 S1                -1.0000
      4 ****         1.2084  -3.7353  -0.5157 C.2            1 S1                 0.0000
      5 ****         2.1549  -3.6890  -1.4603 N.2            1 S1                 0.0000
      6 ****         3.4529  -3.6905  -0.9462 C.2            1 S1                 0.0000
      7 ****         3.4956  -3.7432   0.4220 C.2            1 S1                 0.0000
      8 ****         1.8974  -3.7938   1.1092 S.3            1 S1                 0.0000
      9 ****        -0.2335  -1.4411  -0.5775 N.am           1 S1                 0.0000
     10 ****        -0.8656  -0.1291  -0.5190 C.3            1 S1                 0.0000
     11 ****        -1.2834   0.4308  -1.8876 C.3            1 S1                 0.0000
     12 ****        -0.9866   1.9418  -1.8171 C.3            1 S1                 0.0000
     13 ****        -0.4867   2.2159  -0.4496 N.4            1 S1                 1.0000
     14 ****        -1.5537   2.7527   0.4392 C.3            1 S1                 0.0000
     15 ****        -1.1090   2.8124   1.9064 C.3            1 S1                 0.0000
     16 ****        -0.6951   1.4203   2.3897 C.3            1 S1                 0.0000
     17 ****         0.4397   0.8904   1.5070 C.3            1 S1                 0.0000
     18 ****         0.1060   0.9332  -0.0011 C.3            1 S1                 0.0000
     19 ****         4.2891  -3.6540  -1.6284 H              1 S1                 0.0000
     20 ****         4.3635  -3.7585   1.0640 H              1 S1                 0.0000
     21 ****         0.7636  -1.4752  -0.4234 H              1 S1                 0.0000
     22 ****        -1.7385  -0.1762   0.1342 H              1 S1                 0.0000
     23 ****        -0.7066  -0.0223  -2.6955 H              1 S1                 0.0000
     24 ****        -2.3371   0.2316  -2.0865 H              1 S1                 0.0000
     25 ****        -0.1986   2.1930  -2.5280 H              1 S1                 0.0000
     26 ****        -1.8567   2.5481  -2.0733 H              1 S1                 0.0000
     27 ****        -1.8312   3.7502   0.0968 H              1 S1                 0.0000
     28 ****        -2.4501   2.1356   0.3593 H              1 S1                 0.0000
     29 ****        -0.2777   3.5099   2.0169 H              1 S1                 0.0000
     30 ****        -1.9211   3.1946   2.5256 H              1 S1                 0.0000
     31 ****        -0.3718   1.4626   3.4303 H              1 S1                 0.0000
     32 ****        -1.5480   0.7415   2.3558 H              1 S1                 0.0000
     33 ****         1.3279   1.4981   1.6847 H              1 S1                 0.0000
     34 ****         0.7067  -0.1240   1.8055 H              1 S1                 0.0000
     35 ****         1.0453   0.8176  -0.5464 H              1 S1                 0.0000
     36 ****         0.2448   2.9107  -0.4943 H              1 S1                 0.0000
     37 ****        -2.5571  -3.4640  -1.1727 LP             1 S1                 0.0000
     38 ****        -2.5773  -1.7407  -0.9994 LP             1 S1                 0.0000
     39 ****        -0.5517  -4.6148  -0.9983 LP             1 S1                 0.0000
     40 ****         1.9523  -3.6565  -2.4390 LP             1 S1                 0.0000
@<TRIPOS>BOND
    1    1    2 2     
    2    2    3 1     
    3    2    9 am    
    4    3    4 1     
    5    4    8 1     
    6    4    5 2     
    7    5    6 1     
    8    6    7 2     
    9    6   19 1     
   10    7    8 1     
   11    7   20 1     
   12    9   10 1     
   13    9   21 1     
   14   10   18 1     
   15   10   11 1     
   16   10   22 1     
   17   11   12 1     
   18   11   23 1     
   19   11   24 1     
   20   12   13 1     
   21   12   25 1     
   22   12   26 1     
   23   13   18 1     
   24   13   14 1     
   25   13   36 1     
   26   14   15 1     
   27   14   27 1     
   28   14   28 1     
   29   15   16 1     
   30   15   29 1     
   31   15   30 1     
   32   16   17 1     
   33   16   31 1     
   34   16   32 1     
   35   17   18 1     
   36   17   33 1     
   37   17   34 1     
   38   18   35 1     
   39    1   37 1     
   40    1   38 1     
   41    3   39 1     
   42    5   40 1     
@<TRIPOS>SUBSTRUCTURE
      1 S1             1
@<TRIPOS>SET
LONE_PAIRS      STATIC     ATOMS    <user>   **** ""
4 37 38 39 40
DONOR_HYDROGENS      STATIC     ATOMS    <user>   **** ""
2 21 36
ATOM$BLUE        STATIC     ATOMS    COLORGROUP SYSTEM
4 37 38 39 40
ATOM$RED        STATIC     ATOMS    COLORGROUP SYSTEM
2 21 36
