AV-unprocessed.smi:2439|AV-procd|sdf|9610|dock7
  -GOLD-   2272013243D 1   1.00000     0.00000
 Structure written by MMmdl.
 41 43  0  0  0  0  0  0  0  0  2 V2000
  155.6386  139.4640  161.3779 N   0  0  0  0  0  0  0  0  0  0  0  0
  154.8669  140.3222  161.2967 C   0  0  0  0  0  0  0  0  0  0  0  0
  153.8951  141.4044  161.1955 C   0  0  0  0  0  0  0  0  0  0  0  0
  153.1147  141.5143  160.0256 C   0  0  0  0  0  0  0  0  0  0  0  0
  152.1787  142.5592  159.9214 C   0  0  0  0  0  0  0  0  0  0  0  0
  152.0593  143.4561  160.9982 C   0  0  0  0  0  0  0  0  0  0  0  0
  152.7995  143.3628  162.1226 N   0  0  0  0  0  0  0  0  0  0  0  0
  153.7042  142.3587  162.2311 C   0  0  0  0  0  0  0  0  0  0  0  0
  154.4597  142.2838  163.4163 N   0  0  0  0  0  0  0  0  0  0  0  0
  154.1952  143.1484  164.5603 C   0  0  0  0  0  0  0  0  0  0  0  0
  155.4861  143.6548  165.2256 C   0  0  1  0  0  0  0  0  0  0  0  0
  155.2289  144.1391  166.6636 C   0  0  0  0  0  0  0  0  0  0  0  0
  156.4966  144.5563  167.3060 N   0  3  1  0  0  0  0  0  0  0  0  0
  156.2900  145.0742  168.6820 C   0  0  0  0  0  0  0  0  0  0  0  0
  157.6087  145.5859  169.2835 C   0  0  0  0  0  0  0  0  0  0  0  0
  158.6803  144.4885  169.2618 C   0  0  0  0  0  0  0  0  0  0  0  0
  158.8544  143.9516  167.8347 C   0  0  0  0  0  0  0  0  0  0  0  0
  157.5116  143.4691  167.2508 C   0  0  2  0  0  0  0  0  0  0  0  0
  157.6758  142.9774  165.7991 C   0  0  0  0  0  0  0  0  0  0  0  0
  156.4148  142.5770  165.2781 O   0  0  0  0  0  0  0  0  0  0  0  0
  153.2281  140.8090  159.2145 H   0  0  0  0  0  0  0  0  0  0  0  0
  151.5671  142.6698  159.0383 H   0  0  0  0  0  0  0  0  0  0  0  0
  151.3521  144.2710  160.9558 H   0  0  0  0  0  0  0  0  0  0  0  0
  155.2768  141.6903  163.4439 H   0  0  0  0  0  0  0  0  0  0  0  0
  153.5754  143.9879  164.2428 H   0  0  0  0  0  0  0  0  0  0  0  0
  153.6000  142.5913  165.2841 H   0  0  0  0  0  0  0  0  0  0  0  0
  155.9061  144.4750  164.6409 H   0  0  0  0  0  0  0  0  0  0  0  0
  154.5338  144.9797  166.6522 H   0  0  0  0  0  0  0  0  0  0  0  0
  154.7643  143.3455  167.2513 H   0  0  0  0  0  0  0  0  0  0  0  0
  155.5604  145.8848  168.6606 H   0  0  0  0  0  0  0  0  0  0  0  0
  155.8714  144.2866  169.3109 H   0  0  0  0  0  0  0  0  0  0  0  0
  157.9577  146.4522  168.7198 H   0  0  0  0  0  0  0  0  0  0  0  0
  157.4446  145.9267  170.3061 H   0  0  0  0  0  0  0  0  0  0  0  0
  159.6273  144.8789  169.6357 H   0  0  0  0  0  0  0  0  0  0  0  0
  158.3908  143.6759  169.9294 H   0  0  0  0  0  0  0  0  0  0  0  0
  159.2732  144.7351  167.2013 H   0  0  0  0  0  0  0  0  0  0  0  0
  159.5778  143.1356  167.8348 H   0  0  0  0  0  0  0  0  0  0  0  0
  157.1476  142.6360  167.8551 H   0  0  0  0  0  0  0  0  0  0  0  0
  158.1112  143.7527  165.1665 H   0  0  0  0  0  0  0  0  0  0  0  0
  158.3530  142.1236  165.7649 H   0  0  0  0  0  0  0  0  0  0  0  0
  156.8616  145.3223  166.7582 H   0  0  0  0  0  0  0  0  0  0  0  0
  1  2  3  0  0  0  0
  2  3  1  0  0  0  0
  3  8  1  0  0  0  0
  3  4  2  0  0  0  0
  4  5  1  0  0  0  0
  4 21  1  0  0  0  0
  5  6  2  0  0  0  0
  5 22  1  0  0  0  0
  6  7  1  0  0  0  0
  6 23  1  0  0  0  0
  7  8  2  0  0  0  0
  8  9  1  0  0  0  0
  9 10  1  0  0  0  0
  9 24  1  0  0  0  0
 10 11  1  0  0  0  0
 10 25  1  0  0  0  0
 10 26  1  0  0  0  0
 11 20  1  0  0  0  0
 11 12  1  0  0  0  0
 11 27  1  0  0  0  0
 12 13  1  0  0  0  0
 12 28  1  0  0  0  0
 12 29  1  0  0  0  0
 13 18  1  0  0  0  0
 13 14  1  0  0  0  0
 13 41  1  0  0  0  0
 14 15  1  0  0  0  0
 14 30  1  0  0  0  0
 14 31  1  0  0  0  0
 15 16  1  0  0  0  0
 15 32  1  0  0  0  0
 15 33  1  0  0  0  0
 16 17  1  0  0  0  0
 16 34  1  0  0  0  0
 16 35  1  0  0  0  0
 17 18  1  0  0  0  0
 17 36  1  0  0  0  0
 17 37  1  0  0  0  0
 18 19  1  0  0  0  0
 18 38  1  0  0  0  0
 19 20  1  0  0  0  0
 19 39  1  0  0  0  0
 19 40  1  0  0  0  0
M  CHG  1  13   1
M  END
> <s_m_source_file>
AV-unprocessed.smi

> <i_m_source_file_index>
2439

> <i_lp_mmshare_version>
43012

> <i_f3d_flags>
0

> <s_epik_input>
TiNDYzFbY0hdW2NIXVtjSF1uYzFbTkhdW0NIMl1bQ0BIXShbQ0gyXTIpT1tDSDJdW0NAQEhdKE4yMylbQ0gyXVtDSDJdW0NIMl1bQ0gyXTM=

> <s_epik_cmdline>
J2VwaWtfcHl0aG9uJywgJy1waCcsICc3LjAnLCAnLXRuJywgJzgnLCAnLW1hJywgJzIwMCcsICctbWV0YWxfYmluZGluZycsICctaW1hZScsICc8aW5maWxlLm1hZT4nLCAnLW9tYWUnLCAnPG91dGZpbGUubWFlPic=

> <r_epik_Ionization_Penalty>
0.0803594

> <r_epik_Ionization_Penalty_Charging>
0.0803403

> <r_epik_Ionization_Penalty_Neutral>
1.90988e-05

> <r_epik_State_Penalty>
0.0711481

> <r_epik_Charging_Adjusted_Penalty>
0.151488

> <i_epik_Tot_Q>
1

> <i_epik_Tot_abs_Q>
1

> <r_epik_Metal_State_Penalty>
0.0711482

> <b_epik_Metal_Only>
0

> <s_lp_Force_Field>
OPLS_2005

> <r_lp_Energy>
27.3027

> <b_lp_Chiralities_Consistent>
1

> <s_lp_Variant>
AV-unprocessed.smi:2439-8

> <Gold.Version>
5.8.1

> <Gold.Id.Protein>
6NUR|6NUR_protein|mol2

> <Gold.PLP.Fitness>
41.1043

> <Gold.PLP.PLP>
-41.7421

> <Gold.PLP.part.hbond>
-2.5666

> <Gold.PLP.part.metal>
0.0000

> <Gold.PLP.part.buried>
-3.5356

> <Gold.PLP.part.nonpolar>
-34.1082

> <Gold.PLP.part.repulsive>
0.1774

> <Gold.PLP.ligand.clash>
0.0000

> <Gold.PLP.ligand.torsion>
0.3194

> <Gold.PLP.Chemscore.Hbond>
0.0000

> <Gold.PLP.Chemscore.CHOScore>
0.0000

> <Gold.PLP.Chemscore.Metal>
0.0000

> <Gold.PLP.Chemscore.Internal.Correction>
0.0010

> <Gold.Rescore>
     Score         DG    S(hbond)    S(metal)    S(lipo)     H(rot)  DE(clash)    DE(int)     intcor
     12.33     -13.50       0.00        0.00      96.21       1.27       0.87       0.30       ----

> <Gold.Chemscore.Fitness>
12.3278

> <Gold.Chemscore.DG>
-13.4958

> <Gold.Chemscore.ZeroCoef>
-5.4800

> <Gold.Chemscore.Hbond>
0.0000

> <Gold.Chemscore.Metal>
0.0000

> <Gold.Chemscore.Lipo>
96.2097

> <Gold.Chemscore.Internal_Hbond>
0.0000

> <Gold.Chemscore.DEClash>
0.8668

> <Gold.Chemscore.DEInternal>
0.3011

> <Gold.Chemscore.Rot>
1.2659

> <Gold.Chemscore.Internal.Correction>
   9.000000E+99

> <Gold.Chemscore.Hbond.Weighted>
-0.0000

> <Gold.Chemscore.Metal.Weighted>
-0.0000

> <Gold.Chemscore.Lipo.Weighted>
-11.2565

> <Gold.Chemscore.Internal_Hbond.Weighted>
0.0000

> <Gold.Chemscore.DEClash.Weighted>
0.8668

> <Gold.Chemscore.DEInternal.Weighted>
0.3011

> <Gold.Chemscore.Rot.Weighted>
3.2408

> <Gold.Chemscore.Internal.Correction.Weighted>
   9.000000E+99

> <Gold.Protein.RotatedTorsions>
[ 6907 6896 6895 6894 ] final -131.27 input  -60.11 | X-H torsion
[ 7974 7965 7964 7962 ] final  -55.73 input  175.53 | X-H torsion
[ 8008 7997 7996 7995 ] final   18.54 input   59.86 | X-H torsion
[ 10167 10162 10161 10158 ] final -130.40 input  -65.29 | X-H torsion
[ 10718 10713 10712 10709 ] final  -66.45 input   66.30 | X-H torsion
[ 10763 10752 10751 10750 ] final  151.33 input  -60.55 | X-H torsion
[ 11005 11000 10999 10996 ] final -126.74 input  -57.11 | X-H torsion

> <Gold.Protein.ActiveResidues>
 VAL166  LYS551  ARG553  GLY616  TRP617  ASP618  TYR619  PRO620  LYS621  CYS622 
 ASP623  PHE694  ASN695  SER759  ASP760  ASP761  ALA762  ILE779  LEU786  VAL792 
 PHE793  MET794  SER795  GLU796  ALA797  LYS798  CYS799  TRP800  GLU811  SER814 

> <Gold.Protein.RotatedAtoms>
  150.9491  133.6569  159.2775 H   0  0  0  0  0  0  0  0  0  0  0  0  # atno 6907 bound_to 6896
  151.3932  135.0958  159.9542 H   0  0  0  0  0  0  0  0  0  0  0  0  # atno 6908 bound_to 6896
  152.5102  133.9001  159.7491 H   0  0  0  0  0  0  0  0  0  0  0  0  # atno 6909 bound_to 6896
  145.8708  140.8217  142.9889 H   0  0  0  0  0  0  0  0  0  0  0  0  # atno 7974 bound_to 7965
  154.9075  140.3009  155.5284 H   0  0  0  0  0  0  0  0  0  0  0  0  # atno 8008 bound_to 7997
  156.3016  140.2395  156.4045 H   0  0  0  0  0  0  0  0  0  0  0  0  # atno 8009 bound_to 7997
  154.8459  140.0411  157.1561 H   0  0  0  0  0  0  0  0  0  0  0  0  # atno 8010 bound_to 7997
  139.9298  143.6286  152.2532 H   0  0  0  0  0  0  0  0  0  0  0  0  # atno 10167 bound_to 10162
  156.0611  130.4262  150.1711 H   0  0  0  0  0  0  0  0  0  0  0  0  # atno 10718 bound_to 10713
  154.1020  135.2845  155.3249 H   0  0  0  0  0  0  0  0  0  0  0  0  # atno 10763 bound_to 10752
  154.6549  135.5356  153.7949 H   0  0  0  0  0  0  0  0  0  0  0  0  # atno 10764 bound_to 10752
  153.0375  135.6519  154.1183 H   0  0  0  0  0  0  0  0  0  0  0  0  # atno 10765 bound_to 10752
  140.9657  134.0875  157.3923 H   0  0  0  0  0  0  0  0  0  0  0  0  # atno 11005 bound_to 11000
  144.6726  140.1236  143.7448 LP  0  0  0  0  0  0  0  0  0  0  0  0  # atno 17320 bound_to 7965
  145.9139  139.2504  143.1421 LP  0  0  0  0  0  0  0  0  0  0  0  0  # atno 17321 bound_to 7965
  139.6792  144.7656  151.1640 LP  0  0  0  0  0  0  0  0  0  0  0  0  # atno 17342 bound_to 10162
  140.7640  143.5750  150.8955 LP  0  0  0  0  0  0  0  0  0  0  0  0  # atno 17343 bound_to 10162
  156.9779  130.9855  151.3444 LP  0  0  0  0  0  0  0  0  0  0  0  0  # atno 17370 bound_to 10713
  157.5621  130.8253  149.8279 LP  0  0  0  0  0  0  0  0  0  0  0  0  # atno 17371 bound_to 10713
  139.8893  135.0104  156.6674 LP  0  0  0  0  0  0  0  0  0  0  0  0  # atno 17394 bound_to 11000
  140.7403  133.8983  155.8273 LP  0  0  0  0  0  0  0  0  0  0  0  0  # atno 17395 bound_to 11000

$$$$
