AV-unprocessed.smi:1375|AV-procd|sdf|5589|dock4
  -GOLD-   22720 5193D 1   1.00000     0.00000
 Structure written by MMmdl.
 36 37  0  0  0  0  0  0  0  0  1 V2000
  144.5394  144.8119  153.4972 C   0  0  0  0  0  0  0  0  0  0  0  0
  145.2731  143.7319  154.2156 C   0  0  0  0  0  0  0  0  0  0  0  0
  146.3834  143.1550  153.7487 N   0  0  0  0  0  0  0  0  0  0  0  0
  146.8803  142.1695  154.6077 C   0  0  0  0  0  0  0  0  0  0  0  0
  148.1255  141.4183  154.2462 C   0  0  0  0  0  0  0  0  0  0  0  0
  148.9990  141.1167  155.4753 C   0  0  0  0  0  0  0  0  0  0  0  0
  149.5358  142.3369  156.0660 N   0  0  0  0  0  0  0  0  0  0  0  0
  150.6480  142.4074  156.8168 C   0  0  0  0  0  0  0  0  0  0  0  0
  151.3412  141.4304  157.0944 O   0  0  0  0  0  0  0  0  0  0  0  0
  150.9614  143.6441  157.2425 N   0  0  0  0  0  0  0  0  0  0  0  0
  152.0996  144.0513  158.0698 C   0  0  0  0  0  0  0  0  0  0  0  0
  152.4845  142.9651  159.0974 C   0  0  0  0  0  0  0  0  0  0  0  0
  152.5835  143.6733  160.4496 C   0  0  0  0  0  0  0  0  0  0  0  0
  151.6017  144.8348  160.3383 C   0  0  0  0  0  0  0  0  0  0  0  0
  151.7444  145.3048  158.8906 C   0  0  0  0  0  0  0  0  0  0  0  0
  146.1250  142.0107  155.7428 C   0  0  0  0  0  0  0  0  0  0  0  0
  144.7600  143.0925  155.7722 S   0  0  0  0  0  0  0  0  0  0  0  0
  144.9289  144.9350  152.4861 H   0  0  0  0  0  0  0  0  0  0  0  0
  144.6492  145.7554  154.0320 H   0  0  0  0  0  0  0  0  0  0  0  0
  143.4795  144.5649  153.4349 H   0  0  0  0  0  0  0  0  0  0  0  0
  147.8591  140.4857  153.7472 H   0  0  0  0  0  0  0  0  0  0  0  0
  148.7049  141.9893  153.5194 H   0  0  0  0  0  0  0  0  0  0  0  0
  148.4083  140.6058  156.2361 H   0  0  0  0  0  0  0  0  0  0  0  0
  149.8136  140.4410  155.2090 H   0  0  0  0  0  0  0  0  0  0  0  0
  149.0298  143.1921  155.8865 H   0  0  0  0  0  0  0  0  0  0  0  0
  150.3466  144.3890  156.9479 H   0  0  0  0  0  0  0  0  0  0  0  0
  152.9507  144.2887  157.4289 H   0  0  0  0  0  0  0  0  0  0  0  0
  151.7096  142.1990  159.1557 H   0  0  0  0  0  0  0  0  0  0  0  0
  153.4147  142.4607  158.8338 H   0  0  0  0  0  0  0  0  0  0  0  0
  152.3599  143.0119  161.2872 H   0  0  0  0  0  0  0  0  0  0  0  0
  153.5940  144.0595  160.5901 H   0  0  0  0  0  0  0  0  0  0  0  0
  150.5861  144.4762  160.5108 H   0  0  0  0  0  0  0  0  0  0  0  0
  151.8035  145.6274  161.0593 H   0  0  0  0  0  0  0  0  0  0  0  0
  152.5661  146.0193  158.8269 H   0  0  0  0  0  0  0  0  0  0  0  0
  150.8487  145.8174  158.5361 H   0  0  0  0  0  0  0  0  0  0  0  0
  146.2900  141.3262  156.5617 H   0  0  0  0  0  0  0  0  0  0  0  0
  1  2  1  0  0  0  0
  1 18  1  0  0  0  0
  1 19  1  0  0  0  0
  1 20  1  0  0  0  0
  2 17  1  0  0  0  0
  2  3  2  0  0  0  0
  3  4  1  0  0  0  0
  4  5  1  0  0  0  0
  4 16  2  0  0  0  0
  5  6  1  0  0  0  0
  5 21  1  0  0  0  0
  5 22  1  0  0  0  0
  6  7  1  0  0  0  0
  6 23  1  0  0  0  0
  6 24  1  0  0  0  0
  7  8  1  0  0  0  0
  7 25  1  0  0  0  0
  8  9  2  0  0  0  0
  8 10  1  0  0  0  0
 10 11  1  0  0  0  0
 10 26  1  0  0  0  0
 11 15  1  0  0  0  0
 11 12  1  0  0  0  0
 11 27  1  0  0  0  0
 12 13  1  0  0  0  0
 12 28  1  0  0  0  0
 12 29  1  0  0  0  0
 13 14  1  0  0  0  0
 13 30  1  0  0  0  0
 13 31  1  0  0  0  0
 14 15  1  0  0  0  0
 14 32  1  0  0  0  0
 14 33  1  0  0  0  0
 15 34  1  0  0  0  0
 15 35  1  0  0  0  0
 16 17  1  0  0  0  0
 16 36  1  0  0  0  0
M  END
> <s_m_source_file>
AV-unprocessed.smi

> <i_m_source_file_index>
1375

> <i_lp_mmshare_version>
43012

> <i_f3d_flags>
0

> <s_epik_input>
W0NIM11jMW5jKFtjSF1zMSlbQ0gyXVtDSDJdW05IXUMoPU8pW05IXVtDSF0yW0NIMl1bQ0gyXVtDSDJdW0NIMl0y

> <s_epik_cmdline>
J2VwaWtfcHl0aG9uJywgJy1waCcsICc3LjAnLCAnLXRuJywgJzgnLCAnLW1hJywgJzIwMCcsICctbWV0YWxfYmluZGluZycsICctaW1hZScsICc8aW5maWxlLm1hZT4nLCAnLW9tYWUnLCAnPG91dGZpbGUubWFlPic=

> <r_epik_Ionization_Penalty>
0.00202185

> <r_epik_Ionization_Penalty_Charging>
0

> <r_epik_Ionization_Penalty_Neutral>
0.00202185

> <r_epik_State_Penalty>
0.00133629

> <r_epik_Charging_Adjusted_Penalty>
0.00133629

> <i_epik_Tot_Q>
0

> <i_epik_Tot_abs_Q>
0

> <r_epik_Metal_State_Penalty>
-0

> <b_epik_Metal_Only>
0

> <s_lp_Force_Field>
OPLS_2005

> <r_lp_Energy>
21.3593

> <b_lp_Chiralities_Consistent>
1

> <s_lp_Variant>
AV-unprocessed.smi:1375-1

> <Gold.Version>
5.8.1

> <Gold.Id.Protein>
6NUR|6NUR_protein|mol2

> <Gold.PLP.Fitness>
48.2132

> <Gold.PLP.PLP>
-44.3240

> <Gold.PLP.part.hbond>
-3.0000

> <Gold.PLP.part.metal>
0.0000

> <Gold.PLP.part.buried>
-3.5386

> <Gold.PLP.part.nonpolar>
-38.1032

> <Gold.PLP.part.repulsive>
0.3666

> <Gold.PLP.ligand.clash>
0.0000

> <Gold.PLP.ligand.torsion>
0.8780

> <Gold.PLP.Chemscore.Hbond>
1.8734

> <Gold.PLP.Chemscore.CHOScore>
0.0000

> <Gold.PLP.Chemscore.Metal>
0.0000

> <Gold.Chemscore.Hbonds>
donor molecule, donor type, donor heavy atom, donor atom, acceptor molecule, acceptor atom, score
      L1  H     7    25       P1  8028  1.00
      L1  H    10    26       P1  8028  0.83

> <Gold.PLP.Chemscore.Internal.Correction>
0.0253

> <Gold.Rescore>
     Score         DG    S(hbond)    S(metal)    S(lipo)     H(rot)  DE(clash)    DE(int)     intcor
     17.36     -19.69       1.88        0.00     100.80       1.51       0.10       2.22       ----

> <Gold.Chemscore.Fitness>
17.3636

> <Gold.Chemscore.DG>
-19.6889

> <Gold.Chemscore.ZeroCoef>
-5.4800

> <Gold.Chemscore.Hbond>
1.8775

> <Gold.Chemscore.Metal>
0.0000

> <Gold.Chemscore.Lipo>
100.7974

> <Gold.Chemscore.Internal_Hbond>
0.0000

> <Gold.Chemscore.DEClash>
0.1016

> <Gold.Chemscore.DEInternal>
2.2237

> <Gold.Chemscore.Rot>
1.5060

> <Gold.Chemscore.Internal.Correction>
   9.000000E+99

> <Gold.Chemscore.Hbonds>
donor molecule, donor type, donor heavy atom, donor atom, acceptor molecule, acceptor atom, score
      L1  H     7    25       P1  8028  0.94
      L1  H    10    26       P1  8028  0.71

> <Gold.Chemscore.Hbond.Weighted>
-6.2709

> <Gold.Chemscore.Metal.Weighted>
-0.0000

> <Gold.Chemscore.Lipo.Weighted>
-11.7933

> <Gold.Chemscore.Internal_Hbond.Weighted>
0.0000

> <Gold.Chemscore.DEClash.Weighted>
0.1016

> <Gold.Chemscore.DEInternal.Weighted>
2.2237

> <Gold.Chemscore.Rot.Weighted>
3.8553

> <Gold.Chemscore.Internal.Correction.Weighted>
   9.000000E+99

> <Gold.Protein.RotatedTorsions>
[ 6907 6896 6895 6894 ] final  -31.54 input  -60.11 | X-H torsion
[ 7974 7965 7964 7962 ] final -123.14 input  175.53 | X-H torsion
[ 8008 7997 7996 7995 ] final  -46.52 input   59.86 | X-H torsion
[ 10167 10162 10161 10158 ] final -178.54 input  -65.29 | X-H torsion
[ 10718 10713 10712 10709 ] final  -81.14 input   66.30 | X-H torsion
[ 10763 10752 10751 10750 ] final -129.32 input  -60.55 | X-H torsion
[ 11005 11000 10999 10996 ] final   47.84 input  -57.11 | X-H torsion

> <Gold.Protein.ActiveResidues>
 VAL166  LYS551  ARG553  GLY616  TRP617  ASP618  TYR619  PRO620  LYS621  CYS622 
 ASP623  PHE694  ASN695  SER759  ASP760  ASP761  ALA762  ILE779  LEU786  VAL792 
 PHE793  MET794  SER795  GLU796  ALA797  LYS798  CYS799  TRP800  GLU811  SER814 

> <Gold.Protein.RotatedAtoms>
  151.0907  134.9914  159.8401 H   0  0  0  0  0  0  0  0  0  0  0  0  # atno 6907 bound_to 6896
  152.5429  134.2068  159.8744 H   0  0  0  0  0  0  0  0  0  0  0  0  # atno 6908 bound_to 6896
  151.2104  133.4515  159.2631 H   0  0  0  0  0  0  0  0  0  0  0  0  # atno 6909 bound_to 6896
  145.0219  140.7995  143.4376 H   0  0  0  0  0  0  0  0  0  0  0  0  # atno 7974 bound_to 7965
  154.4008  140.1369  156.4025 H   0  0  0  0  0  0  0  0  0  0  0  0  # atno 8008 bound_to 7997
  155.7811  140.3481  155.5277 H   0  0  0  0  0  0  0  0  0  0  0  0  # atno 8009 bound_to 7997
  155.8673  140.0966  157.1564 H   0  0  0  0  0  0  0  0  0  0  0  0  # atno 8010 bound_to 7997
  139.5428  144.2317  152.0929 H   0  0  0  0  0  0  0  0  0  0  0  0  # atno 10167 bound_to 10162
  156.0056  130.4595  150.3907 H   0  0  0  0  0  0  0  0  0  0  0  0  # atno 10718 bound_to 10713
  154.8757  135.3899  154.3900 H   0  0  0  0  0  0  0  0  0  0  0  0  # atno 10763 bound_to 10752
  153.4637  135.7029  153.6040 H   0  0  0  0  0  0  0  0  0  0  0  0  # atno 10764 bound_to 10752
  153.4527  135.3830  155.2261 H   0  0  0  0  0  0  0  0  0  0  0  0  # atno 10765 bound_to 10752
  140.1243  134.4788  155.8572 H   0  0  0  0  0  0  0  0  0  0  0  0  # atno 11005 bound_to 11000
  145.1884  139.2314  143.5255 LP  0  0  0  0  0  0  0  0  0  0  0  0  # atno 17320 bound_to 7965
  146.3486  140.1674  142.8590 LP  0  0  0  0  0  0  0  0  0  0  0  0  # atno 17321 bound_to 7965
  140.1798  144.4855  150.6534 LP  0  0  0  0  0  0  0  0  0  0  0  0  # atno 17342 bound_to 10162
  140.6664  143.2269  151.5731 LP  0  0  0  0  0  0  0  0  0  0  0  0  # atno 17343 bound_to 10162
  157.1982  131.0431  151.2664 LP  0  0  0  0  0  0  0  0  0  0  0  0  # atno 17370 bound_to 10713
  157.4000  130.7328  149.6760 LP  0  0  0  0  0  0  0  0  0  0  0  0  # atno 17371 bound_to 10713
  141.2158  133.6772  156.6948 LP  0  0  0  0  0  0  0  0  0  0  0  0  # atno 17394 bound_to 11000
  140.2924  134.8230  157.4028 LP  0  0  0  0  0  0  0  0  0  0  0  0  # atno 17395 bound_to 11000

$$$$
