AV-unprocessed.smi:153|AV-procd|sdf|1253|dock3
  -GOLD-   2262018483D 1   1.00000     0.00000
 Structure written by MMmdl.
 60 63  0  0  0  0  0  0  0  0  2 V2000
  152.8723  141.3117  158.7144 C   0  0  0  0  0  0  0  0  0  0  0  0
  151.9605  142.5239  158.9639 C   0  0  1  0  0  0  0  0  0  0  0  0
  152.8235  143.5269  159.5050 O   0  0  0  0  0  0  0  0  0  0  0  0
  152.6247  144.7684  158.8481 C   0  0  0  0  0  0  0  0  0  0  0  0
  152.1845  144.3682  157.4479 C   0  0  0  0  0  0  0  0  0  0  0  0
  151.2947  143.1623  157.7128 C   0  0  2  0  0  0  0  0  0  0  0  0
  150.0239  143.6573  158.0996 O   0  0  0  0  0  0  0  0  0  0  0  0
  151.1001  142.2809  156.4472 C   0  0  0  0  0  0  0  0  0  0  0  0
  150.5852  140.9342  156.6812 N   0  0  0  0  0  0  0  0  0  0  0  0
  149.6496  140.5343  157.6101 C   0  0  0  0  0  0  0  0  0  0  0  0
  149.3459  139.2663  157.5855 N   0  0  0  0  0  0  0  0  0  0  0  0
  150.1098  138.7443  156.5485 C   0  0  0  0  0  0  0  0  0  0  0  0
  150.2586  137.4488  155.9650 C   0  0  0  0  0  0  0  0  0  0  0  0
  149.6092  136.3272  156.3811 N   0  0  0  0  0  0  0  0  0  0  0  0
  150.1673  135.0155  156.0772 C   0  0  0  0  0  0  0  0  0  0  0  0
  148.5764  136.4241  157.4151 C   0  0  0  0  0  0  0  0  0  0  0  0
  147.7620  135.1233  157.5692 C   0  0  2  0  0  0  0  0  0  0  0  0
  147.1778  134.8465  156.3121 O   0  0  0  0  0  0  0  0  0  0  0  0
  146.6315  135.2342  158.6169 C   0  0  0  0  0  0  0  0  0  0  0  0
  147.1129  135.0362  160.0071 N   0  3  0  0  0  0  0  0  0  0  0  0
  146.7973  136.1736  160.9076 C   0  0  0  0  0  0  0  0  0  0  0  0
  147.3516  135.9120  162.3181 C   0  0  0  0  0  0  0  0  0  0  0  0
  146.8208  134.6927  162.8217 O   0  0  0  0  0  0  0  0  0  0  0  0
  147.1893  133.5800  162.0167 C   0  0  0  0  0  0  0  0  0  0  0  0
  146.6308  133.7641  160.5954 C   0  0  0  0  0  0  0  0  0  0  0  0
  151.0975  137.3447  154.9009 N   0  0  0  0  0  0  0  0  0  0  0  0
  151.7550  138.4125  154.4427 C   0  0  0  0  0  0  0  0  0  0  0  0
  151.7177  139.6673  154.8897 N   0  0  0  0  0  0  0  0  0  0  0  0
  150.8748  139.7899  155.9545 C   0  0  0  0  0  0  0  0  0  0  0  0
  152.3018  140.4241  158.4514 H   0  0  0  0  0  0  0  0  0  0  0  0
  153.4347  141.0637  159.6149 H   0  0  0  0  0  0  0  0  0  0  0  0
  153.5930  141.5078  157.9202 H   0  0  0  0  0  0  0  0  0  0  0  0
  151.2128  142.2535  159.7113 H   0  0  0  0  0  0  0  0  0  0  0  0
  151.8398  145.3271  159.3599 H   0  0  0  0  0  0  0  0  0  0  0  0
  153.5318  145.3726  158.8496 H   0  0  0  0  0  0  0  0  0  0  0  0
  151.6844  145.1745  156.9099 H   0  0  0  0  0  0  0  0  0  0  0  0
  153.0598  144.0724  156.8680 H   0  0  0  0  0  0  0  0  0  0  0  0
  149.6896  144.2014  157.4032 H   0  0  0  0  0  0  0  0  0  0  0  0
  150.4235  142.7768  155.7500 H   0  0  0  0  0  0  0  0  0  0  0  0
  152.0501  142.1948  155.9196 H   0  0  0  0  0  0  0  0  0  0  0  0
  149.1843  141.2076  158.3139 H   0  0  0  0  0  0  0  0  0  0  0  0
  150.5165  134.9694  155.0451 H   0  0  0  0  0  0  0  0  0  0  0  0
  149.4130  134.2386  156.2042 H   0  0  0  0  0  0  0  0  0  0  0  0
  151.0005  134.7859  156.7418 H   0  0  0  0  0  0  0  0  0  0  0  0
  148.9846  136.7320  158.3780 H   0  0  0  0  0  0  0  0  0  0  0  0
  147.9052  137.2317  157.1196 H   0  0  0  0  0  0  0  0  0  0  0  0
  148.4428  134.3063  157.8052 H   0  0  0  0  0  0  0  0  0  0  0  0
  147.3428  135.5716  155.7296 H   0  0  0  0  0  0  0  0  0  0  0  0
  146.1407  136.2055  158.5684 H   0  0  0  0  0  0  0  0  0  0  0  0
  145.8609  134.4991  158.3777 H   0  0  0  0  0  0  0  0  0  0  0  0
  147.2210  137.0994  160.5204 H   0  0  0  0  0  0  0  0  0  0  0  0
  145.7163  136.3151  160.9557 H   0  0  0  0  0  0  0  0  0  0  0  0
  148.4421  135.8726  162.3073 H   0  0  0  0  0  0  0  0  0  0  0  0
  147.0692  136.7235  162.9889 H   0  0  0  0  0  0  0  0  0  0  0  0
  148.2750  133.4716  161.9990 H   0  0  0  0  0  0  0  0  0  0  0  0
  146.7860  132.6713  162.4639 H   0  0  0  0  0  0  0  0  0  0  0  0
  145.5399  133.7619  160.6195 H   0  0  0  0  0  0  0  0  0  0  0  0
  146.9404  132.9260  159.9698 H   0  0  0  0  0  0  0  0  0  0  0  0
  152.4048  138.2356  153.5981 H   0  0  0  0  0  0  0  0  0  0  0  0
  148.1188  134.9612  159.9592 H   0  0  0  0  0  0  0  0  0  0  0  0
  1  2  1  0  0  0  0
  1 30  1  0  0  0  0
  1 31  1  0  0  0  0
  1 32  1  0  0  0  0
  2  6  1  0  0  0  0
  2  3  1  0  0  0  0
  2 33  1  0  0  0  0
  3  4  1  0  0  0  0
  4  5  1  0  0  0  0
  4 34  1  0  0  0  0
  4 35  1  0  0  0  0
  5  6  1  0  0  0  0
  5 36  1  0  0  0  0
  5 37  1  0  0  0  0
  6  7  1  0  0  0  0
  6  8  1  0  0  0  0
  7 38  1  0  0  0  0
  8  9  1  0  0  0  0
  8 39  1  0  0  0  0
  8 40  1  0  0  0  0
  9 29  1  0  0  0  0
  9 10  1  0  0  0  0
 10 11  2  0  0  0  0
 10 41  1  0  0  0  0
 11 12  1  0  0  0  0
 12 29  2  0  0  0  0
 12 13  1  0  0  0  0
 13 14  1  0  0  0  0
 13 26  2  0  0  0  0
 14 15  1  0  0  0  0
 14 16  1  0  0  0  0
 15 42  1  0  0  0  0
 15 43  1  0  0  0  0
 15 44  1  0  0  0  0
 16 17  1  0  0  0  0
 16 45  1  0  0  0  0
 16 46  1  0  0  0  0
 17 18  1  0  0  0  0
 17 19  1  0  0  0  0
 17 47  1  0  0  0  0
 18 48  1  0  0  0  0
 19 20  1  0  0  0  0
 19 49  1  0  0  0  0
 19 50  1  0  0  0  0
 20 25  1  0  0  0  0
 20 21  1  0  0  0  0
 20 60  1  0  0  0  0
 21 22  1  0  0  0  0
 21 51  1  0  0  0  0
 21 52  1  0  0  0  0
 22 23  1  0  0  0  0
 22 53  1  0  0  0  0
 22 54  1  0  0  0  0
 23 24  1  0  0  0  0
 24 25  1  0  0  0  0
 24 55  1  0  0  0  0
 24 56  1  0  0  0  0
 25 57  1  0  0  0  0
 25 58  1  0  0  0  0
 26 27  1  0  0  0  0
 27 28  2  0  0  0  0
 27 59  1  0  0  0  0
 28 29  1  0  0  0  0
M  CHG  1  20   1
M  END
> <s_m_source_file>
AV-unprocessed.smi

> <i_m_source_file_index>
153

> <i_lp_mmshare_version>
43012

> <i_f3d_flags>
0

> <s_epik_input>
W0NIMl0xW0NIMl1PW0NAQEhdKFtDSDNdKVtDQEBdMShbT0hdKVtDSDJdbihbY0hdbjIpYyhjMjMpbltjSF1uYzNOKFtDSDNdKVtDSDJdW0NASF0oW09IXSlbQ0gyXU40W0NIMl1bQ0gyXU9bQ0gyXVtDSDJdNA==

> <s_epik_cmdline>
J2VwaWtfcHl0aG9uJywgJy1waCcsICc3LjAnLCAnLXRuJywgJzgnLCAnLW1hJywgJzIwMCcsICctbWV0YWxfYmluZGluZycsICctaW1hZScsICc8aW5maWxlLm1hZT4nLCAnLW9tYWUnLCAnPG91dGZpbGUubWFlPic=

> <r_lp_tautomer_probability>
1

> <r_epik_Ionization_Penalty>
0.403509

> <r_epik_Ionization_Penalty_Charging>
0.40072

> <r_epik_Ionization_Penalty_Neutral>
0.00278876

> <r_epik_State_Penalty>
0.400058

> <r_epik_Charging_Adjusted_Penalty>
0.800778

> <i_epik_Tot_Q>
1

> <i_epik_Tot_abs_Q>
1

> <r_epik_Metal_State_Penalty>
0.400321

> <b_epik_Metal_Only>
0

> <s_lp_Force_Field>
OPLS_2005

> <r_lp_Energy>
47.2205

> <b_lp_Chiralities_Consistent>
1

> <s_lp_Variant>
AV-unprocessed.smi:153-4

> <Gold.Version>
5.8.1

> <Gold.Id.Protein>
6NUR|6NUR_protein|mol2

> <Gold.PLP.Fitness>
53.3282

> <Gold.PLP.PLP>
-49.1916

> <Gold.PLP.part.hbond>
-3.7791

> <Gold.PLP.part.metal>
0.0000

> <Gold.PLP.part.buried>
-9.9068

> <Gold.PLP.part.nonpolar>
-35.4491

> <Gold.PLP.part.repulsive>
0.1657

> <Gold.PLP.ligand.clash>
0.0000

> <Gold.PLP.ligand.torsion>
1.8568

> <Gold.PLP.Chemscore.Hbond>
2.4622

> <Gold.PLP.Chemscore.CHOScore>
0.0000

> <Gold.PLP.Chemscore.Metal>
0.0000

> <Gold.Chemscore.Hbonds>
donor molecule, donor type, donor heavy atom, donor atom, acceptor molecule, acceptor atom, score
      L1  H     7    38       P1  8028  1.00
      P1  H  7989  7998       L1    28  1.00

> <Gold.PLP.Chemscore.Internal.Correction>
0.4634

> <Gold.Rescore>
     Score         DG    S(hbond)    S(metal)    S(lipo)     H(rot)  DE(clash)    DE(int)     intcor
      9.13     -13.23       1.47        0.00     103.30       3.62       0.46       3.64       ----

> <Gold.Chemscore.Fitness>
9.1289

> <Gold.Chemscore.DG>
-13.2252

> <Gold.Chemscore.ZeroCoef>
-5.4800

> <Gold.Chemscore.Hbond>
1.4736

> <Gold.Chemscore.Metal>
0.0000

> <Gold.Chemscore.Lipo>
103.2984

> <Gold.Chemscore.Internal_Hbond>
0.0000

> <Gold.Chemscore.DEClash>
0.4607

> <Gold.Chemscore.DEInternal>
3.6356

> <Gold.Chemscore.Rot>
3.6182

> <Gold.Chemscore.Internal.Correction>
   9.000000E+99

> <Gold.Chemscore.Hbonds>
donor molecule, donor type, donor heavy atom, donor atom, acceptor molecule, acceptor atom, score
      L1  H     7    38       P1  8028  0.30
      P1  H  7989  7998       L1    28  0.75

> <Gold.Chemscore.Hbond.Weighted>
-4.9218

> <Gold.Chemscore.Metal.Weighted>
-0.0000

> <Gold.Chemscore.Lipo.Weighted>
-12.0859

> <Gold.Chemscore.Internal_Hbond.Weighted>
0.0000

> <Gold.Chemscore.DEClash.Weighted>
0.4607

> <Gold.Chemscore.DEInternal.Weighted>
3.6356

> <Gold.Chemscore.Rot.Weighted>
9.2625

> <Gold.Chemscore.Internal.Correction.Weighted>
   9.000000E+99

> <Gold.Protein.RotatedTorsions>
[ 6907 6896 6895 6894 ] final  133.71 input  -60.11 | X-H torsion
[ 7974 7965 7964 7962 ] final    0.89 input  175.53 | X-H torsion
[ 8008 7997 7996 7995 ] final   69.79 input   59.86 | X-H torsion
[ 10167 10162 10161 10158 ] final -107.53 input  -65.29 | X-H torsion
[ 10718 10713 10712 10709 ] final -176.44 input   66.30 | X-H torsion
[ 10763 10752 10751 10750 ] final  -60.61 input  -60.55 | X-H torsion
[ 11005 11000 10999 10996 ] final -139.93 input  -57.11 | X-H torsion

> <Gold.Protein.ActiveResidues>
 VAL166  LYS551  ARG553  GLY616  TRP617  ASP618  TYR619  PRO620  LYS621  CYS622 
 ASP623  PHE694  ASN695  SER759  ASP760  ASP761  ALA762  ILE779  LEU786  VAL792 
 PHE793  MET794  SER795  GLU796  ALA797  LYS798  CYS799  TRP800  GLU811  SER814 

> <Gold.Protein.RotatedAtoms>
  152.3191  133.5834  159.5731 H   0  0  0  0  0  0  0  0  0  0  0  0  # atno 6907 bound_to 6896
  150.7362  134.0039  159.3656 H   0  0  0  0  0  0  0  0  0  0  0  0  # atno 6908 bound_to 6896
  151.7925  135.0732  160.0440 H   0  0  0  0  0  0  0  0  0  0  0  0  # atno 6909 bound_to 6896
  146.2437  140.1070  142.8345 H   0  0  0  0  0  0  0  0  0  0  0  0  # atno 7974 bound_to 7965
  155.7290  140.3492  155.5050 H   0  0  0  0  0  0  0  0  0  0  0  0  # atno 8008 bound_to 7997
  155.9200  140.1065  157.1235 H   0  0  0  0  0  0  0  0  0  0  0  0  # atno 8009 bound_to 7997
  154.4068  140.1251  156.4654 H   0  0  0  0  0  0  0  0  0  0  0  0  # atno 8010 bound_to 7997
  140.1759  143.4005  152.1318 H   0  0  0  0  0  0  0  0  0  0  0  0  # atno 10167 bound_to 10162
  156.8147  130.9599  151.3114 H   0  0  0  0  0  0  0  0  0  0  0  0  # atno 10718 bound_to 10713
  154.2718  135.6289  153.5313 H   0  0  0  0  0  0  0  0  0  0  0  0  # atno 10763 bound_to 10752
  152.9879  135.5612  154.5592 H   0  0  0  0  0  0  0  0  0  0  0  0  # atno 10764 bound_to 10752
  154.5163  135.2880  155.1275 H   0  0  0  0  0  0  0  0  0  0  0  0  # atno 10765 bound_to 10752
  140.8472  134.2330  157.4779 H   0  0  0  0  0  0  0  0  0  0  0  0  # atno 11005 bound_to 11000
  145.0520  140.9024  143.4990 LP  0  0  0  0  0  0  0  0  0  0  0  0  # atno 17320 bound_to 7965
  145.1169  139.2719  143.5608 LP  0  0  0  0  0  0  0  0  0  0  0  0  # atno 17321 bound_to 7965
  139.5317  144.7166  151.5033 LP  0  0  0  0  0  0  0  0  0  0  0  0  # atno 17342 bound_to 10162
  140.6551  143.8615  150.6827 LP  0  0  0  0  0  0  0  0  0  0  0  0  # atno 17343 bound_to 10162
  157.6487  130.8866  149.9591 LP  0  0  0  0  0  0  0  0  0  0  0  0  # atno 17370 bound_to 10713
  156.1023  130.3655  150.0195 LP  0  0  0  0  0  0  0  0  0  0  0  0  # atno 17371 bound_to 10713
  139.8703  134.9665  156.4565 LP  0  0  0  0  0  0  0  0  0  0  0  0  # atno 17394 bound_to 11000
  140.8830  133.7904  155.9487 LP  0  0  0  0  0  0  0  0  0  0  0  0  # atno 17395 bound_to 11000

$$$$
