AV-unprocessed.smi:1433|AV-procd|sdf|5836|dock8
  -GOLD-   22720 5493D 1   1.00000     0.00000
 Structure written by MMmdl.
 44 45  0  0  0  0  0  0  0  0  1 V2000
  152.2367  144.6138  158.9029 C   0  0  0  0  0  0  0  0  0  0  0  0
  151.8461  143.2065  159.3664 C   0  0  1  0  0  0  0  0  0  0  0  0
  151.8211  142.1965  158.2035 C   0  0  0  0  0  0  0  0  0  0  0  0
  151.5214  140.8283  158.6398 N   0  0  0  0  0  0  0  0  0  0  0  0
  151.5161  139.8622  157.5164 C   0  0  2  0  0  0  0  0  0  0  0  0
  150.5701  140.2889  156.3634 C   0  0  0  0  0  0  0  0  0  0  0  0
  151.1551  138.4152  157.9524 C   0  0  0  0  0  0  0  0  0  0  0  0
  149.7155  138.1869  157.9623 N   0  0  0  0  0  0  0  0  0  0  0  0
  149.0291  137.6351  158.9735 C   0  0  0  0  0  0  0  0  0  0  0  0
  149.5571  137.2092  160.0002 O   0  0  0  0  0  0  0  0  0  0  0  0
  147.5115  137.5521  158.7998 C   0  0  0  0  0  0  0  0  0  0  0  0
  146.8631  137.1256  160.0283 N   0  0  0  0  0  0  0  0  0  0  0  0
  146.5738  135.8420  160.4426 C   0  0  0  0  0  0  0  0  0  0  0  0
  145.9763  135.9349  161.6667 C   0  0  0  0  0  0  0  0  0  0  0  0
  145.9447  137.3343  161.9224 C   0  0  0  0  0  0  0  0  0  0  0  0
  146.4755  138.0447  160.9403 N   0  0  0  0  0  0  0  0  0  0  0  0
  152.4789  140.4710  159.6920 C   0  0  0  0  0  0  0  0  0  0  0  0
  152.5037  141.4854  160.8514 C   0  0  1  0  0  0  0  0  0  0  0  0
  153.5639  141.1384  161.9020 C   0  0  0  0  0  0  0  0  0  0  0  0
  152.7943  142.7779  160.3354 O   0  0  0  0  0  0  0  0  0  0  0  0
  151.5304  144.9945  158.1647 H   0  0  0  0  0  0  0  0  0  0  0  0
  153.2291  144.6199  158.4512 H   0  0  0  0  0  0  0  0  0  0  0  0
  152.2482  145.3104  159.7416 H   0  0  0  0  0  0  0  0  0  0  0  0
  150.8595  143.2536  159.8309 H   0  0  0  0  0  0  0  0  0  0  0  0
  151.0706  142.5445  157.4963 H   0  0  0  0  0  0  0  0  0  0  0  0
  152.7802  142.2151  157.6831 H   0  0  0  0  0  0  0  0  0  0  0  0
  152.5248  139.8255  157.1015 H   0  0  0  0  0  0  0  0  0  0  0  0
  150.5272  139.5530  155.5610 H   0  0  0  0  0  0  0  0  0  0  0  0
  150.8948  141.2100  155.8815 H   0  0  0  0  0  0  0  0  0  0  0  0
  149.5518  140.4373  156.7244 H   0  0  0  0  0  0  0  0  0  0  0  0
  151.5635  137.6732  157.2685 H   0  0  0  0  0  0  0  0  0  0  0  0
  151.5756  138.2116  158.9387 H   0  0  0  0  0  0  0  0  0  0  0  0
  149.1963  138.5070  157.1573 H   0  0  0  0  0  0  0  0  0  0  0  0
  147.1191  138.5241  158.4962 H   0  0  0  0  0  0  0  0  0  0  0  0
  147.2626  136.8433  158.0089 H   0  0  0  0  0  0  0  0  0  0  0  0
  146.8175  134.9801  159.8386 H   0  0  0  0  0  0  0  0  0  0  0  0
  145.6175  135.1257  162.2853 H   0  0  0  0  0  0  0  0  0  0  0  0
  145.5546  137.8513  162.7865 H   0  0  0  0  0  0  0  0  0  0  0  0
  152.2294  139.5049  160.1254 H   0  0  0  0  0  0  0  0  0  0  0  0
  153.4785  140.3793  159.2646 H   0  0  0  0  0  0  0  0  0  0  0  0
  151.5263  141.5085  161.3366 H   0  0  0  0  0  0  0  0  0  0  0  0
  153.3786  140.1563  162.3374 H   0  0  0  0  0  0  0  0  0  0  0  0
  153.5614  141.8670  162.7132 H   0  0  0  0  0  0  0  0  0  0  0  0
  154.5633  141.1288  161.4659 H   0  0  0  0  0  0  0  0  0  0  0  0
  1  2  1  0  0  0  0
  1 21  1  0  0  0  0
  1 22  1  0  0  0  0
  1 23  1  0  0  0  0
  2 20  1  0  0  0  0
  2  3  1  0  0  0  0
  2 24  1  0  0  0  0
  3  4  1  0  0  0  0
  3 25  1  0  0  0  0
  3 26  1  0  0  0  0
  4  5  1  0  0  0  0
  4 17  1  0  0  0  0
  5  6  1  0  0  0  0
  5  7  1  0  0  0  0
  5 27  1  0  0  0  0
  6 28  1  0  0  0  0
  6 29  1  0  0  0  0
  6 30  1  0  0  0  0
  7  8  1  0  0  0  0
  7 31  1  0  0  0  0
  7 32  1  0  0  0  0
  8  9  1  0  0  0  0
  8 33  1  0  0  0  0
  9 10  2  0  0  0  0
  9 11  1  0  0  0  0
 11 12  1  0  0  0  0
 11 34  1  0  0  0  0
 11 35  1  0  0  0  0
 12 16  1  0  0  0  0
 12 13  1  0  0  0  0
 13 14  2  0  0  0  0
 13 36  1  0  0  0  0
 14 15  1  0  0  0  0
 14 37  1  0  0  0  0
 15 16  2  0  0  0  0
 15 38  1  0  0  0  0
 17 18  1  0  0  0  0
 17 39  1  0  0  0  0
 17 40  1  0  0  0  0
 18 19  1  0  0  0  0
 18 20  1  0  0  0  0
 18 41  1  0  0  0  0
 19 42  1  0  0  0  0
 19 43  1  0  0  0  0
 19 44  1  0  0  0  0
M  END
> <s_m_source_file>
AV-unprocessed.smi

> <i_m_source_file_index>
1433

> <i_lp_mmshare_version>
43012

> <i_f3d_flags>
0

> <s_epik_input>
W0NIM11bQ0BASF0xW0NIMl1OKFtDSDJdW0NASF0oTzEpW0NIM10pW0NASF0oW0NIM10pW0NIMl1bTkhdQyg9TylbQ0gyXW4yW2NIXVtjSF1bY0hdbjI=

> <s_epik_cmdline>
J2VwaWtfcHl0aG9uJywgJy1waCcsICc3LjAnLCAnLXRuJywgJzgnLCAnLW1hJywgJzIwMCcsICctbWV0YWxfYmluZGluZycsICctaW1hZScsICc8aW5maWxlLm1hZT4nLCAnLW9tYWUnLCAnPG91dGZpbGUubWFlPic=

> <r_lp_tautomer_probability>
1

> <r_epik_Ionization_Penalty>
0.196927

> <r_epik_Ionization_Penalty_Charging>
0

> <r_epik_Ionization_Penalty_Neutral>
0.196927

> <r_epik_State_Penalty>
0.186684

> <r_epik_Charging_Adjusted_Penalty>
0.186684

> <i_epik_Tot_Q>
0

> <i_epik_Tot_abs_Q>
0

> <r_epik_Metal_State_Penalty>
0.186682

> <b_epik_Metal_Only>
0

> <s_lp_Force_Field>
OPLS_2005

> <r_lp_Energy>
26.9477

> <b_lp_Chiralities_Consistent>
1

> <s_lp_Variant>
AV-unprocessed.smi:1433-2

> <Gold.Version>
5.8.1

> <Gold.Id.Protein>
6NUR|6NUR_protein|mol2

> <Gold.PLP.Fitness>
46.7931

> <Gold.PLP.PLP>
-40.0512

> <Gold.PLP.part.hbond>
-3.5414

> <Gold.PLP.part.metal>
0.0000

> <Gold.PLP.part.buried>
-5.4778

> <Gold.PLP.part.nonpolar>
-31.9931

> <Gold.PLP.part.repulsive>
0.0892

> <Gold.PLP.ligand.clash>
0.0000

> <Gold.PLP.ligand.torsion>
0.7655

> <Gold.PLP.Chemscore.Hbond>
2.7437

> <Gold.PLP.Chemscore.CHOScore>
0.0000

> <Gold.PLP.Chemscore.Metal>
0.0000

> <Gold.Chemscore.Hbonds>
donor molecule, donor type, donor heavy atom, donor atom, acceptor molecule, acceptor atom, score
      P1  H  6931  6943       L1    10  0.19
      P1  H  6934  6947       L1    16  0.16

> <Gold.PLP.Chemscore.Internal.Correction>
0.0417

> <Gold.Rescore>
     Score         DG    S(hbond)    S(metal)    S(lipo)     H(rot)  DE(clash)    DE(int)     intcor
     16.14     -17.07       1.19        0.00     104.48       1.80       0.00       0.92       ----

> <Gold.Chemscore.Fitness>
16.1446

> <Gold.Chemscore.DG>
-17.0674

> <Gold.Chemscore.ZeroCoef>
-5.4800

> <Gold.Chemscore.Hbond>
1.1920

> <Gold.Chemscore.Metal>
0.0000

> <Gold.Chemscore.Lipo>
104.4782

> <Gold.Chemscore.Internal_Hbond>
0.0000

> <Gold.Chemscore.DEClash>
0.0000

> <Gold.Chemscore.DEInternal>
0.9228

> <Gold.Chemscore.Rot>
1.8038

> <Gold.Chemscore.Internal.Correction>
   9.000000E+99

> <Gold.Chemscore.Hbonds>
donor molecule, donor type, donor heavy atom, donor atom, acceptor molecule, acceptor atom, score
      P1  H  6931  6943       L1    10  0.18
      P1  H  6934  6947       L1    16  0.15

> <Gold.Chemscore.Hbond.Weighted>
-3.9812

> <Gold.Chemscore.Metal.Weighted>
-0.0000

> <Gold.Chemscore.Lipo.Weighted>
-12.2240

> <Gold.Chemscore.Internal_Hbond.Weighted>
0.0000

> <Gold.Chemscore.DEClash.Weighted>
0.0000

> <Gold.Chemscore.DEInternal.Weighted>
0.9228

> <Gold.Chemscore.Rot.Weighted>
4.6178

> <Gold.Chemscore.Internal.Correction.Weighted>
   9.000000E+99

> <Gold.Protein.RotatedTorsions>
[ 6907 6896 6895 6894 ] final   75.02 input  -60.11 | X-H torsion
[ 7974 7965 7964 7962 ] final  -19.88 input  175.53 | X-H torsion
[ 8008 7997 7996 7995 ] final  -44.21 input   59.86 | X-H torsion
[ 10167 10162 10161 10158 ] final  174.14 input  -65.29 | X-H torsion
[ 10718 10713 10712 10709 ] final  172.27 input   66.30 | X-H torsion
[ 10763 10752 10751 10750 ] final -131.13 input  -60.55 | X-H torsion
[ 11005 11000 10999 10996 ] final -134.87 input  -57.11 | X-H torsion

> <Gold.Protein.ActiveResidues>
 VAL166  LYS551  ARG553  GLY616  TRP617  ASP618  TYR619  PRO620  LYS621  CYS622 
 ASP623  PHE694  ASN695  SER759  ASP760  ASP761  ALA762  ILE779  LEU786  VAL792 
 PHE793  MET794  SER795  GLU796  ALA797  LYS798  CYS799  TRP800  GLU811  SER814 

> <Gold.Protein.RotatedAtoms>
  152.5005  134.4184  159.9472 H   0  0  0  0  0  0  0  0  0  0  0  0  # atno 6907 bound_to 6896
  151.4156  133.3708  159.2757 H   0  0  0  0  0  0  0  0  0  0  0  0  # atno 6908 bound_to 6896
  150.9260  134.8699  159.7579 H   0  0  0  0  0  0  0  0  0  0  0  0  # atno 6909 bound_to 6896
  146.1818  140.4124  142.8491 H   0  0  0  0  0  0  0  0  0  0  0  0  # atno 7974 bound_to 7965
  154.3997  140.1428  156.3646 H   0  0  0  0  0  0  0  0  0  0  0  0  # atno 8008 bound_to 7997
  155.8149  140.3471  155.5459 H   0  0  0  0  0  0  0  0  0  0  0  0  # atno 8009 bound_to 7997
  155.8348  140.0917  157.1761 H   0  0  0  0  0  0  0  0  0  0  0  0  # atno 8010 bound_to 7997
  139.5132  144.3181  152.0229 H   0  0  0  0  0  0  0  0  0  0  0  0  # atno 10167 bound_to 10162
  156.9814  131.0120  151.2880 H   0  0  0  0  0  0  0  0  0  0  0  0  # atno 10718 bound_to 10713
  154.8752  135.3840  154.4197 H   0  0  0  0  0  0  0  0  0  0  0  0  # atno 10763 bound_to 10752
  153.4902  135.7030  153.5894 H   0  0  0  0  0  0  0  0  0  0  0  0  # atno 10764 bound_to 10752
  153.4271  135.3887  155.2114 H   0  0  0  0  0  0  0  0  0  0  0  0  # atno 10765 bound_to 10752
  140.8950  134.1763  157.4501 H   0  0  0  0  0  0  0  0  0  0  0  0  # atno 11005 bound_to 11000
  144.8328  140.6734  143.6280 LP  0  0  0  0  0  0  0  0  0  0  0  0  # atno 17320 bound_to 7965
  145.4054  139.1590  143.4154 LP  0  0  0  0  0  0  0  0  0  0  0  0  # atno 17321 bound_to 7965
  140.2623  144.4053  150.6181 LP  0  0  0  0  0  0  0  0  0  0  0  0  # atno 17342 bound_to 10162
  140.6148  143.2171  151.6814 LP  0  0  0  0  0  0  0  0  0  0  0  0  # atno 17343 bound_to 10162
  157.5523  130.8191  149.8161 LP  0  0  0  0  0  0  0  0  0  0  0  0  # atno 17370 bound_to 10713
  156.0243  130.3785  150.1870 LP  0  0  0  0  0  0  0  0  0  0  0  0  # atno 17371 bound_to 10713
  139.8734  134.9874  156.5368 LP  0  0  0  0  0  0  0  0  0  0  0  0  # atno 17394 bound_to 11000
  140.8300  133.8286  155.8975 LP  0  0  0  0  0  0  0  0  0  0  0  0  # atno 17395 bound_to 11000

$$$$
