#       Name:                AV-unprocessed.smi:2680
#       Creating user name   scv26
#       Creation time:       Fri Mar 27 14:40:07 2020


#       File generated by GOLD software.
#

@<TRIPOS>MOLECULE
AV-unprocessed.smi:2680
    44    45     1
SMALL
NO_CHARGES


@<TRIPOS>ATOM
      1 ****        -2.9492   2.9875   3.0456 C.3            1 S1                 0.0000
      2 ****        -3.0709   1.9393   1.9776 C.2            1 S1                 0.0000
      3 ****        -3.7378   2.0390   0.7236 C.2            1 S1                 0.0000
      4 ****        -3.6530   0.9310   0.0056 N.2            1 S1                 0.0000
      5 ****        -2.9210   0.0896   0.7669 N.pl3          1 S1                 0.0000
      6 ****        -2.6194  -1.2484   0.2796 C.3            1 S1                 0.0000
      7 ****        -1.1113  -1.5093   0.2179 C.2            1 S1                 0.0000
      8 ****        -0.6574  -2.5208   0.7505 O.2            1 S1                 0.0000
      9 ****        -0.3826  -0.5789  -0.4292 N.am           1 S1                 0.0000
     10 ****         1.0662  -0.4151  -0.6247 C.3            1 S1                 0.0000
     11 ****         1.3953   0.9488   0.0361 C.2            1 S1                 0.0000
     12 ****         1.7428   0.9471   1.2385 O.co2          1 S1                 0.0000
     13 ****         1.2469   1.9847  -0.6508 O.co2          1 S1                -1.0000
     14 ****         1.9444  -1.5580  -0.0216 C.3            1 S1                 0.0000
     15 ****         3.4381  -1.4268  -0.3778 C.3            1 S1                 0.0000
     16 ****         3.6414  -1.3760  -1.8989 C.3            1 S1                 0.0000
     17 ****         2.8098  -0.2519  -2.5331 C.3            1 S1                 0.0000
     18 ****         1.3192  -0.3774  -2.1591 C.3            1 S1                 0.0000
     19 ****        -2.5687   0.6693   1.9692 C.2            1 S1                 0.0000
     20 ****        -3.5173   3.8851   2.8003 H              1 S1                 0.0000
     21 ****        -1.9126   3.2932   3.1897 H              1 S1                 0.0000
     22 ****        -3.3157   2.6272   4.0068 H              1 S1                 0.0000
     23 ****        -4.2787   2.8804   0.3163 H              1 S1                 0.0000
     24 ****        -3.0981  -1.9709   0.9416 H              1 S1                 0.0000
     25 ****        -3.0484  -1.3857  -0.7143 H              1 S1                 0.0000
     26 ****        -0.9218   0.1877  -0.8053 H              1 S1                 0.0000
     27 ****         1.8344  -1.6140   1.0623 H              1 S1                 0.0000
     28 ****         1.6048  -2.5194  -0.4086 H              1 S1                 0.0000
     29 ****         3.8598  -0.5322   0.0813 H              1 S1                 0.0000
     30 ****         3.9898  -2.2702   0.0381 H              1 S1                 0.0000
     31 ****         4.6975  -1.2342  -2.1296 H              1 S1                 0.0000
     32 ****         3.3540  -2.3328  -2.3364 H              1 S1                 0.0000
     33 ****         3.1980   0.7158  -2.2142 H              1 S1                 0.0000
     34 ****         2.9201  -0.2800  -3.6174 H              1 S1                 0.0000
     35 ****         0.9288  -1.2938  -2.6043 H              1 S1                 0.0000
     36 ****         0.7570   0.4306  -2.6301 H              1 S1                 0.0000
     37 ****        -1.9842   0.1383   2.7064 H              1 S1                 0.0000
     38 ****        -4.0435   0.7559  -0.8982 LP             1 S1                 0.0000
     39 ****        -1.2708  -3.1592   1.2155 LP             1 S1                 0.0000
     40 ****         0.3250  -2.7047   0.7186 LP             1 S1                 0.0000
     41 ****         1.9206   1.8115   1.7088 LP             1 S1                 0.0000
     42 ****         1.8426   0.0814   1.7289 LP             1 S1                 0.0000
     43 ****         1.4085   2.8830  -0.2422 LP             1 S1                 0.0000
     44 ****         0.9667   1.9140  -1.6081 LP             1 S1                 0.0000
@<TRIPOS>BOND
    1    1    2 1     
    2    1   20 1     
    3    1   21 1     
    4    1   22 1     
    5    2   19 2     
    6    2    3 1     
    7    3    4 2     
    8    3   23 1     
    9    4    5 1     
   10    5    6 1     
   11    5   19 1     
   12    6    7 1     
   13    6   24 1     
   14    6   25 1     
   15    7    8 2     
   16    7    9 am    
   17    9   10 1     
   18    9   26 1     
   19   10   18 1     
   20   10   11 1     
   21   10   14 1     
   22   11   12 ar    
   23   11   13 ar    
   24   14   15 1     
   25   14   27 1     
   26   14   28 1     
   27   15   16 1     
   28   15   29 1     
   29   15   30 1     
   30   16   17 1     
   31   16   31 1     
   32   16   32 1     
   33   17   18 1     
   34   17   33 1     
   35   17   34 1     
   36   18   35 1     
   37   18   36 1     
   38   19   37 1     
   39    4   38 1     
   40    8   39 1     
   41    8   40 1     
   42   12   41 1     
   43   12   42 1     
   44   13   43 1     
   45   13   44 1     
@<TRIPOS>SUBSTRUCTURE
      1 S1             1
@<TRIPOS>SET
LONE_PAIRS      STATIC     ATOMS    <user>   **** ""
7 38 39 40 41 42 43 44
DONOR_HYDROGENS      STATIC     ATOMS    <user>   **** ""
1 26
ATOM$BLUE        STATIC     ATOMS    COLORGROUP SYSTEM
7 38 39 40 41 42 43 44
ATOM$RED        STATIC     ATOMS    COLORGROUP SYSTEM
1 26
