AV-unprocessed.smi:1641|AV-procd|sdf|6556|dock10
  -GOLD-   22720 7243D 1   1.00000     0.00000
 Structure written by MMmdl.
 41 42  0  0  0  0  0  0  0  0  1 V2000
  151.5295  141.2916  157.7171 C   0  0  0  0  0  0  0  0  0  0  0  0
  151.0398  140.9291  156.3568 C   0  0  0  0  0  0  0  0  0  0  0  0
  151.8322  140.9309  155.2779 N   0  0  0  0  0  0  0  0  0  0  0  0
  151.1538  140.5575  154.1260 N   0  0  0  0  0  0  0  0  0  0  0  0
  149.8651  140.2840  154.3715 C   0  0  0  0  0  0  0  0  0  0  0  0
  148.9398  139.8782  153.3735 N   0  0  0  0  0  0  0  0  0  0  0  0
  147.7312  139.3122  153.5384 C   0  0  0  0  0  0  0  0  0  0  0  0
  147.2141  139.0381  154.6219 O   0  0  0  0  0  0  0  0  0  0  0  0
  147.1433  139.0702  152.3579 N   0  0  0  0  0  0  0  0  0  0  0  0
  145.8338  138.4524  152.1881 C   0  0  0  0  0  0  0  0  0  0  0  0
  145.9109  137.2274  151.2575 C   0  0  0  0  0  0  0  0  0  0  0  0
  145.3094  136.0072  151.7921 N   0  0  0  0  0  0  0  0  0  0  0  0
  145.2356  134.9377  150.7994 C   0  0  0  0  0  0  0  0  0  0  0  0
  144.5756  133.6663  151.3677 C   0  0  2  0  0  0  0  0  0  0  0  0
  144.4146  132.5740  150.3053 C   0  0  0  0  0  0  0  0  0  0  0  0
  143.2833  133.9935  151.8716 O   0  0  0  0  0  0  0  0  0  0  0  0
  143.3093  135.0021  152.8777 C   0  0  2  0  0  0  0  0  0  0  0  0
  141.8712  135.2575  153.3406 C   0  0  0  0  0  0  0  0  0  0  0  0
  143.9679  136.2692  152.3007 C   0  0  0  0  0  0  0  0  0  0  0  0
  149.3732  140.4570  156.0476 S   0  0  0  0  0  0  0  0  0  0  0  0
  151.8356  140.3936  158.2539 H   0  0  0  0  0  0  0  0  0  0  0  0
  150.7389  141.7857  158.2819 H   0  0  0  0  0  0  0  0  0  0  0  0
  152.3822  141.9681  157.6484 H   0  0  0  0  0  0  0  0  0  0  0  0
  149.2355  140.0338  152.4212 H   0  0  0  0  0  0  0  0  0  0  0  0
  147.6370  139.3273  151.5157 H   0  0  0  0  0  0  0  0  0  0  0  0
  145.4308  138.1880  153.1664 H   0  0  0  0  0  0  0  0  0  0  0  0
  145.1609  139.1981  151.7639 H   0  0  0  0  0  0  0  0  0  0  0  0
  145.4031  137.4888  150.3279 H   0  0  0  0  0  0  0  0  0  0  0  0
  146.9499  137.0344  150.9861 H   0  0  0  0  0  0  0  0  0  0  0  0
  144.6741  135.2812  149.9290 H   0  0  0  0  0  0  0  0  0  0  0  0
  146.2339  134.6820  150.4456 H   0  0  0  0  0  0  0  0  0  0  0  0
  145.1845  133.2736  152.1841 H   0  0  0  0  0  0  0  0  0  0  0  0
  145.3807  132.2827  149.8925 H   0  0  0  0  0  0  0  0  0  0  0  0
  143.7868  132.9148  149.4813 H   0  0  0  0  0  0  0  0  0  0  0  0
  143.9521  131.6826  150.7299 H   0  0  0  0  0  0  0  0  0  0  0  0
  143.8920  134.6413  153.7269 H   0  0  0  0  0  0  0  0  0  0  0  0
  141.8391  136.0210  154.1181 H   0  0  0  0  0  0  0  0  0  0  0  0
  141.4260  134.3494  153.7477 H   0  0  0  0  0  0  0  0  0  0  0  0
  141.2449  135.5940  152.5139 H   0  0  0  0  0  0  0  0  0  0  0  0
  144.0116  137.0359  153.0752 H   0  0  0  0  0  0  0  0  0  0  0  0
  143.3432  136.6708  151.5008 H   0  0  0  0  0  0  0  0  0  0  0  0
  1  2  1  0  0  0  0
  1 21  1  0  0  0  0
  1 22  1  0  0  0  0
  1 23  1  0  0  0  0
  2 20  1  0  0  0  0
  2  3  2  0  0  0  0
  3  4  1  0  0  0  0
  4  5  2  0  0  0  0
  5  6  1  0  0  0  0
  5 20  1  0  0  0  0
  6  7  1  0  0  0  0
  6 24  1  0  0  0  0
  7  8  2  0  0  0  0
  7  9  1  0  0  0  0
  9 10  1  0  0  0  0
  9 25  1  0  0  0  0
 10 11  1  0  0  0  0
 10 26  1  0  0  0  0
 10 27  1  0  0  0  0
 11 12  1  0  0  0  0
 11 28  1  0  0  0  0
 11 29  1  0  0  0  0
 12 19  1  0  0  0  0
 12 13  1  0  0  0  0
 13 14  1  0  0  0  0
 13 30  1  0  0  0  0
 13 31  1  0  0  0  0
 14 15  1  0  0  0  0
 14 16  1  0  0  0  0
 14 32  1  0  0  0  0
 15 33  1  0  0  0  0
 15 34  1  0  0  0  0
 15 35  1  0  0  0  0
 16 17  1  0  0  0  0
 17 18  1  0  0  0  0
 17 19  1  0  0  0  0
 17 36  1  0  0  0  0
 18 37  1  0  0  0  0
 18 38  1  0  0  0  0
 18 39  1  0  0  0  0
 19 40  1  0  0  0  0
 19 41  1  0  0  0  0
M  END
> <s_m_source_file>
AV-unprocessed.smi

> <i_m_source_file_index>
1641

> <i_lp_mmshare_version>
43012

> <i_f3d_flags>
0

> <s_epik_input>
W0NIM11jMW5uYyhzMSlbTkhdQyg9TylbTkhdW0NIMl1bQ0gyXU4yW0NIMl1bQ0BASF0oW0NIM10pT1tDQEBIXShbQ0gzXSlbQ0gyXTI=

> <s_epik_cmdline>
J2VwaWtfcHl0aG9uJywgJy1waCcsICc3LjAnLCAnLXRuJywgJzgnLCAnLW1hJywgJzIwMCcsICctbWV0YWxfYmluZGluZycsICctaW1hZScsICc8aW5maWxlLm1hZT4nLCAnLW9tYWUnLCAnPG91dGZpbGUubWFlPic=

> <r_lp_tautomer_probability>
1

> <r_epik_Ionization_Penalty>
0.221104

> <r_epik_Ionization_Penalty_Charging>
0

> <r_epik_Ionization_Penalty_Neutral>
0.221104

> <r_epik_State_Penalty>
0.209349

> <r_epik_Charging_Adjusted_Penalty>
0.209349

> <i_epik_Tot_Q>
0

> <i_epik_Tot_abs_Q>
0

> <r_epik_Metal_State_Penalty>
0.560954

> <b_epik_Metal_Only>
0

> <s_lp_Force_Field>
OPLS_2005

> <r_lp_Energy>
18.567

> <b_lp_Chiralities_Consistent>
1

> <s_lp_Variant>
AV-unprocessed.smi:1641-1

> <Gold.Version>
5.8.1

> <Gold.Id.Protein>
6NUR|6NUR_protein|mol2

> <Gold.PLP.Fitness>
42.9021

> <Gold.PLP.PLP>
-32.3242

> <Gold.PLP.part.hbond>
-4.9271

> <Gold.PLP.part.metal>
0.0000

> <Gold.PLP.part.buried>
-3.5422

> <Gold.PLP.part.nonpolar>
-25.0692

> <Gold.PLP.part.repulsive>
0.6949

> <Gold.PLP.ligand.clash>
0.0000

> <Gold.PLP.ligand.torsion>
0.4710

> <Gold.PLP.Chemscore.Hbond>
3.8383

> <Gold.PLP.Chemscore.CHOScore>
0.0000

> <Gold.PLP.Chemscore.Metal>
0.0000

> <Gold.Chemscore.Hbonds>
donor molecule, donor type, donor heavy atom, donor atom, acceptor molecule, acceptor atom, score
      L1  H     6    24       P1  7957  0.46
      L1  H     9    25       P1  7957  0.59

> <Gold.PLP.Chemscore.Internal.Correction>
0.0051

> <Gold.Rescore>
     Score         DG    S(hbond)    S(metal)    S(lipo)     H(rot)  DE(clash)    DE(int)     intcor
     16.74     -20.12       3.33        0.00      64.98       1.60       1.66       1.72       ----

> <Gold.Chemscore.Fitness>
16.7374

> <Gold.Chemscore.DG>
-20.1158

> <Gold.Chemscore.ZeroCoef>
-5.4800

> <Gold.Chemscore.Hbond>
3.3302

> <Gold.Chemscore.Metal>
0.0000

> <Gold.Chemscore.Lipo>
64.9774

> <Gold.Chemscore.Internal_Hbond>
0.0000

> <Gold.Chemscore.DEClash>
1.6612

> <Gold.Chemscore.DEInternal>
1.7172

> <Gold.Chemscore.Rot>
1.5975

> <Gold.Chemscore.Internal.Correction>
   9.000000E+99

> <Gold.Chemscore.Hbonds>
donor molecule, donor type, donor heavy atom, donor atom, acceptor molecule, acceptor atom, score
      L1  H     6    24       P1  7957  0.46
      L1  H     9    25       P1  7957  0.55

> <Gold.Chemscore.Hbond.Weighted>
-11.1230

> <Gold.Chemscore.Metal.Weighted>
-0.0000

> <Gold.Chemscore.Lipo.Weighted>
-7.6024

> <Gold.Chemscore.Internal_Hbond.Weighted>
0.0000

> <Gold.Chemscore.DEClash.Weighted>
1.6612

> <Gold.Chemscore.DEInternal.Weighted>
1.7172

> <Gold.Chemscore.Rot.Weighted>
4.0896

> <Gold.Chemscore.Internal.Correction.Weighted>
   9.000000E+99

> <Gold.Protein.RotatedTorsions>
[ 6907 6896 6895 6894 ] final   60.89 input  -60.11 | X-H torsion
[ 7974 7965 7964 7962 ] final  155.19 input  175.53 | X-H torsion
[ 8008 7997 7996 7995 ] final   80.93 input   59.86 | X-H torsion
[ 10167 10162 10161 10158 ] final   94.58 input  -65.29 | X-H torsion
[ 10718 10713 10712 10709 ] final   68.71 input   66.30 | X-H torsion
[ 10763 10752 10751 10750 ] final  123.77 input  -60.55 | X-H torsion
[ 11005 11000 10999 10996 ] final   45.87 input  -57.11 | X-H torsion

> <Gold.Protein.ActiveResidues>
 VAL166  LYS551  ARG553  GLY616  TRP617  ASP618  TYR619  PRO620  LYS621  CYS622 
 ASP623  PHE694  ASN695  SER759  ASP760  ASP761  ALA762  ILE779  LEU786  VAL792 
 PHE793  MET794  SER795  GLU796  ALA797  LYS798  CYS799  TRP800  GLU811  SER814 

> <Gold.Protein.RotatedAtoms>
  152.4042  134.6235  160.0056 H   0  0  0  0  0  0  0  0  0  0  0  0  # atno 6907 bound_to 6896
  151.6431  133.3319  159.3143 H   0  0  0  0  0  0  0  0  0  0  0  0  # atno 6908 bound_to 6896
  150.7939  134.7025  159.6603 H   0  0  0  0  0  0  0  0  0  0  0  0  # atno 6909 bound_to 6896
  144.8040  139.7035  143.6170 H   0  0  0  0  0  0  0  0  0  0  0  0  # atno 7974 bound_to 7965
  155.8902  140.3439  155.5951 H   0  0  0  0  0  0  0  0  0  0  0  0  # atno 8008 bound_to 7997
  155.7619  140.0834  157.2170 H   0  0  0  0  0  0  0  0  0  0  0  0  # atno 8009 bound_to 7997
  154.4032  140.1534  156.2830 H   0  0  0  0  0  0  0  0  0  0  0  0  # atno 8010 bound_to 7997
  139.8070  144.6790  150.9690 H   0  0  0  0  0  0  0  0  0  0  0  0  # atno 10167 bound_to 10162
  157.6305  130.9388  150.0414 H   0  0  0  0  0  0  0  0  0  0  0  0  # atno 10718 bound_to 10713
  153.6507  135.3363  155.3099 H   0  0  0  0  0  0  0  0  0  0  0  0  # atno 10763 bound_to 10752
  154.8538  135.4340  154.1907 H   0  0  0  0  0  0  0  0  0  0  0  0  # atno 10764 bound_to 10752
  153.2849  135.7012  153.7424 H   0  0  0  0  0  0  0  0  0  0  0  0  # atno 10765 bound_to 10752
  140.1420  134.4571  155.8443 H   0  0  0  0  0  0  0  0  0  0  0  0  # atno 11005 bound_to 11000
  146.2328  139.5846  142.9544 LP  0  0  0  0  0  0  0  0  0  0  0  0  # atno 17320 bound_to 7965
  145.5483  141.0415  143.2292 LP  0  0  0  0  0  0  0  0  0  0  0  0  # atno 17321 bound_to 7965
  140.7819  143.4224  151.0821 LP  0  0  0  0  0  0  0  0  0  0  0  0  # atno 17342 bound_to 10162
  139.7892  143.8242  152.3149 LP  0  0  0  0  0  0  0  0  0  0  0  0  # atno 17343 bound_to 10162
  156.1505  130.3642  149.9446 LP  0  0  0  0  0  0  0  0  0  0  0  0  # atno 17370 bound_to 10713
  156.7467  130.9100  151.3635 LP  0  0  0  0  0  0  0  0  0  0  0  0  # atno 17371 bound_to 10713
  141.2187  133.6837  156.7265 LP  0  0  0  0  0  0  0  0  0  0  0  0  # atno 17394 bound_to 11000
  140.2710  134.8392  157.3847 LP  0  0  0  0  0  0  0  0  0  0  0  0  # atno 17395 bound_to 11000

$$$$
