AV-unprocessed.smi:1231|AV-procd|sdf|5161|dock4
  -GOLD-   22720 4233D 1   1.00000     0.00000
 Structure written by MMmdl.
 42 43  0  0  0  0  0  0  0  0  1 V2000
  151.9005  137.8349  154.6199 C   0  0  0  0  0  0  0  0  0  0  0  0
  150.9059  138.9757  154.3819 C   0  0  1  0  0  0  0  0  0  0  0  0
  149.4481  138.4782  154.3412 C   0  0  0  0  0  0  0  0  0  0  0  0
  148.4984  139.5784  154.1954 N   0  0  0  0  0  0  0  0  0  0  0  0
  147.1093  139.1239  154.1787 C   0  0  0  0  0  0  0  0  0  0  0  0
  146.5036  138.9368  152.7749 C   0  0  0  0  0  0  0  0  0  0  0  0
  146.7288  137.5855  152.2764 N   0  0  0  0  0  0  0  0  0  0  0  0
  145.7667  136.6800  152.0475 C   0  0  0  0  0  0  0  0  0  0  0  0
  144.5698  136.9000  152.2365 O   0  0  0  0  0  0  0  0  0  0  0  0
  146.2840  135.5240  151.5954 N   0  0  0  0  0  0  0  0  0  0  0  0
  145.5956  134.3327  151.2429 C   0  0  0  0  0  0  0  0  0  0  0  0
  146.4252  133.2359  150.9170 C   0  0  0  0  0  0  0  0  0  0  0  0
  145.8392  132.0080  150.5525 C   0  0  0  0  0  0  0  0  0  0  0  0
  144.4368  131.9083  150.5243 C   0  0  0  0  0  0  0  0  0  0  0  0
  143.6840  133.0474  150.8643 C   0  0  0  0  0  0  0  0  0  0  0  0
  144.2435  134.2250  151.2130 N   0  0  0  0  0  0  0  0  0  0  0  0
  148.7188  140.5378  155.2718 C   0  0  0  0  0  0  0  0  0  0  0  0
  150.1743  141.0407  155.3099 C   0  0  1  0  0  0  0  0  0  0  0  0
  150.4297  141.9898  156.4853 C   0  0  0  0  0  0  0  0  0  0  0  0
  151.0477  139.9223  155.4376 O   0  0  0  0  0  0  0  0  0  0  0  0
  151.8418  137.0907  153.8253 H   0  0  0  0  0  0  0  0  0  0  0  0
  151.7037  137.3310  155.5666 H   0  0  0  0  0  0  0  0  0  0  0  0
  152.9235  138.2106  154.6484 H   0  0  0  0  0  0  0  0  0  0  0  0
  151.1515  139.4625  153.4365 H   0  0  0  0  0  0  0  0  0  0  0  0
  149.3442  137.7778  153.5133 H   0  0  0  0  0  0  0  0  0  0  0  0
  149.2284  137.9204  155.2530 H   0  0  0  0  0  0  0  0  0  0  0  0
  147.0192  138.1943  154.7430 H   0  0  0  0  0  0  0  0  0  0  0  0
  146.4996  139.8556  154.7107 H   0  0  0  0  0  0  0  0  0  0  0  0
  145.4353  139.1590  152.7866 H   0  0  0  0  0  0  0  0  0  0  0  0
  146.9581  139.6231  152.0614 H   0  0  0  0  0  0  0  0  0  0  0  0
  147.6860  137.3219  152.0941 H   0  0  0  0  0  0  0  0  0  0  0  0
  147.2874  135.4919  151.4915 H   0  0  0  0  0  0  0  0  0  0  0  0
  147.5012  133.3297  150.9442 H   0  0  0  0  0  0  0  0  0  0  0  0
  146.4558  131.1583  150.2995 H   0  0  0  0  0  0  0  0  0  0  0  0
  143.9506  130.9839  150.2499 H   0  0  0  0  0  0  0  0  0  0  0  0
  142.6044  133.0131  150.8562 H   0  0  0  0  0  0  0  0  0  0  0  0
  148.0480  141.3890  155.1488 H   0  0  0  0  0  0  0  0  0  0  0  0
  148.4676  140.0801  156.2302 H   0  0  0  0  0  0  0  0  0  0  0  0
  150.4043  141.5649  154.3806 H   0  0  0  0  0  0  0  0  0  0  0  0
  149.7881  142.8693  156.4253 H   0  0  0  0  0  0  0  0  0  0  0  0
  151.4643  142.3334  156.4904 H   0  0  0  0  0  0  0  0  0  0  0  0
  150.2369  141.4983  157.4394 H   0  0  0  0  0  0  0  0  0  0  0  0
  1  2  1  0  0  0  0
  1 21  1  0  0  0  0
  1 22  1  0  0  0  0
  1 23  1  0  0  0  0
  2 20  1  0  0  0  0
  2  3  1  0  0  0  0
  2 24  1  0  0  0  0
  3  4  1  0  0  0  0
  3 25  1  0  0  0  0
  3 26  1  0  0  0  0
  4  5  1  0  0  0  0
  4 17  1  0  0  0  0
  5  6  1  0  0  0  0
  5 27  1  0  0  0  0
  5 28  1  0  0  0  0
  6  7  1  0  0  0  0
  6 29  1  0  0  0  0
  6 30  1  0  0  0  0
  7  8  1  0  0  0  0
  7 31  1  0  0  0  0
  8  9  2  0  0  0  0
  8 10  1  0  0  0  0
 10 11  1  0  0  0  0
 10 32  1  0  0  0  0
 11 16  1  0  0  0  0
 11 12  2  0  0  0  0
 12 13  1  0  0  0  0
 12 33  1  0  0  0  0
 13 14  2  0  0  0  0
 13 34  1  0  0  0  0
 14 15  1  0  0  0  0
 14 35  1  0  0  0  0
 15 16  2  0  0  0  0
 15 36  1  0  0  0  0
 17 18  1  0  0  0  0
 17 37  1  0  0  0  0
 17 38  1  0  0  0  0
 18 19  1  0  0  0  0
 18 20  1  0  0  0  0
 18 39  1  0  0  0  0
 19 40  1  0  0  0  0
 19 41  1  0  0  0  0
 19 42  1  0  0  0  0
M  END
> <s_m_source_file>
AV-unprocessed.smi

> <i_m_source_file_index>
1231

> <i_lp_mmshare_version>
43012

> <i_f3d_flags>
0

> <s_epik_input>
W0NIM11bQ0BASF0xW0NIMl1OKFtDSDJdW0NASF0oTzEpW0NIM10pW0NIMl1bQ0gyXVtOSF1DKD1PKVtOSF1jMltjSF1bY0hdW2NIXVtjSF1uMg==

> <s_epik_cmdline>
J2VwaWtfcHl0aG9uJywgJy1waCcsICc3LjAnLCAnLXRuJywgJzgnLCAnLW1hJywgJzIwMCcsICctbWV0YWxfYmluZGluZycsICctaW1hZScsICc8aW5maWxlLm1hZT4nLCAnLW9tYWUnLCAnPG91dGZpbGUubWFlPic=

> <r_epik_Ionization_Penalty>
0.266037

> <r_epik_Ionization_Penalty_Charging>
0

> <r_epik_Ionization_Penalty_Neutral>
0.266037

> <r_epik_State_Penalty>
0.257924

> <r_epik_Charging_Adjusted_Penalty>
0.257924

> <i_epik_Tot_Q>
0

> <i_epik_Tot_abs_Q>
0

> <r_epik_Metal_State_Penalty>
0.257923

> <b_epik_Metal_Only>
0

> <s_lp_Force_Field>
OPLS_2005

> <r_lp_Energy>
20.5827

> <b_lp_Chiralities_Consistent>
1

> <s_lp_Variant>
AV-unprocessed.smi:1231-2

> <Gold.Version>
5.8.1

> <Gold.Id.Protein>
6NUR|6NUR_protein|mol2

> <Gold.PLP.Fitness>
42.9937

> <Gold.PLP.PLP>
-35.4004

> <Gold.PLP.part.hbond>
-2.3906

> <Gold.PLP.part.metal>
0.0000

> <Gold.PLP.part.buried>
-4.5780

> <Gold.PLP.part.nonpolar>
-30.1906

> <Gold.PLP.part.repulsive>
1.2492

> <Gold.PLP.ligand.clash>
0.0000

> <Gold.PLP.ligand.torsion>
0.7237

> <Gold.PLP.Chemscore.Hbond>
2.0000

> <Gold.PLP.Chemscore.CHOScore>
1.0000

> <Gold.PLP.Chemscore.Metal>
0.0000

> <Gold.Chemscore.Hbonds>
donor molecule, donor type, donor heavy atom, donor atom, acceptor molecule, acceptor atom, score
      L1  H     7    31       P1  7948  1.00
      L1  H    10    32       P1  7948  1.00
      L1  C    15    36       P1 10186  0.99

> <Gold.PLP.Chemscore.Internal.Correction>
0.0408

> <Gold.Rescore>
     Score         DG    S(hbond)    S(metal)    S(lipo)     H(rot)  DE(clash)    DE(int)     intcor
     16.16     -18.29       1.93        0.00      87.74       1.52       0.17       1.96       ----

> <Gold.Chemscore.Fitness>
16.1620

> <Gold.Chemscore.DG>
-18.2942

> <Gold.Chemscore.ZeroCoef>
-5.4800

> <Gold.Chemscore.Hbond>
1.9253

> <Gold.Chemscore.Metal>
0.0000

> <Gold.Chemscore.Lipo>
87.7357

> <Gold.Chemscore.Internal_Hbond>
0.0000

> <Gold.Chemscore.DEClash>
0.1719

> <Gold.Chemscore.DEInternal>
1.9603

> <Gold.Chemscore.Rot>
1.5162

> <Gold.Chemscore.Internal.Correction>
   9.000000E+99

> <Gold.Chemscore.Hbonds>
donor molecule, donor type, donor heavy atom, donor atom, acceptor molecule, acceptor atom, score
      L1  H     7    31       P1  7948  0.98
      L1  H    10    32       P1  7948  0.91

> <Gold.Chemscore.Hbond.Weighted>
-6.4306

> <Gold.Chemscore.Metal.Weighted>
-0.0000

> <Gold.Chemscore.Lipo.Weighted>
-10.2651

> <Gold.Chemscore.Internal_Hbond.Weighted>
0.0000

> <Gold.Chemscore.DEClash.Weighted>
0.1719

> <Gold.Chemscore.DEInternal.Weighted>
1.9603

> <Gold.Chemscore.Rot.Weighted>
3.8814

> <Gold.Chemscore.Internal.Correction.Weighted>
   9.000000E+99

> <Gold.Protein.RotatedTorsions>
[ 6907 6896 6895 6894 ] final  -37.68 input  -60.11 | X-H torsion
[ 7974 7965 7964 7962 ] final -150.01 input  175.53 | X-H torsion
[ 8008 7997 7996 7995 ] final  114.35 input   59.86 | X-H torsion
[ 10167 10162 10161 10158 ] final -132.08 input  -65.29 | X-H torsion
[ 10718 10713 10712 10709 ] final  -10.75 input   66.30 | X-H torsion
[ 10763 10752 10751 10750 ] final  169.42 input  -60.55 | X-H torsion
[ 11005 11000 10999 10996 ] final   72.50 input  -57.11 | X-H torsion

> <Gold.Protein.ActiveResidues>
 VAL166  LYS551  ARG553  GLY616  TRP617  ASP618  TYR619  PRO620  LYS621  CYS622 
 ASP623  PHE694  ASN695  SER759  ASP760  ASP761  ALA762  ILE779  LEU786  VAL792 
 PHE793  MET794  SER795  GLU796  ALA797  LYS798  CYS799  TRP800  GLU811  SER814 

> <Gold.Protein.RotatedAtoms>
  151.0117  134.9402  159.8010 H   0  0  0  0  0  0  0  0  0  0  0  0  # atno 6907 bound_to 6896
  152.5304  134.3020  159.9092 H   0  0  0  0  0  0  0  0  0  0  0  0  # atno 6908 bound_to 6896
  151.3026  133.4074  159.2675 H   0  0  0  0  0  0  0  0  0  0  0  0  # atno 6909 bound_to 6896
  144.7933  140.4989  143.5757 H   0  0  0  0  0  0  0  0  0  0  0  0  # atno 7974 bound_to 7965
  156.2316  140.2961  156.0203 H   0  0  0  0  0  0  0  0  0  0  0  0  # atno 8008 bound_to 7997
  155.2209  140.0415  157.2965 H   0  0  0  0  0  0  0  0  0  0  0  0  # atno 8009 bound_to 7997
  154.6005  140.2425  155.7806 H   0  0  0  0  0  0  0  0  0  0  0  0  # atno 8010 bound_to 7997
  139.9123  143.6479  152.2572 H   0  0  0  0  0  0  0  0  0  0  0  0  # atno 10167 bound_to 10162
  156.6690  130.5003  149.6006 H   0  0  0  0  0  0  0  0  0  0  0  0  # atno 10718 bound_to 10713
  154.3829  135.2753  155.2200 H   0  0  0  0  0  0  0  0  0  0  0  0  # atno 10763 bound_to 10752
  154.4299  135.5980  153.6066 H   0  0  0  0  0  0  0  0  0  0  0  0  # atno 10764 bound_to 10752
  152.9834  135.5993  154.4074 H   0  0  0  0  0  0  0  0  0  0  0  0  # atno 10765 bound_to 10752
  139.9488  134.7265  156.0914 H   0  0  0  0  0  0  0  0  0  0  0  0  # atno 11005 bound_to 11000
  145.5738  139.1485  143.3273 LP  0  0  0  0  0  0  0  0  0  0  0  0  # atno 17320 bound_to 7965
  146.2193  140.5870  142.9024 LP  0  0  0  0  0  0  0  0  0  0  0  0  # atno 17321 bound_to 7965
  139.6932  144.7644  151.1402 LP  0  0  0  0  0  0  0  0  0  0  0  0  # atno 17342 bound_to 10162
  140.7682  143.5560  150.9151 LP  0  0  0  0  0  0  0  0  0  0  0  0  # atno 17343 bound_to 10162
  156.1953  130.6586  151.1107 LP  0  0  0  0  0  0  0  0  0  0  0  0  # atno 17370 bound_to 10713
  157.7084  131.0746  150.6588 LP  0  0  0  0  0  0  0  0  0  0  0  0  # atno 17371 bound_to 10713
  141.1145  133.6632  156.3060 LP  0  0  0  0  0  0  0  0  0  0  0  0  # atno 17394 bound_to 11000
  140.5770  134.5784  157.5471 LP  0  0  0  0  0  0  0  0  0  0  0  0  # atno 17395 bound_to 11000

$$$$
