AV-unprocessed.smi:2232|AV-procd|sdf|9038|dock5
  -GOLD-   2272012243D 1   1.00000     0.00000
 Structure written by MMmdl.
 42 43  0  0  0  0  0  0  0  0  1 V2000
  144.8423  132.4370  149.2877 C   0  0  0  0  0  0  0  0  0  0  0  0
  145.6159  132.0601  150.5337 C   0  0  0  0  0  0  0  0  0  0  0  0
  145.5884  130.7431  151.0307 C   0  0  0  0  0  0  0  0  0  0  0  0
  146.3308  130.4554  152.1926 C   0  0  0  0  0  0  0  0  0  0  0  0
  146.3472  129.0598  152.7801 C   0  0  0  0  0  0  0  0  0  0  0  0
  147.0610  131.3823  152.8487 N   0  0  0  0  0  0  0  0  0  0  0  0
  147.0944  132.6544  152.3796 C   0  0  0  0  0  0  0  0  0  0  0  0
  147.8356  133.7001  152.9915 N   0  0  0  0  0  0  0  0  0  0  0  0
  148.4349  133.6987  154.1954 C   0  0  0  0  0  0  0  0  0  0  0  0
  148.4149  132.7672  155.0010 O   0  0  0  0  0  0  0  0  0  0  0  0
  149.0702  134.8575  154.4229 N   0  0  0  0  0  0  0  0  0  0  0  0
  149.8160  135.1793  155.6339 C   0  0  0  0  0  0  0  0  0  0  0  0
  151.0662  136.0222  155.3176 C   0  0  0  0  0  0  0  0  0  0  0  0
  150.9247  137.4550  155.5722 N   0  0  0  0  0  0  0  0  0  0  0  0
  149.9421  138.0888  154.6949 C   0  0  0  0  0  0  0  0  0  0  0  0
  149.8324  139.6027  154.9503 C   0  0  0  0  0  0  0  0  0  0  0  0
  151.1127  140.2084  154.8063 O   0  0  0  0  0  0  0  0  0  0  0  0
  152.0838  139.6504  155.6851 C   0  0  0  0  0  0  0  0  0  0  0  0
  152.2047  138.1395  155.4228 C   0  0  0  0  0  0  0  0  0  0  0  0
  146.3799  133.0263  151.2187 C   0  0  0  0  0  0  0  0  0  0  0  0
  144.3719  131.5641  148.8337 H   0  0  0  0  0  0  0  0  0  0  0  0
  145.5080  132.8864  148.5506 H   0  0  0  0  0  0  0  0  0  0  0  0
  144.0617  133.1580  149.5317 H   0  0  0  0  0  0  0  0  0  0  0  0
  145.0147  129.9740  150.5346 H   0  0  0  0  0  0  0  0  0  0  0  0
  145.8827  128.3416  152.1039 H   0  0  0  0  0  0  0  0  0  0  0  0
  145.8032  129.0411  153.7246 H   0  0  0  0  0  0  0  0  0  0  0  0
  147.3716  128.7356  152.9663 H   0  0  0  0  0  0  0  0  0  0  0  0
  147.9252  134.5444  152.4462 H   0  0  0  0  0  0  0  0  0  0  0  0
  149.0348  135.5692  153.7079 H   0  0  0  0  0  0  0  0  0  0  0  0
  149.1398  135.7206  156.2945 H   0  0  0  0  0  0  0  0  0  0  0  0
  150.0952  134.2620  156.1551 H   0  0  0  0  0  0  0  0  0  0  0  0
  151.8883  135.6424  155.9260 H   0  0  0  0  0  0  0  0  0  0  0  0
  151.3647  135.8608  154.2803 H   0  0  0  0  0  0  0  0  0  0  0  0
  150.2130  137.9189  153.6517 H   0  0  0  0  0  0  0  0  0  0  0  0
  148.9594  137.6415  154.8399 H   0  0  0  0  0  0  0  0  0  0  0  0
  149.1409  140.0579  154.2411 H   0  0  0  0  0  0  0  0  0  0  0  0
  149.4407  139.7988  155.9495 H   0  0  0  0  0  0  0  0  0  0  0  0
  153.0420  140.1426  155.5186 H   0  0  0  0  0  0  0  0  0  0  0  0
  151.8005  139.8417  156.7214 H   0  0  0  0  0  0  0  0  0  0  0  0
  152.9346  137.7135  156.1121 H   0  0  0  0  0  0  0  0  0  0  0  0
  152.5957  137.9791  154.4169 H   0  0  0  0  0  0  0  0  0  0  0  0
  146.4148  134.0431  150.8545 H   0  0  0  0  0  0  0  0  0  0  0  0
  1  2  1  0  0  0  0
  1 21  1  0  0  0  0
  1 22  1  0  0  0  0
  1 23  1  0  0  0  0
  2 20  1  0  0  0  0
  2  3  2  0  0  0  0
  3  4  1  0  0  0  0
  3 24  1  0  0  0  0
  4  5  1  0  0  0  0
  4  6  2  0  0  0  0
  5 25  1  0  0  0  0
  5 26  1  0  0  0  0
  5 27  1  0  0  0  0
  6  7  1  0  0  0  0
  7  8  1  0  0  0  0
  7 20  2  0  0  0  0
  8  9  1  0  0  0  0
  8 28  1  0  0  0  0
  9 10  2  0  0  0  0
  9 11  1  0  0  0  0
 11 12  1  0  0  0  0
 11 29  1  0  0  0  0
 12 13  1  0  0  0  0
 12 30  1  0  0  0  0
 12 31  1  0  0  0  0
 13 14  1  0  0  0  0
 13 32  1  0  0  0  0
 13 33  1  0  0  0  0
 14 19  1  0  0  0  0
 14 15  1  0  0  0  0
 15 16  1  0  0  0  0
 15 34  1  0  0  0  0
 15 35  1  0  0  0  0
 16 17  1  0  0  0  0
 16 36  1  0  0  0  0
 16 37  1  0  0  0  0
 17 18  1  0  0  0  0
 18 19  1  0  0  0  0
 18 38  1  0  0  0  0
 18 39  1  0  0  0  0
 19 40  1  0  0  0  0
 19 41  1  0  0  0  0
 20 42  1  0  0  0  0
M  END
> <s_m_source_file>
AV-unprocessed.smi

> <i_m_source_file_index>
2232

> <i_lp_mmshare_version>
43012

> <i_f3d_flags>
0

> <s_epik_input>
W0NIM11jMVtjSF1jKFtDSDNdKW5jKFtjSF0xKVtOSF1DKD1PKVtOSF1bQ0gyXVtDSDJdTjJbQ0gyXVtDSDJdT1tDSDJdW0NIMl0y

> <s_epik_cmdline>
J2VwaWtfcHl0aG9uJywgJy1waCcsICc3LjAnLCAnLXRuJywgJzgnLCAnLW1hJywgJzIwMCcsICctbWV0YWxfYmluZGluZycsICctaW1hZScsICc8aW5maWxlLm1hZT4nLCAnLW9tYWUnLCAnPG91dGZpbGUubWFlPic=

> <r_epik_Ionization_Penalty>
0.26623

> <r_epik_Ionization_Penalty_Charging>
0

> <r_epik_Ionization_Penalty_Neutral>
0.26623

> <r_epik_State_Penalty>
0.257924

> <r_epik_Charging_Adjusted_Penalty>
0.257924

> <i_epik_Tot_Q>
0

> <i_epik_Tot_abs_Q>
0

> <r_epik_Metal_State_Penalty>
0.257909

> <b_epik_Metal_Only>
0

> <s_lp_Force_Field>
OPLS_2005

> <r_lp_Energy>
21.9386

> <b_lp_Chiralities_Consistent>
1

> <s_lp_Variant>
AV-unprocessed.smi:2232-1

> <Gold.Version>
5.8.1

> <Gold.Id.Protein>
6NUR|6NUR_protein|mol2

> <Gold.PLP.Fitness>
43.8068

> <Gold.PLP.PLP>
-35.8762

> <Gold.PLP.part.hbond>
-2.9292

> <Gold.PLP.part.metal>
0.0000

> <Gold.PLP.part.buried>
-4.0830

> <Gold.PLP.part.nonpolar>
-29.0950

> <Gold.PLP.part.repulsive>
0.2922

> <Gold.PLP.ligand.clash>
0.0000

> <Gold.PLP.ligand.torsion>
0.5048

> <Gold.PLP.Chemscore.Hbond>
2.9760

> <Gold.PLP.Chemscore.CHOScore>
0.0000

> <Gold.PLP.Chemscore.Metal>
0.0000

> <Gold.Chemscore.Hbonds>
donor molecule, donor type, donor heavy atom, donor atom, acceptor molecule, acceptor atom, score
      L1  H     8    28       P1  7948  1.00
      L1  H    11    29       P1  7948  1.00
      P1  H  7989  7998       L1    17  1.00

> <Gold.PLP.Chemscore.Internal.Correction>
0.0122

> <Gold.Rescore>
     Score         DG    S(hbond)    S(metal)    S(lipo)     H(rot)  DE(clash)    DE(int)     intcor
     18.14     -20.27       2.35        0.00      91.05       1.44       0.35       1.78       ----

> <Gold.Chemscore.Fitness>
18.1424

> <Gold.Chemscore.DG>
-20.2739

> <Gold.Chemscore.ZeroCoef>
-5.4800

> <Gold.Chemscore.Hbond>
2.3462

> <Gold.Chemscore.Metal>
0.0000

> <Gold.Chemscore.Lipo>
91.0452

> <Gold.Chemscore.Internal_Hbond>
0.0000

> <Gold.Chemscore.DEClash>
0.3467

> <Gold.Chemscore.DEInternal>
1.7848

> <Gold.Chemscore.Rot>
1.4433

> <Gold.Chemscore.Internal.Correction>
   9.000000E+99

> <Gold.Chemscore.Hbonds>
donor molecule, donor type, donor heavy atom, donor atom, acceptor molecule, acceptor atom, score
      L1  H     8    28       P1  7948  0.45
      L1  H    11    29       P1  7948  0.76
      P1  H  7989  7998       L1    17  0.89

> <Gold.Chemscore.Hbond.Weighted>
-7.8365

> <Gold.Chemscore.Metal.Weighted>
-0.0000

> <Gold.Chemscore.Lipo.Weighted>
-10.6523

> <Gold.Chemscore.Internal_Hbond.Weighted>
0.0000

> <Gold.Chemscore.DEClash.Weighted>
0.3467

> <Gold.Chemscore.DEInternal.Weighted>
1.7848

> <Gold.Chemscore.Rot.Weighted>
3.6948

> <Gold.Chemscore.Internal.Correction.Weighted>
   9.000000E+99

> <Gold.Protein.RotatedTorsions>
[ 6907 6896 6895 6894 ] final -162.78 input  -60.11 | X-H torsion
[ 7974 7965 7964 7962 ] final  175.58 input  175.53 | X-H torsion
[ 8008 7997 7996 7995 ] final  158.83 input   59.86 | X-H torsion
[ 10167 10162 10161 10158 ] final   77.90 input  -65.29 | X-H torsion
[ 10718 10713 10712 10709 ] final   37.90 input   66.30 | X-H torsion
[ 10763 10752 10751 10750 ] final  -62.23 input  -60.55 | X-H torsion
[ 11005 11000 10999 10996 ] final  -98.30 input  -57.11 | X-H torsion

> <Gold.Protein.ActiveResidues>
 VAL166  LYS551  ARG553  GLY616  TRP617  ASP618  TYR619  PRO620  LYS621  CYS622 
 ASP623  PHE694  ASN695  SER759  ASP760  ASP761  ALA762  ILE779  LEU786  VAL792 
 PHE793  MET794  SER795  GLU796  ALA797  LYS798  CYS799  TRP800  GLU811  SER814 

> <Gold.Protein.RotatedAtoms>
  151.3857  133.3806  159.2714 H   0  0  0  0  0  0  0  0  0  0  0  0  # atno 6907 bound_to 6896
  150.9543  134.8940  159.7702 H   0  0  0  0  0  0  0  0  0  0  0  0  # atno 6908 bound_to 6896
  152.5124  134.3814  159.9404 H   0  0  0  0  0  0  0  0  0  0  0  0  # atno 6909 bound_to 6896
  144.7199  139.9968  143.6440 H   0  0  0  0  0  0  0  0  0  0  0  0  # atno 7974 bound_to 7965
  156.2278  140.1848  156.7319 H   0  0  0  0  0  0  0  0  0  0  0  0  # atno 8008 bound_to 7997
  154.5970  140.0642  156.9345 H   0  0  0  0  0  0  0  0  0  0  0  0  # atno 8009 bound_to 7997
  155.2238  140.3309  155.4314 H   0  0  0  0  0  0  0  0  0  0  0  0  # atno 8010 bound_to 7997
  139.9766  144.5856  150.7937 H   0  0  0  0  0  0  0  0  0  0  0  0  # atno 10167 bound_to 10162
  157.3525  130.7606  149.6988 H   0  0  0  0  0  0  0  0  0  0  0  0  # atno 10718 bound_to 10713
  154.2967  135.6242  153.5408 H   0  0  0  0  0  0  0  0  0  0  0  0  # atno 10763 bound_to 10752
  152.9845  135.5668  154.5329 H   0  0  0  0  0  0  0  0  0  0  0  0  # atno 10764 bound_to 10752
  154.4951  135.2869  155.1441 H   0  0  0  0  0  0  0  0  0  0  0  0  # atno 10765 bound_to 10752
  141.1349  133.8235  157.0821 H   0  0  0  0  0  0  0  0  0  0  0  0  # atno 11005 bound_to 11000
  146.0367  139.3384  143.0722 LP  0  0  0  0  0  0  0  0  0  0  0  0  # atno 17320 bound_to 7965
  145.8385  140.9593  143.0811 LP  0  0  0  0  0  0  0  0  0  0  0  0  # atno 17321 bound_to 7965
  140.7503  143.2954  151.3219 LP  0  0  0  0  0  0  0  0  0  0  0  0  # atno 17342 bound_to 10162
  139.6441  144.0484  152.2577 LP  0  0  0  0  0  0  0  0  0  0  0  0  # atno 17343 bound_to 10162
  155.9724  130.4136  150.4093 LP  0  0  0  0  0  0  0  0  0  0  0  0  # atno 17370 bound_to 10713
  157.2158  131.0471  151.2574 LP  0  0  0  0  0  0  0  0  0  0  0  0  # atno 17371 bound_to 10713
  140.0445  134.9837  157.1023 LP  0  0  0  0  0  0  0  0  0  0  0  0  # atno 17394 bound_to 11000
  140.4084  134.2007  155.7163 LP  0  0  0  0  0  0  0  0  0  0  0  0  # atno 17395 bound_to 11000

$$$$
