#       Name:                AV-unprocessed.smi:1867
#       Creating user name   scv26
#       Creation time:       Fri Mar 27 09:28:13 2020


#       File generated by GOLD software.
#

@<TRIPOS>MOLECULE
AV-unprocessed.smi:1867
    55    58     1
SMALL
NO_CHARGES


@<TRIPOS>ATOM
      1 ****        -1.0250   2.8090  -0.4646 O.2            1 S1                 0.0000
      2 ****        -1.3216   1.6249  -0.6042 C.2            1 S1                 0.0000
      3 ****        -0.4333   0.6260  -0.7721 N.am           1 S1                 0.0000
      4 ****         0.9850   0.6912  -0.7572 C.ar           1 S1                 0.0000
      5 ****         1.7023  -0.3529  -1.3721 C.ar           1 S1                 0.0000
      6 ****         3.1094  -0.3250  -1.3562 C.ar           1 S1                 0.0000
      7 ****         3.7682   0.7503  -0.7135 C.ar           1 S1                 0.0000
      8 ****         5.1750   0.8197  -0.6680 N.pl3          1 S1                 0.0000
      9 ****         6.0199  -0.0439  -1.4769 C.3            1 S1                 0.0000
     10 ****         7.4415   0.4622  -1.2336 C.3            1 S1                 0.0000
     11 ****         7.2428   1.9577  -0.9880 C.3            1 S1                 0.0000
     12 ****         5.8772   2.0424  -0.2977 C.3            1 S1                 0.0000
     13 ****         3.0784   1.7432  -0.1034 N.ar           1 S1                 0.0000
     14 ****         1.7292   1.7145  -0.1242 C.ar           1 S1                 0.0000
     15 ****        -2.6079   1.2292  -0.6146 N.am           1 S1                 0.0000
     16 ****        -3.8183   2.0427  -0.4611 C.3            1 S1                 0.0000
     17 ****        -5.0088   1.2362   0.0932 C.3            1 S1                 0.0000
     18 ****        -6.2199   1.7342  -0.7017 C.3            1 S1                 0.0000
     19 ****        -5.6455   2.0329  -2.0180 N.4            1 S1                 1.0000
     20 ****        -6.4697   2.7693  -2.9977 C.3            1 S1                 0.0000
     21 ****        -5.7216   2.7869  -4.3481 C.3            1 S1                 0.0000
     22 ****        -4.2738   3.3097  -4.2082 C.3            1 S1                 0.0000
     23 ****        -3.5078   2.5875  -3.0783 C.3            1 S1                 0.0000
     24 ****        -4.3356   2.6647  -1.7822 C.3            1 S1                 0.0000
     25 ****        -0.8210  -0.2833  -0.9756 H              1 S1                 0.0000
     26 ****         1.1830  -1.1675  -1.8558 H              1 S1                 0.0000
     27 ****         3.6569  -1.1246  -1.8321 H              1 S1                 0.0000
     28 ****         5.9162  -1.0919  -1.1943 H              1 S1                 0.0000
     29 ****         5.7472   0.0624  -2.5276 H              1 S1                 0.0000
     30 ****         7.8519  -0.0057  -0.3376 H              1 S1                 0.0000
     31 ****         8.1150   0.2502  -2.0644 H              1 S1                 0.0000
     32 ****         8.0433   2.4035  -0.3970 H              1 S1                 0.0000
     33 ****         7.2018   2.4803  -1.9447 H              1 S1                 0.0000
     34 ****         5.3414   2.9420  -0.6031 H              1 S1                 0.0000
     35 ****         5.9920   2.0645   0.7865 H              1 S1                 0.0000
     36 ****         1.2532   2.5265   0.4029 H              1 S1                 0.0000
     37 ****        -2.7621   0.2396  -0.7453 H              1 S1                 0.0000
     38 ****        -3.6240   2.8502   0.2471 H              1 S1                 0.0000
     39 ****        -4.8677   0.1711  -0.0988 H              1 S1                 0.0000
     40 ****        -5.1374   1.3608   1.1688 H              1 S1                 0.0000
     41 ****        -7.0182   0.9937  -0.7624 H              1 S1                 0.0000
     42 ****        -6.6237   2.6460  -0.2586 H              1 S1                 0.0000
     43 ****        -7.4368   2.2778  -3.1098 H              1 S1                 0.0000
     44 ****        -6.6599   3.7834  -2.6436 H              1 S1                 0.0000
     45 ****        -5.6949   1.7746  -4.7537 H              1 S1                 0.0000
     46 ****        -6.2697   3.3911  -5.0717 H              1 S1                 0.0000
     47 ****        -3.7416   3.1961  -5.1531 H              1 S1                 0.0000
     48 ****        -4.2989   4.3797  -3.9977 H              1 S1                 0.0000
     49 ****        -3.3272   1.5476  -3.3539 H              1 S1                 0.0000
     50 ****        -2.5328   3.0556  -2.9427 H              1 S1                 0.0000
     51 ****        -4.5166   3.7205  -1.5681 H              1 S1                 0.0000
     52 ****        -5.4474   1.1331  -2.4321 H              1 S1                 0.0000
     53 ****        -0.0647   3.0880  -0.4709 LP             1 S1                 0.0000
     54 ****        -1.7438   3.4937  -0.3446 LP             1 S1                 0.0000
     55 ****         3.5623   2.4878   0.3565 LP             1 S1                 0.0000
@<TRIPOS>BOND
    1    1    2 2     
    2    2    3 am    
    3    2   15 am    
    4    3    4 1     
    5    3   25 1     
    6    4   14 ar    
    7    4    5 ar    
    8    5    6 ar    
    9    5   26 1     
   10    6    7 ar    
   11    6   27 1     
   12    7    8 1     
   13    7   13 ar    
   14    8   12 1     
   15    8    9 1     
   16    9   10 1     
   17    9   28 1     
   18    9   29 1     
   19   10   11 1     
   20   10   30 1     
   21   10   31 1     
   22   11   12 1     
   23   11   32 1     
   24   11   33 1     
   25   12   34 1     
   26   12   35 1     
   27   13   14 ar    
   28   14   36 1     
   29   15   16 1     
   30   15   37 1     
   31   16   24 1     
   32   16   17 1     
   33   16   38 1     
   34   17   18 1     
   35   17   39 1     
   36   17   40 1     
   37   18   19 1     
   38   18   41 1     
   39   18   42 1     
   40   19   24 1     
   41   19   20 1     
   42   19   52 1     
   43   20   21 1     
   44   20   43 1     
   45   20   44 1     
   46   21   22 1     
   47   21   45 1     
   48   21   46 1     
   49   22   23 1     
   50   22   47 1     
   51   22   48 1     
   52   23   24 1     
   53   23   49 1     
   54   23   50 1     
   55   24   51 1     
   56    1   53 1     
   57    1   54 1     
   58   13   55 1     
@<TRIPOS>SUBSTRUCTURE
      1 S1             1
@<TRIPOS>SET
LONE_PAIRS      STATIC     ATOMS    <user>   **** ""
3 53 54 55
DONOR_HYDROGENS      STATIC     ATOMS    <user>   **** ""
3 25 37 52
ATOM$BLUE        STATIC     ATOMS    COLORGROUP SYSTEM
3 53 54 55
ATOM$RED        STATIC     ATOMS    COLORGROUP SYSTEM
3 25 37 52
