AV-unprocessed.smi:1925|AV-procd|sdf|7793|dock10
  -GOLD-   22720 9533D 1   1.00000     0.00000
 Structure written by MMmdl.
 31 32  0  0  0  0  0  0  0  0  1 V2000
  144.7787  136.9875  152.5091 O   0  0  0  0  0  0  0  0  0  0  0  0
  145.9655  136.7540  152.2791 C   0  0  0  0  0  0  0  0  0  0  0  0
  146.9538  137.6182  152.5507 N   0  0  0  0  0  0  0  0  0  0  0  0
  146.7704  138.9456  153.1277 C   0  0  0  0  0  0  0  0  0  0  0  0
  148.1008  139.7143  153.2446 C   0  0  1  0  0  0  0  0  0  0  0  0
  147.9630  141.1019  153.8614 C   0  0  0  0  0  0  0  0  0  0  0  0
  149.1921  141.2420  154.7656 C   0  0  0  0  0  0  0  0  0  0  0  0
  150.0098  140.1199  154.4671 O   0  0  0  0  0  0  0  0  0  0  0  0
  149.1448  139.0473  154.1394 C   0  0  0  0  0  0  0  0  0  0  0  0
  146.4444  135.6258  151.7260 N   0  0  0  0  0  0  0  0  0  0  0  0
  145.7198  134.4825  151.2957 C   0  0  0  0  0  0  0  0  0  0  0  0
  146.5128  133.4230  150.7997 C   0  0  0  0  0  0  0  0  0  0  0  0
  145.8898  132.2439  150.3473 C   0  0  0  0  0  0  0  0  0  0  0  0
  144.4876  132.1538  150.4036 C   0  0  0  0  0  0  0  0  0  0  0  0
  143.7725  133.2535  150.9123 C   0  0  0  0  0  0  0  0  0  0  0  0
  144.3677  134.3846  151.3462 N   0  0  0  0  0  0  0  0  0  0  0  0
  147.9006  137.3443  152.3325 H   0  0  0  0  0  0  0  0  0  0  0  0
  146.0555  139.5155  152.5318 H   0  0  0  0  0  0  0  0  0  0  0  0
  146.3206  138.8238  154.1136 H   0  0  0  0  0  0  0  0  0  0  0  0
  148.5379  139.8339  152.2519 H   0  0  0  0  0  0  0  0  0  0  0  0
  147.9424  141.8698  153.0874 H   0  0  0  0  0  0  0  0  0  0  0  0
  147.0502  141.2004  154.4501 H   0  0  0  0  0  0  0  0  0  0  0  0
  149.7313  142.1747  154.5982 H   0  0  0  0  0  0  0  0  0  0  0  0
  148.9000  141.2023  155.8158 H   0  0  0  0  0  0  0  0  0  0  0  0
  148.6942  138.6482  155.0498 H   0  0  0  0  0  0  0  0  0  0  0  0
  149.6790  138.2415  153.6356 H   0  0  0  0  0  0  0  0  0  0  0  0
  147.4433  135.5825  151.5893 H   0  0  0  0  0  0  0  0  0  0  0  0
  147.5891  133.5090  150.7629 H   0  0  0  0  0  0  0  0  0  0  0  0
  146.4781  131.4237  149.9636 H   0  0  0  0  0  0  0  0  0  0  0  0
  143.9737  131.2659  150.0660 H   0  0  0  0  0  0  0  0  0  0  0  0
  142.6946  133.2249  150.9727 H   0  0  0  0  0  0  0  0  0  0  0  0
  1  2  2  0  0  0  0
  2  3  1  0  0  0  0
  2 10  1  0  0  0  0
  3  4  1  0  0  0  0
  3 17  1  0  0  0  0
  4  5  1  0  0  0  0
  4 18  1  0  0  0  0
  4 19  1  0  0  0  0
  5  9  1  0  0  0  0
  5  6  1  0  0  0  0
  5 20  1  0  0  0  0
  6  7  1  0  0  0  0
  6 21  1  0  0  0  0
  6 22  1  0  0  0  0
  7  8  1  0  0  0  0
  7 23  1  0  0  0  0
  7 24  1  0  0  0  0
  8  9  1  0  0  0  0
  9 25  1  0  0  0  0
  9 26  1  0  0  0  0
 10 11  1  0  0  0  0
 10 27  1  0  0  0  0
 11 16  1  0  0  0  0
 11 12  2  0  0  0  0
 12 13  1  0  0  0  0
 12 28  1  0  0  0  0
 13 14  2  0  0  0  0
 13 29  1  0  0  0  0
 14 15  1  0  0  0  0
 14 30  1  0  0  0  0
 15 16  2  0  0  0  0
 15 31  1  0  0  0  0
M  END
> <s_m_source_file>
AV-unprocessed.smi

> <i_m_source_file_index>
1925

> <i_lp_mmshare_version>
43012

> <i_f3d_flags>
0

> <s_epik_input>
bjFbY0hdW2NIXVtjSF1bY0hdYzFbTkhdQyg9TylbTkhdW0NIMl1bQ0BASF0yW0NIMl1bQ0gyXU9bQ0gyXTI=

> <s_epik_cmdline>
J2VwaWtfcHl0aG9uJywgJy1waCcsICc3LjAnLCAnLXRuJywgJzgnLCAnLW1hJywgJzIwMCcsICctbWV0YWxfYmluZGluZycsICctaW1hZScsICc8aW5maWxlLm1hZT4nLCAnLW9tYWUnLCAnPG91dGZpbGUubWFlPic=

> <r_lp_tautomer_probability>
1

> <r_epik_Ionization_Penalty>
4.81143e-05

> <r_epik_Ionization_Penalty_Charging>
0

> <r_epik_Ionization_Penalty_Neutral>
4.81143e-05

> <r_epik_State_Penalty>
-0

> <r_epik_Charging_Adjusted_Penalty>
0

> <i_epik_Tot_Q>
0

> <i_epik_Tot_abs_Q>
0

> <r_epik_Metal_State_Penalty>
-0

> <b_epik_Metal_Only>
0

> <s_lp_Force_Field>
OPLS_2005

> <r_lp_Energy>
20.4602

> <b_lp_Chiralities_Consistent>
1

> <s_lp_Variant>
AV-unprocessed.smi:1925-2

> <Gold.Version>
5.8.1

> <Gold.Id.Protein>
6NUR|6NUR_protein|mol2

> <Gold.PLP.Fitness>
41.0771

> <Gold.PLP.PLP>
-29.0878

> <Gold.PLP.part.hbond>
-2.9398

> <Gold.PLP.part.metal>
0.0000

> <Gold.PLP.part.buried>
0.2834

> <Gold.PLP.part.nonpolar>
-26.8526

> <Gold.PLP.part.repulsive>
0.5914

> <Gold.PLP.ligand.clash>
0.0000

> <Gold.PLP.ligand.torsion>
0.0062

> <Gold.PLP.Chemscore.Hbond>
3.0000

> <Gold.PLP.Chemscore.CHOScore>
1.0000

> <Gold.PLP.Chemscore.Metal>
0.0000

> <Gold.Chemscore.Hbonds>
donor molecule, donor type, donor heavy atom, donor atom, acceptor molecule, acceptor atom, score
      L1  H     3    17       P1  7948  1.00
      L1  H    10    27       P1  7948  1.00
      P1  H  7989  7998       L1     8  1.00
      L1  C    15    31       P1 10186  0.99

> <Gold.PLP.Chemscore.Internal.Correction>
0.0017

> <Gold.Rescore>
     Score         DG    S(hbond)    S(metal)    S(lipo)     H(rot)  DE(clash)    DE(int)     intcor
     16.22     -18.90       2.60        0.00      68.14       1.27       1.39       1.29       ----

> <Gold.Chemscore.Fitness>
16.2179

> <Gold.Chemscore.DG>
-18.9012

> <Gold.Chemscore.ZeroCoef>
-5.4800

> <Gold.Chemscore.Hbond>
2.6030

> <Gold.Chemscore.Metal>
0.0000

> <Gold.Chemscore.Lipo>
68.1434

> <Gold.Chemscore.Internal_Hbond>
0.0000

> <Gold.Chemscore.DEClash>
1.3934

> <Gold.Chemscore.DEInternal>
1.2899

> <Gold.Chemscore.Rot>
1.2678

> <Gold.Chemscore.Internal.Correction>
   9.000000E+99

> <Gold.Chemscore.Hbonds>
donor molecule, donor type, donor heavy atom, donor atom, acceptor molecule, acceptor atom, score
      L1  H     3    17       P1  7948  0.93
      L1  H    10    27       P1  7948  0.92
      P1  H  7989  7998       L1     8  0.45

> <Gold.Chemscore.Hbond.Weighted>
-8.6939

> <Gold.Chemscore.Metal.Weighted>
-0.0000

> <Gold.Chemscore.Lipo.Weighted>
-7.9728

> <Gold.Chemscore.Internal_Hbond.Weighted>
0.0000

> <Gold.Chemscore.DEClash.Weighted>
1.3934

> <Gold.Chemscore.DEInternal.Weighted>
1.2899

> <Gold.Chemscore.Rot.Weighted>
3.2455

> <Gold.Chemscore.Internal.Correction.Weighted>
   9.000000E+99

> <Gold.Protein.RotatedTorsions>
[ 6907 6896 6895 6894 ] final  -72.44 input  -60.11 | X-H torsion
[ 7974 7965 7964 7962 ] final    8.50 input  175.53 | X-H torsion
[ 8008 7997 7996 7995 ] final   31.14 input   59.86 | X-H torsion
[ 10167 10162 10161 10158 ] final  -13.26 input  -65.29 | X-H torsion
[ 10718 10713 10712 10709 ] final   -6.54 input   66.30 | X-H torsion
[ 10763 10752 10751 10750 ] final  -29.95 input  -60.55 | X-H torsion
[ 11005 11000 10999 10996 ] final  145.84 input  -57.11 | X-H torsion

> <Gold.Protein.ActiveResidues>
 VAL166  LYS551  ARG553  GLY616  TRP617  ASP618  TYR619  PRO620  LYS621  CYS622 
 ASP623  PHE694  ASN695  SER759  ASP760  ASP761  ALA762  ILE779  LEU786  VAL792 
 PHE793  MET794  SER795  GLU796  ALA797  LYS798  CYS799  TRP800  GLU811  SER814 

> <Gold.Protein.RotatedAtoms>
  150.7170  134.5163  159.5631 H   0  0  0  0  0  0  0  0  0  0  0  0  # atno 6907 bound_to 6896
  152.2728  134.7911  160.0420 H   0  0  0  0  0  0  0  0  0  0  0  0  # atno 6908 bound_to 6896
  151.8585  133.3417  159.3733 H   0  0  0  0  0  0  0  0  0  0  0  0  # atno 6909 bound_to 6896
  146.2415  139.9923  142.8424 H   0  0  0  0  0  0  0  0  0  0  0  0  # atno 7974 bound_to 7965
  155.1017  140.3230  155.4545 H   0  0  0  0  0  0  0  0  0  0  0  0  # atno 8008 bound_to 7997
  156.2715  140.2060  156.6090 H   0  0  0  0  0  0  0  0  0  0  0  0  # atno 8009 bound_to 7997
  154.6824  140.0525  157.0267 H   0  0  0  0  0  0  0  0  0  0  0  0  # atno 8010 bound_to 7997
  140.7178  143.5445  150.9371 H   0  0  0  0  0  0  0  0  0  0  0  0  # atno 10167 bound_to 10162
  156.7304  130.5178  149.5847 H   0  0  0  0  0  0  0  0  0  0  0  0  # atno 10718 bound_to 10713
  153.7730  135.6911  153.4903 H   0  0  0  0  0  0  0  0  0  0  0  0  # atno 10763 bound_to 10752
  153.1862  135.4488  155.0090 H   0  0  0  0  0  0  0  0  0  0  0  0  # atno 10764 bound_to 10752
  154.8111  135.3378  154.7238 H   0  0  0  0  0  0  0  0  0  0  0  0  # atno 10765 bound_to 10752
  140.0744  134.9133  157.1399 H   0  0  0  0  0  0  0  0  0  0  0  0  # atno 11005 bound_to 11000
  145.1491  140.9613  143.4443 LP  0  0  0  0  0  0  0  0  0  0  0  0  # atno 17320 bound_to 7965
  145.0222  139.3414  143.6066 LP  0  0  0  0  0  0  0  0  0  0  0  0  # atno 17321 bound_to 7965
  139.9168  143.6654  152.3104 LP  0  0  0  0  0  0  0  0  0  0  0  0  # atno 17342 bound_to 10162
  139.7056  144.7628  151.1198 LP  0  0  0  0  0  0  0  0  0  0  0  0  # atno 17343 bound_to 10162
  156.1533  130.6324  151.0624 LP  0  0  0  0  0  0  0  0  0  0  0  0  # atno 17370 bound_to 10713
  157.6861  131.0824  150.7238 LP  0  0  0  0  0  0  0  0  0  0  0  0  # atno 17371 bound_to 10713
  140.3579  134.2527  155.7190 LP  0  0  0  0  0  0  0  0  0  0  0  0  # atno 17394 bound_to 11000
  141.2024  133.7938  157.0392 LP  0  0  0  0  0  0  0  0  0  0  0  0  # atno 17395 bound_to 11000

$$$$
