AV-unprocessed.smi:1490|AV-procd|sdf|6030|dock1
  -GOLD-   22720 6133D 1   1.00000     0.00000
 Structure written by MMmdl.
 38 39  0  0  0  0  0  0  0  0  2 V2000
  151.0209  137.0354  154.9948 C   0  0  0  0  0  0  0  0  0  0  0  0
  151.3043  138.3254  154.4833 O   0  0  0  0  0  0  0  0  0  0  0  0
  152.3463  138.9769  155.1914 C   0  0  0  0  0  0  0  0  0  0  0  0
  151.8778  139.2890  156.6195 C   0  0  0  0  0  0  0  0  0  0  0  0
  151.2645  140.6207  156.7244 N   0  0  0  0  0  0  0  0  0  0  0  0
  150.3100  141.2170  155.9565 C   0  0  0  0  0  0  0  0  0  0  0  0
  149.5120  140.5098  154.5507 S   0  0  0  0  0  0  0  0  0  0  0  0
  148.1668  141.6491  154.1191 C   0  0  0  0  0  0  0  0  0  0  0  0
  147.0430  141.6622  155.1533 C   0  0  0  0  0  0  0  0  0  0  0  0
  146.1661  140.8000  155.1200 O   0  0  0  0  0  0  0  0  0  0  0  0
  147.0811  142.6334  156.0770 N   0  0  0  0  0  0  0  0  0  0  0  0
  146.1051  142.7885  157.1458 C   0  0  0  0  0  0  0  0  0  0  0  0
  146.7042  142.6370  158.4812 C   0  0  0  0  0  0  0  0  0  0  0  0
  147.1748  142.5189  159.5315 N   0  0  0  0  0  0  0  0  0  0  0  0
  150.0767  142.4544  156.4753 N   0  3  0  0  0  0  0  0  0  0  0  0
  150.8883  142.6510  157.5944 C   0  0  0  0  0  0  0  0  0  0  0  0
  151.0087  143.7394  158.4529 C   0  0  0  0  0  0  0  0  0  0  0  0
  151.9334  143.6142  159.5109 C   0  0  0  0  0  0  0  0  0  0  0  0
  152.1360  144.9237  160.6155 Cl  0  0  0  0  0  0  0  0  0  0  0  0
  152.6937  142.4386  159.6832 C   0  0  0  0  0  0  0  0  0  0  0  0
  152.5645  141.3410  158.8067 C   0  0  0  0  0  0  0  0  0  0  0  0
  151.6504  141.4756  157.7624 C   0  0  0  0  0  0  0  0  0  0  0  0
  150.2111  136.5843  154.4214 H   0  0  0  0  0  0  0  0  0  0  0  0
  150.7076  137.0844  156.0383 H   0  0  0  0  0  0  0  0  0  0  0  0
  151.8910  136.3819  154.9195 H   0  0  0  0  0  0  0  0  0  0  0  0
  153.2321  138.3403  155.2177 H   0  0  0  0  0  0  0  0  0  0  0  0
  152.6243  139.9021  154.6843 H   0  0  0  0  0  0  0  0  0  0  0  0
  151.1691  138.5399  156.9736 H   0  0  0  0  0  0  0  0  0  0  0  0
  152.7251  139.2582  157.3050 H   0  0  0  0  0  0  0  0  0  0  0  0
  148.5771  142.6548  154.0198 H   0  0  0  0  0  0  0  0  0  0  0  0
  147.7578  141.3709  153.1473 H   0  0  0  0  0  0  0  0  0  0  0  0
  147.8343  143.3048  156.0390 H   0  0  0  0  0  0  0  0  0  0  0  0
  145.6630  143.7829  157.0837 H   0  0  0  0  0  0  0  0  0  0  0  0
  145.2955  142.0649  157.0398 H   0  0  0  0  0  0  0  0  0  0  0  0
  150.4251  144.6391  158.3230 H   0  0  0  0  0  0  0  0  0  0  0  0
  153.3916  142.3758  160.5056 H   0  0  0  0  0  0  0  0  0  0  0  0
  153.1509  140.4456  158.9506 H   0  0  0  0  0  0  0  0  0  0  0  0
  149.4079  143.1112  156.0940 H   0  0  0  0  0  0  0  0  0  0  0  0
  1  2  1  0  0  0  0
  1 23  1  0  0  0  0
  1 24  1  0  0  0  0
  1 25  1  0  0  0  0
  2  3  1  0  0  0  0
  3  4  1  0  0  0  0
  3 26  1  0  0  0  0
  3 27  1  0  0  0  0
  4  5  1  0  0  0  0
  4 28  1  0  0  0  0
  4 29  1  0  0  0  0
  5 22  1  0  0  0  0
  5  6  1  0  0  0  0
  6  7  1  0  0  0  0
  6 15  2  0  0  0  0
  7  8  1  0  0  0  0
  8  9  1  0  0  0  0
  8 30  1  0  0  0  0
  8 31  1  0  0  0  0
  9 10  2  0  0  0  0
  9 11  1  0  0  0  0
 11 12  1  0  0  0  0
 11 32  1  0  0  0  0
 12 13  1  0  0  0  0
 12 33  1  0  0  0  0
 12 34  1  0  0  0  0
 13 14  3  0  0  0  0
 15 16  1  0  0  0  0
 15 38  1  0  0  0  0
 16 22  2  0  0  0  0
 16 17  1  0  0  0  0
 17 18  2  0  0  0  0
 17 35  1  0  0  0  0
 18 19  1  0  0  0  0
 18 20  1  0  0  0  0
 20 21  2  0  0  0  0
 20 36  1  0  0  0  0
 21 22  1  0  0  0  0
 21 37  1  0  0  0  0
M  CHG  1  15   1
M  END
> <s_m_source_file>
AV-unprocessed.smi

> <i_m_source_file_index>
1490

> <i_lp_mmshare_version>
43012

> <i_f3d_flags>
0

> <s_epik_input>
W2NIXTFjKENsKVtjSF1bY0hdYyhjMTIpbihbQ0gyXVtDSDJdT1tDSDNdKWMobjIpU1tDSDJdQyg9TylbTkhdW0NIMl1DI04=

> <s_epik_cmdline>
J2VwaWtfcHl0aG9uJywgJy1waCcsICc3LjAnLCAnLXRuJywgJzgnLCAnLW1hJywgJzIwMCcsICctbWV0YWxfYmluZGluZycsICctaW1hZScsICc8aW5maWxlLm1hZT4nLCAnLW9tYWUnLCAnPG91dGZpbGUubWFlPic=

> <r_epik_Ionization_Penalty>
2.45232

> <r_epik_Ionization_Penalty_Charging>
2.45231

> <r_epik_Ionization_Penalty_Neutral>
6.97855e-06

> <r_epik_State_Penalty>
2.61389

> <r_epik_Charging_Adjusted_Penalty>
5.0662

> <i_epik_Tot_Q>
1

> <i_epik_Tot_abs_Q>
1

> <r_epik_Metal_State_Penalty>
2.62983

> <b_epik_Metal_Only>
0

> <s_lp_Force_Field>
OPLS_2005

> <r_lp_Energy>
5.53111

> <b_lp_Chiralities_Consistent>
1

> <s_lp_Variant>
AV-unprocessed.smi:1490-2

> <Gold.Version>
5.8.1

> <Gold.Id.Protein>
6NUR|6NUR_protein|mol2

> <Gold.PLP.Fitness>
55.0765

> <Gold.PLP.PLP>
-44.9965

> <Gold.PLP.part.hbond>
-3.8857

> <Gold.PLP.part.metal>
0.0000

> <Gold.PLP.part.buried>
-4.6722

> <Gold.PLP.part.nonpolar>
-37.8374

> <Gold.PLP.part.repulsive>
0.3918

> <Gold.PLP.ligand.clash>
0.0000

> <Gold.PLP.ligand.torsion>
0.7678

> <Gold.PLP.Chemscore.Hbond>
3.8518

> <Gold.PLP.Chemscore.CHOScore>
0.0000

> <Gold.PLP.Chemscore.Metal>
0.0000

> <Gold.Chemscore.Hbonds>
donor molecule, donor type, donor heavy atom, donor atom, acceptor molecule, acceptor atom, score
      L1  H    11    32       P1  8028  0.90
      L1  H    15    38       P1  8028  2.00
      P1  H  6933  6944       L1    14  0.18
      P1  H  6934  6946       L1    14  0.73

> <Gold.PLP.Chemscore.Internal.Correction>
0.0604

> <Gold.Rescore>
     Score         DG    S(hbond)    S(metal)    S(lipo)     H(rot)  DE(clash)    DE(int)     intcor
     16.37     -18.34       2.39        0.00     103.83       2.84       0.30       1.67       ----

> <Gold.Chemscore.Fitness>
16.3731

> <Gold.Chemscore.DG>
-18.3414

> <Gold.Chemscore.ZeroCoef>
-5.4800

> <Gold.Chemscore.Hbond>
2.3886

> <Gold.Chemscore.Metal>
0.0000

> <Gold.Chemscore.Lipo>
103.8310

> <Gold.Chemscore.Internal_Hbond>
0.0000

> <Gold.Chemscore.DEClash>
0.3006

> <Gold.Chemscore.DEInternal>
1.6678

> <Gold.Chemscore.Rot>
2.8378

> <Gold.Chemscore.Internal.Correction>
   9.000000E+99

> <Gold.Chemscore.Hbonds>
donor molecule, donor type, donor heavy atom, donor atom, acceptor molecule, acceptor atom, score
      L1  H    11    32       P1  8028  0.18
      L1  H    15    38       P1  8028  0.97
      P1  H  6933  6944       L1    14  0.17
      P1  H  6934  6946       L1    14  0.69

> <Gold.Chemscore.Hbond.Weighted>
-7.9781

> <Gold.Chemscore.Metal.Weighted>
-0.0000

> <Gold.Chemscore.Lipo.Weighted>
-12.1482

> <Gold.Chemscore.Internal_Hbond.Weighted>
0.0000

> <Gold.Chemscore.DEClash.Weighted>
0.3006

> <Gold.Chemscore.DEInternal.Weighted>
1.6678

> <Gold.Chemscore.Rot.Weighted>
7.2649

> <Gold.Chemscore.Internal.Correction.Weighted>
   9.000000E+99

> <Gold.Protein.RotatedTorsions>
[ 6907 6896 6895 6894 ] final  -55.33 input  -60.11 | X-H torsion
[ 7974 7965 7964 7962 ] final  117.78 input  175.53 | X-H torsion
[ 8008 7997 7996 7995 ] final   95.87 input   59.86 | X-H torsion
[ 10167 10162 10161 10158 ] final  -58.56 input  -65.29 | X-H torsion
[ 10718 10713 10712 10709 ] final  -74.00 input   66.30 | X-H torsion
[ 10763 10752 10751 10750 ] final  -69.37 input  -60.55 | X-H torsion
[ 11005 11000 10999 10996 ] final  -41.28 input  -57.11 | X-H torsion

> <Gold.Protein.ActiveResidues>
 VAL166  LYS551  ARG553  GLY616  TRP617  ASP618  TYR619  PRO620  LYS621  CYS622 
 ASP623  PHE694  ASN695  SER759  ASP760  ASP761  ALA762  ILE779  LEU786  VAL792 
 PHE793  MET794  SER795  GLU796  ALA797  LYS798  CYS799  TRP800  GLU811  SER814 

> <Gold.Protein.RotatedAtoms>
  150.8261  134.7492  159.6813 H   0  0  0  0  0  0  0  0  0  0  0  0  # atno 6907 bound_to 6896
  152.4371  134.5661  159.9918 H   0  0  0  0  0  0  0  0  0  0  0  0  # atno 6908 bound_to 6896
  151.5833  133.3337  159.3049 H   0  0  0  0  0  0  0  0  0  0  0  0  # atno 6909 bound_to 6896
  145.1632  139.3143  143.4506 H   0  0  0  0  0  0  0  0  0  0  0  0  # atno 7974 bound_to 7965
  156.0735  140.3280  155.7605 H   0  0  0  0  0  0  0  0  0  0  0  0  # atno 8008 bound_to 7997
  155.5268  140.0590  157.2914 H   0  0  0  0  0  0  0  0  0  0  0  0  # atno 8009 bound_to 7997
  154.4543  140.1934  156.0444 H   0  0  0  0  0  0  0  0  0  0  0  0  # atno 8010 bound_to 7997
  140.6190  143.2412  151.5528 H   0  0  0  0  0  0  0  0  0  0  0  0  # atno 10167 bound_to 10162
  156.0259  130.4407  150.2826 H   0  0  0  0  0  0  0  0  0  0  0  0  # atno 10718 bound_to 10713
  154.4024  135.6028  153.5905 H   0  0  0  0  0  0  0  0  0  0  0  0  # atno 10763 bound_to 10752
  152.9788  135.5909  154.4168 H   0  0  0  0  0  0  0  0  0  0  0  0  # atno 10764 bound_to 10752
  154.3969  135.2842  155.2099 H   0  0  0  0  0  0  0  0  0  0  0  0  # atno 10765 bound_to 10752
  141.0234  133.6852  156.2435 H   0  0  0  0  0  0  0  0  0  0  0  0  # atno 11005 bound_to 11000
  146.3479  140.1750  142.8589 LP  0  0  0  0  0  0  0  0  0  0  0  0  # atno 17320 bound_to 7965
  145.0309  140.8870  143.5110 LP  0  0  0  0  0  0  0  0  0  0  0  0  # atno 17321 bound_to 7965
  139.5422  144.2616  152.1373 LP  0  0  0  0  0  0  0  0  0  0  0  0  # atno 17342 bound_to 10162
  140.1832  144.4824  150.6517 LP  0  0  0  0  0  0  0  0  0  0  0  0  # atno 17343 bound_to 10162
  157.0930  131.0175  151.3114 LP  0  0  0  0  0  0  0  0  0  0  0  0  # atno 17370 bound_to 10713
  157.4839  130.7782  149.7441 LP  0  0  0  0  0  0  0  0  0  0  0  0  # atno 17371 bound_to 10713
  140.6533  134.5044  157.5579 LP  0  0  0  0  0  0  0  0  0  0  0  0  # atno 17394 bound_to 11000
  139.9161  134.8244  156.1363 LP  0  0  0  0  0  0  0  0  0  0  0  0  # atno 17395 bound_to 11000

$$$$
