AV-unprocessed.smi:3258|AV-procd|sdf|12469|dock9
  -GOLD-   2272018363D 1   1.00000     0.00000
 Structure written by MMmdl.
 38 39  0  0  0  0  0  0  0  0  1 V2000
  144.0514  136.8723  152.5583 C   0  0  0  0  0  0  0  0  0  0  0  0
  145.0473  135.7198  152.3539 C   0  0  1  0  0  0  0  0  0  0  0  0
  145.1299  135.3033  150.8726 C   0  0  0  0  0  0  0  0  0  0  0  0
  145.0530  133.8632  150.6989 N   0  0  0  0  0  0  0  0  0  0  0  0
  143.9352  133.0563  150.7312 C   0  0  0  0  0  0  0  0  0  0  0  0
  144.3547  131.7728  150.5286 C   0  0  0  0  0  0  0  0  0  0  0  0
  145.7643  131.8979  150.3782 C   0  0  0  0  0  0  0  0  0  0  0  0
  146.1794  133.1502  150.4800 N   0  0  0  0  0  0  0  0  0  0  0  0
  146.3690  136.1112  152.8400 N   0  0  0  0  0  0  0  0  0  0  0  0
  146.6540  136.4864  154.0945 C   0  0  0  0  0  0  0  0  0  0  0  0
  145.8204  136.5704  154.9965 O   0  0  0  0  0  0  0  0  0  0  0  0
  147.9568  136.7631  154.2443 N   0  0  0  0  0  0  0  0  0  0  0  0
  148.5894  137.2114  155.4808 C   0  0  0  0  0  0  0  0  0  0  0  0
  149.9727  137.8371  155.2218 C   0  0  2  0  0  0  0  0  0  0  0  0
  150.6549  138.3538  156.4717 C   0  0  0  0  0  0  0  0  0  0  0  0
  151.7165  139.2831  155.8908 C   0  0  0  0  0  0  0  0  0  0  0  0
  151.1625  139.8004  154.6846 O   0  0  0  0  0  0  0  0  0  0  0  0
  149.9672  139.0989  154.3557 C   0  0  0  0  0  0  0  0  0  0  0  0
  143.0545  136.5939  152.2157 H   0  0  0  0  0  0  0  0  0  0  0  0
  144.3563  137.7624  152.0067 H   0  0  0  0  0  0  0  0  0  0  0  0
  143.9708  137.1436  153.6113 H   0  0  0  0  0  0  0  0  0  0  0  0
  144.6938  134.8604  152.9268 H   0  0  0  0  0  0  0  0  0  0  0  0
  144.3072  135.7499  150.3127 H   0  0  0  0  0  0  0  0  0  0  0  0
  146.0510  135.6721  150.4179 H   0  0  0  0  0  0  0  0  0  0  0  0
  142.9464  133.4582  150.8971 H   0  0  0  0  0  0  0  0  0  0  0  0
  143.7475  130.8805  150.4937 H   0  0  0  0  0  0  0  0  0  0  0  0
  146.4930  131.1212  150.1997 H   0  0  0  0  0  0  0  0  0  0  0  0
  147.1260  136.0711  152.1732 H   0  0  0  0  0  0  0  0  0  0  0  0
  148.5581  136.6591  153.4399 H   0  0  0  0  0  0  0  0  0  0  0  0
  147.9441  137.9090  156.0178 H   0  0  0  0  0  0  0  0  0  0  0  0
  148.7001  136.3411  156.1279 H   0  0  0  0  0  0  0  0  0  0  0  0
  150.6242  137.0951  154.7567 H   0  0  0  0  0  0  0  0  0  0  0  0
  149.9526  138.9244  157.0811 H   0  0  0  0  0  0  0  0  0  0  0  0
  151.0777  137.5610  157.0895 H   0  0  0  0  0  0  0  0  0  0  0  0
  151.9917  140.0825  156.5792 H   0  0  0  0  0  0  0  0  0  0  0  0
  152.6192  138.7228  155.6442 H   0  0  0  0  0  0  0  0  0  0  0  0
  149.9190  138.8749  153.2899 H   0  0  0  0  0  0  0  0  0  0  0  0
  149.1173  139.7354  154.6055 H   0  0  0  0  0  0  0  0  0  0  0  0
  1  2  1  0  0  0  0
  1 19  1  0  0  0  0
  1 20  1  0  0  0  0
  1 21  1  0  0  0  0
  2  3  1  0  0  0  0
  2  9  1  0  0  0  0
  2 22  1  0  0  0  0
  3  4  1  0  0  0  0
  3 23  1  0  0  0  0
  3 24  1  0  0  0  0
  4  8  1  0  0  0  0
  4  5  1  0  0  0  0
  5  6  2  0  0  0  0
  5 25  1  0  0  0  0
  6  7  1  0  0  0  0
  6 26  1  0  0  0  0
  7  8  2  0  0  0  0
  7 27  1  0  0  0  0
  9 10  1  0  0  0  0
  9 28  1  0  0  0  0
 10 11  2  0  0  0  0
 10 12  1  0  0  0  0
 12 13  1  0  0  0  0
 12 29  1  0  0  0  0
 13 14  1  0  0  0  0
 13 30  1  0  0  0  0
 13 31  1  0  0  0  0
 14 18  1  0  0  0  0
 14 15  1  0  0  0  0
 14 32  1  0  0  0  0
 15 16  1  0  0  0  0
 15 33  1  0  0  0  0
 15 34  1  0  0  0  0
 16 17  1  0  0  0  0
 16 35  1  0  0  0  0
 16 36  1  0  0  0  0
 17 18  1  0  0  0  0
 18 37  1  0  0  0  0
 18 38  1  0  0  0  0
M  END
> <s_m_source_file>
AV-unprocessed.smi

> <i_m_source_file_index>
3258

> <i_lp_mmshare_version>
43012

> <i_f3d_flags>
0

> <s_epik_input>
bjFbY0hdW2NIXVtjSF1uMVtDSDJdW0NAQEhdKFtDSDNdKVtOSF1DKD1PKVtOSF1bQ0gyXVtDQEBIXTJbQ0gyXVtDSDJdT1tDSDJdMg==

> <s_epik_cmdline>
J2VwaWtfcHl0aG9uJywgJy1waCcsICc3LjAnLCAnLXRuJywgJzgnLCAnLW1hJywgJzIwMCcsICctbWV0YWxfYmluZGluZycsICctaW1hZScsICc8aW5maWxlLm1hZT4nLCAnLW9tYWUnLCAnPG91dGZpbGUubWFlPic=

> <r_lp_tautomer_probability>
1

> <r_epik_Ionization_Penalty>
6.85079e-05

> <r_epik_Ionization_Penalty_Charging>
0

> <r_epik_Ionization_Penalty_Neutral>
6.85079e-05

> <r_epik_State_Penalty>
-0

> <r_epik_Charging_Adjusted_Penalty>
0

> <i_epik_Tot_Q>
0

> <i_epik_Tot_abs_Q>
0

> <r_epik_Metal_State_Penalty>
-0

> <b_epik_Metal_Only>
0

> <s_lp_Force_Field>
OPLS_2005

> <r_lp_Energy>
17.05

> <b_lp_Chiralities_Consistent>
1

> <s_lp_Variant>
AV-unprocessed.smi:3258-2

> <Gold.Version>
5.8.1

> <Gold.Id.Protein>
6NUR|6NUR_protein|mol2

> <Gold.PLP.Fitness>
42.4822

> <Gold.PLP.PLP>
-29.5613

> <Gold.PLP.part.hbond>
-3.0000

> <Gold.PLP.part.metal>
0.0000

> <Gold.PLP.part.buried>
-5.4419

> <Gold.PLP.part.nonpolar>
-22.2292

> <Gold.PLP.part.repulsive>
0.3054

> <Gold.PLP.ligand.clash>
0.0000

> <Gold.PLP.ligand.torsion>
1.0303

> <Gold.PLP.Chemscore.Hbond>
2.9760

> <Gold.PLP.Chemscore.CHOScore>
2.0000

> <Gold.PLP.Chemscore.Metal>
0.0000

> <Gold.Chemscore.Hbonds>
donor molecule, donor type, donor heavy atom, donor atom, acceptor molecule, acceptor atom, score
      L1  H     9    28       P1  7948  0.98
      L1  H    12    29       P1  7948  1.00
      P1  H  7989  7998       L1    17  1.00
      L1  C     5    25       P1 10186  0.96
      L1  C     7    27       P1 10747  1.00

> <Gold.PLP.Chemscore.Internal.Correction>
0.0534

> <Gold.Rescore>
     Score         DG    S(hbond)    S(metal)    S(lipo)     H(rot)  DE(clash)    DE(int)     intcor
     16.81     -17.81       2.86        0.00      64.59       1.87       0.01       0.98       ----

> <Gold.Chemscore.Fitness>
16.8076

> <Gold.Chemscore.DG>
-17.8056

> <Gold.Chemscore.ZeroCoef>
-5.4800

> <Gold.Chemscore.Hbond>
2.8629

> <Gold.Chemscore.Metal>
0.0000

> <Gold.Chemscore.Lipo>
64.5879

> <Gold.Chemscore.Internal_Hbond>
0.0000

> <Gold.Chemscore.DEClash>
0.0135

> <Gold.Chemscore.DEInternal>
0.9845

> <Gold.Chemscore.Rot>
1.8724

> <Gold.Chemscore.Internal.Correction>
   9.000000E+99

> <Gold.Chemscore.Hbonds>
donor molecule, donor type, donor heavy atom, donor atom, acceptor molecule, acceptor atom, score
      L1  H     9    28       P1  7948  0.93
      L1  H    12    29       P1  7948  0.99
      P1  H  7989  7998       L1    17  0.85

> <Gold.Chemscore.Hbond.Weighted>
-9.5620

> <Gold.Chemscore.Metal.Weighted>
-0.0000

> <Gold.Chemscore.Lipo.Weighted>
-7.5568

> <Gold.Chemscore.Internal_Hbond.Weighted>
0.0000

> <Gold.Chemscore.DEClash.Weighted>
0.0135

> <Gold.Chemscore.DEInternal.Weighted>
0.9845

> <Gold.Chemscore.Rot.Weighted>
4.7933

> <Gold.Chemscore.Internal.Correction.Weighted>
   9.000000E+99

> <Gold.Protein.RotatedTorsions>
[ 6907 6896 6895 6894 ] final -149.28 input  -60.11 | X-H torsion
[ 7974 7965 7964 7962 ] final -105.78 input  175.53 | X-H torsion
[ 8008 7997 7996 7995 ] final -147.17 input   59.86 | X-H torsion
[ 10167 10162 10161 10158 ] final  -40.56 input  -65.29 | X-H torsion
[ 10718 10713 10712 10709 ] final  -73.20 input   66.30 | X-H torsion
[ 10763 10752 10751 10750 ] final   64.88 input  -60.55 | X-H torsion
[ 11005 11000 10999 10996 ] final -121.49 input  -57.11 | X-H torsion

> <Gold.Protein.ActiveResidues>
 VAL166  LYS551  ARG553  GLY616  TRP617  ASP618  TYR619  PRO620  LYS621  CYS622 
 ASP623  PHE694  ASN695  SER759  ASP760  ASP761  ALA762  ILE779  LEU786  VAL792 
 PHE793  MET794  SER795  GLU796  ALA797  LYS798  CYS799  TRP800  GLU811  SER814 

> <Gold.Protein.RotatedAtoms>
  151.1819  133.4720  159.2593 H   0  0  0  0  0  0  0  0  0  0  0  0  # atno 6907 bound_to 6896
  151.1251  135.0100  159.8566 H   0  0  0  0  0  0  0  0  0  0  0  0  # atno 6908 bound_to 6896
  152.5458  134.1726  159.8656 H   0  0  0  0  0  0  0  0  0  0  0  0  # atno 6909 bound_to 6896
  145.2262  140.9153  143.3231 H   0  0  0  0  0  0  0  0  0  0  0  0  # atno 7974 bound_to 7965
  155.5713  140.0634  157.2806 H   0  0  0  0  0  0  0  0  0  0  0  0  # atno 8008 bound_to 7997
  154.4360  140.1868  156.0928 H   0  0  0  0  0  0  0  0  0  0  0  0  # atno 8009 bound_to 7997
  156.0374  140.3299  155.7210 H   0  0  0  0  0  0  0  0  0  0  0  0  # atno 8010 bound_to 7997
  140.7030  143.3146  151.2941 H   0  0  0  0  0  0  0  0  0  0  0  0  # atno 10167 bound_to 10162
  156.0289  130.4389  150.2707 H   0  0  0  0  0  0  0  0  0  0  0  0  # atno 10718 bound_to 10713
  153.0073  135.5377  154.6580 H   0  0  0  0  0  0  0  0  0  0  0  0  # atno 10763 bound_to 10752
  154.5796  135.2849  155.0748 H   0  0  0  0  0  0  0  0  0  0  0  0  # atno 10764 bound_to 10752
  154.1883  135.6504  153.5105 H   0  0  0  0  0  0  0  0  0  0  0  0  # atno 10765 bound_to 10752
  141.0066  134.0325  157.3469 H   0  0  0  0  0  0  0  0  0  0  0  0  # atno 11005 bound_to 11000
  144.9719  139.3871  143.6305 LP  0  0  0  0  0  0  0  0  0  0  0  0  # atno 17320 bound_to 7965
  146.3364  139.8821  142.8822 LP  0  0  0  0  0  0  0  0  0  0  0  0  # atno 17321 bound_to 7965
  139.6580  144.0240  152.2673 LP  0  0  0  0  0  0  0  0  0  0  0  0  # atno 17342 bound_to 10162
  139.9798  144.6436  150.7911 LP  0  0  0  0  0  0  0  0  0  0  0  0  # atno 17343 bound_to 10162
  157.0810  131.0143  151.3156 LP  0  0  0  0  0  0  0  0  0  0  0  0  # atno 17370 bound_to 10713
  157.4927  130.7832  149.7524 LP  0  0  0  0  0  0  0  0  0  0  0  0  # atno 17371 bound_to 10713
  139.9067  135.0181  156.7515 LP  0  0  0  0  0  0  0  0  0  0  0  0  # atno 17394 bound_to 11000
  140.6802  133.9481  155.7906 LP  0  0  0  0  0  0  0  0  0  0  0  0  # atno 17395 bound_to 11000

$$$$
