AV-unprocessed.smi:343|AV-procd|sdf|2388|dock1
  -GOLD-   2262022313D 1   1.00000     0.00000
 Structure written by MMmdl.
 42 44  0  0  0  0  0  0  0  0  1 V2000
  146.3209  142.2039  154.7234 C   0  0  0  0  0  0  0  0  0  0  0  0
  147.1080  140.9248  154.6968 C   0  0  0  0  0  0  0  0  0  0  0  0
  146.4760  139.7781  154.5085 N   0  0  0  0  0  0  0  0  0  0  0  0
  147.4462  138.8423  154.5316 N   0  0  0  0  0  0  0  0  0  0  0  0
  147.0946  137.4476  154.3481 C   0  0  0  0  0  0  0  0  0  0  0  0
  148.6932  139.3984  154.7391 C   0  0  0  0  0  0  0  0  0  0  0  0
  149.9361  138.5704  154.7998 C   0  0  0  0  0  0  0  0  0  0  0  0
  148.5151  140.7516  154.8507 C   0  0  0  0  0  0  0  0  0  0  0  0
  149.5537  141.8226  155.0731 C   0  0  0  0  0  0  0  0  0  0  0  0
  150.1788  141.6533  156.4577 C   0  0  0  0  0  0  0  0  0  0  0  0
  150.6244  140.5587  156.8011 O   0  0  0  0  0  0  0  0  0  0  0  0
  150.2149  142.7487  157.2331 N   0  0  0  0  0  0  0  0  0  0  0  0
  150.8265  142.8390  158.5534 C   0  0  0  0  0  0  0  0  0  0  0  0
  150.8246  144.2651  159.0716 C   0  0  0  0  0  0  0  0  0  0  0  0
  151.9411  145.2261  158.7381 C   0  0  0  0  0  0  0  0  0  0  0  0
  151.7872  144.7037  160.1488 C   0  0  0  0  0  0  0  0  0  0  0  0
  152.2367  142.2723  158.5734 C   0  0  0  0  0  0  0  0  0  0  0  0
  152.5010  140.8302  158.9353 C   0  0  0  0  0  0  0  0  0  0  0  0
  152.9319  141.9364  159.8718 C   0  0  0  0  0  0  0  0  0  0  0  0
  146.8033  142.9729  154.1200 H   0  0  0  0  0  0  0  0  0  0  0  0
  146.2350  142.5851  155.7410 H   0  0  0  0  0  0  0  0  0  0  0  0
  145.3116  142.0664  154.3334 H   0  0  0  0  0  0  0  0  0  0  0  0
  147.6831  137.0251  153.5331 H   0  0  0  0  0  0  0  0  0  0  0  0
  146.0355  137.3450  154.1074 H   0  0  0  0  0  0  0  0  0  0  0  0
  147.3043  136.8943  155.2640 H   0  0  0  0  0  0  0  0  0  0  0  0
  150.7925  139.1660  155.1157 H   0  0  0  0  0  0  0  0  0  0  0  0
  150.1659  138.1484  153.8214 H   0  0  0  0  0  0  0  0  0  0  0  0
  149.8235  137.7484  155.5070 H   0  0  0  0  0  0  0  0  0  0  0  0
  150.3429  141.7805  154.3216 H   0  0  0  0  0  0  0  0  0  0  0  0
  149.1174  142.8190  154.9955 H   0  0  0  0  0  0  0  0  0  0  0  0
  149.8200  143.5996  156.8599 H   0  0  0  0  0  0  0  0  0  0  0  0
  150.2256  142.2503  159.2496 H   0  0  0  0  0  0  0  0  0  0  0  0
  149.8298  144.7043  159.1231 H   0  0  0  0  0  0  0  0  0  0  0  0
  152.7822  144.8524  158.1575 H   0  0  0  0  0  0  0  0  0  0  0  0
  151.6706  146.2635  158.5522 H   0  0  0  0  0  0  0  0  0  0  0  0
  151.4147  145.3925  160.9044 H   0  0  0  0  0  0  0  0  0  0  0  0
  152.5204  143.9795  160.4987 H   0  0  0  0  0  0  0  0  0  0  0  0
  152.8763  142.6838  157.7942 H   0  0  0  0  0  0  0  0  0  0  0  0
  151.6546  140.2181  159.2402 H   0  0  0  0  0  0  0  0  0  0  0  0
  153.2763  140.3090  158.3778 H   0  0  0  0  0  0  0  0  0  0  0  0
  153.9963  142.1510  159.9417 H   0  0  0  0  0  0  0  0  0  0  0  0
  152.3710  142.0522  160.7969 H   0  0  0  0  0  0  0  0  0  0  0  0
  1  2  1  0  0  0  0
  1 20  1  0  0  0  0
  1 21  1  0  0  0  0
  1 22  1  0  0  0  0
  2  8  1  0  0  0  0
  2  3  2  0  0  0  0
  3  4  1  0  0  0  0
  4  5  1  0  0  0  0
  4  6  1  0  0  0  0
  5 23  1  0  0  0  0
  5 24  1  0  0  0  0
  5 25  1  0  0  0  0
  6  7  1  0  0  0  0
  6  8  2  0  0  0  0
  7 26  1  0  0  0  0
  7 27  1  0  0  0  0
  7 28  1  0  0  0  0
  8  9  1  0  0  0  0
  9 10  1  0  0  0  0
  9 29  1  0  0  0  0
  9 30  1  0  0  0  0
 10 11  2  0  0  0  0
 10 12  1  0  0  0  0
 12 13  1  0  0  0  0
 12 31  1  0  0  0  0
 13 14  1  0  0  0  0
 13 17  1  0  0  0  0
 13 32  1  0  0  0  0
 14 16  1  0  0  0  0
 14 15  1  0  0  0  0
 14 33  1  0  0  0  0
 15 16  1  0  0  0  0
 15 34  1  0  0  0  0
 15 35  1  0  0  0  0
 16 36  1  0  0  0  0
 16 37  1  0  0  0  0
 17 19  1  0  0  0  0
 17 18  1  0  0  0  0
 17 38  1  0  0  0  0
 18 19  1  0  0  0  0
 18 39  1  0  0  0  0
 18 40  1  0  0  0  0
 19 41  1  0  0  0  0
 19 42  1  0  0  0  0
M  END
> <s_m_source_file>
AV-unprocessed.smi

> <i_m_source_file_index>
343

> <i_lp_mmshare_version>
43012

> <i_f3d_flags>
0

> <s_epik_input>
W0NIM11jMW5uKFtDSDNdKWMoW0NIM10pYzFbQ0gyXUMoPU8pW05IXVtDSF0oW0NIXTJbQ0gyXVtDSDJdMilbQ0hdM1tDSDJdW0NIMl0z

> <s_epik_cmdline>
J2VwaWtfcHl0aG9uJywgJy1waCcsICc3LjAnLCAnLXRuJywgJzgnLCAnLW1hJywgJzIwMCcsICctbWV0YWxfYmluZGluZycsICctaW1hZScsICc8aW5maWxlLm1hZT4nLCAnLW9tYWUnLCAnPG91dGZpbGUubWFlPic=

> <r_lp_tautomer_probability>
1

> <r_epik_Ionization_Penalty>
0.00332543

> <r_epik_Ionization_Penalty_Charging>
0

> <r_epik_Ionization_Penalty_Neutral>
0.00332543

> <r_epik_State_Penalty>
0.00235125

> <r_epik_Charging_Adjusted_Penalty>
0.00235125

> <i_epik_Tot_Q>
0

> <i_epik_Tot_abs_Q>
0

> <r_epik_Metal_State_Penalty>
-0

> <b_epik_Metal_Only>
0

> <s_lp_Force_Field>
OPLS_2005

> <r_lp_Energy>
17.7033

> <b_lp_Chiralities_Consistent>
1

> <s_lp_Variant>
AV-unprocessed.smi:343-1

> <Gold.Version>
5.8.1

> <Gold.Id.Protein>
6NUR|6NUR_protein|mol2

> <Gold.PLP.Fitness>
41.2205

> <Gold.PLP.PLP>
-38.6202

> <Gold.PLP.part.hbond>
-1.0000

> <Gold.PLP.part.metal>
0.0000

> <Gold.PLP.part.buried>
-3.9211

> <Gold.PLP.part.nonpolar>
-34.4739

> <Gold.PLP.part.repulsive>
0.1498

> <Gold.PLP.ligand.clash>
0.0000

> <Gold.PLP.ligand.torsion>
1.2713

> <Gold.PLP.Chemscore.Hbond>
1.0000

> <Gold.PLP.Chemscore.CHOScore>
0.0000

> <Gold.PLP.Chemscore.Metal>
0.0000

> <Gold.Chemscore.Hbonds>
donor molecule, donor type, donor heavy atom, donor atom, acceptor molecule, acceptor atom, score
      L1  H    12    31       P1  8028  1.00

> <Gold.PLP.Chemscore.Internal.Correction>
2.1429

> <Gold.Rescore>
     Score         DG    S(hbond)    S(metal)    S(lipo)     H(rot)  DE(clash)    DE(int)     intcor
     15.89     -17.76       1.00        0.00     108.57       1.46       0.47       1.40       ----

> <Gold.Chemscore.Fitness>
15.8889

> <Gold.Chemscore.DG>
-17.7572

> <Gold.Chemscore.ZeroCoef>
-5.4800

> <Gold.Chemscore.Hbond>
0.9955

> <Gold.Chemscore.Metal>
0.0000

> <Gold.Chemscore.Lipo>
108.5694

> <Gold.Chemscore.Internal_Hbond>
0.0000

> <Gold.Chemscore.DEClash>
0.4712

> <Gold.Chemscore.DEInternal>
1.3972

> <Gold.Chemscore.Rot>
1.4650

> <Gold.Chemscore.Internal.Correction>
   9.000000E+99

> <Gold.Chemscore.Hbonds>
donor molecule, donor type, donor heavy atom, donor atom, acceptor molecule, acceptor atom, score
      L1  H    12    31       P1  8028  0.99

> <Gold.Chemscore.Hbond.Weighted>
-3.3249

> <Gold.Chemscore.Metal.Weighted>
-0.0000

> <Gold.Chemscore.Lipo.Weighted>
-12.7026

> <Gold.Chemscore.Internal_Hbond.Weighted>
0.0000

> <Gold.Chemscore.DEClash.Weighted>
0.4712

> <Gold.Chemscore.DEInternal.Weighted>
1.3972

> <Gold.Chemscore.Rot.Weighted>
3.7503

> <Gold.Chemscore.Internal.Correction.Weighted>
   9.000000E+99

> <Gold.Protein.RotatedTorsions>
[ 6907 6896 6895 6894 ] final -149.33 input  -60.11 | X-H torsion
[ 7974 7965 7964 7962 ] final  115.91 input  175.53 | X-H torsion
[ 8008 7997 7996 7995 ] final -136.21 input   59.86 | X-H torsion
[ 10167 10162 10161 10158 ] final  -97.24 input  -65.29 | X-H torsion
[ 10718 10713 10712 10709 ] final  150.73 input   66.30 | X-H torsion
[ 10763 10752 10751 10750 ] final  -55.04 input  -60.55 | X-H torsion
[ 11005 11000 10999 10996 ] final  150.21 input  -57.11 | X-H torsion

> <Gold.Protein.ActiveResidues>
 VAL166  LYS551  ARG553  GLY616  TRP617  ASP618  TYR619  PRO620  LYS621  CYS622 
 ASP623  PHE694  ASN695  SER759  ASP760  ASP761  ALA762  ILE779  LEU786  VAL792 
 PHE793  MET794  SER795  GLU796  ALA797  LYS798  CYS799  TRP800  GLU811  SER814 

> <Gold.Protein.RotatedAtoms>
  151.1826  133.4716  159.2593 H   0  0  0  0  0  0  0  0  0  0  0  0  # atno 6907 bound_to 6896
  151.1244  135.0096  159.8563 H   0  0  0  0  0  0  0  0  0  0  0  0  # atno 6908 bound_to 6896
  152.5457  134.1734  159.8659 H   0  0  0  0  0  0  0  0  0  0  0  0  # atno 6909 bound_to 6896
  145.1861  139.3024  143.4392 H   0  0  0  0  0  0  0  0  0  0  0  0  # atno 7974 bound_to 7965
  155.3915  140.0500  157.3040 H   0  0  0  0  0  0  0  0  0  0  0  0  # atno 8008 bound_to 7997
  154.5034  140.2165  155.9261 H   0  0  0  0  0  0  0  0  0  0  0  0  # atno 8009 bound_to 7997
  156.1496  140.3138  155.8631 H   0  0  0  0  0  0  0  0  0  0  0  0  # atno 8010 bound_to 7997
  140.2855  143.3254  152.0398 H   0  0  0  0  0  0  0  0  0  0  0  0  # atno 10167 bound_to 10162
  157.2798  131.0833  151.1540 H   0  0  0  0  0  0  0  0  0  0  0  0  # atno 10718 bound_to 10713
  154.1845  135.6438  153.5043 H   0  0  0  0  0  0  0  0  0  0  0  0  # atno 10763 bound_to 10752
  153.0051  135.5414  154.6480 H   0  0  0  0  0  0  0  0  0  0  0  0  # atno 10764 bound_to 10752
  154.5852  135.2929  155.0664 H   0  0  0  0  0  0  0  0  0  0  0  0  # atno 10765 bound_to 10752
  140.1111  134.8923  157.1937 H   0  0  0  0  0  0  0  0  0  0  0  0  # atno 11005 bound_to 11000
  146.3444  140.2058  142.8589 LP  0  0  0  0  0  0  0  0  0  0  0  0  # atno 17320 bound_to 7965
  145.0087  140.8695  143.5237 LP  0  0  0  0  0  0  0  0  0  0  0  0  # atno 17321 bound_to 7965
  139.4951  144.6562  151.6568 LP  0  0  0  0  0  0  0  0  0  0  0  0  # atno 17342 bound_to 10162
  140.5776  144.0002  150.6250 LP  0  0  0  0  0  0  0  0  0  0  0  0  # atno 17343 bound_to 10162
  157.2979  130.6828  149.6148 LP  0  0  0  0  0  0  0  0  0  0  0  0  # atno 17370 bound_to 10713
  155.9664  130.4401  150.5285 LP  0  0  0  0  0  0  0  0  0  0  0  0  # atno 17371 bound_to 10713
  140.3090  134.3045  155.7271 LP  0  0  0  0  0  0  0  0  0  0  0  0  # atno 17394 bound_to 11000
  141.2130  133.7638  156.9749 LP  0  0  0  0  0  0  0  0  0  0  0  0  # atno 17395 bound_to 11000

$$$$
