AV-unprocessed.smi:3310|AV-procd|sdf|12718|dock10
  -GOLD-   2272019 53D 1   1.00000     0.00000
 Structure written by MMmdl.
 45 46  0  0  0  0  0  0  0  0  2 V2000
  147.0820  141.8196  153.7797 C   0  0  0  0  0  0  0  0  0  0  0  0
  148.0153  141.5258  154.9593 C   0  0  0  0  0  0  0  0  0  0  0  0
  149.0290  140.4708  154.6415 C   0  0  0  0  0  0  0  0  0  0  0  0
  150.3495  140.6836  154.6863 N   0  0  0  0  0  0  0  0  0  0  0  0
  150.9326  139.4904  154.3104 N   0  0  0  0  0  0  0  0  0  0  0  0
  149.9059  138.6779  154.0667 C   0  0  0  0  0  0  0  0  0  0  0  0
  148.6935  139.2231  154.2502 N   0  0  0  0  0  0  0  0  0  0  0  0
  147.3936  138.6036  154.0674 C   0  0  0  0  0  0  0  0  0  0  0  0
  146.7927  138.9507  152.6984 C   0  0  0  0  0  0  0  0  0  0  0  0
  146.7995  137.7784  151.8026 N   0  3  0  0  0  0  0  0  0  0  0  0
  145.6272  136.8948  151.9627 C   0  0  0  0  0  0  0  0  0  0  0  0
  145.7322  135.6408  151.0749 C   0  0  2  0  0  0  0  0  0  0  0  0
  144.3383  135.1975  150.5875 C   0  0  0  0  0  0  0  0  0  0  0  0
  144.4102  133.9350  149.7104 C   0  0  0  0  0  0  0  0  0  0  0  0
  145.1238  132.7657  150.4169 C   0  0  2  0  0  0  0  0  0  0  0  0
  144.2630  132.1268  151.5209 C   0  0  0  0  0  0  0  0  0  0  0  0
  146.5074  133.2120  150.9287 C   0  0  0  0  0  0  0  0  0  0  0  0
  146.4321  134.4744  151.8052 C   0  0  0  0  0  0  0  0  0  0  0  0
  146.3620  142.5963  154.0376 H   0  0  0  0  0  0  0  0  0  0  0  0
  146.5235  140.9301  153.4878 H   0  0  0  0  0  0  0  0  0  0  0  0
  147.6439  142.1624  152.9101 H   0  0  0  0  0  0  0  0  0  0  0  0
  148.5421  142.4378  155.2420 H   0  0  0  0  0  0  0  0  0  0  0  0
  147.4354  141.2291  155.8329 H   0  0  0  0  0  0  0  0  0  0  0  0
  150.0428  137.6557  153.7447 H   0  0  0  0  0  0  0  0  0  0  0  0
  147.4935  137.5243  154.1858 H   0  0  0  0  0  0  0  0  0  0  0  0
  146.7361  138.9468  154.8672 H   0  0  0  0  0  0  0  0  0  0  0  0
  145.7660  139.2993  152.8205 H   0  0  0  0  0  0  0  0  0  0  0  0
  147.3553  139.7618  152.2338 H   0  0  0  0  0  0  0  0  0  0  0  0
  146.8322  138.0999  150.8456 H   0  0  0  0  0  0  0  0  0  0  0  0
  145.5245  136.6062  153.0097 H   0  0  0  0  0  0  0  0  0  0  0  0
  144.7334  137.4625  151.7002 H   0  0  0  0  0  0  0  0  0  0  0  0
  146.3224  135.8969  150.1934 H   0  0  0  0  0  0  0  0  0  0  0  0
  143.6863  135.0155  151.4427 H   0  0  0  0  0  0  0  0  0  0  0  0
  143.8718  136.0022  150.0179 H   0  0  0  0  0  0  0  0  0  0  0  0
  143.4071  133.6350  149.4053 H   0  0  0  0  0  0  0  0  0  0  0  0
  144.9451  134.1747  148.7904 H   0  0  0  0  0  0  0  0  0  0  0  0
  145.2889  131.9877  149.6702 H   0  0  0  0  0  0  0  0  0  0  0  0
  144.0369  132.8275  152.3243 H   0  0  0  0  0  0  0  0  0  0  0  0
  144.7711  131.2704  151.9648 H   0  0  0  0  0  0  0  0  0  0  0  0
  143.3142  131.7705  151.1191 H   0  0  0  0  0  0  0  0  0  0  0  0
  146.9840  132.4014  151.4812 H   0  0  0  0  0  0  0  0  0  0  0  0
  147.1544  133.4143  150.0740 H   0  0  0  0  0  0  0  0  0  0  0  0
  147.4426  134.7633  152.0949 H   0  0  0  0  0  0  0  0  0  0  0  0
  145.9055  134.2477  152.7327 H   0  0  0  0  0  0  0  0  0  0  0  0
  147.6321  137.2385  151.9907 H   0  0  0  0  0  0  0  0  0  0  0  0
  1  2  1  0  0  0  0
  1 19  1  0  0  0  0
  1 20  1  0  0  0  0
  1 21  1  0  0  0  0
  2  3  1  0  0  0  0
  2 22  1  0  0  0  0
  2 23  1  0  0  0  0
  3  7  1  0  0  0  0
  3  4  2  0  0  0  0
  4  5  1  0  0  0  0
  5  6  2  0  0  0  0
  6  7  1  0  0  0  0
  6 24  1  0  0  0  0
  7  8  1  0  0  0  0
  8  9  1  0  0  0  0
  8 25  1  0  0  0  0
  8 26  1  0  0  0  0
  9 10  1  0  0  0  0
  9 27  1  0  0  0  0
  9 28  1  0  0  0  0
 10 11  1  0  0  0  0
 10 29  1  0  0  0  0
 10 45  1  0  0  0  0
 11 12  1  0  0  0  0
 11 30  1  0  0  0  0
 11 31  1  0  0  0  0
 12 18  1  0  0  0  0
 12 13  1  0  0  0  0
 12 32  1  0  0  0  0
 13 14  1  0  0  0  0
 13 33  1  0  0  0  0
 13 34  1  0  0  0  0
 14 15  1  0  0  0  0
 14 35  1  0  0  0  0
 14 36  1  0  0  0  0
 15 16  1  0  0  0  0
 15 17  1  0  0  0  0
 15 37  1  0  0  0  0
 16 38  1  0  0  0  0
 16 39  1  0  0  0  0
 16 40  1  0  0  0  0
 17 18  1  0  0  0  0
 17 41  1  0  0  0  0
 17 42  1  0  0  0  0
 18 43  1  0  0  0  0
 18 44  1  0  0  0  0
M  CHG  1  10   1
M  END
> <s_m_source_file>
AV-unprocessed.smi

> <i_m_source_file_index>
3310

> <i_lp_mmshare_version>
43012

> <i_f3d_flags>
0

> <s_epik_input>
W0NIM11bQ0gyXWMxbm5bY0hdbjFbQ0gyXVtDSDJdW05IXVtDSDJdW0NAQEhdMltDSDJdW0NIMl1bQ0BASF0oW0NIM10pW0NIMl1bQ0gyXTI=

> <s_epik_cmdline>
J2VwaWtfcHl0aG9uJywgJy1waCcsICc3LjAnLCAnLXRuJywgJzgnLCAnLW1hJywgJzIwMCcsICctbWV0YWxfYmluZGluZycsICctaW1hZScsICc8aW5maWxlLm1hZT4nLCAnLW9tYWUnLCAnPG91dGZpbGUubWFlPic=

> <r_lp_tautomer_probability>
1

> <r_epik_Ionization_Penalty>
0.00127868

> <r_epik_Ionization_Penalty_Charging>
0.00126792

> <r_epik_Ionization_Penalty_Neutral>
1.07546e-05

> <r_epik_State_Penalty>
-0

> <r_epik_Charging_Adjusted_Penalty>
0.00126792

> <i_epik_Tot_Q>
1

> <i_epik_Tot_abs_Q>
1

> <r_epik_Metal_State_Penalty>
-0

> <b_epik_Metal_Only>
0

> <s_lp_Force_Field>
OPLS_2005

> <r_lp_Energy>
17.5761

> <b_lp_Chiralities_Consistent>
1

> <s_lp_Variant>
AV-unprocessed.smi:3310-2

> <Gold.Version>
5.8.1

> <Gold.Id.Protein>
6NUR|6NUR_protein|mol2

> <Gold.PLP.Fitness>
44.1110

> <Gold.PLP.PLP>
-37.4884

> <Gold.PLP.part.hbond>
-3.0000

> <Gold.PLP.part.metal>
0.0000

> <Gold.PLP.part.buried>
-2.1872

> <Gold.PLP.part.nonpolar>
-32.6681

> <Gold.PLP.part.repulsive>
0.3265

> <Gold.PLP.ligand.clash>
0.0000

> <Gold.PLP.ligand.torsion>
1.2226

> <Gold.PLP.Chemscore.Hbond>
2.0000

> <Gold.PLP.Chemscore.CHOScore>
1.0000

> <Gold.PLP.Chemscore.Metal>
0.0000

> <Gold.Chemscore.Hbonds>
donor molecule, donor type, donor heavy atom, donor atom, acceptor molecule, acceptor atom, score
      L1  H    10    45       P1  7948  2.00
      L1  C     6    24       P1  7948  0.93

> <Gold.PLP.Chemscore.Internal.Correction>
0.0679

> <Gold.Rescore>
     Score         DG    S(hbond)    S(metal)    S(lipo)     H(rot)  DE(clash)    DE(int)     intcor
     11.34     -12.96       1.04        0.00      78.69       2.03       0.38       1.24       ----

> <Gold.Chemscore.Fitness>
11.3378

> <Gold.Chemscore.DG>
-12.9607

> <Gold.Chemscore.ZeroCoef>
-5.4800

> <Gold.Chemscore.Hbond>
1.0389

> <Gold.Chemscore.Metal>
0.0000

> <Gold.Chemscore.Lipo>
78.6878

> <Gold.Chemscore.Internal_Hbond>
0.0000

> <Gold.Chemscore.DEClash>
0.3818

> <Gold.Chemscore.DEInternal>
1.2411

> <Gold.Chemscore.Rot>
2.0295

> <Gold.Chemscore.Internal.Correction>
   9.000000E+99

> <Gold.Chemscore.Hbonds>
donor molecule, donor type, donor heavy atom, donor atom, acceptor molecule, acceptor atom, score
      L1  H    10    45       P1  7948  1.00

> <Gold.Chemscore.Hbond.Weighted>
-3.4698

> <Gold.Chemscore.Metal.Weighted>
-0.0000

> <Gold.Chemscore.Lipo.Weighted>
-9.2065

> <Gold.Chemscore.Internal_Hbond.Weighted>
0.0000

> <Gold.Chemscore.DEClash.Weighted>
0.3818

> <Gold.Chemscore.DEInternal.Weighted>
1.2411

> <Gold.Chemscore.Rot.Weighted>
5.1956

> <Gold.Chemscore.Internal.Correction.Weighted>
   9.000000E+99

> <Gold.Protein.RotatedTorsions>
[ 6907 6896 6895 6894 ] final   99.21 input  -60.11 | X-H torsion
[ 7974 7965 7964 7962 ] final   92.93 input  175.53 | X-H torsion
[ 8008 7997 7996 7995 ] final -164.25 input   59.86 | X-H torsion
[ 10167 10162 10161 10158 ] final  -89.26 input  -65.29 | X-H torsion
[ 10718 10713 10712 10709 ] final  154.84 input   66.30 | X-H torsion
[ 10763 10752 10751 10750 ] final -165.75 input  -60.55 | X-H torsion
[ 11005 11000 10999 10996 ] final    3.98 input  -57.11 | X-H torsion

> <Gold.Protein.ActiveResidues>
 VAL166  LYS551  ARG553  GLY616  TRP617  ASP618  TYR619  PRO620  LYS621  CYS622 
 ASP623  PHE694  ASN695  SER759  ASP760  ASP761  ALA762  ILE779  LEU786  VAL792 
 PHE793  MET794  SER795  GLU796  ALA797  LYS798  CYS799  TRP800  GLU811  SER814 

> <Gold.Protein.RotatedAtoms>
  152.5396  134.0463  159.8089 H   0  0  0  0  0  0  0  0  0  0  0  0  # atno 6907 bound_to 6896
  151.0611  133.5535  159.2641 H   0  0  0  0  0  0  0  0  0  0  0  0  # atno 6908 bound_to 6896
  151.2434  135.0605  159.9087 H   0  0  0  0  0  0  0  0  0  0  0  0  # atno 6909 bound_to 6896
  145.4857  139.2277  143.2858 H   0  0  0  0  0  0  0  0  0  0  0  0  # atno 7974 bound_to 7965
  155.8330  140.0936  157.1781 H   0  0  0  0  0  0  0  0  0  0  0  0  # atno 8008 bound_to 7997
  154.3980  140.1415  156.3697 H   0  0  0  0  0  0  0  0  0  0  0  0  # atno 8009 bound_to 7997
  155.8146  140.3448  155.5480 H   0  0  0  0  0  0  0  0  0  0  0  0  # atno 8010 bound_to 7997
  140.3665  143.2815  151.9552 H   0  0  0  0  0  0  0  0  0  0  0  0  # atno 10167 bound_to 10162
  157.2263  131.0729  151.1881 H   0  0  0  0  0  0  0  0  0  0  0  0  # atno 10718 bound_to 10713
  154.6901  135.2969  154.9491 H   0  0  0  0  0  0  0  0  0  0  0  0  # atno 10763 bound_to 10752
  154.0457  135.6651  153.4799 H   0  0  0  0  0  0  0  0  0  0  0  0  # atno 10764 bound_to 10752
  153.0606  135.5118  154.7989 H   0  0  0  0  0  0  0  0  0  0  0  0  # atno 10765 bound_to 10752
  140.5871  133.9959  155.8072 H   0  0  0  0  0  0  0  0  0  0  0  0  # atno 11005 bound_to 11000
  146.2314  140.5647  142.8973 LP  0  0  0  0  0  0  0  0  0  0  0  0  # atno 17320 bound_to 7965
  144.7863  140.5942  143.6571 LP  0  0  0  0  0  0  0  0  0  0  0  0  # atno 17321 bound_to 7965
  139.4808  144.5945  151.7713 LP  0  0  0  0  0  0  0  0  0  0  0  0  # atno 17342 bound_to 10162
  140.5075  144.1075  150.5986 LP  0  0  0  0  0  0  0  0  0  0  0  0  # atno 17343 bound_to 10162
  157.3524  130.7089  149.6449 LP  0  0  0  0  0  0  0  0  0  0  0  0  # atno 17370 bound_to 10713
  155.9678  130.4249  150.4628 LP  0  0  0  0  0  0  0  0  0  0  0  0  # atno 17371 bound_to 10713
  141.0959  133.9844  157.3160 LP  0  0  0  0  0  0  0  0  0  0  0  0  # atno 17394 bound_to 11000
  139.9291  135.0200  156.8338 LP  0  0  0  0  0  0  0  0  0  0  0  0  # atno 17395 bound_to 11000

$$$$
