AV-unprocessed.smi:1589|AV-procd|sdf|6394|dock6
  -GOLD-   22720 7 33D 1   1.00000     0.00000
 Structure written by MMmdl.
 43 44  0  0  0  0  0  0  0  0  1 V2000
  152.0544  144.3840  158.2383 C   0  0  0  0  0  0  0  0  0  0  0  0
  151.9429  143.2974  159.3306 C   0  0  0  0  0  0  0  0  0  0  0  0
  152.8090  143.7277  160.5347 C   0  0  0  0  0  0  0  0  0  0  0  0
  152.3308  141.9661  158.8211 N   0  0  0  0  0  0  0  0  0  0  0  0
  151.2504  141.3589  158.0243 C   0  0  0  0  0  0  0  0  0  0  0  0
  151.6574  139.9708  157.4949 C   0  0  0  0  0  0  0  0  0  0  0  0
  151.9598  139.1041  158.6397 N   0  0  0  0  0  0  0  0  0  0  0  0
  151.2263  138.0562  159.0929 C   0  0  0  0  0  0  0  0  0  0  0  0
  151.7030  137.1683  159.8010 O   0  0  0  0  0  0  0  0  0  0  0  0
  149.9421  138.0657  158.6888 N   0  0  0  0  0  0  0  0  0  0  0  0
  148.9290  137.1228  158.9940 C   0  0  0  0  0  0  0  0  0  0  0  0
  147.7923  136.7359  158.2294 C   0  0  0  0  0  0  0  0  0  0  0  0
  147.0788  135.8210  158.8691 N   0  0  0  0  0  0  0  0  0  0  0  0
  147.7338  135.6144  160.0391 N   0  0  0  0  0  0  0  0  0  0  0  0
  147.2138  134.6498  160.9958 C   0  0  0  0  0  0  0  0  0  0  0  0
  147.0878  135.2276  162.4112 C   0  0  0  0  0  0  0  0  0  0  0  0
  146.6646  136.4906  162.5039 N   0  0  0  0  0  0  0  0  0  0  0  0
  147.3666  134.5595  163.4059 O   0  0  0  0  0  0  0  0  0  0  0  0
  148.8701  136.3935  160.1429 C   0  0  0  0  0  0  0  0  0  0  0  0
  153.0906  139.6616  159.3815 C   0  0  0  0  0  0  0  0  0  0  0  0
  152.6932  141.0504  159.9176 C   0  0  0  0  0  0  0  0  0  0  0  0
  151.9114  145.3791  158.6603 H   0  0  0  0  0  0  0  0  0  0  0  0
  151.2941  144.2779  157.4654 H   0  0  0  0  0  0  0  0  0  0  0  0
  153.0344  144.3698  157.7596 H   0  0  0  0  0  0  0  0  0  0  0  0
  150.9038  143.2544  159.6608 H   0  0  0  0  0  0  0  0  0  0  0  0
  152.6134  144.7655  160.8062 H   0  0  0  0  0  0  0  0  0  0  0  0
  153.8733  143.6436  160.3113 H   0  0  0  0  0  0  0  0  0  0  0  0
  152.5985  143.1420  161.4289 H   0  0  0  0  0  0  0  0  0  0  0  0
  150.3411  141.2828  158.6226 H   0  0  0  0  0  0  0  0  0  0  0  0
  151.0172  141.9766  157.1591 H   0  0  0  0  0  0  0  0  0  0  0  0
  150.8727  139.5863  156.8437 H   0  0  0  0  0  0  0  0  0  0  0  0
  152.5417  140.0548  156.8608 H   0  0  0  0  0  0  0  0  0  0  0  0
  149.6592  138.8445  158.1120 H   0  0  0  0  0  0  0  0  0  0  0  0
  147.4596  137.0722  157.2589 H   0  0  0  0  0  0  0  0  0  0  0  0
  146.2359  134.2975  160.6631 H   0  0  0  0  0  0  0  0  0  0  0  0
  147.8806  133.7867  161.0063 H   0  0  0  0  0  0  0  0  0  0  0  0
  146.5565  136.9227  163.4100 H   0  0  0  0  0  0  0  0  0  0  0  0
  146.4480  137.0084  161.6642 H   0  0  0  0  0  0  0  0  0  0  0  0
  149.5187  136.3613  161.0062 H   0  0  0  0  0  0  0  0  0  0  0  0
  153.4050  139.0250  160.2096 H   0  0  0  0  0  0  0  0  0  0  0  0
  153.9583  139.7418  158.7246 H   0  0  0  0  0  0  0  0  0  0  0  0
  153.5452  141.4358  160.4745 H   0  0  0  0  0  0  0  0  0  0  0  0
  151.8619  140.9598  160.6187 H   0  0  0  0  0  0  0  0  0  0  0  0
  1  2  1  0  0  0  0
  1 22  1  0  0  0  0
  1 23  1  0  0  0  0
  1 24  1  0  0  0  0
  2  3  1  0  0  0  0
  2  4  1  0  0  0  0
  2 25  1  0  0  0  0
  3 26  1  0  0  0  0
  3 27  1  0  0  0  0
  3 28  1  0  0  0  0
  4 21  1  0  0  0  0
  4  5  1  0  0  0  0
  5  6  1  0  0  0  0
  5 29  1  0  0  0  0
  5 30  1  0  0  0  0
  6  7  1  0  0  0  0
  6 31  1  0  0  0  0
  6 32  1  0  0  0  0
  7  8  1  0  0  0  0
  7 20  1  0  0  0  0
  8  9  2  0  0  0  0
  8 10  1  0  0  0  0
 10 11  1  0  0  0  0
 10 33  1  0  0  0  0
 11 19  2  0  0  0  0
 11 12  1  0  0  0  0
 12 13  2  0  0  0  0
 12 34  1  0  0  0  0
 13 14  1  0  0  0  0
 14 15  1  0  0  0  0
 14 19  1  0  0  0  0
 15 16  1  0  0  0  0
 15 35  1  0  0  0  0
 15 36  1  0  0  0  0
 16 17  1  0  0  0  0
 16 18  2  0  0  0  0
 17 37  1  0  0  0  0
 17 38  1  0  0  0  0
 19 39  1  0  0  0  0
 20 21  1  0  0  0  0
 20 40  1  0  0  0  0
 20 41  1  0  0  0  0
 21 42  1  0  0  0  0
 21 43  1  0  0  0  0
M  END
> <s_m_source_file>
AV-unprocessed.smi

> <i_m_source_file_index>
1589

> <i_lp_mmshare_version>
43012

> <i_f3d_flags>
0

> <s_epik_input>
W0NIM11bQ0hdKFtDSDNdKU4xW0NIMl1bQ0gyXU4oW0NIMl1bQ0gyXTEpQyg9TylbTkhdYzJbY0hdbm4oW2NIXTIpW0NIMl1DKD1PKVtOSDJd

> <s_epik_cmdline>
J2VwaWtfcHl0aG9uJywgJy1waCcsICc3LjAnLCAnLXRuJywgJzgnLCAnLW1hJywgJzIwMCcsICctbWV0YWxfYmluZGluZycsICctaW1hZScsICc8aW5maWxlLm1hZT4nLCAnLW9tYWUnLCAnPG91dGZpbGUubWFlPic=

> <r_lp_tautomer_probability>
1

> <r_epik_Ionization_Penalty>
0.648545

> <r_epik_Ionization_Penalty_Charging>
0

> <r_epik_Ionization_Penalty_Neutral>
0.648545

> <r_epik_State_Penalty>
0.6668

> <r_epik_Charging_Adjusted_Penalty>
0.6668

> <i_epik_Tot_Q>
0

> <i_epik_Tot_abs_Q>
0

> <r_epik_Metal_State_Penalty>
0.666798

> <b_epik_Metal_Only>
0

> <s_lp_Force_Field>
OPLS_2005

> <r_lp_Energy>
50.3263

> <b_lp_Chiralities_Consistent>
1

> <s_lp_Variant>
AV-unprocessed.smi:1589-2

> <Gold.Version>
5.8.1

> <Gold.Id.Protein>
6NUR|6NUR_protein|mol2

> <Gold.PLP.Fitness>
39.1386

> <Gold.PLP.PLP>
-38.6556

> <Gold.PLP.part.hbond>
-2.7272

> <Gold.PLP.part.metal>
0.0000

> <Gold.PLP.part.buried>
-7.0349

> <Gold.PLP.part.nonpolar>
-28.9258

> <Gold.PLP.part.repulsive>
0.3539

> <Gold.PLP.ligand.clash>
0.0032

> <Gold.PLP.ligand.torsion>
1.2200

> <Gold.PLP.Chemscore.Hbond>
0.9588

> <Gold.PLP.Chemscore.CHOScore>
0.0000

> <Gold.PLP.Chemscore.Metal>
0.0000

> <Gold.Chemscore.Hbonds>
donor molecule, donor type, donor heavy atom, donor atom, acceptor molecule, acceptor atom, score
      P1  H  6896  6908       L1     9  0.96

> <Gold.PLP.Chemscore.Internal.Correction>
0.0499

> <Gold.Rescore>
     Score         DG    S(hbond)    S(metal)    S(lipo)     H(rot)  DE(clash)    DE(int)     intcor
     11.45     -13.65       0.98        0.00      81.67       1.82       0.04       2.16       ----

> <Gold.Chemscore.Fitness>
11.4530

> <Gold.Chemscore.DG>
-13.6494

> <Gold.Chemscore.ZeroCoef>
-5.4800

> <Gold.Chemscore.Hbond>
0.9796

> <Gold.Chemscore.Metal>
0.0000

> <Gold.Chemscore.Lipo>
81.6673

> <Gold.Chemscore.Internal_Hbond>
0.0000

> <Gold.Chemscore.DEClash>
0.0408

> <Gold.Chemscore.DEInternal>
2.1556

> <Gold.Chemscore.Rot>
1.8193

> <Gold.Chemscore.Internal.Correction>
   9.000000E+99

> <Gold.Chemscore.Hbonds>
donor molecule, donor type, donor heavy atom, donor atom, acceptor molecule, acceptor atom, score
      P1  H  6896  6908       L1     9  0.91

> <Gold.Chemscore.Hbond.Weighted>
-3.2719

> <Gold.Chemscore.Metal.Weighted>
-0.0000

> <Gold.Chemscore.Lipo.Weighted>
-9.5551

> <Gold.Chemscore.Internal_Hbond.Weighted>
0.0000

> <Gold.Chemscore.DEClash.Weighted>
0.0408

> <Gold.Chemscore.DEInternal.Weighted>
2.1556

> <Gold.Chemscore.Rot.Weighted>
4.6575

> <Gold.Chemscore.Internal.Correction.Weighted>
   9.000000E+99

> <Gold.Protein.RotatedTorsions>
[ 6907 6896 6895 6894 ] final -134.30 input  -60.11 | X-H torsion
[ 7974 7965 7964 7962 ] final -163.75 input  175.53 | X-H torsion
[ 8008 7997 7996 7995 ] final   45.84 input   59.86 | X-H torsion
[ 10167 10162 10161 10158 ] final   38.64 input  -65.29 | X-H torsion
[ 10718 10713 10712 10709 ] final   -2.11 input   66.30 | X-H torsion
[ 10763 10752 10751 10750 ] final  -70.49 input  -60.55 | X-H torsion
[ 11005 11000 10999 10996 ] final -134.18 input  -57.11 | X-H torsion

> <Gold.Protein.ActiveResidues>
 VAL166  LYS551  ARG553  GLY616  TRP617  ASP618  TYR619  PRO620  LYS621  CYS622 
 ASP623  PHE694  ASN695  SER759  ASP760  ASP761  ALA762  ILE779  LEU786  VAL792 
 PHE793  MET794  SER795  GLU796  ALA797  LYS798  CYS799  TRP800  GLU811  SER814 

> <Gold.Protein.RotatedAtoms>
  150.9842  133.6214  159.2717 H   0  0  0  0  0  0  0  0  0  0  0  0  # atno 6907 bound_to 6896
  151.3458  135.0873  159.9396 H   0  0  0  0  0  0  0  0  0  0  0  0  # atno 6908 bound_to 6896
  152.5225  133.9444  159.7696 H   0  0  0  0  0  0  0  0  0  0  0  0  # atno 6909 bound_to 6896
  144.7317  140.3061  143.6196 H   0  0  0  0  0  0  0  0  0  0  0  0  # atno 7974 bound_to 7965
  155.3425  140.3409  155.4239 H   0  0  0  0  0  0  0  0  0  0  0  0  # atno 8008 bound_to 7997
  156.1806  140.1662  156.8318 H   0  0  0  0  0  0  0  0  0  0  0  0  # atno 8009 bound_to 7997
  154.5329  140.0741  156.8360 H   0  0  0  0  0  0  0  0  0  0  0  0  # atno 8010 bound_to 7997
  140.3917  144.1843  150.6131 H   0  0  0  0  0  0  0  0  0  0  0  0  # atno 10167 bound_to 10162
  156.7957  130.5376  149.5729 H   0  0  0  0  0  0  0  0  0  0  0  0  # atno 10718 bound_to 10713
  154.4184  135.5992  153.5995 H   0  0  0  0  0  0  0  0  0  0  0  0  # atno 10763 bound_to 10752
  152.9793  135.5946  154.3985 H   0  0  0  0  0  0  0  0  0  0  0  0  # atno 10764 bound_to 10752
  154.3807  135.2841  155.2191 H   0  0  0  0  0  0  0  0  0  0  0  0  # atno 10765 bound_to 10752
  140.9014  134.1686  157.4458 H   0  0  0  0  0  0  0  0  0  0  0  0  # atno 11005 bound_to 11000
  145.7711  139.1857  143.2212 LP  0  0  0  0  0  0  0  0  0  0  0  0  # atno 17320 bound_to 7965
  146.0910  140.7656  142.9595 LP  0  0  0  0  0  0  0  0  0  0  0  0  # atno 17321 bound_to 7965
  140.4833  143.2372  151.8925 LP  0  0  0  0  0  0  0  0  0  0  0  0  # atno 17342 bound_to 10162
  139.4788  144.5246  151.8753 LP  0  0  0  0  0  0  0  0  0  0  0  0  # atno 17343 bound_to 10162
  156.1132  130.6055  151.0079 LP  0  0  0  0  0  0  0  0  0  0  0  0  # atno 17370 bound_to 10713
  157.6578  131.0886  150.7907 LP  0  0  0  0  0  0  0  0  0  0  0  0  # atno 17371 bound_to 10713
  139.8743  134.9899  156.5479 LP  0  0  0  0  0  0  0  0  0  0  0  0  # atno 17394 bound_to 11000
  140.8225  133.8342  155.8909 LP  0  0  0  0  0  0  0  0  0  0  0  0  # atno 17395 bound_to 11000

$$$$
