AV-unprocessed.smi:302|AV-procd|sdf|2273|dock9
  -GOLD-   2262022163D 1   1.00000     0.00000
 Structure written by MMmdl.
 44 45  0  0  0  0  0  0  0  0  1 V2000
  153.7306  133.5613  165.2065 C   0  0  0  0  0  0  0  0  0  0  0  0
  154.8573  133.9945  164.2660 C   0  0  0  0  0  0  0  0  0  0  0  0
  154.2999  134.7772  163.2166 O   0  0  0  0  0  0  0  0  0  0  0  0
  155.2445  135.4328  162.3732 C   0  0  1  0  0  0  0  0  0  0  0  0
  155.9110  134.3440  161.5076 C   0  0  0  0  0  0  0  0  0  0  0  0
  154.9192  133.4531  160.7438 C   0  0  0  0  0  0  0  0  0  0  0  0
  154.5365  136.5021  161.5222 C   0  0  0  0  0  0  0  0  0  0  0  0
  153.7843  136.1548  160.6120 O   0  0  0  0  0  0  0  0  0  0  0  0
  154.8090  137.7802  161.8442 N   0  0  0  0  0  0  0  0  0  0  0  0
  154.3257  138.9695  161.2352 C   0  0  0  0  0  0  0  0  0  0  0  0
  154.7134  140.2753  161.6190 C   0  0  0  0  0  0  0  0  0  0  0  0
  154.1719  141.3765  160.9286 C   0  0  0  0  0  0  0  0  0  0  0  0
  153.2689  141.1406  159.8719 C   0  0  0  0  0  0  0  0  0  0  0  0
  152.7224  142.2353  159.1877 N   0  0  0  0  0  0  0  0  0  0  0  0
  152.2361  143.2873  160.0716 C   0  0  0  0  0  0  0  0  0  0  0  0
  151.7767  144.4996  159.2433 C   0  0  0  0  0  0  0  0  0  0  0  0
  150.7942  144.0879  158.2968 O   0  0  0  0  0  0  0  0  0  0  0  0
  151.3000  143.1111  157.3909 C   0  0  0  0  0  0  0  0  0  0  0  0
  151.7438  141.8632  158.1736 C   0  0  0  0  0  0  0  0  0  0  0  0
  152.9064  139.8937  159.4880 N   0  0  0  0  0  0  0  0  0  0  0  0
  153.4293  138.8426  160.1539 C   0  0  0  0  0  0  0  0  0  0  0  0
  154.1167  132.9473  166.0204 H   0  0  0  0  0  0  0  0  0  0  0  0
  152.9785  132.9780  164.6749 H   0  0  0  0  0  0  0  0  0  0  0  0
  153.2346  134.4266  165.6468 H   0  0  0  0  0  0  0  0  0  0  0  0
  155.6016  134.5600  164.8275 H   0  0  0  0  0  0  0  0  0  0  0  0
  155.3527  133.1145  163.8538 H   0  0  0  0  0  0  0  0  0  0  0  0
  156.0136  135.8971  162.9938 H   0  0  0  0  0  0  0  0  0  0  0  0
  156.5672  134.8274  160.7832 H   0  0  0  0  0  0  0  0  0  0  0  0
  156.5593  133.7192  162.1239 H   0  0  0  0  0  0  0  0  0  0  0  0
  155.4494  132.7422  160.1098 H   0  0  0  0  0  0  0  0  0  0  0  0
  154.2695  134.0489  160.1026 H   0  0  0  0  0  0  0  0  0  0  0  0
  154.2876  132.8783  161.4215 H   0  0  0  0  0  0  0  0  0  0  0  0
  155.5035  137.9140  162.5649 H   0  0  0  0  0  0  0  0  0  0  0  0
  155.4190  140.4545  162.4149 H   0  0  0  0  0  0  0  0  0  0  0  0
  154.4488  142.3832  161.2059 H   0  0  0  0  0  0  0  0  0  0  0  0
  151.4044  142.9124  160.6704 H   0  0  0  0  0  0  0  0  0  0  0  0
  153.0254  143.5836  160.7636 H   0  0  0  0  0  0  0  0  0  0  0  0
  151.3458  145.2592  159.8954 H   0  0  0  0  0  0  0  0  0  0  0  0
  152.6210  144.9618  158.7293 H   0  0  0  0  0  0  0  0  0  0  0  0
  150.5191  142.8495  156.6768 H   0  0  0  0  0  0  0  0  0  0  0  0
  152.1304  143.5266  156.8173 H   0  0  0  0  0  0  0  0  0  0  0  0
  152.1767  141.1282  157.4939 H   0  0  0  0  0  0  0  0  0  0  0  0
  150.8783  141.3972  158.6467 H   0  0  0  0  0  0  0  0  0  0  0  0
  153.1145  137.8666  159.8142 H   0  0  0  0  0  0  0  0  0  0  0  0
  1  2  1  0  0  0  0
  1 22  1  0  0  0  0
  1 23  1  0  0  0  0
  1 24  1  0  0  0  0
  2  3  1  0  0  0  0
  2 25  1  0  0  0  0
  2 26  1  0  0  0  0
  3  4  1  0  0  0  0
  4  5  1  0  0  0  0
  4  7  1  0  0  0  0
  4 27  1  0  0  0  0
  5  6  1  0  0  0  0
  5 28  1  0  0  0  0
  5 29  1  0  0  0  0
  6 30  1  0  0  0  0
  6 31  1  0  0  0  0
  6 32  1  0  0  0  0
  7  8  2  0  0  0  0
  7  9  1  0  0  0  0
  9 10  1  0  0  0  0
  9 33  1  0  0  0  0
 10 21  1  0  0  0  0
 10 11  2  0  0  0  0
 11 12  1  0  0  0  0
 11 34  1  0  0  0  0
 12 13  2  0  0  0  0
 12 35  1  0  0  0  0
 13 14  1  0  0  0  0
 13 20  1  0  0  0  0
 14 19  1  0  0  0  0
 14 15  1  0  0  0  0
 15 16  1  0  0  0  0
 15 36  1  0  0  0  0
 15 37  1  0  0  0  0
 16 17  1  0  0  0  0
 16 38  1  0  0  0  0
 16 39  1  0  0  0  0
 17 18  1  0  0  0  0
 18 19  1  0  0  0  0
 18 40  1  0  0  0  0
 18 41  1  0  0  0  0
 19 42  1  0  0  0  0
 19 43  1  0  0  0  0
 20 21  2  0  0  0  0
 21 44  1  0  0  0  0
M  END
> <s_m_source_file>
AV-unprocessed.smi

> <i_m_source_file_index>
302

> <i_lp_mmshare_version>
43012

> <i_f3d_flags>
0

> <s_epik_input>
W0NIM11bQ0gyXU9bQ0BIXShbQ0gyXVtDSDNdKUMoPU8pW05IXWMxW2NIXVtjSF1jKG5bY0hdMSlOMltDSDJdW0NIMl1PW0NIMl1bQ0gyXTI=

> <s_epik_cmdline>
J2VwaWtfcHl0aG9uJywgJy1waCcsICc3LjAnLCAnLXRuJywgJzgnLCAnLW1hJywgJzIwMCcsICctbWV0YWxfYmluZGluZycsICctaW1hZScsICc8aW5maWxlLm1hZT4nLCAnLW9tYWUnLCAnPG91dGZpbGUubWFlPic=

> <r_lp_tautomer_probability>
1

> <r_epik_Ionization_Penalty>
0.000497413

> <r_epik_Ionization_Penalty_Charging>
0

> <r_epik_Ionization_Penalty_Neutral>
0.000497413

> <r_epik_State_Penalty>
0.000308489

> <r_epik_Charging_Adjusted_Penalty>
0.000308489

> <i_epik_Tot_Q>
0

> <i_epik_Tot_abs_Q>
0

> <r_epik_Metal_State_Penalty>
-0

> <b_epik_Metal_Only>
0

> <s_lp_Force_Field>
OPLS_2005

> <r_lp_Energy>
26.1218

> <b_lp_Chiralities_Consistent>
1

> <s_lp_Variant>
AV-unprocessed.smi:302-2

> <Gold.Version>
5.8.1

> <Gold.Id.Protein>
6NUR|6NUR_protein|mol2

> <Gold.PLP.Fitness>
39.3431

> <Gold.PLP.PLP>
-37.3650

> <Gold.PLP.part.hbond>
-0.9687

> <Gold.PLP.part.metal>
0.0000

> <Gold.PLP.part.buried>
-5.7401

> <Gold.PLP.part.nonpolar>
-31.6253

> <Gold.PLP.part.repulsive>
0.1853

> <Gold.PLP.ligand.clash>
0.0156

> <Gold.PLP.ligand.torsion>
0.5383

> <Gold.PLP.Chemscore.Hbond>
0.9750

> <Gold.PLP.Chemscore.CHOScore>
0.0000

> <Gold.PLP.Chemscore.Metal>
0.0000

> <Gold.Chemscore.Hbonds>
donor molecule, donor type, donor heavy atom, donor atom, acceptor molecule, acceptor atom, score
      P1  H  6896  6907       L1     8  0.96

> <Gold.PLP.Chemscore.Internal.Correction>
0.1453

> <Gold.Rescore>
     Score         DG    S(hbond)    S(metal)    S(lipo)     H(rot)  DE(clash)    DE(int)     intcor
     13.87     -16.79       0.99        0.00     103.86       1.63       0.01       2.91       ----

> <Gold.Chemscore.Fitness>
13.8674

> <Gold.Chemscore.DG>
-16.7908

> <Gold.Chemscore.ZeroCoef>
-5.4800

> <Gold.Chemscore.Hbond>
0.9944

> <Gold.Chemscore.Metal>
0.0000

> <Gold.Chemscore.Lipo>
103.8635

> <Gold.Chemscore.Internal_Hbond>
0.0000

> <Gold.Chemscore.DEClash>
0.0127

> <Gold.Chemscore.DEInternal>
2.9107

> <Gold.Chemscore.Rot>
1.6260

> <Gold.Chemscore.Internal.Correction>
   9.000000E+99

> <Gold.Chemscore.Hbonds>
donor molecule, donor type, donor heavy atom, donor atom, acceptor molecule, acceptor atom, score
      P1  H  6896  6907       L1     8  0.91

> <Gold.Chemscore.Hbond.Weighted>
-3.3214

> <Gold.Chemscore.Metal.Weighted>
-0.0000

> <Gold.Chemscore.Lipo.Weighted>
-12.1520

> <Gold.Chemscore.Internal_Hbond.Weighted>
0.0000

> <Gold.Chemscore.DEClash.Weighted>
0.0127

> <Gold.Chemscore.DEInternal.Weighted>
2.9107

> <Gold.Chemscore.Rot.Weighted>
4.1626

> <Gold.Chemscore.Internal.Correction.Weighted>
   9.000000E+99

> <Gold.Protein.RotatedTorsions>
[ 6907 6896 6895 6894 ] final   48.92 input  -60.11 | X-H torsion
[ 7974 7965 7964 7962 ] final  -27.81 input  175.53 | X-H torsion
[ 8008 7997 7996 7995 ] final   34.61 input   59.86 | X-H torsion
[ 10167 10162 10161 10158 ] final  -35.47 input  -65.29 | X-H torsion
[ 10718 10713 10712 10709 ] final   60.89 input   66.30 | X-H torsion
[ 10763 10752 10751 10750 ] final  146.37 input  -60.55 | X-H torsion
[ 11005 11000 10999 10996 ] final   72.18 input  -57.11 | X-H torsion

> <Gold.Protein.ActiveResidues>
 VAL166  LYS551  ARG553  GLY616  TRP617  ASP618  TYR619  PRO620  LYS621  CYS622 
 ASP623  PHE694  ASN695  SER759  ASP760  ASP761  ALA762  ILE779  LEU786  VAL792 
 PHE793  MET794  SER795  GLU796  ALA797  LYS798  CYS799  TRP800  GLU811  SER814 

> <Gold.Protein.RotatedAtoms>
  152.2850  134.7786  160.0389 H   0  0  0  0  0  0  0  0  0  0  0  0  # atno 6907 bound_to 6896
  151.8352  133.3409  159.3634 H   0  0  0  0  0  0  0  0  0  0  0  0  # atno 6908 bound_to 6896
  150.7205  134.5373  159.5774 H   0  0  0  0  0  0  0  0  0  0  0  0  # atno 6909 bound_to 6896
  146.1332  140.5201  142.8684 H   0  0  0  0  0  0  0  0  0  0  0  0  # atno 7974 bound_to 7965
  155.1577  140.3280  155.4418 H   0  0  0  0  0  0  0  0  0  0  0  0  # atno 8008 bound_to 7997
  156.2553  140.1965  156.6636 H   0  0  0  0  0  0  0  0  0  0  0  0  # atno 8009 bound_to 7997
  154.6427  140.0568  156.9851 H   0  0  0  0  0  0  0  0  0  0  0  0  # atno 8010 bound_to 7997
  140.7164  143.3475  151.2225 H   0  0  0  0  0  0  0  0  0  0  0  0  # atno 10167 bound_to 10162
  157.5787  130.8964  149.9392 H   0  0  0  0  0  0  0  0  0  0  0  0  # atno 10718 bound_to 10713
  154.0207  135.2906  155.3381 H   0  0  0  0  0  0  0  0  0  0  0  0  # atno 10763 bound_to 10752
  154.7048  135.5174  153.8582 H   0  0  0  0  0  0  0  0  0  0  0  0  # atno 10764 bound_to 10752
  153.0682  135.6638  154.0429 H   0  0  0  0  0  0  0  0  0  0  0  0  # atno 10765 bound_to 10752
  139.9504  134.7237  156.0876 H   0  0  0  0  0  0  0  0  0  0  0  0  # atno 11005 bound_to 11000
  144.7712  140.5641  143.6669 LP  0  0  0  0  0  0  0  0  0  0  0  0  # atno 17320 bound_to 7965
  145.5215  139.1476  143.3550 LP  0  0  0  0  0  0  0  0  0  0  0  0  # atno 17321 bound_to 7965
  139.6998  143.9552  152.2900 LP  0  0  0  0  0  0  0  0  0  0  0  0  # atno 17342 bound_to 10162
  139.9242  144.6781  150.8430 LP  0  0  0  0  0  0  0  0  0  0  0  0  # atno 17343 bound_to 10162
  156.0832  130.3671  150.0539 LP  0  0  0  0  0  0  0  0  0  0  0  0  # atno 17370 bound_to 10713
  156.8682  130.9515  151.3612 LP  0  0  0  0  0  0  0  0  0  0  0  0  # atno 17371 bound_to 10713
  141.1166  133.6626  156.3109 LP  0  0  0  0  0  0  0  0  0  0  0  0  # atno 17394 bound_to 11000
  140.5732  134.5819  157.5462 LP  0  0  0  0  0  0  0  0  0  0  0  0  # atno 17395 bound_to 11000

$$$$
