AV-unprocessed.smi:3150|AV-procd|sdf|12011|dock8
  -GOLD-   2272017423D 1   1.00000     0.00000
 Structure written by MMmdl.
 32 33  0  0  0  0  0  0  0  0  2 V2000
  152.3171  139.4478  155.7497 C   0  0  0  0  0  0  0  0  0  0  0  0
  150.9918  140.1193  156.1343 C   0  0  2  0  0  0  0  0  0  0  0  0
  150.2546  140.3435  154.9355 O   0  0  0  0  0  0  0  0  0  0  0  0
  148.8942  140.7214  155.1246 C   0  0  0  0  0  0  0  0  0  0  0  0
  148.2725  141.1990  153.8252 C   0  0  0  0  0  0  0  0  0  0  0  0
  146.9182  141.8775  153.8077 C   0  0  0  0  0  0  0  0  0  0  0  0
  147.0686  140.4944  153.2348 C   0  0  0  0  0  0  0  0  0  0  0  0
  151.2470  141.4484  156.8642 C   0  0  0  0  0  0  0  0  0  0  0  0
  150.8317  142.4916  156.3515 O   0  0  0  0  0  0  0  0  0  0  0  0
  151.9431  141.2624  158.0557 N   0  0  0  0  0  0  0  0  0  0  0  0
  152.0172  142.1640  158.9965 C   0  0  0  0  0  0  0  0  0  0  0  0
  151.3995  143.4239  158.9095 N   0  0  0  0  0  0  0  0  0  0  0  0
  151.4807  144.3722  159.9071 C   0  0  0  0  0  0  0  0  0  0  0  0
  152.1614  144.1453  161.0315 C   0  0  0  0  0  0  0  0  0  0  0  0
  152.8275  142.8703  161.2009 C   0  0  0  0  0  0  0  0  0  0  0  0
  152.7802  141.8698  160.2231 C   0  0  0  0  0  0  0  0  0  0  0  0
  153.3711  140.7813  160.4127 O   0  5  0  0  0  0  0  0  0  0  0  0
  152.9241  139.2368  156.6310 H   0  0  0  0  0  0  0  0  0  0  0  0
  152.9046  140.0762  155.0791 H   0  0  0  0  0  0  0  0  0  0  0  0
  152.1360  138.5008  155.2408 H   0  0  0  0  0  0  0  0  0  0  0  0
  150.4320  139.4339  156.7744 H   0  0  0  0  0  0  0  0  0  0  0  0
  148.3198  139.8707  155.4928 H   0  0  0  0  0  0  0  0  0  0  0  0
  148.8053  141.5210  155.8604 H   0  0  0  0  0  0  0  0  0  0  0  0
  149.0000  141.5738  153.1079 H   0  0  0  0  0  0  0  0  0  0  0  0
  146.3810  141.9755  154.7490 H   0  0  0  0  0  0  0  0  0  0  0  0
  146.7793  142.6982  153.1072 H   0  0  0  0  0  0  0  0  0  0  0  0
  147.0289  140.3928  152.1523 H   0  0  0  0  0  0  0  0  0  0  0  0
  146.6341  139.6684  153.7945 H   0  0  0  0  0  0  0  0  0  0  0  0
  150.9568  145.2936  159.7008 H   0  0  0  0  0  0  0  0  0  0  0  0
  152.2154  144.8993  161.8026 H   0  0  0  0  0  0  0  0  0  0  0  0
  153.3754  142.6975  162.1161 H   0  0  0  0  0  0  0  0  0  0  0  0
  150.8639  143.6800  158.0933 H   0  0  0  0  0  0  0  0  0  0  0  0
  1  2  1  0  0  0  0
  1 18  1  0  0  0  0
  1 19  1  0  0  0  0
  1 20  1  0  0  0  0
  2  3  1  0  0  0  0
  2  8  1  0  0  0  0
  2 21  1  0  0  0  0
  3  4  1  0  0  0  0
  4  5  1  0  0  0  0
  4 22  1  0  0  0  0
  4 23  1  0  0  0  0
  5  7  1  0  0  0  0
  5  6  1  0  0  0  0
  5 24  1  0  0  0  0
  6  7  1  0  0  0  0
  6 25  1  0  0  0  0
  6 26  1  0  0  0  0
  7 27  1  0  0  0  0
  7 28  1  0  0  0  0
  8  9  2  0  0  0  0
  8 10  1  0  0  0  0
 10 11  2  0  0  0  0
 11 16  1  0  0  0  0
 11 12  1  0  0  0  0
 12 32  1  0  0  0  0
 12 13  1  0  0  0  0
 13 29  1  0  0  0  0
 13 14  2  0  0  0  0
 14 30  1  0  0  0  0
 14 15  1  0  0  0  0
 15 16  2  0  0  0  0
 15 31  1  0  0  0  0
 16 17  1  0  0  0  0
M  CHG  1  17  -1
M  END
> <s_m_source_file>
AV-unprocessed.smi

> <i_m_source_file_index>
3150

> <i_lp_mmshare_version>
43012

> <i_f3d_flags>
0

> <s_epik_input>
W0NIMl0xW0NIMl1bQ0hdMVtDSDJdT1tDQEBIXShbQ0gzXSlDKD1PKVtOSF1jMm5bY0hdW2NIXVtjSF1jMltPSF0=

> <s_epik_cmdline>
J2VwaWtfcHl0aG9uJywgJy1waCcsICc3LjAnLCAnLXRuJywgJzgnLCAnLW1hJywgJzIwMCcsICctbWV0YWxfYmluZGluZycsICctaW1hZScsICc8aW5maWxlLm1hZT4nLCAnLW9tYWUnLCAnPG91dGZpbGUubWFlPic=

> <r_epik_Ionization_Penalty>
0.784632

> <r_epik_Ionization_Penalty_Charging>
0.784632

> <r_epik_Ionization_Penalty_Neutral>
7.02258e-13

> <r_epik_State_Penalty>
1.43154

> <r_epik_Charging_Adjusted_Penalty>
2.21617

> <i_epik_Tot_Q>
-1

> <i_epik_Tot_abs_Q>
1

> <r_epik_Metal_State_Penalty>
1.39244

> <b_epik_Metal_Only>
0

> <s_lp_Force_Field>
OPLS_2005

> <r_lp_Energy>
43.7392

> <b_lp_Chiralities_Consistent>
1

> <s_lp_Variant>
AV-unprocessed.smi:3150-5

> <Gold.Version>
5.8.1

> <Gold.Id.Protein>
6NUR|6NUR_protein|mol2

> <Gold.PLP.Fitness>
40.4916

> <Gold.PLP.PLP>
-38.1354

> <Gold.PLP.part.hbond>
-1.0000

> <Gold.PLP.part.metal>
0.0000

> <Gold.PLP.part.buried>
-4.4246

> <Gold.PLP.part.nonpolar>
-31.8945

> <Gold.PLP.part.repulsive>
1.2208

> <Gold.PLP.ligand.clash>
0.0000

> <Gold.PLP.ligand.torsion>
0.5599

> <Gold.PLP.Chemscore.Hbond>
0.9760

> <Gold.PLP.Chemscore.CHOScore>
0.0000

> <Gold.PLP.Chemscore.Metal>
0.0000

> <Gold.Chemscore.Hbonds>
donor molecule, donor type, donor heavy atom, donor atom, acceptor molecule, acceptor atom, score
      P1  H  7989  7998       L1     3  0.94

> <Gold.PLP.Chemscore.Internal.Correction>
0.5479

> <Gold.Rescore>
     Score         DG    S(hbond)    S(metal)    S(lipo)     H(rot)  DE(clash)    DE(int)     intcor
     12.75     -13.76       0.64        0.00      88.49       1.64       0.28       0.73       ----

> <Gold.Chemscore.Fitness>
12.7491

> <Gold.Chemscore.DG>
-13.7631

> <Gold.Chemscore.ZeroCoef>
-5.4800

> <Gold.Chemscore.Hbond>
0.6362

> <Gold.Chemscore.Metal>
0.0000

> <Gold.Chemscore.Lipo>
88.4882

> <Gold.Chemscore.Internal_Hbond>
0.0000

> <Gold.Chemscore.DEClash>
0.2797

> <Gold.Chemscore.DEInternal>
0.7343

> <Gold.Chemscore.Rot>
1.6387

> <Gold.Chemscore.Internal.Correction>
   9.000000E+99

> <Gold.Chemscore.Hbonds>
donor molecule, donor type, donor heavy atom, donor atom, acceptor molecule, acceptor atom, score
      P1  H  7989  7998       L1     3  0.53

> <Gold.Chemscore.Hbond.Weighted>
-2.1250

> <Gold.Chemscore.Metal.Weighted>
-0.0000

> <Gold.Chemscore.Lipo.Weighted>
-10.3531

> <Gold.Chemscore.Internal_Hbond.Weighted>
0.0000

> <Gold.Chemscore.DEClash.Weighted>
0.2797

> <Gold.Chemscore.DEInternal.Weighted>
0.7343

> <Gold.Chemscore.Rot.Weighted>
4.1950

> <Gold.Chemscore.Internal.Correction.Weighted>
   9.000000E+99

> <Gold.Protein.RotatedTorsions>
[ 6907 6896 6895 6894 ] final   20.06 input  -60.11 | X-H torsion
[ 7974 7965 7964 7962 ] final  108.86 input  175.53 | X-H torsion
[ 8008 7997 7996 7995 ] final -103.15 input   59.86 | X-H torsion
[ 10167 10162 10161 10158 ] final  168.72 input  -65.29 | X-H torsion
[ 10718 10713 10712 10709 ] final   81.01 input   66.30 | X-H torsion
[ 10763 10752 10751 10750 ] final  108.51 input  -60.55 | X-H torsion
[ 11005 11000 10999 10996 ] final   -9.43 input  -57.11 | X-H torsion

> <Gold.Protein.ActiveResidues>
 VAL166  LYS551  ARG553  GLY616  TRP617  ASP618  TYR619  PRO620  LYS621  CYS622 
 ASP623  PHE694  ASN695  SER759  ASP760  ASP761  ALA762  ILE779  LEU786  VAL792 
 PHE793  MET794  SER795  GLU796  ALA797  LYS798  CYS799  TRP800  GLU811  SER814 

> <Gold.Protein.RotatedAtoms>
  151.8905  135.0418  160.0497 H   0  0  0  0  0  0  0  0  0  0  0  0  # atno 6907 bound_to 6896
  152.2440  133.5154  159.5294 H   0  0  0  0  0  0  0  0  0  0  0  0  # atno 6908 bound_to 6896
  150.7062  134.0967  159.3994 H   0  0  0  0  0  0  0  0  0  0  0  0  # atno 6909 bound_to 6896
  145.2753  139.2652  143.3944 H   0  0  0  0  0  0  0  0  0  0  0  0  # atno 7974 bound_to 7965
  154.8668  140.0424  157.1700 H   0  0  0  0  0  0  0  0  0  0  0  0  # atno 8008 bound_to 7997
  154.8781  140.2968  155.5420 H   0  0  0  0  0  0  0  0  0  0  0  0  # atno 8009 bound_to 7997
  156.2999  140.2416  156.3780 H   0  0  0  0  0  0  0  0  0  0  0  0  # atno 8010 bound_to 7997
  139.4975  144.3784  151.9649 H   0  0  0  0  0  0  0  0  0  0  0  0  # atno 10167 bound_to 10162
  157.6821  130.9985  150.2163 H   0  0  0  0  0  0  0  0  0  0  0  0  # atno 10718 bound_to 10713
  153.4217  135.3809  155.2115 H   0  0  0  0  0  0  0  0  0  0  0  0  # atno 10763 bound_to 10752
  154.8745  135.3819  154.4375 H   0  0  0  0  0  0  0  0  0  0  0  0  # atno 10764 bound_to 10752
  153.4896  135.7088  153.5954 H   0  0  0  0  0  0  0  0  0  0  0  0  # atno 10765 bound_to 10752
  140.7341  133.8724  155.8916 H   0  0  0  0  0  0  0  0  0  0  0  0  # atno 11005 bound_to 11000
  146.3234  140.3206  142.8633 LP  0  0  0  0  0  0  0  0  0  0  0  0  # atno 17320 bound_to 7965
  144.9300  140.7964  143.5695 LP  0  0  0  0  0  0  0  0  0  0  0  0  # atno 17321 bound_to 7965
  140.3220  144.3417  150.6007 LP  0  0  0  0  0  0  0  0  0  0  0  0  # atno 17342 bound_to 10162
  140.5715  143.2180  151.7591 LP  0  0  0  0  0  0  0  0  0  0  0  0  # atno 17343 bound_to 10162
  156.2824  130.3735  149.7922 LP  0  0  0  0  0  0  0  0  0  0  0  0  # atno 17370 bound_to 10713
  156.5607  130.8382  151.3328 LP  0  0  0  0  0  0  0  0  0  0  0  0  # atno 17371 bound_to 10713
  140.9895  134.1298  157.4421 LP  0  0  0  0  0  0  0  0  0  0  0  0  # atno 17394 bound_to 11000
  139.8820  135.0036  156.6196 LP  0  0  0  0  0  0  0  0  0  0  0  0  # atno 17395 bound_to 11000

$$$$
