AV-unprocessed.smi:2883|AV-procd|sdf|11081|dock2
  -GOLD-   2272015553D 1   1.00000     0.00000
 Structure written by MMmdl.
 39 41  0  0  0  0  0  0  0  0  1 V2000
  151.1833  137.4580  155.6936 C   0  0  0  0  0  0  0  0  0  0  0  0
  151.9921  138.7667  155.7515 C   0  0  0  0  0  0  0  0  0  0  0  0
  152.7004  138.8794  157.1224 C   0  0  0  0  0  0  0  0  0  0  0  0
  153.1169  138.7262  154.6904 C   0  0  0  0  0  0  0  0  0  0  0  0
  151.0511  139.9609  155.5189 C   0  0  0  0  0  0  0  0  0  0  0  0
  150.2757  139.9291  154.4268 N   0  0  0  0  0  0  0  0  0  0  0  0
  149.3583  140.9089  154.2846 C   0  0  0  0  0  0  0  0  0  0  0  0
  149.1895  141.9141  155.2564 C   0  0  0  0  0  0  0  0  0  0  0  0
  150.0249  141.8383  156.3882 C   0  0  0  0  0  0  0  0  0  0  0  0
  149.9024  142.7992  157.4011 N   0  0  0  0  0  0  0  0  0  0  0  0
  150.7150  142.7183  158.6113 C   0  0  2  0  0  0  0  0  0  0  0  0
  150.3224  143.7533  159.6683 C   0  0  0  0  0  0  0  0  0  0  0  0
  151.6673  144.4353  159.9563 C   0  0  2  0  0  0  0  0  0  0  0  0
  152.0741  145.3805  158.8187 C   0  0  0  0  0  0  0  0  0  0  0  0
  152.4650  144.3933  157.7206 C   0  0  0  0  0  0  0  0  0  0  0  0
  152.2091  143.0388  158.4035 C   0  0  1  0  0  0  0  0  0  0  0  0
  152.5691  143.3633  159.7359 O   0  0  0  0  0  0  0  0  0  0  0  0
  150.9371  140.8475  156.5162 N   0  0  0  0  0  0  0  0  0  0  0  0
  151.8209  136.5883  155.8549 H   0  0  0  0  0  0  0  0  0  0  0  0
  150.6981  137.3353  154.7248 H   0  0  0  0  0  0  0  0  0  0  0  0
  150.4037  137.4404  156.4561 H   0  0  0  0  0  0  0  0  0  0  0  0
  151.9937  138.8439  157.9526 H   0  0  0  0  0  0  0  0  0  0  0  0
  153.2597  139.8123  157.2052 H   0  0  0  0  0  0  0  0  0  0  0  0
  153.4047  138.0608  157.2745 H   0  0  0  0  0  0  0  0  0  0  0  0
  153.8117  137.9074  154.8803 H   0  0  0  0  0  0  0  0  0  0  0  0
  153.6944  139.6514  154.6874 H   0  0  0  0  0  0  0  0  0  0  0  0
  152.7245  138.5776  153.6837 H   0  0  0  0  0  0  0  0  0  0  0  0
  148.7501  140.8874  153.3924 H   0  0  0  0  0  0  0  0  0  0  0  0
  148.4529  142.6951  155.1380 H   0  0  0  0  0  0  0  0  0  0  0  0
  149.4191  143.6633  157.2039 H   0  0  0  0  0  0  0  0  0  0  0  0
  150.6139  141.7232  159.0472 H   0  0  0  0  0  0  0  0  0  0  0  0
  149.5686  144.4655  159.3296 H   0  0  0  0  0  0  0  0  0  0  0  0
  149.9396  143.2553  160.5596 H   0  0  0  0  0  0  0  0  0  0  0  0
  151.7335  144.8835  160.9480 H   0  0  0  0  0  0  0  0  0  0  0  0
  151.2636  146.0466  158.5215 H   0  0  0  0  0  0  0  0  0  0  0  0
  152.9306  145.9907  159.1072 H   0  0  0  0  0  0  0  0  0  0  0  0
  151.8912  144.5259  156.8032 H   0  0  0  0  0  0  0  0  0  0  0  0
  153.5215  144.5024  157.4731 H   0  0  0  0  0  0  0  0  0  0  0  0
  152.7846  142.2162  157.9780 H   0  0  0  0  0  0  0  0  0  0  0  0
  1  2  1  0  0  0  0
  1 19  1  0  0  0  0
  1 20  1  0  0  0  0
  1 21  1  0  0  0  0
  2  3  1  0  0  0  0
  2  4  1  0  0  0  0
  2  5  1  0  0  0  0
  3 22  1  0  0  0  0
  3 23  1  0  0  0  0
  3 24  1  0  0  0  0
  4 25  1  0  0  0  0
  4 26  1  0  0  0  0
  4 27  1  0  0  0  0
  5 18  1  0  0  0  0
  5  6  2  0  0  0  0
  6  7  1  0  0  0  0
  7  8  2  0  0  0  0
  7 28  1  0  0  0  0
  8  9  1  0  0  0  0
  8 29  1  0  0  0  0
  9 10  1  0  0  0  0
  9 18  2  0  0  0  0
 10 11  1  0  0  0  0
 10 30  1  0  0  0  0
 11 16  1  0  0  0  0
 11 12  1  0  0  0  0
 11 31  1  0  0  0  0
 12 13  1  0  0  0  0
 12 32  1  0  0  0  0
 12 33  1  0  0  0  0
 13 17  1  0  0  0  0
 13 14  1  0  0  0  0
 13 34  1  0  0  0  0
 14 15  1  0  0  0  0
 14 35  1  0  0  0  0
 14 36  1  0  0  0  0
 15 16  1  0  0  0  0
 15 37  1  0  0  0  0
 15 38  1  0  0  0  0
 16 17  1  0  0  0  0
 16 39  1  0  0  0  0
M  END
> <s_m_source_file>
AV-unprocessed.smi

> <i_m_source_file_index>
2883

> <i_lp_mmshare_version>
43012

> <i_f3d_flags>
0

> <s_epik_input>
W0NIM11DKFtDSDNdKShbQ0gzXSljMW5bY0hdW2NIXWMobjEpW05IXVtDQEhdKFtDSDJdW0NAQEhdMjMpW0NAQEhdKE8zKVtDSDJdW0NIMl0y

> <s_epik_cmdline>
J2VwaWtfcHl0aG9uJywgJy1waCcsICc3LjAnLCAnLXRuJywgJzgnLCAnLW1hJywgJzIwMCcsICctbWV0YWxfYmluZGluZycsICctaW1hZScsICc8aW5maWxlLm1hZT4nLCAnLW9tYWUnLCAnPG91dGZpbGUubWFlPic=

> <r_lp_tautomer_probability>
1

> <r_epik_Ionization_Penalty>
0.453006

> <r_epik_Ionization_Penalty_Charging>
0

> <r_epik_Ionization_Penalty_Neutral>
0.453006

> <r_epik_State_Penalty>
0.455155

> <r_epik_Charging_Adjusted_Penalty>
0.455155

> <i_epik_Tot_Q>
0

> <i_epik_Tot_abs_Q>
0

> <r_epik_Metal_State_Penalty>
0.255592

> <b_epik_Metal_Only>
0

> <s_lp_Force_Field>
OPLS_2005

> <r_lp_Energy>
33.5757

> <b_lp_Chiralities_Consistent>
1

> <s_lp_Variant>
AV-unprocessed.smi:2883-7

> <Gold.Version>
5.8.1

> <Gold.Id.Protein>
6NUR|6NUR_protein|mol2

> <Gold.PLP.Fitness>
41.5925

> <Gold.PLP.PLP>
-35.5951

> <Gold.PLP.part.hbond>
-2.0000

> <Gold.PLP.part.metal>
0.0000

> <Gold.PLP.part.buried>
0.9748

> <Gold.PLP.part.nonpolar>
-34.6671

> <Gold.PLP.part.repulsive>
0.1559

> <Gold.PLP.ligand.clash>
0.0000

> <Gold.PLP.ligand.torsion>
0.1686

> <Gold.PLP.Chemscore.Hbond>
1.1735

> <Gold.PLP.Chemscore.CHOScore>
0.8900

> <Gold.PLP.Chemscore.Metal>
0.0000

> <Gold.Chemscore.Hbonds>
donor molecule, donor type, donor heavy atom, donor atom, acceptor molecule, acceptor atom, score
      L1  H    10    30       P1  8028  0.80
      P1  H  7989  7998       L1     6  0.32
      L1  C     7    28       P1  7957  0.86

> <Gold.PLP.Chemscore.Internal.Correction>
0.1441

> <Gold.Rescore>
     Score         DG    S(hbond)    S(metal)    S(lipo)     H(rot)  DE(clash)    DE(int)     intcor
     17.39     -17.67       0.80        0.00     106.36       1.15       0.11       0.17       ----

> <Gold.Chemscore.Fitness>
17.3902

> <Gold.Chemscore.DG>
-17.6722

> <Gold.Chemscore.ZeroCoef>
-5.4800

> <Gold.Chemscore.Hbond>
0.8047

> <Gold.Chemscore.Metal>
0.0000

> <Gold.Chemscore.Lipo>
106.3572

> <Gold.Chemscore.Internal_Hbond>
0.0000

> <Gold.Chemscore.DEClash>
0.1084

> <Gold.Chemscore.DEInternal>
0.1736

> <Gold.Chemscore.Rot>
1.1482

> <Gold.Chemscore.Internal.Correction>
   9.000000E+99

> <Gold.Chemscore.Hbonds>
donor molecule, donor type, donor heavy atom, donor atom, acceptor molecule, acceptor atom, score
      L1  H    10    30       P1  8028  0.55

> <Gold.Chemscore.Hbond.Weighted>
-2.6877

> <Gold.Chemscore.Metal.Weighted>
-0.0000

> <Gold.Chemscore.Lipo.Weighted>
-12.4438

> <Gold.Chemscore.Internal_Hbond.Weighted>
0.0000

> <Gold.Chemscore.DEClash.Weighted>
0.1084

> <Gold.Chemscore.DEInternal.Weighted>
0.1736

> <Gold.Chemscore.Rot.Weighted>
2.9393

> <Gold.Chemscore.Internal.Correction.Weighted>
   9.000000E+99

> <Gold.Protein.RotatedTorsions>
[ 6907 6896 6895 6894 ] final  -50.68 input  -60.11 | X-H torsion
[ 7974 7965 7964 7962 ] final  -22.03 input  175.53 | X-H torsion
[ 8008 7997 7996 7995 ] final -177.11 input   59.86 | X-H torsion
[ 10167 10162 10161 10158 ] final   93.09 input  -65.29 | X-H torsion
[ 10718 10713 10712 10709 ] final  129.38 input   66.30 | X-H torsion
[ 10763 10752 10751 10750 ] final  103.52 input  -60.55 | X-H torsion
[ 11005 11000 10999 10996 ] final   84.49 input  -57.11 | X-H torsion

> <Gold.Protein.ActiveResidues>
 VAL166  LYS551  ARG553  GLY616  TRP617  ASP618  TYR619  PRO620  LYS621  CYS622 
 ASP623  PHE694  ASN695  SER759  ASP760  ASP761  ALA762  ILE779  LEU786  VAL792 
 PHE793  MET794  SER795  GLU796  ALA797  LYS798  CYS799  TRP800  GLU811  SER814 

> <Gold.Protein.RotatedAtoms>
  150.8683  134.8052  159.7135 H   0  0  0  0  0  0  0  0  0  0  0  0  # atno 6907 bound_to 6896
  152.4697  134.4987  159.9728 H   0  0  0  0  0  0  0  0  0  0  0  0  # atno 6908 bound_to 6896
  151.5080  133.3452  159.2915 H   0  0  0  0  0  0  0  0  0  0  0  0  # atno 6909 bound_to 6896
  146.1699  140.4423  142.8536 H   0  0  0  0  0  0  0  0  0  0  0  0  # atno 7974 bound_to 7965
  156.0029  140.1224  157.0529 H   0  0  0  0  0  0  0  0  0  0  0  0  # atno 8008 bound_to 7997
  154.4249  140.1103  156.5791 H   0  0  0  0  0  0  0  0  0  0  0  0  # atno 8009 bound_to 7997
  155.6187  140.3472  155.4647 H   0  0  0  0  0  0  0  0  0  0  0  0  # atno 8010 bound_to 7997
  139.8213  144.6730  150.9515 H   0  0  0  0  0  0  0  0  0  0  0  0  # atno 10167 bound_to 10162
  157.5160  131.1097  150.9224 H   0  0  0  0  0  0  0  0  0  0  0  0  # atno 10718 bound_to 10713
  153.3538  135.3974  155.1666 H   0  0  0  0  0  0  0  0  0  0  0  0  # atno 10763 bound_to 10752
  154.8667  135.3663  154.5188 H   0  0  0  0  0  0  0  0  0  0  0  0  # atno 10764 bound_to 10752
  153.5641  135.7080  153.5594 H   0  0  0  0  0  0  0  0  0  0  0  0  # atno 10765 bound_to 10752
  139.8999  134.8220  156.2452 H   0  0  0  0  0  0  0  0  0  0  0  0  # atno 11005 bound_to 11000
  144.8147  140.6448  143.6392 LP  0  0  0  0  0  0  0  0  0  0  0  0  # atno 17320 bound_to 7965
  145.4368  139.1541  143.3992 LP  0  0  0  0  0  0  0  0  0  0  0  0  # atno 17321 bound_to 7965
  140.7813  143.4089  151.1026 LP  0  0  0  0  0  0  0  0  0  0  0  0  # atno 17342 bound_to 10162
  139.7749  143.8440  152.3127 LP  0  0  0  0  0  0  0  0  0  0  0  0  # atno 17343 bound_to 10162
  156.9850  130.5541  149.5299 LP  0  0  0  0  0  0  0  0  0  0  0  0  # atno 17370 bound_to 10713
  156.0320  130.5411  150.8559 LP  0  0  0  0  0  0  0  0  0  0  0  0  # atno 17371 bound_to 10713
  141.0259  133.7015  156.1347 LP  0  0  0  0  0  0  0  0  0  0  0  0  # atno 17394 bound_to 11000
  140.7166  134.4403  157.5578 LP  0  0  0  0  0  0  0  0  0  0  0  0  # atno 17395 bound_to 11000

$$$$
