AV-unprocessed.smi:2721|AV-procd|sdf|10501|dock3
  -GOLD-   2272014543D 1   1.00000     0.00000
 Structure written by MMmdl.
 29 30  0  0  0  0  0  0  0  0  2 V2000
  146.7724  138.8937  152.7368 C   0  0  0  0  0  0  0  0  0  0  0  0
  147.4569  139.8954  153.5258 N   0  0  0  0  0  0  0  0  0  0  0  0
  148.6998  139.8254  154.1155 C   0  0  0  0  0  0  0  0  0  0  0  0
  148.9238  141.0128  154.7600 C   0  0  0  0  0  0  0  0  0  0  0  0
  150.1018  141.4924  155.5872 C   0  0  2  0  0  0  0  0  0  0  0  0
  151.2532  140.6527  155.4702 O   0  0  0  0  0  0  0  0  0  0  0  0
  151.1921  139.4014  156.1527 C   0  0  0  0  0  0  0  0  0  0  0  0
  150.9552  139.6159  157.6553 C   0  0  0  0  0  0  0  0  0  0  0  0
  149.6955  140.4541  157.8939 C   0  0  0  0  0  0  0  0  0  0  0  0
  149.7827  141.7539  157.0811 C   0  0  2  0  0  0  0  0  0  0  0  0
  148.5751  142.5834  157.2517 N   0  3  0  0  0  0  0  0  0  0  0  0
  147.7317  141.7475  154.4945 C   0  0  0  0  0  0  0  0  0  0  0  0
  146.8580  141.0787  153.7617 N   0  0  0  0  0  0  0  0  0  0  0  0
  150.4249  142.4488  155.1737 H   0  0  0  0  0  0  0  0  0  0  0  0
  150.6113  142.3313  157.4937 H   0  0  0  0  0  0  0  0  0  0  0  0
  147.4174  138.0268  152.5910 H   0  0  0  0  0  0  0  0  0  0  0  0
  146.5085  139.3065  151.7624 H   0  0  0  0  0  0  0  0  0  0  0  0
  145.8640  138.5779  153.2504 H   0  0  0  0  0  0  0  0  0  0  0  0
  149.3092  138.9390  154.0236 H   0  0  0  0  0  0  0  0  0  0  0  0
  150.4231  138.7618  155.7230 H   0  0  0  0  0  0  0  0  0  0  0  0
  152.1381  138.8818  156.0004 H   0  0  0  0  0  0  0  0  0  0  0  0
  150.8709  138.6554  158.1647 H   0  0  0  0  0  0  0  0  0  0  0  0
  151.8181  140.1236  158.0883 H   0  0  0  0  0  0  0  0  0  0  0  0
  148.8094  139.8829  157.6199 H   0  0  0  0  0  0  0  0  0  0  0  0
  149.5977  140.6777  158.9569 H   0  0  0  0  0  0  0  0  0  0  0  0
  148.5290  143.2678  156.5101 H   0  0  0  0  0  0  0  0  0  0  0  0
  148.6154  143.0580  158.1423 H   0  0  0  0  0  0  0  0  0  0  0  0
  147.4747  142.7453  154.8185 H   0  0  0  0  0  0  0  0  0  0  0  0
  147.7539  141.9963  157.2206 H   0  0  0  0  0  0  0  0  0  0  0  0
  1  2  1  0  0  0  0
  1 16  1  0  0  0  0
  1 17  1  0  0  0  0
  1 18  1  0  0  0  0
  2 13  1  0  0  0  0
  2  3  1  0  0  0  0
  3  4  2  0  0  0  0
  3 19  1  0  0  0  0
  4  5  1  0  0  0  0
  4 12  1  0  0  0  0
  5 14  1  0  0  0  0
  5 10  1  0  0  0  0
  5  6  1  0  0  0  0
  6  7  1  0  0  0  0
  7  8  1  0  0  0  0
  7 20  1  0  0  0  0
  7 21  1  0  0  0  0
  8  9  1  0  0  0  0
  8 22  1  0  0  0  0
  8 23  1  0  0  0  0
  9 10  1  0  0  0  0
  9 24  1  0  0  0  0
  9 25  1  0  0  0  0
 10 15  1  0  0  0  0
 10 11  1  0  0  0  0
 11 26  1  0  0  0  0
 11 27  1  0  0  0  0
 11 29  1  0  0  0  0
 12 13  2  0  0  0  0
 12 28  1  0  0  0  0
M  CHG  1  11   1
M  END
> <s_m_source_file>
AV-unprocessed.smi

> <i_m_source_file_index>
2721

> <i_lp_mmshare_version>
43012

> <i_f3d_flags>
0

> <s_epik_input>
W0NIM11uMVtjSF1jKFtjSF1uMSlbQ0BIXTJPW0NIMl1bQ0gyXVtDSDJdW0NAQEhdMltOSDJd

> <s_epik_cmdline>
J2VwaWtfcHl0aG9uJywgJy1waCcsICc3LjAnLCAnLXRuJywgJzgnLCAnLW1hJywgJzIwMCcsICctbWV0YWxfYmluZGluZycsICctaW1hZScsICc8aW5maWxlLm1hZT4nLCAnLW9tYWUnLCAnPG91dGZpbGUubWFlPic=

> <r_lp_tautomer_probability>
1

> <r_epik_Ionization_Penalty>
0.0061467

> <r_epik_Ionization_Penalty_Charging>
0.00611941

> <r_epik_Ionization_Penalty_Neutral>
2.72888e-05

> <r_epik_State_Penalty>
0.00451057

> <r_epik_Charging_Adjusted_Penalty>
0.01063

> <i_epik_Tot_Q>
1

> <i_epik_Tot_abs_Q>
1

> <r_epik_Metal_State_Penalty>
-0

> <b_epik_Metal_Only>
0

> <s_lp_Force_Field>
OPLS_2005

> <r_lp_Energy>
14.6487

> <b_lp_Chiralities_Consistent>
1

> <s_lp_Variant>
AV-unprocessed.smi:2721-2

> <Gold.Version>
5.8.1

> <Gold.Id.Protein>
6NUR|6NUR_protein|mol2

> <Gold.PLP.Fitness>
34.0919

> <Gold.PLP.PLP>
-22.8768

> <Gold.PLP.part.hbond>
-2.0000

> <Gold.PLP.part.metal>
0.0000

> <Gold.PLP.part.buried>
-1.7721

> <Gold.PLP.part.nonpolar>
-19.7663

> <Gold.PLP.part.repulsive>
0.2362

> <Gold.PLP.ligand.clash>
0.0000

> <Gold.PLP.ligand.torsion>
0.1468

> <Gold.PLP.Chemscore.Hbond>
2.8160

> <Gold.PLP.Chemscore.CHOScore>
1.0000

> <Gold.PLP.Chemscore.Metal>
0.0000

> <Gold.Chemscore.Hbonds>
donor molecule, donor type, donor heavy atom, donor atom, acceptor molecule, acceptor atom, score
      L1  H    11    26       P1  8028  2.00
      P1  H  7989  7998       L1     6  0.82
      L1  C    12    28       P1  8028  1.00

> <Gold.PLP.Chemscore.Internal.Correction>
0.0607

> <Gold.Rescore>
     Score         DG    S(hbond)    S(metal)    S(lipo)     H(rot)  DE(clash)    DE(int)     intcor
     12.99     -14.17       1.57        0.00      51.37       1.00       0.06       1.12       ----

> <Gold.Chemscore.Fitness>
12.9852

> <Gold.Chemscore.DG>
-14.1701

> <Gold.Chemscore.ZeroCoef>
-5.4800

> <Gold.Chemscore.Hbond>
1.5687

> <Gold.Chemscore.Metal>
0.0000

> <Gold.Chemscore.Lipo>
51.3725

> <Gold.Chemscore.Internal_Hbond>
0.0000

> <Gold.Chemscore.DEClash>
0.0624

> <Gold.Chemscore.DEInternal>
1.1225

> <Gold.Chemscore.Rot>
1.0000

> <Gold.Chemscore.Internal.Correction>
   9.000000E+99

> <Gold.Chemscore.Hbonds>
donor molecule, donor type, donor heavy atom, donor atom, acceptor molecule, acceptor atom, score
      L1  H    11    26       P1  8028  0.69
      P1  H  7989  7998       L1     6  0.20

> <Gold.Chemscore.Hbond.Weighted>
-5.2395

> <Gold.Chemscore.Metal.Weighted>
-0.0000

> <Gold.Chemscore.Lipo.Weighted>
-6.0106

> <Gold.Chemscore.Internal_Hbond.Weighted>
0.0000

> <Gold.Chemscore.DEClash.Weighted>
0.0624

> <Gold.Chemscore.DEInternal.Weighted>
1.1225

> <Gold.Chemscore.Rot.Weighted>
2.5600

> <Gold.Chemscore.Internal.Correction.Weighted>
   9.000000E+99

> <Gold.Protein.RotatedTorsions>
[ 6907 6896 6895 6894 ] final  172.93 input  -60.11 | X-H torsion
[ 7974 7965 7964 7962 ] final  -58.26 input  175.53 | X-H torsion
[ 8008 7997 7996 7995 ] final -143.80 input   59.86 | X-H torsion
[ 10167 10162 10161 10158 ] final -121.04 input  -65.29 | X-H torsion
[ 10718 10713 10712 10709 ] final  176.88 input   66.30 | X-H torsion
[ 10763 10752 10751 10750 ] final  133.81 input  -60.55 | X-H torsion
[ 11005 11000 10999 10996 ] final  150.59 input  -57.11 | X-H torsion

> <Gold.Protein.ActiveResidues>
 VAL166  LYS551  ARG553  GLY616  TRP617  ASP618  TYR619  PRO620  LYS621  CYS622 
 ASP623  PHE694  ASN695  SER759  ASP760  ASP761  ALA762  ILE779  LEU786  VAL792 
 PHE793  MET794  SER795  GLU796  ALA797  LYS798  CYS799  TRP800  GLU811  SER814 

> <Gold.Protein.RotatedAtoms>
  151.7765  133.3346  159.3459 H   0  0  0  0  0  0  0  0  0  0  0  0  # atno 6907 bound_to 6896
  150.7442  134.5970  159.6026 H   0  0  0  0  0  0  0  0  0  0  0  0  # atno 6908 bound_to 6896
  152.3305  134.7266  160.0342 H   0  0  0  0  0  0  0  0  0  0  0  0  # atno 6909 bound_to 6896
  145.8415  140.8414  143.0032 H   0  0  0  0  0  0  0  0  0  0  0  0  # atno 7974 bound_to 7965
  155.5166  140.0588  157.2914 H   0  0  0  0  0  0  0  0  0  0  0  0  # atno 8008 bound_to 7997
  154.4532  140.1960  156.0402 H   0  0  0  0  0  0  0  0  0  0  0  0  # atno 8009 bound_to 7997
  156.0748  140.3255  155.7624 H   0  0  0  0  0  0  0  0  0  0  0  0  # atno 8010 bound_to 7997
  140.0293  143.5264  152.2184 H   0  0  0  0  0  0  0  0  0  0  0  0  # atno 10167 bound_to 10162
  156.9135  130.9917  151.3016 H   0  0  0  0  0  0  0  0  0  0  0  0  # atno 10718 bound_to 10713
  153.8132  135.3126  155.3403 H   0  0  0  0  0  0  0  0  0  0  0  0  # atno 10763 bound_to 10752
  154.8043  135.4708  154.0355 H   0  0  0  0  0  0  0  0  0  0  0  0  # atno 10764 bound_to 10752
  153.1740  135.6882  153.8657 H   0  0  0  0  0  0  0  0  0  0  0  0  # atno 10765 bound_to 10752
  140.1144  134.8903  157.1983 H   0  0  0  0  0  0  0  0  0  0  0  0  # atno 11005 bound_to 11000
  144.6733  140.0818  143.7469 LP  0  0  0  0  0  0  0  0  0  0  0  0  # atno 17320 bound_to 7965
  145.9460  139.2701  143.1240 LP  0  0  0  0  0  0  0  0  0  0  0  0  # atno 17321 bound_to 7965
  139.6087  144.7603  151.3003 LP  0  0  0  0  0  0  0  0  0  0  0  0  # atno 17342 bound_to 10162
  140.7309  143.6867  150.7955 LP  0  0  0  0  0  0  0  0  0  0  0  0  # atno 17343 bound_to 10162
  157.5952  130.8473  149.8719 LP  0  0  0  0  0  0  0  0  0  0  0  0  # atno 17370 bound_to 10713
  156.0524  130.3715  150.1169 LP  0  0  0  0  0  0  0  0  0  0  0  0  # atno 17371 bound_to 10713
  140.3047  134.3091  155.7281 LP  0  0  0  0  0  0  0  0  0  0  0  0  # atno 17394 bound_to 11000
  141.2138  133.7614  156.9691 LP  0  0  0  0  0  0  0  0  0  0  0  0  # atno 17395 bound_to 11000

$$$$
