#       Name:                AV-unprocessed.smi:35
#       Creating user name   scv26
#       Creation time:       Thu Mar 26 16:04:50 2020


#       File generated by GOLD software.
#

@<TRIPOS>MOLECULE
AV-unprocessed.smi:35
    41    42     1
SMALL
NO_CHARGES


@<TRIPOS>ATOM
      1 ****         0.7918   4.8445  -1.6595 O.2            1 S1                 0.0000
      2 ****         0.3108   3.7657  -1.3176 C.2            1 S1                 0.0000
      3 ****        -0.6811   3.1418  -2.0167 N.pl3          1 S1                -1.0000
      4 ****        -1.2093   1.9421  -1.6342 C.2            1 S1                 0.0000
      5 ****        -2.0966   1.3650  -2.2631 O.2            1 S1                 0.0000
      6 ****        -0.7122   1.3131  -0.4599 N.am           1 S1                 0.0000
      7 ****        -1.3020  -0.0196  -0.0406 C.3            1 S1                 0.0000
      8 ****        -0.9733  -0.2872   1.2970 O.3            1 S1                 0.0000
      9 ****        -0.2761  -1.5264   1.4313 C.3            1 S1                 0.0000
     10 ****         1.2264  -1.2387   1.6390 C.3            1 S1                 0.0000
     11 ****         1.8920  -2.3727   2.1547 O.3            1 S1                 0.0000
     12 ****        -0.6581  -2.2912   0.1568 C.3            1 S1                 0.0000
     13 ****         0.2160  -3.3415  -0.2128 O.3            1 S1                 0.0000
     14 ****        -0.8010  -1.2031  -0.8964 C.3            1 S1                 0.0000
     15 ****         0.4147  -0.9387  -1.5794 O.3            1 S1                 0.0000
     16 ****         0.2923   1.9245   0.2715 C.2            1 S1                 0.0000
     17 ****         0.8108   3.1080  -0.1134 C.2            1 S1                 0.0000
     18 ****         2.2452   3.8633   1.0263 Br             1 S1                 0.0000
     19 ****        -2.3845   0.1117  -0.0885 H              1 S1                 0.0000
     20 ****        -0.6622  -2.0389   2.3134 H              1 S1                 0.0000
     21 ****         1.7116  -0.9071   0.7220 H              1 S1                 0.0000
     22 ****         1.3490  -0.4396   2.3699 H              1 S1                 0.0000
     23 ****         2.8073  -2.1617   2.2578 H              1 S1                 0.0000
     24 ****        -1.6438  -2.7305   0.3167 H              1 S1                 0.0000
     25 ****        -0.0657  -3.6846  -1.0467 H              1 S1                 0.0000
     26 ****        -1.5569  -1.4602  -1.6392 H              1 S1                 0.0000
     27 ****         0.2763  -0.2004  -2.1536 H              1 S1                 0.0000
     28 ****         0.6777   1.4611   1.1651 H              1 S1                 0.0000
     29 ****         1.5183   5.2632  -1.1146 LP             1 S1                 0.0000
     30 ****         0.4565   5.3032  -2.4824 LP             1 S1                 0.0000
     31 ****        -1.0354   3.5808  -2.8424 LP             1 S1                 0.0000
     32 ****        -2.4649   1.7744  -3.0978 LP             1 S1                 0.0000
     33 ****        -2.4489   0.4870  -1.9392 LP             1 S1                 0.0000
     34 ****        -1.8148  -0.3286   1.8356 LP             1 S1                 0.0000
     35 ****        -0.3928   0.4504   1.6420 LP             1 S1                 0.0000
     36 ****         1.7919  -3.1398   1.5211 LP             1 S1                 0.0000
     37 ****         1.5007  -2.6194   3.0413 LP             1 S1                 0.0000
     38 ****         0.1860  -4.0645   0.4774 LP             1 S1                 0.0000
     39 ****         1.1500  -2.9924  -0.2894 LP             1 S1                 0.0000
     40 ****         0.6828  -1.7390  -2.1157 LP             1 S1                 0.0000
     41 ****         1.1342  -0.7237  -0.9190 LP             1 S1                 0.0000
@<TRIPOS>BOND
    1    1    2 2     
    2    2   17 1     
    3    2    3 1     
    4    3    4 1     
    5    4    5 2     
    6    4    6 am    
    7    6    7 1     
    8    6   16 1     
    9    7   14 1     
   10    7    8 1     
   11    7   19 1     
   12    8    9 1     
   13    9   10 1     
   14    9   12 1     
   15    9   20 1     
   16   10   11 1     
   17   10   21 1     
   18   10   22 1     
   19   11   23 1     
   20   12   13 1     
   21   12   14 1     
   22   12   24 1     
   23   13   25 1     
   24   14   15 1     
   25   14   26 1     
   26   15   27 1     
   27   16   17 2     
   28   16   28 1     
   29   17   18 1     
   30    1   29 1     
   31    1   30 1     
   32    3   31 1     
   33    5   32 1     
   34    5   33 1     
   35    8   34 1     
   36    8   35 1     
   37   11   36 1     
   38   11   37 1     
   39   13   38 1     
   40   13   39 1     
   41   15   40 1     
   42   15   41 1     
@<TRIPOS>SUBSTRUCTURE
      1 S1             1
@<TRIPOS>SET
LONE_PAIRS      STATIC     ATOMS    <user>   **** ""
13 29 30 31 32 33 34 35 36 37 38 39 40 41
DONOR_HYDROGENS      STATIC     ATOMS    <user>   **** ""
3 23 25 27
ATOM$BLUE        STATIC     ATOMS    COLORGROUP SYSTEM
13 29 30 31 32 33 34 35 36 37 38 39 40 41
ATOM$RED        STATIC     ATOMS    COLORGROUP SYSTEM
3 23 25 27
