#       Name:                AV-unprocessed.smi:2422
#       Creating user name   scv26
#       Creation time:       Fri Mar 27 13:19:00 2020


#       File generated by GOLD software.
#

@<TRIPOS>MOLECULE
AV-unprocessed.smi:2422
    52    53     1
SMALL
NO_CHARGES


@<TRIPOS>ATOM
      1 ****        -3.8169   1.2433   4.2830 C.3            1 S1                 0.0000
      2 ****        -2.4945   0.7453   4.1819 O.3            1 S1                 0.0000
      3 ****        -2.4224  -0.6566   4.3962 C.3            1 S1                 0.0000
      4 ****        -0.9613  -1.1476   4.2588 C.3            1 S1                 0.0000
      5 ****        -0.0964  -0.5052   5.3596 C.3            1 S1                 0.0000
      6 ****        -0.8986  -2.6817   4.4194 C.3            1 S1                 0.0000
      7 ****        -0.3886  -0.7461   2.9671 N.am           1 S1                 0.0000
      8 ****        -0.8169  -1.0562   1.7315 C.2            1 S1                 0.0000
      9 ****        -1.7918  -1.7710   1.4994 O.2            1 S1                 0.0000
     10 ****        -0.0409  -0.4806   0.7969 N.am           1 S1                 0.0000
     11 ****        -0.1648  -0.5549  -0.6149 C.2            1 S1                 0.0000
     12 ****        -1.1218  -1.2832  -1.2682 N.2            1 S1                 0.0000
     13 ****        -0.7841  -1.0008  -2.5193 C.2            1 S1                 0.0000
     14 ****         0.2657  -0.1813  -2.6281 N.pl3          1 S1                 0.0000
     15 ****         0.9300   0.3376  -3.8140 C.3            1 S1                 0.0000
     16 ****         2.3490  -0.2476  -3.9653 C.3            1 S1                 0.0000
     17 ****         3.0413   0.2905  -5.2285 C.3            1 S1                 0.0000
     18 ****         3.0735   1.8274  -5.2354 C.3            1 S1                 0.0000
     19 ****         1.6614   2.4155  -5.0836 C.3            1 S1                 0.0000
     20 ****         0.9696   1.8807  -3.8192 C.3            1 S1                 0.0000
     21 ****         0.6956   0.1172  -1.3767 N.2            1 S1                 0.0000
     22 ****        -3.8173   2.3193   4.1095 H              1 S1                 0.0000
     23 ****        -4.2322   1.0615   5.2750 H              1 S1                 0.0000
     24 ****        -4.4694   0.7827   3.5400 H              1 S1                 0.0000
     25 ****        -2.8006  -0.8930   5.3921 H              1 S1                 0.0000
     26 ****        -3.0735  -1.1709   3.6881 H              1 S1                 0.0000
     27 ****        -0.4737  -0.7484   6.3533 H              1 S1                 0.0000
     28 ****        -0.0782   0.5820   5.2736 H              1 S1                 0.0000
     29 ****         0.9360  -0.8535   5.3077 H              1 S1                 0.0000
     30 ****        -1.2398  -2.9866   5.4092 H              1 S1                 0.0000
     31 ****         0.1191  -3.0535   4.2948 H              1 S1                 0.0000
     32 ****        -1.5281  -3.1967   3.6937 H              1 S1                 0.0000
     33 ****         0.4218  -0.1473   3.0251 H              1 S1                 0.0000
     34 ****         0.7243   0.0844   1.1338 H              1 S1                 0.0000
     35 ****        -1.3124  -1.3995  -3.3729 H              1 S1                 0.0000
     36 ****         0.3403   0.0150  -4.6738 H              1 S1                 0.0000
     37 ****         2.9515   0.0010  -3.0905 H              1 S1                 0.0000
     38 ****         2.3014  -1.3363  -4.0086 H              1 S1                 0.0000
     39 ****         4.0561  -0.1030  -5.2931 H              1 S1                 0.0000
     40 ****         2.5144  -0.0672  -6.1140 H              1 S1                 0.0000
     41 ****         3.7064   2.1831  -4.4211 H              1 S1                 0.0000
     42 ****         3.5281   2.1858  -6.1594 H              1 S1                 0.0000
     43 ****         1.7140   3.5041  -5.0464 H              1 S1                 0.0000
     44 ****         1.0639   2.1650  -5.9612 H              1 S1                 0.0000
     45 ****        -0.0427   2.2815  -3.7558 H              1 S1                 0.0000
     46 ****         1.5022   2.2466  -2.9400 H              1 S1                 0.0000
     47 ****        -1.9263   1.2036   4.8653 LP             1 S1                 0.0000
     48 ****        -2.1447   0.9481   3.2673 LP             1 S1                 0.0000
     49 ****        -2.3180  -2.1599   2.2556 LP             1 S1                 0.0000
     50 ****        -2.0575  -1.9628   0.5546 LP             1 S1                 0.0000
     51 ****        -1.8572  -1.8577  -0.9089 LP             1 S1                 0.0000
     52 ****         1.4629   0.6946  -1.0976 LP             1 S1                 0.0000
@<TRIPOS>BOND
    1    1    2 1     
    2    1   22 1     
    3    1   23 1     
    4    1   24 1     
    5    2    3 1     
    6    3    4 1     
    7    3   25 1     
    8    3   26 1     
    9    4    5 1     
   10    4    6 1     
   11    4    7 1     
   12    5   27 1     
   13    5   28 1     
   14    5   29 1     
   15    6   30 1     
   16    6   31 1     
   17    6   32 1     
   18    7    8 am    
   19    7   33 1     
   20    8    9 2     
   21    8   10 am    
   22   10   11 1     
   23   10   34 1     
   24   11   21 2     
   25   11   12 1     
   26   12   13 2     
   27   13   14 1     
   28   13   35 1     
   29   14   15 1     
   30   14   21 1     
   31   15   20 1     
   32   15   16 1     
   33   15   36 1     
   34   16   17 1     
   35   16   37 1     
   36   16   38 1     
   37   17   18 1     
   38   17   39 1     
   39   17   40 1     
   40   18   19 1     
   41   18   41 1     
   42   18   42 1     
   43   19   20 1     
   44   19   43 1     
   45   19   44 1     
   46   20   45 1     
   47   20   46 1     
   48    2   47 1     
   49    2   48 1     
   50    9   49 1     
   51    9   50 1     
   52   12   51 1     
   53   21   52 1     
@<TRIPOS>SUBSTRUCTURE
      1 S1             1
@<TRIPOS>SET
LONE_PAIRS      STATIC     ATOMS    <user>   **** ""
6 47 48 49 50 51 52
DONOR_HYDROGENS      STATIC     ATOMS    <user>   **** ""
2 33 34
ATOM$BLUE        STATIC     ATOMS    COLORGROUP SYSTEM
6 47 48 49 50 51 52
ATOM$RED        STATIC     ATOMS    COLORGROUP SYSTEM
2 33 34
