AV-unprocessed.smi:89|AV-procd|sdf|825|dock10
  -GOLD-   2262017233D 1   1.00000     0.00000
 Structure written by MMmdl.
 54 56  0  0  0  0  0  0  0  0  1 V2000
  149.2878  141.3778  154.8750 C   0  0  0  0  0  0  0  0  0  0  0  0
  148.8751  140.4390  156.0203 C   0  0  0  0  0  0  0  0  0  0  0  0
  149.7364  140.5488  157.2011 N   0  0  0  0  0  0  0  0  0  0  0  0
  149.8890  139.4535  157.9837 C   0  0  0  0  0  0  0  0  0  0  0  0
  151.1383  139.1924  158.4447 N   0  0  0  0  0  0  0  0  0  0  0  0
  151.3592  138.1268  159.2190 C   0  0  0  0  0  0  0  0  0  0  0  0
  150.4865  137.2146  159.6511 N   0  0  0  0  0  0  0  0  0  0  0  0
  149.2258  137.4825  159.2048 C   0  0  0  0  0  0  0  0  0  0  0  0
  148.8408  138.5694  158.3692 C   0  0  0  0  0  0  0  0  0  0  0  0
  147.4737  138.5136  158.1242 N   0  0  0  0  0  0  0  0  0  0  0  0
  147.0763  137.4513  158.7687 C   0  0  0  0  0  0  0  0  0  0  0  0
  148.0601  136.7807  159.4592 N   0  0  0  0  0  0  0  0  0  0  0  0
  147.8950  135.5782  160.2625 C   0  0  0  0  0  0  0  0  0  0  0  0
  147.3072  135.8313  161.6750 C   0  0  1  0  0  0  0  0  0  0  0  0
  148.0791  136.8189  162.3324 O   0  0  0  0  0  0  0  0  0  0  0  0
  145.8382  136.2622  161.6789 C   0  0  0  0  0  0  0  0  0  0  0  0
  145.1016  134.9702  162.0011 C   0  0  0  0  0  0  0  0  0  0  0  0
  145.9519  134.3703  162.9615 O   0  0  0  0  0  0  0  0  0  0  0  0
  147.2936  134.5417  162.5216 C   0  0  0  0  0  0  0  0  0  0  0  0
  149.8259  141.8178  157.9325 C   0  0  2  0  0  0  0  0  0  0  0  0
  148.4491  142.4889  158.0787 C   0  0  0  0  0  0  0  0  0  0  0  0
  150.8665  142.7753  157.3198 C   0  0  0  0  0  0  0  0  0  0  0  0
  151.2411  144.1894  158.4499 S   0  0  0  0  0  0  0  0  0  0  0  0
  152.3779  144.9378  157.8925 O   0  0  0  0  0  0  0  0  0  0  0  0
  149.9815  144.8906  158.7429 O   0  0  0  0  0  0  0  0  0  0  0  0
  151.8036  143.3319  159.9841 C   0  0  0  0  0  0  0  0  0  0  0  0
  153.0503  142.4733  159.7404 C   0  0  0  0  0  0  0  0  0  0  0  0
  148.5791  141.3103  154.0499 H   0  0  0  0  0  0  0  0  0  0  0  0
  150.2729  141.1325  154.4784 H   0  0  0  0  0  0  0  0  0  0  0  0
  149.3090  142.4154  155.2096 H   0  0  0  0  0  0  0  0  0  0  0  0
  147.8508  140.6771  156.3024 H   0  0  0  0  0  0  0  0  0  0  0  0
  148.8529  139.4075  155.6703 H   0  0  0  0  0  0  0  0  0  0  0  0
  152.3811  137.9861  159.5393 H   0  0  0  0  0  0  0  0  0  0  0  0
  146.0446  137.1307  158.7653 H   0  0  0  0  0  0  0  0  0  0  0  0
  147.2547  134.8900  159.7092 H   0  0  0  0  0  0  0  0  0  0  0  0
  148.8669  135.0893  160.3434 H   0  0  0  0  0  0  0  0  0  0  0  0
  147.6928  136.9883  163.1779 H   0  0  0  0  0  0  0  0  0  0  0  0
  145.6483  136.9795  162.4795 H   0  0  0  0  0  0  0  0  0  0  0  0
  145.4953  136.7175  160.7514 H   0  0  0  0  0  0  0  0  0  0  0  0
  144.1005  135.1412  162.3975 H   0  0  0  0  0  0  0  0  0  0  0  0
  145.0241  134.3301  161.1209 H   0  0  0  0  0  0  0  0  0  0  0  0
  147.5724  133.6727  161.9236 H   0  0  0  0  0  0  0  0  0  0  0  0
  147.9704  134.5782  163.3763 H   0  0  0  0  0  0  0  0  0  0  0  0
  150.1676  141.6062  158.9470 H   0  0  0  0  0  0  0  0  0  0  0  0
  148.5161  143.3849  158.6960 H   0  0  0  0  0  0  0  0  0  0  0  0
  147.7313  141.8191  158.5530 H   0  0  0  0  0  0  0  0  0  0  0  0
  148.0412  142.7852  157.1119 H   0  0  0  0  0  0  0  0  0  0  0  0
  151.7955  142.2641  157.0729 H   0  0  0  0  0  0  0  0  0  0  0  0
  150.4774  143.1976  156.3934 H   0  0  0  0  0  0  0  0  0  0  0  0
  151.9896  144.0843  160.7502 H   0  0  0  0  0  0  0  0  0  0  0  0
  150.9817  142.7064  160.3329 H   0  0  0  0  0  0  0  0  0  0  0  0
  153.3419  141.9518  160.6522 H   0  0  0  0  0  0  0  0  0  0  0  0
  153.8983  143.0792  159.4235 H   0  0  0  0  0  0  0  0  0  0  0  0
  152.8683  141.7210  158.9730 H   0  0  0  0  0  0  0  0  0  0  0  0
  1  2  1  0  0  0  0
  1 28  1  0  0  0  0
  1 29  1  0  0  0  0
  1 30  1  0  0  0  0
  2  3  1  0  0  0  0
  2 31  1  0  0  0  0
  2 32  1  0  0  0  0
  3  4  1  0  0  0  0
  3 20  1  0  0  0  0
  4  9  1  0  0  0  0
  4  5  2  0  0  0  0
  5  6  1  0  0  0  0
  6  7  2  0  0  0  0
  6 33  1  0  0  0  0
  7  8  1  0  0  0  0
  8 12  1  0  0  0  0
  8  9  2  0  0  0  0
  9 10  1  0  0  0  0
 10 11  2  0  0  0  0
 11 12  1  0  0  0  0
 11 34  1  0  0  0  0
 12 13  1  0  0  0  0
 13 14  1  0  0  0  0
 13 35  1  0  0  0  0
 13 36  1  0  0  0  0
 14 19  1  0  0  0  0
 14 15  1  0  0  0  0
 14 16  1  0  0  0  0
 15 37  1  0  0  0  0
 16 17  1  0  0  0  0
 16 38  1  0  0  0  0
 16 39  1  0  0  0  0
 17 18  1  0  0  0  0
 17 40  1  0  0  0  0
 17 41  1  0  0  0  0
 18 19  1  0  0  0  0
 19 42  1  0  0  0  0
 19 43  1  0  0  0  0
 20 21  1  0  0  0  0
 20 22  1  0  0  0  0
 20 44  1  0  0  0  0
 21 45  1  0  0  0  0
 21 46  1  0  0  0  0
 21 47  1  0  0  0  0
 22 23  1  0  0  0  0
 22 48  1  0  0  0  0
 22 49  1  0  0  0  0
 23 24  2  0  0  0  0
 23 25  2  0  0  0  0
 23 26  1  0  0  0  0
 26 27  1  0  0  0  0
 26 50  1  0  0  0  0
 26 51  1  0  0  0  0
 27 52  1  0  0  0  0
 27 53  1  0  0  0  0
 27 54  1  0  0  0  0
M  END
> <s_m_source_file>
AV-unprocessed.smi

> <i_m_source_file_index>
89

> <i_lp_mmshare_version>
43012

> <i_f3d_flags>
0

> <s_epik_input>
W0NIM11bQ0gyXVMoPU8pKD1PKVtDSDJdW0NAQEhdKFtDSDNdKU4oW0NIMl1bQ0gzXSljKG5bY0hdbjEpYyhjMTIpbltjSF1uMltDSDJdW0NAQF0zKFtPSF0pW0NIMl1bQ0gyXU9bQ0gyXTM=

> <s_epik_cmdline>
J2VwaWtfcHl0aG9uJywgJy1waCcsICc3LjAnLCAnLXRuJywgJzgnLCAnLW1hJywgJzIwMCcsICctbWV0YWxfYmluZGluZycsICctaW1hZScsICc8aW5maWxlLm1hZT4nLCAnLW9tYWUnLCAnPG91dGZpbGUubWFlPic=

> <r_lp_tautomer_probability>
1

> <r_epik_Ionization_Penalty>
0.00103773

> <r_epik_Ionization_Penalty_Charging>
0

> <r_epik_Ionization_Penalty_Neutral>
0.00103773

> <r_epik_State_Penalty>
0.000558914

> <r_epik_Charging_Adjusted_Penalty>
0.000558914

> <i_epik_Tot_Q>
0

> <i_epik_Tot_abs_Q>
0

> <r_epik_Metal_State_Penalty>
-0

> <b_epik_Metal_Only>
0

> <s_lp_Force_Field>
OPLS_2005

> <r_lp_Energy>
26.0666

> <b_lp_Chiralities_Consistent>
1

> <s_lp_Variant>
AV-unprocessed.smi:89-1

> <Gold.Version>
5.8.1

> <Gold.Id.Protein>
6NUR|6NUR_protein|mol2

> <Gold.PLP.Fitness>
50.8326

> <Gold.PLP.PLP>
-47.3654

> <Gold.PLP.part.hbond>
-3.6810

> <Gold.PLP.part.metal>
0.0000

> <Gold.PLP.part.buried>
-9.3623

> <Gold.PLP.part.nonpolar>
-36.2634

> <Gold.PLP.part.repulsive>
0.2128

> <Gold.PLP.ligand.clash>
0.0000

> <Gold.PLP.ligand.torsion>
2.0315

> <Gold.PLP.Chemscore.Hbond>
2.0000

> <Gold.PLP.Chemscore.CHOScore>
0.0000

> <Gold.PLP.Chemscore.Metal>
0.0000

> <Gold.Chemscore.Hbonds>
donor molecule, donor type, donor heavy atom, donor atom, acceptor molecule, acceptor atom, score
      P1  H  6896  6909       L1     7  0.50
      P1  H  6931  6943       L1    15  1.00

> <Gold.PLP.Chemscore.Internal.Correction>
1.5301

> <Gold.Rescore>
     Score         DG    S(hbond)    S(metal)    S(lipo)     H(rot)  DE(clash)    DE(int)     intcor
      9.87     -13.45       1.72        0.00      87.67       3.14       0.10       3.48       ----

> <Gold.Chemscore.Fitness>
9.8673

> <Gold.Chemscore.DG>
-13.4468

> <Gold.Chemscore.ZeroCoef>
-5.4800

> <Gold.Chemscore.Hbond>
1.7199

> <Gold.Chemscore.Metal>
0.0000

> <Gold.Chemscore.Lipo>
87.6676

> <Gold.Chemscore.Internal_Hbond>
0.0000

> <Gold.Chemscore.DEClash>
0.0991

> <Gold.Chemscore.DEInternal>
3.4803

> <Gold.Chemscore.Rot>
3.1386

> <Gold.Chemscore.Internal.Correction>
   9.000000E+99

> <Gold.Chemscore.Hbonds>
donor molecule, donor type, donor heavy atom, donor atom, acceptor molecule, acceptor atom, score
      P1  H  6896  6909       L1     7  0.47
      P1  H  6931  6943       L1    15  0.55

> <Gold.Chemscore.Hbond.Weighted>
-5.7446

> <Gold.Chemscore.Metal.Weighted>
-0.0000

> <Gold.Chemscore.Lipo.Weighted>
-10.2571

> <Gold.Chemscore.Internal_Hbond.Weighted>
0.0000

> <Gold.Chemscore.DEClash.Weighted>
0.0991

> <Gold.Chemscore.DEInternal.Weighted>
3.4803

> <Gold.Chemscore.Rot.Weighted>
8.0349

> <Gold.Chemscore.Internal.Correction.Weighted>
   9.000000E+99

> <Gold.Protein.RotatedTorsions>
[ 6907 6896 6895 6894 ] final   96.52 input  -60.11 | X-H torsion
[ 7974 7965 7964 7962 ] final    2.23 input  175.53 | X-H torsion
[ 8008 7997 7996 7995 ] final   50.28 input   59.86 | X-H torsion
[ 10167 10162 10161 10158 ] final   69.44 input  -65.29 | X-H torsion
[ 10718 10713 10712 10709 ] final  168.35 input   66.30 | X-H torsion
[ 10763 10752 10751 10750 ] final -152.02 input  -60.55 | X-H torsion
[ 11005 11000 10999 10996 ] final -170.91 input  -57.11 | X-H torsion

> <Gold.Protein.ActiveResidues>
 VAL166  LYS551  ARG553  GLY616  TRP617  ASP618  TYR619  PRO620  LYS621  CYS622 
 ASP623  PHE694  ASN695  SER759  ASP760  ASP761  ALA762  ILE779  LEU786  VAL792 
 PHE793  MET794  SER795  GLU796  ALA797  LYS798  CYS799  TRP800  GLU811  SER814 

> <Gold.Protein.RotatedAtoms>
  152.5434  134.0874  159.8261 H   0  0  0  0  0  0  0  0  0  0  0  0  # atno 6907 bound_to 6896
  151.0968  133.5267  159.2619 H   0  0  0  0  0  0  0  0  0  0  0  0  # atno 6908 bound_to 6896
  151.2037  135.0462  159.8937 H   0  0  0  0  0  0  0  0  0  0  0  0  # atno 6909 bound_to 6896
  146.2443  140.0868  142.8354 H   0  0  0  0  0  0  0  0  0  0  0  0  # atno 7974 bound_to 7965
  155.4162  140.3444  155.4267 H   0  0  0  0  0  0  0  0  0  0  0  0  # atno 8008 bound_to 7997
  156.1420  140.1545  156.8937 H   0  0  0  0  0  0  0  0  0  0  0  0  # atno 8009 bound_to 7997
  154.4979  140.0823  156.7715 H   0  0  0  0  0  0  0  0  0  0  0  0  # atno 8010 bound_to 7997
  140.0678  144.5178  150.7248 H   0  0  0  0  0  0  0  0  0  0  0  0  # atno 10167 bound_to 10162
  157.0384  131.0279  151.2721 H   0  0  0  0  0  0  0  0  0  0  0  0  # atno 10718 bound_to 10713
  154.8021  135.3246  154.7525 H   0  0  0  0  0  0  0  0  0  0  0  0  # atno 10763 bound_to 10752
  153.8191  135.6889  153.4834 H   0  0  0  0  0  0  0  0  0  0  0  0  # atno 10764 bound_to 10752
  153.1743  135.4611  154.9888 H   0  0  0  0  0  0  0  0  0  0  0  0  # atno 10765 bound_to 10752
  140.5141  134.5773  157.5028 H   0  0  0  0  0  0  0  0  0  0  0  0  # atno 11005 bound_to 11000
  145.0685  140.9139  143.4896 LP  0  0  0  0  0  0  0  0  0  0  0  0  # atno 17320 bound_to 7965
  145.0997  139.2831  143.5692 LP  0  0  0  0  0  0  0  0  0  0  0  0  # atno 17321 bound_to 7965
  140.7140  143.2529  151.4491 LP  0  0  0  0  0  0  0  0  0  0  0  0  # atno 17342 bound_to 10162
  139.5854  144.1616  152.2022 LP  0  0  0  0  0  0  0  0  0  0  0  0  # atno 17343 bound_to 10162
  157.5124  130.7946  149.7719 LP  0  0  0  0  0  0  0  0  0  0  0  0  # atno 17370 bound_to 10713
  156.0046  130.3862  150.2478 LP  0  0  0  0  0  0  0  0  0  0  0  0  # atno 17371 bound_to 10713
  139.9642  134.7401  156.0173 LP  0  0  0  0  0  0  0  0  0  0  0  0  # atno 17394 bound_to 11000
  141.1369  133.6573  156.3620 LP  0  0  0  0  0  0  0  0  0  0  0  0  # atno 17395 bound_to 11000

$$$$
