AV-unprocessed.smi:2083|AV-procd|sdf|8512|dock2
  -GOLD-   2272011223D 1   1.00000     0.00000
 Structure written by MMmdl.
 44 45  0  0  0  0  0  0  0  0  3 V2000
  147.2980  134.4252  162.7790 C   0  0  0  0  0  0  0  0  0  0  0  0
  147.5239  135.2058  161.5293 C   0  0  0  0  0  0  0  0  0  0  0  0
  147.6530  134.8414  160.2188 C   0  0  0  0  0  0  0  0  0  0  0  0
  147.8467  136.0832  159.5574 C   0  0  0  0  0  0  0  0  0  0  0  0
  148.0221  136.1334  158.1493 N   0  0  0  0  0  0  0  0  0  0  0  0
  148.7887  135.3515  157.3675 C   0  0  0  0  0  0  0  0  0  0  0  0
  149.4542  134.4333  157.8616 O   0  0  0  0  0  0  0  0  0  0  0  0
  148.7216  135.7094  156.0551 N   0  5  0  0  0  0  0  0  0  0  0  0
  149.3977  135.0091  154.9616 C   0  0  0  0  0  0  0  0  0  0  0  0
  148.5346  133.8316  154.4280 C   0  0  2  0  0  0  0  0  0  0  0  0
  149.3484  132.5720  154.0377 C   0  0  0  0  0  0  0  0  0  0  0  0
  147.6262  134.2993  153.3343 N   0  3  2  0  0  0  0  0  0  0  0  0
  146.5673  135.2297  153.8096 C   0  0  0  0  0  0  0  0  0  0  0  0
  145.8369  135.8826  152.6249 C   0  0  0  0  0  0  0  0  0  0  0  0
  145.2561  134.8236  151.6791 C   0  0  0  0  0  0  0  0  0  0  0  0
  146.3577  133.8521  151.2228 C   0  0  2  0  0  0  0  0  0  0  0  0
  145.7986  132.7666  150.2923 C   0  0  0  0  0  0  0  0  0  0  0  0
  147.0602  133.2376  152.4490 C   0  0  0  0  0  0  0  0  0  0  0  0
  147.8352  137.1132  160.3906 N   0  0  0  0  0  0  0  0  0  0  0  0
  147.6283  136.5563  161.6582 O   0  0  0  0  0  0  0  0  0  0  0  0
  147.9026  133.5182  162.7828 H   0  0  0  0  0  0  0  0  0  0  0  0
  146.2512  134.1347  162.8671 H   0  0  0  0  0  0  0  0  0  0  0  0
  147.5623  135.0100  163.6602 H   0  0  0  0  0  0  0  0  0  0  0  0
  147.6154  133.8459  159.8021 H   0  0  0  0  0  0  0  0  0  0  0  0
  147.5026  136.8546  157.6712 H   0  0  0  0  0  0  0  0  0  0  0  0
  149.6215  135.6848  154.1344 H   0  0  0  0  0  0  0  0  0  0  0  0
  150.3662  134.6226  155.2795 H   0  0  0  0  0  0  0  0  0  0  0  0
  147.8907  133.5366  155.2578 H   0  0  0  0  0  0  0  0  0  0  0  0
  149.8807  132.1527  154.8934 H   0  0  0  0  0  0  0  0  0  0  0  0
  150.0898  132.7704  153.2618 H   0  0  0  0  0  0  0  0  0  0  0  0
  148.6905  131.7853  153.6681 H   0  0  0  0  0  0  0  0  0  0  0  0
  145.8604  134.6900  154.4414 H   0  0  0  0  0  0  0  0  0  0  0  0
  147.0060  136.0170  154.4239 H   0  0  0  0  0  0  0  0  0  0  0  0
  145.0408  136.5320  152.9900 H   0  0  0  0  0  0  0  0  0  0  0  0
  146.5302  136.5224  152.0767 H   0  0  0  0  0  0  0  0  0  0  0  0
  144.4620  134.2747  152.1873 H   0  0  0  0  0  0  0  0  0  0  0  0
  144.7973  135.3085  150.8166 H   0  0  0  0  0  0  0  0  0  0  0  0
  147.0992  134.4196  150.6578 H   0  0  0  0  0  0  0  0  0  0  0  0
  145.0490  132.1572  150.7981 H   0  0  0  0  0  0  0  0  0  0  0  0
  146.5897  132.1012  149.9455 H   0  0  0  0  0  0  0  0  0  0  0  0
  145.3306  133.2074  149.4116 H   0  0  0  0  0  0  0  0  0  0  0  0
  147.8509  132.5689  152.1080 H   0  0  0  0  0  0  0  0  0  0  0  0
  146.3501  132.6267  153.0082 H   0  0  0  0  0  0  0  0  0  0  0  0
  148.2211  134.8633  152.7441 H   0  0  0  0  0  0  0  0  0  0  0  0
  1  2  1  0  0  0  0
  1 21  1  0  0  0  0
  1 22  1  0  0  0  0
  1 23  1  0  0  0  0
  2 20  1  0  0  0  0
  2  3  2  0  0  0  0
  3  4  1  0  0  0  0
  3 24  1  0  0  0  0
  4  5  1  0  0  0  0
  4 19  2  0  0  0  0
  5  6  1  0  0  0  0
  5 25  1  0  0  0  0
  6  7  2  0  0  0  0
  6  8  1  0  0  0  0
  8  9  1  0  0  0  0
  9 10  1  0  0  0  0
  9 26  1  0  0  0  0
  9 27  1  0  0  0  0
 10 11  1  0  0  0  0
 10 12  1  0  0  0  0
 10 28  1  0  0  0  0
 11 29  1  0  0  0  0
 11 30  1  0  0  0  0
 11 31  1  0  0  0  0
 12 18  1  0  0  0  0
 12 13  1  0  0  0  0
 12 44  1  0  0  0  0
 13 14  1  0  0  0  0
 13 32  1  0  0  0  0
 13 33  1  0  0  0  0
 14 15  1  0  0  0  0
 14 34  1  0  0  0  0
 14 35  1  0  0  0  0
 15 16  1  0  0  0  0
 15 36  1  0  0  0  0
 15 37  1  0  0  0  0
 16 17  1  0  0  0  0
 16 18  1  0  0  0  0
 16 38  1  0  0  0  0
 17 39  1  0  0  0  0
 17 40  1  0  0  0  0
 17 41  1  0  0  0  0
 18 42  1  0  0  0  0
 18 43  1  0  0  0  0
 19 20  1  0  0  0  0
M  CHG  1   8  -1
M  CHG  1  12   1
M  END
> <s_m_source_file>
AV-unprocessed.smi

> <i_m_source_file_index>
2083

> <i_lp_mmshare_version>
43012

> <i_f3d_flags>
0

> <s_epik_input>
W0NIM11jMVtjSF1jKG5vMSlbTkhdQyg9TylbTkhdW0NIMl1bQ0BIXShbQ0gzXSlOMltDSDJdW0NIMl1bQ0gyXVtDQEBIXShbQ0gzXSlbQ0gyXTI=

> <s_epik_cmdline>
J2VwaWtfcHl0aG9uJywgJy1waCcsICc3LjAnLCAnLXRuJywgJzgnLCAnLW1hJywgJzIwMCcsICctbWV0YWxfYmluZGluZycsICctaW1hZScsICc8aW5maWxlLm1hZT4nLCAnLW9tYWUnLCAnPG91dGZpbGUubWFlPic=

> <r_epik_Ionization_Penalty>
6.76934

> <r_epik_Ionization_Penalty_Charging>
6.76934

> <r_epik_Ionization_Penalty_Neutral>
5.77849e-06

> <r_epik_State_Penalty>
6.79457

> <r_epik_Charging_Adjusted_Penalty>
13.5639

> <i_epik_Tot_Q>
0

> <i_epik_Tot_abs_Q>
2

> <r_epik_Metal_State_Penalty>
2.72837

> <b_epik_Metal_Only>
1

> <s_lp_Force_Field>
OPLS_2005

> <r_lp_Energy>
16.9315

> <b_lp_Chiralities_Consistent>
1

> <s_lp_Variant>
AV-unprocessed.smi:2083-23

> <Gold.Version>
5.8.1

> <Gold.Id.Protein>
6NUR|6NUR_protein|mol2

> <Gold.PLP.Fitness>
41.5677

> <Gold.PLP.PLP>
-32.5747

> <Gold.PLP.part.hbond>
-4.5976

> <Gold.PLP.part.metal>
0.0000

> <Gold.PLP.part.buried>
-4.8943

> <Gold.PLP.part.nonpolar>
-24.2782

> <Gold.PLP.part.repulsive>
0.0762

> <Gold.PLP.ligand.clash>
0.0000

> <Gold.PLP.ligand.torsion>
1.3247

> <Gold.PLP.Chemscore.Hbond>
3.8208

> <Gold.PLP.Chemscore.CHOScore>
0.0000

> <Gold.PLP.Chemscore.Metal>
0.0000

> <Gold.Chemscore.Hbonds>
donor molecule, donor type, donor heavy atom, donor atom, acceptor molecule, acceptor atom, score
      L1  H    12    44       P1  7948  2.00
      P1  H  6896  6907       L1     7  1.00
      P1  H  6934  6947       L1    19  0.56

> <Gold.PLP.Chemscore.Internal.Correction>
0.1800

> <Gold.Rescore>
     Score         DG    S(hbond)    S(metal)    S(lipo)     H(rot)  DE(clash)    DE(int)     intcor
     17.40     -18.85       2.87        0.00      65.60       1.52       0.05       1.40       ----

> <Gold.Chemscore.Fitness>
17.4019

> <Gold.Chemscore.DG>
-18.8508

> <Gold.Chemscore.ZeroCoef>
-5.4800

> <Gold.Chemscore.Hbond>
2.8696

> <Gold.Chemscore.Metal>
0.0000

> <Gold.Chemscore.Lipo>
65.5995

> <Gold.Chemscore.Internal_Hbond>
0.0000

> <Gold.Chemscore.DEClash>
0.0456

> <Gold.Chemscore.DEInternal>
1.4033

> <Gold.Chemscore.Rot>
1.5190

> <Gold.Chemscore.Internal.Correction>
   9.000000E+99

> <Gold.Chemscore.Hbonds>
donor molecule, donor type, donor heavy atom, donor atom, acceptor molecule, acceptor atom, score
      L1  H    12    44       P1  7948  0.70
      P1  H  6896  6907       L1     7  0.98
      P1  H  6934  6947       L1    19  0.07

> <Gold.Chemscore.Hbond.Weighted>
-9.5843

> <Gold.Chemscore.Metal.Weighted>
-0.0000

> <Gold.Chemscore.Lipo.Weighted>
-7.6751

> <Gold.Chemscore.Internal_Hbond.Weighted>
0.0000

> <Gold.Chemscore.DEClash.Weighted>
0.0456

> <Gold.Chemscore.DEInternal.Weighted>
1.4033

> <Gold.Chemscore.Rot.Weighted>
3.8886

> <Gold.Chemscore.Internal.Correction.Weighted>
   9.000000E+99

> <Gold.Protein.RotatedTorsions>
[ 6907 6896 6895 6894 ] final  -90.27 input  -60.11 | X-H torsion
[ 7974 7965 7964 7962 ] final   42.02 input  175.53 | X-H torsion
[ 8008 7997 7996 7995 ] final  146.23 input   59.86 | X-H torsion
[ 10167 10162 10161 10158 ] final -100.65 input  -65.29 | X-H torsion
[ 10718 10713 10712 10709 ] final  -34.63 input   66.30 | X-H torsion
[ 10763 10752 10751 10750 ] final -165.29 input  -60.55 | X-H torsion
[ 11005 11000 10999 10996 ] final   48.82 input  -57.11 | X-H torsion

> <Gold.Protein.ActiveResidues>
 VAL166  LYS551  ARG553  GLY616  TRP617  ASP618  TYR619  PRO620  LYS621  CYS622 
 ASP623  PHE694  ASN695  SER759  ASP760  ASP761  ALA762  ILE779  LEU786  VAL792 
 PHE793  MET794  SER795  GLU796  ALA797  LYS798  CYS799  TRP800  GLU811  SER814 

> <Gold.Protein.RotatedAtoms>
  150.6880  134.2458  159.4490 H   0  0  0  0  0  0  0  0  0  0  0  0  # atno 6907 bound_to 6896
  152.0399  134.9715  160.0583 H   0  0  0  0  0  0  0  0  0  0  0  0  # atno 6908 bound_to 6896
  152.1221  133.4324  159.4717 H   0  0  0  0  0  0  0  0  0  0  0  0  # atno 6909 bound_to 6896
  146.0775  139.5349  142.9558 H   0  0  0  0  0  0  0  0  0  0  0  0  # atno 7974 bound_to 7965
  156.2861  140.2188  156.5344 H   0  0  0  0  0  0  0  0  0  0  0  0  # atno 8008 bound_to 7997
  154.7422  140.0487  157.0843 H   0  0  0  0  0  0  0  0  0  0  0  0  # atno 8009 bound_to 7997
  155.0216  140.3125  155.4794 H   0  0  0  0  0  0  0  0  0  0  0  0  # atno 8010 bound_to 7997
  140.2497  143.3481  152.0726 H   0  0  0  0  0  0  0  0  0  0  0  0  # atno 10167 bound_to 10162
  156.3482  130.4304  149.7727 H   0  0  0  0  0  0  0  0  0  0  0  0  # atno 10718 bound_to 10713
  154.6946  135.2977  154.9431 H   0  0  0  0  0  0  0  0  0  0  0  0  # atno 10763 bound_to 10752
  154.0383  135.6661  153.4791 H   0  0  0  0  0  0  0  0  0  0  0  0  # atno 10764 bound_to 10752
  153.0636  135.5101  154.8056 H   0  0  0  0  0  0  0  0  0  0  0  0  # atno 10765 bound_to 10752
  140.1157  134.4895  155.8639 H   0  0  0  0  0  0  0  0  0  0  0  0  # atno 11005 bound_to 11000
  145.6278  141.0310  143.1879 LP  0  0  0  0  0  0  0  0  0  0  0  0  # atno 17320 bound_to 7965
  144.7271  139.7840  143.7361 LP  0  0  0  0  0  0  0  0  0  0  0  0  # atno 17321 bound_to 7965
  139.5050  144.6787  151.6064 LP  0  0  0  0  0  0  0  0  0  0  0  0  # atno 17342 bound_to 10162
  140.6050  143.9540  150.6412 LP  0  0  0  0  0  0  0  0  0  0  0  0  # atno 17343 bound_to 10162
  156.4937  130.8097  151.3105 LP  0  0  0  0  0  0  0  0  0  0  0  0  # atno 17370 bound_to 10713
  157.7457  130.9967  150.2789 LP  0  0  0  0  0  0  0  0  0  0  0  0  # atno 17371 bound_to 10713
  141.2140  133.6743  156.6792 LP  0  0  0  0  0  0  0  0  0  0  0  0  # atno 17394 bound_to 11000
  140.3031  134.8147  157.4114 LP  0  0  0  0  0  0  0  0  0  0  0  0  # atno 17395 bound_to 11000

$$$$
