AV-unprocessed.smi:2292|AV-procd|sdf|9213|dock3
  -GOLD-   2272012433D 1   1.00000     0.00000
 Structure written by MMmdl.
 33 34  0  0  0  0  0  0  0  0  1 V2000
  151.9464  145.9001  160.3596 C   0  0  0  0  0  0  0  0  0  0  0  0
  152.0031  144.5368  159.7028 C   0  0  0  0  0  0  0  0  0  0  0  0
  152.8085  143.5107  160.2330 C   0  0  0  0  0  0  0  0  0  0  0  0
  152.8153  142.2646  159.5761 C   0  0  0  0  0  0  0  0  0  0  0  0
  153.6602  141.1175  160.0891 C   0  0  0  0  0  0  0  0  0  0  0  0
  152.0875  142.0124  158.4671 N   0  0  0  0  0  0  0  0  0  0  0  0
  151.3082  142.9932  157.9475 C   0  0  0  0  0  0  0  0  0  0  0  0
  150.5087  142.8315  156.7849 N   0  0  0  0  0  0  0  0  0  0  0  0
  150.2761  141.7066  156.0856 C   0  0  0  0  0  0  0  0  0  0  0  0
  150.7158  140.5906  156.3641 O   0  0  0  0  0  0  0  0  0  0  0  0
  149.4866  141.9474  155.0290 N   0  0  0  0  0  0  0  0  0  0  0  0
  149.0470  140.9424  154.0699 C   0  0  0  0  0  0  0  0  0  0  0  0
  147.9879  139.9857  154.5838 C   0  0  0  0  0  0  0  0  0  0  0  0
  147.1786  139.1546  153.6156 C   0  0  0  0  0  0  0  0  0  0  0  0
  146.5161  140.2693  154.3874 C   0  0  0  0  0  0  0  0  0  0  0  0
  151.2460  144.2726  158.5437 C   0  0  0  0  0  0  0  0  0  0  0  0
  152.5539  145.9309  161.2646 H   0  0  0  0  0  0  0  0  0  0  0  0
  150.9195  146.1463  160.6305 H   0  0  0  0  0  0  0  0  0  0  0  0
  152.3147  146.6643  159.6749 H   0  0  0  0  0  0  0  0  0  0  0  0
  153.4051  143.6741  161.1187 H   0  0  0  0  0  0  0  0  0  0  0  0
  154.1500  141.3748  161.0289 H   0  0  0  0  0  0  0  0  0  0  0  0
  154.4308  140.8616  159.3617 H   0  0  0  0  0  0  0  0  0  0  0  0
  153.0415  140.2357  160.2588 H   0  0  0  0  0  0  0  0  0  0  0  0
  150.0623  143.6705  156.4458 H   0  0  0  0  0  0  0  0  0  0  0  0
  149.1708  142.8935  154.8735 H   0  0  0  0  0  0  0  0  0  0  0  0
  148.6945  141.4277  153.1581 H   0  0  0  0  0  0  0  0  0  0  0  0
  149.9218  140.3575  153.7851 H   0  0  0  0  0  0  0  0  0  0  0  0
  148.2639  139.4826  155.5088 H   0  0  0  0  0  0  0  0  0  0  0  0
  147.3435  139.3113  152.5513 H   0  0  0  0  0  0  0  0  0  0  0  0
  146.9420  138.1328  153.9056 H   0  0  0  0  0  0  0  0  0  0  0  0
  145.8413  139.9934  155.1950 H   0  0  0  0  0  0  0  0  0  0  0  0
  146.2415  141.1673  153.8372 H   0  0  0  0  0  0  0  0  0  0  0  0
  150.6218  145.0461  158.1194 H   0  0  0  0  0  0  0  0  0  0  0  0
  1  2  1  0  0  0  0
  1 17  1  0  0  0  0
  1 18  1  0  0  0  0
  1 19  1  0  0  0  0
  2 16  1  0  0  0  0
  2  3  2  0  0  0  0
  3  4  1  0  0  0  0
  3 20  1  0  0  0  0
  4  5  1  0  0  0  0
  4  6  2  0  0  0  0
  5 21  1  0  0  0  0
  5 22  1  0  0  0  0
  5 23  1  0  0  0  0
  6  7  1  0  0  0  0
  7  8  1  0  0  0  0
  7 16  2  0  0  0  0
  8  9  1  0  0  0  0
  8 24  1  0  0  0  0
  9 10  2  0  0  0  0
  9 11  1  0  0  0  0
 11 12  1  0  0  0  0
 11 25  1  0  0  0  0
 12 13  1  0  0  0  0
 12 26  1  0  0  0  0
 12 27  1  0  0  0  0
 13 15  1  0  0  0  0
 13 14  1  0  0  0  0
 13 28  1  0  0  0  0
 14 15  1  0  0  0  0
 14 29  1  0  0  0  0
 14 30  1  0  0  0  0
 15 31  1  0  0  0  0
 15 32  1  0  0  0  0
 16 33  1  0  0  0  0
M  END
> <s_m_source_file>
AV-unprocessed.smi

> <i_m_source_file_index>
2292

> <i_lp_mmshare_version>
43012

> <i_f3d_flags>
0

> <s_epik_input>
W0NIM11jMVtjSF1jKFtDSDNdKW5jKFtjSF0xKVtOSF1DKD1PKVtOSF1bQ0gyXVtDSF0yW0NIMl1bQ0gyXTI=

> <s_epik_cmdline>
J2VwaWtfcHl0aG9uJywgJy1waCcsICc3LjAnLCAnLXRuJywgJzgnLCAnLW1hJywgJzIwMCcsICctbWV0YWxfYmluZGluZycsICctaW1hZScsICc8aW5maWxlLm1hZT4nLCAnLW9tYWUnLCAnPG91dGZpbGUubWFlPic=

> <r_lp_tautomer_probability>
1

> <r_epik_Ionization_Penalty>
0.000259455

> <r_epik_Ionization_Penalty_Charging>
0

> <r_epik_Ionization_Penalty_Neutral>
0.000259455

> <r_epik_State_Penalty>
-0

> <r_epik_Charging_Adjusted_Penalty>
0

> <i_epik_Tot_Q>
0

> <i_epik_Tot_abs_Q>
0

> <r_epik_Metal_State_Penalty>
-0

> <b_epik_Metal_Only>
0

> <s_lp_Force_Field>
OPLS_2005

> <r_lp_Energy>
13.7347

> <b_lp_Chiralities_Consistent>
1

> <s_lp_Variant>
AV-unprocessed.smi:2292-1

> <Gold.Version>
5.8.1

> <Gold.Id.Protein>
6NUR|6NUR_protein|mol2

> <Gold.PLP.Fitness>
41.9341

> <Gold.PLP.PLP>
-36.2476

> <Gold.PLP.part.hbond>
-2.0000

> <Gold.PLP.part.metal>
0.0000

> <Gold.PLP.part.buried>
-4.1046

> <Gold.PLP.part.nonpolar>
-31.3201

> <Gold.PLP.part.repulsive>
0.2770

> <Gold.PLP.ligand.clash>
0.0000

> <Gold.PLP.ligand.torsion>
0.3659

> <Gold.PLP.Chemscore.Hbond>
1.9600

> <Gold.PLP.Chemscore.CHOScore>
0.0000

> <Gold.PLP.Chemscore.Metal>
0.0000

> <Gold.Chemscore.Hbonds>
donor molecule, donor type, donor heavy atom, donor atom, acceptor molecule, acceptor atom, score
      L1  H     8    24       P1  8028  1.00
      L1  H    11    25       P1  8028  0.96

> <Gold.PLP.Chemscore.Internal.Correction>
0.5383

> <Gold.Rescore>
     Score         DG    S(hbond)    S(metal)    S(lipo)     H(rot)  DE(clash)    DE(int)     intcor
     18.22     -19.91       1.94        0.00      93.63       1.17       0.04       1.65       ----

> <Gold.Chemscore.Fitness>
18.2249

> <Gold.Chemscore.DG>
-19.9125

> <Gold.Chemscore.ZeroCoef>
-5.4800

> <Gold.Chemscore.Hbond>
1.9387

> <Gold.Chemscore.Metal>
0.0000

> <Gold.Chemscore.Lipo>
93.6308

> <Gold.Chemscore.Internal_Hbond>
0.0000

> <Gold.Chemscore.DEClash>
0.0414

> <Gold.Chemscore.DEInternal>
1.6461

> <Gold.Chemscore.Rot>
1.1709

> <Gold.Chemscore.Internal.Correction>
   9.000000E+99

> <Gold.Chemscore.Hbonds>
donor molecule, donor type, donor heavy atom, donor atom, acceptor molecule, acceptor atom, score
      L1  H     8    24       P1  8028  1.00
      L1  H    11    25       P1  8028  0.89

> <Gold.Chemscore.Hbond.Weighted>
-6.4752

> <Gold.Chemscore.Metal.Weighted>
-0.0000

> <Gold.Chemscore.Lipo.Weighted>
-10.9548

> <Gold.Chemscore.Internal_Hbond.Weighted>
0.0000

> <Gold.Chemscore.DEClash.Weighted>
0.0414

> <Gold.Chemscore.DEInternal.Weighted>
1.6461

> <Gold.Chemscore.Rot.Weighted>
2.9975

> <Gold.Chemscore.Internal.Correction.Weighted>
   9.000000E+99

> <Gold.Protein.RotatedTorsions>
[ 6907 6896 6895 6894 ] final  -15.67 input  -60.11 | X-H torsion
[ 7974 7965 7964 7962 ] final  -85.85 input  175.53 | X-H torsion
[ 8008 7997 7996 7995 ] final  176.96 input   59.86 | X-H torsion
[ 10167 10162 10161 10158 ] final  -69.80 input  -65.29 | X-H torsion
[ 10718 10713 10712 10709 ] final   60.01 input   66.30 | X-H torsion
[ 10763 10752 10751 10750 ] final -130.61 input  -60.55 | X-H torsion
[ 11005 11000 10999 10996 ] final  158.15 input  -57.11 | X-H torsion

> <Gold.Protein.ActiveResidues>
 VAL166  LYS551  ARG553  GLY616  TRP617  ASP618  TYR619  PRO620  LYS621  CYS622 
 ASP623  PHE694  ASN695  SER759  ASP760  ASP761  ALA762  ILE779  LEU786  VAL792 
 PHE793  MET794  SER795  GLU796  ALA797  LYS798  CYS799  TRP800  GLU811  SER814 

> <Gold.Protein.RotatedAtoms>
  151.3204  135.0817  159.9303 H   0  0  0  0  0  0  0  0  0  0  0  0  # atno 6907 bound_to 6896
  152.5258  133.9645  159.7743 H   0  0  0  0  0  0  0  0  0  0  0  0  # atno 6908 bound_to 6896
  150.9965  133.6046  159.2731 H   0  0  0  0  0  0  0  0  0  0  0  0  # atno 6909 bound_to 6896
  145.4878  140.9554  143.1829 H   0  0  0  0  0  0  0  0  0  0  0  0  # atno 7974 bound_to 7965
  156.0708  140.1370  156.9831 H   0  0  0  0  0  0  0  0  0  0  0  0  # atno 8008 bound_to 7997
  154.4531  140.0972  156.6727 H   0  0  0  0  0  0  0  0  0  0  0  0  # atno 8009 bound_to 7997
  155.5231  140.3457  155.4413 H   0  0  0  0  0  0  0  0  0  0  0  0  # atno 8010 bound_to 7997
  140.5402  143.2315  151.7103 H   0  0  0  0  0  0  0  0  0  0  0  0  # atno 10167 bound_to 10162
  157.5720  130.8915  149.9283 H   0  0  0  0  0  0  0  0  0  0  0  0  # atno 10718 bound_to 10713
  154.8755  135.3857  154.4112 H   0  0  0  0  0  0  0  0  0  0  0  0  # atno 10763 bound_to 10752
  153.4825  135.7030  153.5935 H   0  0  0  0  0  0  0  0  0  0  0  0  # atno 10764 bound_to 10752
  153.4344  135.3871  155.2157 H   0  0  0  0  0  0  0  0  0  0  0  0  # atno 10765 bound_to 10752
  140.1838  134.8457  157.2833 H   0  0  0  0  0  0  0  0  0  0  0  0  # atno 11005 bound_to 11000
  144.7851  139.6443  143.7137 LP  0  0  0  0  0  0  0  0  0  0  0  0  # atno 17320 bound_to 7965
  146.2302  139.5800  142.9560 LP  0  0  0  0  0  0  0  0  0  0  0  0  # atno 17321 bound_to 7965
  139.4986  144.3980  152.0211 LP  0  0  0  0  0  0  0  0  0  0  0  0  # atno 17342 bound_to 10162
  140.3089  144.3561  150.6039 LP  0  0  0  0  0  0  0  0  0  0  0  0  # atno 17343 bound_to 10162
  156.0765  130.3678  150.0666 LP  0  0  0  0  0  0  0  0  0  0  0  0  # atno 17370 bound_to 10713
  156.8818  130.9559  151.3598 LP  0  0  0  0  0  0  0  0  0  0  0  0  # atno 17371 bound_to 10713
  140.2237  134.3992  155.7553 LP  0  0  0  0  0  0  0  0  0  0  0  0  # atno 17394 bound_to 11000
  141.2224  133.7179  156.8532 LP  0  0  0  0  0  0  0  0  0  0  0  0  # atno 17395 bound_to 11000

$$$$
