AV-unprocessed.smi:740|AV-procd|sdf|3546|dock7
  -GOLD-   22720 0543D 1   1.00000     0.00000
 Structure written by MMmdl.
 44 46  0  0  0  0  0  0  0  0  1 V2000
  152.8282  143.8778  162.0565 C   0  0  0  0  0  0  0  0  0  0  0  0
  152.5078  143.1270  160.7761 C   0  0  0  0  0  0  0  0  0  0  0  0
  152.7515  141.7364  160.7159 C   0  0  0  0  0  0  0  0  0  0  0  0
  152.4718  141.0019  159.5430 C   0  0  0  0  0  0  0  0  0  0  0  0
  152.6324  139.6548  159.2674 N   0  0  0  0  0  0  0  0  0  0  0  0
  152.2016  139.5857  158.0112 C   0  0  0  0  0  0  0  0  0  0  0  0
  151.7792  140.7297  157.4400 N   0  0  0  0  0  0  0  0  0  0  0  0
  151.2777  140.8932  156.0874 C   0  0  0  0  0  0  0  0  0  0  0  0
  150.9480  139.5454  155.4175 C   0  0  2  0  0  0  0  0  0  0  0  0
  150.4324  139.7977  154.1242 O   0  0  0  0  0  0  0  0  0  0  0  0
  149.9011  138.7490  156.2232 C   0  0  0  0  0  0  0  0  0  0  0  0
  149.7632  137.3723  155.7340 N   0  0  0  0  0  0  0  0  0  0  0  0
  150.7809  136.5064  155.6326 C   0  0  0  0  0  0  0  0  0  0  0  0
  151.9540  136.7226  155.9353 O   0  0  0  0  0  0  0  0  0  0  0  0
  150.3097  135.1729  155.0696 C   0  0  0  0  0  0  0  0  0  0  0  0
  148.8051  135.3932  154.8526 C   0  0  1  0  0  0  0  0  0  0  0  0
  147.9168  134.4112  155.6342 C   0  0  0  0  0  0  0  0  0  0  0  0
  148.6075  136.8341  155.3194 C   0  0  0  0  0  0  0  0  0  0  0  0
  147.5115  137.3946  155.3002 O   0  0  0  0  0  0  0  0  0  0  0  0
  151.9373  141.7021  158.4219 C   0  0  0  0  0  0  0  0  0  0  0  0
  151.6884  143.0852  158.4702 C   0  0  0  0  0  0  0  0  0  0  0  0
  151.9737  143.8039  159.6502 C   0  0  0  0  0  0  0  0  0  0  0  0
  151.7035  145.2974  159.6918 C   0  0  0  0  0  0  0  0  0  0  0  0
  153.1953  143.2045  162.8318 H   0  0  0  0  0  0  0  0  0  0  0  0
  151.9386  144.3766  162.4418 H   0  0  0  0  0  0  0  0  0  0  0  0
  153.5964  144.6297  161.8748 H   0  0  0  0  0  0  0  0  0  0  0  0
  153.1591  141.2200  161.5724 H   0  0  0  0  0  0  0  0  0  0  0  0
  152.1951  138.6496  157.4721 H   0  0  0  0  0  0  0  0  0  0  0  0
  150.3846  141.5182  156.1332 H   0  0  0  0  0  0  0  0  0  0  0  0
  152.0138  141.4462  155.5025 H   0  0  0  0  0  0  0  0  0  0  0  0
  151.8680  138.9673  155.3193 H   0  0  0  0  0  0  0  0  0  0  0  0
  149.4955  139.9031  154.1885 H   0  0  0  0  0  0  0  0  0  0  0  0
  150.2058  138.7044  157.2703 H   0  0  0  0  0  0  0  0  0  0  0  0
  148.9411  139.2688  156.2292 H   0  0  0  0  0  0  0  0  0  0  0  0
  150.8251  134.9523  154.1342 H   0  0  0  0  0  0  0  0  0  0  0  0
  150.5180  134.3708  155.7787 H   0  0  0  0  0  0  0  0  0  0  0  0
  148.5697  135.3362  153.7891 H   0  0  0  0  0  0  0  0  0  0  0  0
  146.8591  134.6018  155.4484 H   0  0  0  0  0  0  0  0  0  0  0  0
  148.0858  134.4846  156.7093 H   0  0  0  0  0  0  0  0  0  0  0  0
  148.1212  133.3825  155.3365 H   0  0  0  0  0  0  0  0  0  0  0  0
  151.2848  143.5889  157.6044 H   0  0  0  0  0  0  0  0  0  0  0  0
  151.3068  145.6571  158.7418 H   0  0  0  0  0  0  0  0  0  0  0  0
  152.6218  145.8465  159.9003 H   0  0  0  0  0  0  0  0  0  0  0  0
  150.9751  145.5318  160.4683 H   0  0  0  0  0  0  0  0  0  0  0  0
  1  2  1  0  0  0  0
  1 24  1  0  0  0  0
  1 25  1  0  0  0  0
  1 26  1  0  0  0  0
  2 22  1  0  0  0  0
  2  3  2  0  0  0  0
  3  4  1  0  0  0  0
  3 27  1  0  0  0  0
  4 20  2  0  0  0  0
  4  5  1  0  0  0  0
  5  6  2  0  0  0  0
  6  7  1  0  0  0  0
  6 28  1  0  0  0  0
  7  8  1  0  0  0  0
  7 20  1  0  0  0  0
  8  9  1  0  0  0  0
  8 29  1  0  0  0  0
  8 30  1  0  0  0  0
  9 10  1  0  0  0  0
  9 11  1  0  0  0  0
  9 31  1  0  0  0  0
 10 32  1  0  0  0  0
 11 12  1  0  0  0  0
 11 33  1  0  0  0  0
 11 34  1  0  0  0  0
 12 18  1  0  0  0  0
 12 13  1  0  0  0  0
 13 14  2  0  0  0  0
 13 15  1  0  0  0  0
 15 16  1  0  0  0  0
 15 35  1  0  0  0  0
 15 36  1  0  0  0  0
 16 17  1  0  0  0  0
 16 18  1  0  0  0  0
 16 37  1  0  0  0  0
 17 38  1  0  0  0  0
 17 39  1  0  0  0  0
 17 40  1  0  0  0  0
 18 19  2  0  0  0  0
 20 21  1  0  0  0  0
 21 22  2  0  0  0  0
 21 41  1  0  0  0  0
 22 23  1  0  0  0  0
 23 42  1  0  0  0  0
 23 43  1  0  0  0  0
 23 44  1  0  0  0  0
M  END
> <s_m_source_file>
AV-unprocessed.smi

> <i_m_source_file_index>
740

> <i_lp_mmshare_version>
43012

> <i_f3d_flags>
0

> <s_epik_input>
W0NIM11jKFtjSF0xKWMoW0NIM10pW2NIXWMoYzEyKW4oW2NIXW4yKVtDSDJdW0NASF0oW09IXSlbQ0gyXU4zQyg9TylbQ0gyXVtDQEBIXShbQ0gzXSlDMz1P

> <s_epik_cmdline>
J2VwaWtfcHl0aG9uJywgJy1waCcsICc3LjAnLCAnLXRuJywgJzgnLCAnLW1hJywgJzIwMCcsICctbWV0YWxfYmluZGluZycsICctaW1hZScsICc8aW5maWxlLm1hZT4nLCAnLW9tYWUnLCAnPG91dGZpbGUubWFlPic=

> <r_lp_tautomer_probability>
1

> <r_epik_Ionization_Penalty>
0.104021

> <r_epik_Ionization_Penalty_Charging>
0

> <r_epik_Ionization_Penalty_Neutral>
0.104021

> <r_epik_State_Penalty>
0.0939354

> <r_epik_Charging_Adjusted_Penalty>
0.0939354

> <i_epik_Tot_Q>
0

> <i_epik_Tot_abs_Q>
0

> <r_epik_Metal_State_Penalty>
0.000101783

> <b_epik_Metal_Only>
0

> <s_lp_Force_Field>
OPLS_2005

> <r_lp_Energy>
16.4677

> <b_lp_Chiralities_Consistent>
1

> <s_lp_Variant>
AV-unprocessed.smi:740-1

> <Gold.Version>
5.8.1

> <Gold.Id.Protein>
6NUR|6NUR_protein|mol2

> <Gold.PLP.Fitness>
47.8377

> <Gold.PLP.PLP>
-42.2772

> <Gold.PLP.part.hbond>
-2.8660

> <Gold.PLP.part.metal>
0.0000

> <Gold.PLP.part.buried>
-5.1715

> <Gold.PLP.part.nonpolar>
-33.9882

> <Gold.PLP.part.repulsive>
0.0842

> <Gold.PLP.ligand.clash>
0.0000

> <Gold.PLP.ligand.torsion>
0.2275

> <Gold.PLP.Chemscore.Hbond>
2.0000

> <Gold.PLP.Chemscore.CHOScore>
0.0000

> <Gold.PLP.Chemscore.Metal>
0.0000

> <Gold.Chemscore.Hbonds>
donor molecule, donor type, donor heavy atom, donor atom, acceptor molecule, acceptor atom, score
      P1  H  7989  7998       L1    10  1.00
      P1  H 10752 10763       L1    14  1.00

> <Gold.PLP.Chemscore.Internal.Correction>
0.0155

> <Gold.Rescore>
     Score         DG    S(hbond)    S(metal)    S(lipo)     H(rot)  DE(clash)    DE(int)     intcor
     15.32     -16.88       1.36        0.00     109.23       2.31       0.10       1.46       ----

> <Gold.Chemscore.Fitness>
15.3170

> <Gold.Chemscore.DG>
-16.8832

> <Gold.Chemscore.ZeroCoef>
-5.4800

> <Gold.Chemscore.Hbond>
1.3620

> <Gold.Chemscore.Metal>
0.0000

> <Gold.Chemscore.Lipo>
109.2282

> <Gold.Chemscore.Internal_Hbond>
0.0000

> <Gold.Chemscore.DEClash>
0.1049

> <Gold.Chemscore.DEInternal>
1.4614

> <Gold.Chemscore.Rot>
2.3147

> <Gold.Chemscore.Internal.Correction>
   9.000000E+99

> <Gold.Chemscore.Hbonds>
donor molecule, donor type, donor heavy atom, donor atom, acceptor molecule, acceptor atom, score
      P1  H  7989  7998       L1    10  0.34
      P1  H 10752 10763       L1    14  0.48

> <Gold.Chemscore.Hbond.Weighted>
-4.5491

> <Gold.Chemscore.Metal.Weighted>
-0.0000

> <Gold.Chemscore.Lipo.Weighted>
-12.7797

> <Gold.Chemscore.Internal_Hbond.Weighted>
0.0000

> <Gold.Chemscore.DEClash.Weighted>
0.1049

> <Gold.Chemscore.DEInternal.Weighted>
1.4614

> <Gold.Chemscore.Rot.Weighted>
5.9256

> <Gold.Chemscore.Internal.Correction.Weighted>
   9.000000E+99

> <Gold.Protein.RotatedTorsions>
[ 6907 6896 6895 6894 ] final -139.63 input  -60.11 | X-H torsion
[ 7974 7965 7964 7962 ] final    6.43 input  175.53 | X-H torsion
[ 8008 7997 7996 7995 ] final  -17.23 input   59.86 | X-H torsion
[ 10167 10162 10161 10158 ] final    8.85 input  -65.29 | X-H torsion
[ 10718 10713 10712 10709 ] final -169.74 input   66.30 | X-H torsion
[ 10763 10752 10751 10750 ] final   70.25 input  -60.55 | X-H torsion
[ 11005 11000 10999 10996 ] final -161.23 input  -57.11 | X-H torsion

> <Gold.Protein.ActiveResidues>
 VAL166  LYS551  ARG553  GLY616  TRP617  ASP618  TYR619  PRO620  LYS621  CYS622 
 ASP623  PHE694  ASN695  SER759  ASP760  ASP761  ALA762  ILE779  LEU786  VAL792 
 PHE793  MET794  SER795  GLU796  ALA797  LYS798  CYS799  TRP800  GLU811  SER814 

> <Gold.Protein.RotatedAtoms>
  151.0503  133.5630  159.2642 H   0  0  0  0  0  0  0  0  0  0  0  0  # atno 6907 bound_to 6896
  151.2643  135.0663  159.9120 H   0  0  0  0  0  0  0  0  0  0  0  0  # atno 6908 bound_to 6896
  152.5380  134.0244  159.8050 H   0  0  0  0  0  0  0  0  0  0  0  0  # atno 6909 bound_to 6896
  146.2435  140.0234  142.8396 H   0  0  0  0  0  0  0  0  0  0  0  0  # atno 7974 bound_to 7965
  154.4993  140.2148  155.9379 H   0  0  0  0  0  0  0  0  0  0  0  0  # atno 8008 bound_to 7997
  156.1413  140.3179  155.8467 H   0  0  0  0  0  0  0  0  0  0  0  0  # atno 8009 bound_to 7997
  155.4115  140.0491  157.3022 H   0  0  0  0  0  0  0  0  0  0  0  0  # atno 8010 bound_to 7997
  140.6290  143.8037  150.7270 H   0  0  0  0  0  0  0  0  0  0  0  0  # atno 10167 bound_to 10162
  156.7159  130.9251  151.3093 H   0  0  0  0  0  0  0  0  0  0  0  0  # atno 10718 bound_to 10713
  153.0331  135.5180  154.7413 H   0  0  0  0  0  0  0  0  0  0  0  0  # atno 10763 bound_to 10752
  154.6411  135.2912  155.0104 H   0  0  0  0  0  0  0  0  0  0  0  0  # atno 10764 bound_to 10752
  154.1022  135.6634  153.4922 H   0  0  0  0  0  0  0  0  0  0  0  0  # atno 10765 bound_to 10752
  140.6227  134.4733  157.5224 H   0  0  0  0  0  0  0  0  0  0  0  0  # atno 11005 bound_to 11000
  145.1220  140.9468  143.4595 LP  0  0  0  0  0  0  0  0  0  0  0  0  # atno 17320 bound_to 7965
  145.0472  139.3211  143.5947 LP  0  0  0  0  0  0  0  0  0  0  0  0  # atno 17321 bound_to 7965
  140.1644  143.4248  152.2045 LP  0  0  0  0  0  0  0  0  0  0  0  0  # atno 17342 bound_to 10162
  139.5506  144.7334  151.4446 LP  0  0  0  0  0  0  0  0  0  0  0  0  # atno 17343 bound_to 10162
  157.6917  130.9240  150.0533 LP  0  0  0  0  0  0  0  0  0  0  0  0  # atno 17370 bound_to 10713
  156.1628  130.3644  149.9275 LP  0  0  0  0  0  0  0  0  0  0  0  0  # atno 17371 bound_to 10713
  139.9147  134.8271  156.1407 LP  0  0  0  0  0  0  0  0  0  0  0  0  # atno 17394 bound_to 11000
  141.0731  133.6788  156.2181 LP  0  0  0  0  0  0  0  0  0  0  0  0  # atno 17395 bound_to 11000

$$$$
