AV-unprocessed.smi:13|AV-procd|sdf|71|dock4
  -GOLD-   2262015193D 1   1.00000     0.00000
 Structure written by MMmdl.
 54 58  0  0  0  0  0  0  0  0  1 V2000
  150.3095  144.3204  159.7316 C   0  0  0  0  0  0  0  0  0  0  0  0
  151.6387  143.8662  159.1291 C   0  0  0  0  0  0  0  0  0  0  0  0
  151.8269  144.6611  157.8294 C   0  0  0  0  0  0  0  0  0  0  0  0
  152.8455  143.8904  160.0796 C   0  0  0  0  0  0  0  0  0  0  0  0
  153.2352  142.6165  159.5015 N   0  0  0  0  0  0  0  0  0  0  0  0
  153.8587  141.7298  160.4266 C   0  0  0  0  0  0  0  0  0  0  0  0
  154.0552  142.0972  161.7212 N   0  0  0  0  0  0  0  0  0  0  0  0
  154.6295  141.2669  162.5958 C   0  0  0  0  0  0  0  0  0  0  0  0
  155.0807  140.0284  162.3957 N   0  0  0  0  0  0  0  0  0  0  0  0
  154.8849  139.6407  161.1040 C   0  0  0  0  0  0  0  0  0  0  0  0
  154.2853  140.4181  160.0725 C   0  0  0  0  0  0  0  0  0  0  0  0
  154.2471  139.6853  158.8923 N   0  0  0  0  0  0  0  0  0  0  0  0
  154.7987  138.5450  159.2056 C   0  0  0  0  0  0  0  0  0  0  0  0
  155.2191  138.4354  160.5116 N   0  0  0  0  0  0  0  0  0  0  0  0
  155.8690  137.2855  161.1216 C   0  0  0  0  0  0  0  0  0  0  0  0
  154.8840  136.3430  161.8513 C   0  0  1  0  0  0  0  0  0  0  0  0
  154.0751  135.6880  160.8890 O   0  0  0  0  0  0  0  0  0  0  0  0
  155.5594  135.2842  162.7180 C   0  0  0  0  0  0  0  0  0  0  0  0
  154.5609  135.0837  163.8491 C   0  0  0  0  0  0  0  0  0  0  0  0
  154.1066  136.4033  164.0958 O   0  0  0  0  0  0  0  0  0  0  0  0
  153.9607  137.0729  162.8474 C   0  0  0  0  0  0  0  0  0  0  0  0
  151.8663  142.3360  159.0821 C   0  0  2  0  0  0  0  0  0  0  0  0
  151.7987  141.5524  157.7667 C   0  0  2  0  0  0  0  0  0  0  0  0
  150.4981  141.7603  156.9893 C   0  0  0  0  0  0  0  0  0  0  0  0
  150.3387  140.4762  156.1889 C   0  0  0  0  0  0  0  0  0  0  0  0
  151.3647  139.5227  156.8043 C   0  0  0  0  0  0  0  0  0  0  0  0
  151.7689  140.1548  158.0088 O   0  0  0  0  0  0  0  0  0  0  0  0
  150.3089  145.3905  159.9412 H   0  0  0  0  0  0  0  0  0  0  0  0
  150.1018  143.8082  160.6716 H   0  0  0  0  0  0  0  0  0  0  0  0
  149.4750  144.1131  159.0609 H   0  0  0  0  0  0  0  0  0  0  0  0
  152.7342  144.3655  157.3018 H   0  0  0  0  0  0  0  0  0  0  0  0
  151.9102  145.7300  158.0284 H   0  0  0  0  0  0  0  0  0  0  0  0
  150.9921  144.5239  157.1426 H   0  0  0  0  0  0  0  0  0  0  0  0
  153.5574  144.6953  159.8941 H   0  0  0  0  0  0  0  0  0  0  0  0
  152.5719  143.8140  161.1339 H   0  0  0  0  0  0  0  0  0  0  0  0
  154.7424  141.6507  163.5991 H   0  0  0  0  0  0  0  0  0  0  0  0
  154.9214  137.7487  158.4859 H   0  0  0  0  0  0  0  0  0  0  0  0
  156.4017  136.7403  160.3413 H   0  0  0  0  0  0  0  0  0  0  0  0
  156.6301  137.6481  161.8138 H   0  0  0  0  0  0  0  0  0  0  0  0
  154.6273  135.1265  160.3664 H   0  0  0  0  0  0  0  0  0  0  0  0
  155.8003  134.3636  162.1848 H   0  0  0  0  0  0  0  0  0  0  0  0
  156.4855  135.6760  163.1394 H   0  0  0  0  0  0  0  0  0  0  0  0
  153.7259  134.4577  163.5310 H   0  0  0  0  0  0  0  0  0  0  0  0
  155.0104  134.6390  164.7371 H   0  0  0  0  0  0  0  0  0  0  0  0
  154.2320  138.1216  162.9730 H   0  0  0  0  0  0  0  0  0  0  0  0
  152.9149  137.0428  162.5372 H   0  0  0  0  0  0  0  0  0  0  0  0
  151.2984  141.8588  159.8835 H   0  0  0  0  0  0  0  0  0  0  0  0
  152.6510  141.7797  157.1236 H   0  0  0  0  0  0  0  0  0  0  0  0
  149.6604  141.8649  157.6803 H   0  0  0  0  0  0  0  0  0  0  0  0
  150.5203  142.6461  156.3556 H   0  0  0  0  0  0  0  0  0  0  0  0
  149.3245  140.0870  156.2832 H   0  0  0  0  0  0  0  0  0  0  0  0
  150.5424  140.6318  155.1290 H   0  0  0  0  0  0  0  0  0  0  0  0
  150.9551  138.5308  156.9967 H   0  0  0  0  0  0  0  0  0  0  0  0
  152.2300  139.4135  156.1490 H   0  0  0  0  0  0  0  0  0  0  0  0
  1  2  1  0  0  0  0
  1 28  1  0  0  0  0
  1 29  1  0  0  0  0
  1 30  1  0  0  0  0
  2 22  1  0  0  0  0
  2  3  1  0  0  0  0
  2  4  1  0  0  0  0
  3 31  1  0  0  0  0
  3 32  1  0  0  0  0
  3 33  1  0  0  0  0
  4  5  1  0  0  0  0
  4 34  1  0  0  0  0
  4 35  1  0  0  0  0
  5  6  1  0  0  0  0
  5 22  1  0  0  0  0
  6 11  1  0  0  0  0
  6  7  2  0  0  0  0
  7  8  1  0  0  0  0
  8  9  2  0  0  0  0
  8 36  1  0  0  0  0
  9 10  1  0  0  0  0
 10 14  1  0  0  0  0
 10 11  2  0  0  0  0
 11 12  1  0  0  0  0
 12 13  2  0  0  0  0
 13 14  1  0  0  0  0
 13 37  1  0  0  0  0
 14 15  1  0  0  0  0
 15 16  1  0  0  0  0
 15 38  1  0  0  0  0
 15 39  1  0  0  0  0
 16 21  1  0  0  0  0
 16 17  1  0  0  0  0
 16 18  1  0  0  0  0
 17 40  1  0  0  0  0
 18 19  1  0  0  0  0
 18 41  1  0  0  0  0
 18 42  1  0  0  0  0
 19 20  1  0  0  0  0
 19 43  1  0  0  0  0
 19 44  1  0  0  0  0
 20 21  1  0  0  0  0
 21 45  1  0  0  0  0
 21 46  1  0  0  0  0
 22 23  1  0  0  0  0
 22 47  1  0  0  0  0
 23 27  1  0  0  0  0
 23 24  1  0  0  0  0
 23 48  1  0  0  0  0
 24 25  1  0  0  0  0
 24 49  1  0  0  0  0
 24 50  1  0  0  0  0
 25 26  1  0  0  0  0
 25 51  1  0  0  0  0
 25 52  1  0  0  0  0
 26 27  1  0  0  0  0
 26 53  1  0  0  0  0
 26 54  1  0  0  0  0
M  END
> <s_m_source_file>
AV-unprocessed.smi

> <i_m_source_file_index>
13

> <i_lp_mmshare_version>
43012

> <i_f3d_flags>
0

> <s_epik_input>
TzFbQ0gyXVtDSDJdW0NIMl1bQ0BIXTFbQ0BASF0yTihbQ0gyXUMyKFtDSDNdKVtDSDNdKWMobltjSF1uMyljKGMzNCluW2NIXW40W0NIMl1bQ0BAXTUoW09IXSlbQ0gyXVtDSDJdT1tDSDJdNQ==

> <s_epik_cmdline>
J2VwaWtfcHl0aG9uJywgJy1waCcsICc3LjAnLCAnLXRuJywgJzgnLCAnLW1hJywgJzIwMCcsICctbWV0YWxfYmluZGluZycsICctaW1hZScsICc8aW5maWxlLm1hZT4nLCAnLW9tYWUnLCAnPG91dGZpbGUubWFlPic=

> <r_lp_tautomer_probability>
1

> <r_epik_Ionization_Penalty>
0.00202764

> <r_epik_Ionization_Penalty_Charging>
0

> <r_epik_Ionization_Penalty_Neutral>
0.00202764

> <r_epik_State_Penalty>
0.00134017

> <r_epik_Charging_Adjusted_Penalty>
0.00134017

> <i_epik_Tot_Q>
0

> <i_epik_Tot_abs_Q>
0

> <r_epik_Metal_State_Penalty>
-0

> <b_epik_Metal_Only>
0

> <s_lp_Force_Field>
OPLS_2005

> <r_lp_Energy>
61.7559

> <b_lp_Chiralities_Consistent>
1

> <s_lp_Variant>
AV-unprocessed.smi:13-3

> <Gold.Version>
5.8.1

> <Gold.Id.Protein>
6NUR|6NUR_protein|mol2

> <Gold.PLP.Fitness>
49.5364

> <Gold.PLP.PLP>
-45.1884

> <Gold.PLP.part.hbond>
-2.8525

> <Gold.PLP.part.metal>
0.0000

> <Gold.PLP.part.buried>
-6.1807

> <Gold.PLP.part.nonpolar>
-36.0438

> <Gold.PLP.part.repulsive>
0.0672

> <Gold.PLP.ligand.clash>
0.0000

> <Gold.PLP.ligand.torsion>
0.9522

> <Gold.PLP.Chemscore.Hbond>
1.9417

> <Gold.PLP.Chemscore.CHOScore>
0.0000

> <Gold.PLP.Chemscore.Metal>
0.0000

> <Gold.Chemscore.Hbonds>
donor molecule, donor type, donor heavy atom, donor atom, acceptor molecule, acceptor atom, score
      P1  H  6896  6909       L1    17  0.45
      P1  H  7997  8008       L1    12  1.00

> <Gold.PLP.Chemscore.Internal.Correction>
0.4273

> <Gold.Rescore>
     Score         DG    S(hbond)    S(metal)    S(lipo)     H(rot)  DE(clash)    DE(int)     intcor
     16.13     -18.83       1.76        0.00     114.21       2.30       0.28       2.43       ----

> <Gold.Chemscore.Fitness>
16.1279

> <Gold.Chemscore.DG>
-18.8344

> <Gold.Chemscore.ZeroCoef>
-5.4800

> <Gold.Chemscore.Hbond>
1.7600

> <Gold.Chemscore.Metal>
0.0000

> <Gold.Chemscore.Lipo>
114.2133

> <Gold.Chemscore.Internal_Hbond>
0.0000

> <Gold.Chemscore.DEClash>
0.2798

> <Gold.Chemscore.DEInternal>
2.4267

> <Gold.Chemscore.Rot>
2.2996

> <Gold.Chemscore.Internal.Correction>
   9.000000E+99

> <Gold.Chemscore.Hbonds>
donor molecule, donor type, donor heavy atom, donor atom, acceptor molecule, acceptor atom, score
      P1  H  6896  6909       L1    17  0.02
      P1  H  7997  8008       L1    12  0.25

> <Gold.Chemscore.Hbond.Weighted>
-5.8784

> <Gold.Chemscore.Metal.Weighted>
-0.0000

> <Gold.Chemscore.Lipo.Weighted>
-13.3630

> <Gold.Chemscore.Internal_Hbond.Weighted>
0.0000

> <Gold.Chemscore.DEClash.Weighted>
0.2798

> <Gold.Chemscore.DEInternal.Weighted>
2.4267

> <Gold.Chemscore.Rot.Weighted>
5.8869

> <Gold.Chemscore.Internal.Correction.Weighted>
   9.000000E+99

> <Gold.Protein.RotatedTorsions>
[ 6907 6896 6895 6894 ] final  168.93 input  -60.11 | X-H torsion
[ 7974 7965 7964 7962 ] final   62.95 input  175.53 | X-H torsion
[ 8008 7997 7996 7995 ] final -119.78 input   59.86 | X-H torsion
[ 10167 10162 10161 10158 ] final -143.23 input  -65.29 | X-H torsion
[ 10718 10713 10712 10709 ] final -126.77 input   66.30 | X-H torsion
[ 10763 10752 10751 10750 ] final -144.70 input  -60.55 | X-H torsion
[ 11005 11000 10999 10996 ] final    9.27 input  -57.11 | X-H torsion

> <Gold.Protein.ActiveResidues>
 VAL166  LYS551  ARG553  GLY616  TRP617  ASP618  TYR619  PRO620  LYS621  CYS622 
 ASP623  PHE694  ASN695  SER759  ASP760  ASP761  ALA762  ILE779  LEU786  VAL792 
 PHE793  MET794  SER795  GLU796  ALA797  LYS798  CYS799  TRP800  GLU811  SER814 

> <Gold.Protein.RotatedAtoms>
  151.8399  133.3422  159.3639 H   0  0  0  0  0  0  0  0  0  0  0  0  # atno 6907 bound_to 6896
  150.7238  134.5401  159.5752 H   0  0  0  0  0  0  0  0  0  0  0  0  # atno 6908 bound_to 6896
  152.2872  134.7763  160.0436 H   0  0  0  0  0  0  0  0  0  0  0  0  # atno 6909 bound_to 6896
  145.8675  139.3356  143.0782 H   0  0  0  0  0  0  0  0  0  0  0  0  # atno 7974 bound_to 7965
  155.1213  140.0398  157.2750 H   0  0  0  0  0  0  0  0  0  0  0  0  # atno 8008 bound_to 7997
  154.6611  140.2591  155.7082 H   0  0  0  0  0  0  0  0  0  0  0  0  # atno 8009 bound_to 7997
  156.2619  140.2816  156.1084 H   0  0  0  0  0  0  0  0  0  0  0  0  # atno 8010 bound_to 7997
  139.8013  143.7829  152.2658 H   0  0  0  0  0  0  0  0  0  0  0  0  # atno 10167 bound_to 10162
  156.1796  130.6723  151.0287 H   0  0  0  0  0  0  0  0  0  0  0  0  # atno 10718 bound_to 10713
  154.8416  135.3433  154.6388 H   0  0  0  0  0  0  0  0  0  0  0  0  # atno 10763 bound_to 10752
  153.6999  135.6970  153.5070 H   0  0  0  0  0  0  0  0  0  0  0  0  # atno 10764 bound_to 10752
  153.2531  135.4347  155.0772 H   0  0  0  0  0  0  0  0  0  0  0  0  # atno 10765 bound_to 10752
  140.5276  134.0497  155.7863 H   0  0  0  0  0  0  0  0  0  0  0  0  # atno 11005 bound_to 11000
  145.9176  140.9137  143.0422 LP  0  0  0  0  0  0  0  0  0  0  0  0  # atno 17320 bound_to 7965
  144.6726  140.1244  143.7447 LP  0  0  0  0  0  0  0  0  0  0  0  0  # atno 17321 bound_to 7965
  139.7950  144.7396  150.9903 LP  0  0  0  0  0  0  0  0  0  0  0  0  # atno 17342 bound_to 10162
  140.7820  143.4403  151.0562 LP  0  0  0  0  0  0  0  0  0  0  0  0  # atno 17343 bound_to 10162
  157.6859  131.0825  150.7244 LP  0  0  0  0  0  0  0  0  0  0  0  0  # atno 17370 bound_to 10713
  156.7301  130.4707  149.5501 LP  0  0  0  0  0  0  0  0  0  0  0  0  # atno 17371 bound_to 10713
  141.1299  133.9320  157.2557 LP  0  0  0  0  0  0  0  0  0  0  0  0  # atno 17394 bound_to 11000
  139.9571  135.0163  156.9159 LP  0  0  0  0  0  0  0  0  0  0  0  0  # atno 17395 bound_to 11000

$$$$
