AV-unprocessed.smi:1995|AV-procd|sdf|8081|dock10
  -GOLD-   2272010293D 1   1.00000     0.00000
 Structure written by MMmdl.
 41 42  0  0  0  0  0  0  0  0  2 V2000
  145.7454  141.2475  156.7297 C   0  0  0  0  0  0  0  0  0  0  0  0
  147.2564  140.9551  156.6870 C   0  0  0  0  0  0  0  0  0  0  0  0
  147.6793  139.6970  155.8627 C   0  0  2  0  0  0  0  0  0  0  0  0
  147.0770  139.8824  154.4439 C   0  0  0  0  0  0  0  0  0  0  0  0
  147.0280  138.4376  156.5230 C   0  0  0  0  0  0  0  0  0  0  0  0
  147.1591  138.3952  157.9804 N   0  0  0  0  0  0  0  0  0  0  0  0
  146.7757  137.3981  158.7911 C   0  0  0  0  0  0  0  0  0  0  0  0
  146.2607  136.3813  158.3203 O   0  0  0  0  0  0  0  0  0  0  0  0
  147.0044  137.6461  160.1009 N   0  5  0  0  0  0  0  0  0  0  0  0
  147.1318  136.6255  160.9645 C   0  0  0  0  0  0  0  0  0  0  0  0
  147.6664  136.7620  162.1834 N   0  0  0  0  0  0  0  0  0  0  0  0
  147.6951  135.5721  162.9135 C   0  0  0  0  0  0  0  0  0  0  0  0
  147.1624  134.5067  162.2373 C   0  0  0  0  0  0  0  0  0  0  0  0
  146.6043  134.9687  160.6547 S   0  0  0  0  0  0  0  0  0  0  0  0
  149.1638  139.5816  155.7826 N   0  0  0  0  0  0  0  0  0  0  0  0
  149.8882  140.8579  155.7420 C   0  0  0  0  0  0  0  0  0  0  0  0
  151.4121  140.6582  155.8071 C   0  0  0  0  0  0  0  0  0  0  0  0
  151.8323  139.8094  154.7454 O   0  0  0  0  0  0  0  0  0  0  0  0
  151.1924  138.5395  154.7798 C   0  0  0  0  0  0  0  0  0  0  0  0
  149.6674  138.7252  154.7021 C   0  0  0  0  0  0  0  0  0  0  0  0
  145.5490  142.1460  157.3146 H   0  0  0  0  0  0  0  0  0  0  0  0
  145.1891  140.4330  157.1925 H   0  0  0  0  0  0  0  0  0  0  0  0
  145.3344  141.4127  155.7338 H   0  0  0  0  0  0  0  0  0  0  0  0
  147.7749  141.8400  156.3184 H   0  0  0  0  0  0  0  0  0  0  0  0
  147.5944  140.8540  157.7190 H   0  0  0  0  0  0  0  0  0  0  0  0
  146.0375  140.2097  154.4793 H   0  0  0  0  0  0  0  0  0  0  0  0
  147.0862  138.9543  153.8722 H   0  0  0  0  0  0  0  0  0  0  0  0
  147.6264  140.6255  153.8658 H   0  0  0  0  0  0  0  0  0  0  0  0
  145.9774  138.3469  156.2474 H   0  0  0  0  0  0  0  0  0  0  0  0
  147.5046  137.5292  156.1565 H   0  0  0  0  0  0  0  0  0  0  0  0
  147.5733  139.2050  158.4181 H   0  0  0  0  0  0  0  0  0  0  0  0
  148.1130  135.5757  163.9092 H   0  0  0  0  0  0  0  0  0  0  0  0
  147.0633  133.4849  162.5710 H   0  0  0  0  0  0  0  0  0  0  0  0
  149.6481  141.4018  154.8285 H   0  0  0  0  0  0  0  0  0  0  0  0
  149.6013  141.4969  156.5751 H   0  0  0  0  0  0  0  0  0  0  0  0
  151.9233  141.6170  155.7194 H   0  0  0  0  0  0  0  0  0  0  0  0
  151.7036  140.2261  156.7658 H   0  0  0  0  0  0  0  0  0  0  0  0
  151.5440  137.9410  153.9394 H   0  0  0  0  0  0  0  0  0  0  0  0
  151.4705  138.0081  155.6913 H   0  0  0  0  0  0  0  0  0  0  0  0
  149.2099  137.7384  154.7391 H   0  0  0  0  0  0  0  0  0  0  0  0
  149.4178  139.1539  153.7317 H   0  0  0  0  0  0  0  0  0  0  0  0
  1  2  1  0  0  0  0
  1 21  1  0  0  0  0
  1 22  1  0  0  0  0
  1 23  1  0  0  0  0
  2  3  1  0  0  0  0
  2 24  1  0  0  0  0
  2 25  1  0  0  0  0
  3  4  1  0  0  0  0
  3  5  1  0  0  0  0
  3 15  1  0  0  0  0
  4 26  1  0  0  0  0
  4 27  1  0  0  0  0
  4 28  1  0  0  0  0
  5  6  1  0  0  0  0
  5 29  1  0  0  0  0
  5 30  1  0  0  0  0
  6  7  1  0  0  0  0
  6 31  1  0  0  0  0
  7  8  2  0  0  0  0
  7  9  1  0  0  0  0
  9 10  1  0  0  0  0
 10 14  1  0  0  0  0
 10 11  2  0  0  0  0
 11 12  1  0  0  0  0
 12 13  2  0  0  0  0
 12 32  1  0  0  0  0
 13 14  1  0  0  0  0
 13 33  1  0  0  0  0
 15 20  1  0  0  0  0
 15 16  1  0  0  0  0
 16 17  1  0  0  0  0
 16 34  1  0  0  0  0
 16 35  1  0  0  0  0
 17 18  1  0  0  0  0
 17 36  1  0  0  0  0
 17 37  1  0  0  0  0
 18 19  1  0  0  0  0
 19 20  1  0  0  0  0
 19 38  1  0  0  0  0
 19 39  1  0  0  0  0
 20 40  1  0  0  0  0
 20 41  1  0  0  0  0
M  CHG  1   9  -1
M  END
> <s_m_source_file>
AV-unprocessed.smi

> <i_m_source_file_index>
1995

> <i_lp_mmshare_version>
43012

> <i_f3d_flags>
0

> <s_epik_input>
W0NIMl0xW0NIMl1PW0NIMl1bQ0gyXU4xW0NAQF0oW0NIM10pKFtDSDJdW0NIM10pW0NIMl1bTkhdQyg9TylbTkhdYzJuW2NIXVtjSF1zMg==

> <s_epik_cmdline>
J2VwaWtfcHl0aG9uJywgJy1waCcsICc3LjAnLCAnLXRuJywgJzgnLCAnLW1hJywgJzIwMCcsICctbWV0YWxfYmluZGluZycsICctaW1hZScsICc8aW5maWxlLm1hZT4nLCAnLW9tYWUnLCAnPG91dGZpbGUubWFlPic=

> <r_lp_tautomer_probability>
0.999

> <r_epik_Ionization_Penalty>
8.86479

> <r_epik_Ionization_Penalty_Charging>
6.76546

> <r_epik_Ionization_Penalty_Neutral>
2.09933

> <r_epik_State_Penalty>
7.05418

> <r_epik_Charging_Adjusted_Penalty>
13.8196

> <i_epik_Tot_Q>
-1

> <i_epik_Tot_abs_Q>
1

> <r_epik_Metal_State_Penalty>
2.97744

> <b_epik_Metal_Only>
1

> <s_lp_Force_Field>
OPLS_2005

> <r_lp_Energy>
37.8837

> <b_lp_Chiralities_Consistent>
1

> <s_lp_Variant>
AV-unprocessed.smi:1995-6

> <Gold.Version>
5.8.1

> <Gold.Id.Protein>
6NUR|6NUR_protein|mol2

> <Gold.PLP.Fitness>
36.9578

> <Gold.PLP.PLP>
-27.0097

> <Gold.PLP.part.hbond>
-2.8873

> <Gold.PLP.part.metal>
0.0000

> <Gold.PLP.part.buried>
-4.2713

> <Gold.PLP.part.nonpolar>
-20.0707

> <Gold.PLP.part.repulsive>
0.1768

> <Gold.PLP.ligand.clash>
0.0000

> <Gold.PLP.ligand.torsion>
1.0754

> <Gold.PLP.Chemscore.Hbond>
3.9920

> <Gold.PLP.Chemscore.CHOScore>
0.0000

> <Gold.PLP.Chemscore.Metal>
0.0000

> <Gold.Chemscore.Hbonds>
donor molecule, donor type, donor heavy atom, donor atom, acceptor molecule, acceptor atom, score
      P1  H  6931  6943       L1    11  0.99
      P1  H  6934  6947       L1     9  2.00
      P1  H  7989  7998       L1    18  0.94

> <Gold.PLP.Chemscore.Internal.Correction>
0.1229

> <Gold.Rescore>
     Score         DG    S(hbond)    S(metal)    S(lipo)     H(rot)  DE(clash)    DE(int)     intcor
     12.05     -14.53       2.05        0.00      56.14       1.70       0.08       2.39       ----

> <Gold.Chemscore.Fitness>
12.0548

> <Gold.Chemscore.DG>
-14.5318

> <Gold.Chemscore.ZeroCoef>
-5.4800

> <Gold.Chemscore.Hbond>
2.0453

> <Gold.Chemscore.Metal>
0.0000

> <Gold.Chemscore.Lipo>
56.1433

> <Gold.Chemscore.Internal_Hbond>
0.0000

> <Gold.Chemscore.DEClash>
0.0840

> <Gold.Chemscore.DEInternal>
2.3931

> <Gold.Chemscore.Rot>
1.6985

> <Gold.Chemscore.Internal.Correction>
   9.000000E+99

> <Gold.Chemscore.Hbonds>
donor molecule, donor type, donor heavy atom, donor atom, acceptor molecule, acceptor atom, score
      P1  H  6931  6943       L1    11  0.36
      P1  H  6934  6947       L1     9  0.68
      P1  H  7989  7998       L1    18  0.20

> <Gold.Chemscore.Hbond.Weighted>
-6.8313

> <Gold.Chemscore.Metal.Weighted>
-0.0000

> <Gold.Chemscore.Lipo.Weighted>
-6.5688

> <Gold.Chemscore.Internal_Hbond.Weighted>
0.0000

> <Gold.Chemscore.DEClash.Weighted>
0.0840

> <Gold.Chemscore.DEInternal.Weighted>
2.3931

> <Gold.Chemscore.Rot.Weighted>
4.3482

> <Gold.Chemscore.Internal.Correction.Weighted>
   9.000000E+99

> <Gold.Protein.RotatedTorsions>
[ 6907 6896 6895 6894 ] final -176.87 input  -60.11 | X-H torsion
[ 7974 7965 7964 7962 ] final -109.00 input  175.53 | X-H torsion
[ 8008 7997 7996 7995 ] final   78.99 input   59.86 | X-H torsion
[ 10167 10162 10161 10158 ] final   -4.91 input  -65.29 | X-H torsion
[ 10718 10713 10712 10709 ] final -174.50 input   66.30 | X-H torsion
[ 10763 10752 10751 10750 ] final -158.26 input  -60.55 | X-H torsion
[ 11005 11000 10999 10996 ] final   94.06 input  -57.11 | X-H torsion

> <Gold.Protein.ActiveResidues>
 VAL166  LYS551  ARG553  GLY616  TRP617  ASP618  TYR619  PRO620  LYS621  CYS622 
 ASP623  PHE694  ASN695  SER759  ASP760  ASP761  ALA762  ILE779  LEU786  VAL792 
 PHE793  MET794  SER795  GLU796  ALA797  LYS798  CYS799  TRP800  GLU811  SER814 

> <Gold.Protein.RotatedAtoms>
  151.6118  133.3346  159.3068 H   0  0  0  0  0  0  0  0  0  0  0  0  # atno 6907 bound_to 6896
  150.8152  134.7334  159.6735 H   0  0  0  0  0  0  0  0  0  0  0  0  # atno 6908 bound_to 6896
  152.4248  134.5893  160.0021 H   0  0  0  0  0  0  0  0  0  0  0  0  # atno 6909 bound_to 6896
  145.1859  140.8992  143.3453 H   0  0  0  0  0  0  0  0  0  0  0  0  # atno 7974 bound_to 7965
  155.8635  140.3452  155.5772 H   0  0  0  0  0  0  0  0  0  0  0  0  # atno 8008 bound_to 7997
  155.7907  140.0871  157.2029 H   0  0  0  0  0  0  0  0  0  0  0  0  # atno 8009 bound_to 7997
  154.4013  140.1483  156.3147 H   0  0  0  0  0  0  0  0  0  0  0  0  # atno 8010 bound_to 7997
  140.6944  143.6369  150.8471 H   0  0  0  0  0  0  0  0  0  0  0  0  # atno 10167 bound_to 10162
  156.7860  130.9500  151.3120 H   0  0  0  0  0  0  0  0  0  0  0  0  # atno 10718 bound_to 10713
  154.7571  135.3107  154.8449 H   0  0  0  0  0  0  0  0  0  0  0  0  # atno 10763 bound_to 10752
  153.9220  135.6794  153.4751 H   0  0  0  0  0  0  0  0  0  0  0  0  # atno 10764 bound_to 10752
  153.1169  135.4840  154.9061 H   0  0  0  0  0  0  0  0  0  0  0  0  # atno 10765 bound_to 10752
  139.8803  134.8824  156.3809 H   0  0  0  0  0  0  0  0  0  0  0  0  # atno 11005 bound_to 11000
  145.0090  139.3528  143.6130 LP  0  0  0  0  0  0  0  0  0  0  0  0  # atno 17320 bound_to 7965
  146.3445  139.9344  142.8749 LP  0  0  0  0  0  0  0  0  0  0  0  0  # atno 17321 bound_to 7965
  140.0086  143.5667  152.2848 LP  0  0  0  0  0  0  0  0  0  0  0  0  # atno 17342 bound_to 10162
  139.6382  144.7652  151.2393 LP  0  0  0  0  0  0  0  0  0  0  0  0  # atno 17343 bound_to 10162
  157.6624  130.8977  149.9857 LP  0  0  0  0  0  0  0  0  0  0  0  0  # atno 17370 bound_to 10713
  156.1188  130.3646  149.9922 LP  0  0  0  0  0  0  0  0  0  0  0  0  # atno 17371 bound_to 10713
  140.9399  133.7521  156.0133 LP  0  0  0  0  0  0  0  0  0  0  0  0  # atno 17394 bound_to 11000
  140.8231  134.3266  157.5375 LP  0  0  0  0  0  0  0  0  0  0  0  0  # atno 17395 bound_to 11000

$$$$
