#       Name:                AV-unprocessed.smi:1897
#       Creating user name   scv26
#       Creation time:       Fri Mar 27 09:43:33 2020


#       File generated by GOLD software.
#

@<TRIPOS>MOLECULE
AV-unprocessed.smi:1897
    43    45     1
SMALL
NO_CHARGES


@<TRIPOS>ATOM
      1 ****        -4.0283   3.8631  -0.3476 C.3            1 S1                 0.0000
      2 ****        -2.6389   3.8032   0.1881 C.2            1 S1                 0.0000
      3 ****        -2.3703   3.7591   1.4950 N.2            1 S1                 0.0000
      4 ****        -1.0071   3.7149   1.7475 N.2            1 S1                 0.0000
      5 ****        -0.2652   3.7117   0.6311 C.2            1 S1                 0.0000
      6 ****         1.0799   3.6671   0.6578 N.pl3          1 S1                -1.0000
      7 ****         1.7760   2.5038   0.5706 C.2            1 S1                 0.0000
      8 ****         3.0046   2.4457   0.5967 O.2            1 S1                 0.0000
      9 ****         1.0743   1.3616   0.4498 N.am           1 S1                 0.0000
     10 ****         1.6361   0.0213   0.3411 C.3            1 S1                 0.0000
     11 ****         2.0934  -0.5746   1.6863 C.3            1 S1                 0.0000
     12 ****         1.6873  -2.0603   1.6326 C.3            1 S1                 0.0000
     13 ****         1.1612  -2.2702   0.2705 N.4            1 S1                 1.0000
     14 ****         0.2282  -3.4004   0.0721 C.3            1 S1                 0.0000
     15 ****        -0.1417  -3.4974  -1.4219 C.3            1 S1                 0.0000
     16 ****        -0.6735  -2.1563  -1.9691 C.3            1 S1                 0.0000
     17 ****         0.2950  -1.0011  -1.6492 C.3            1 S1                 0.0000
     18 ****         0.5892  -0.9801  -0.1406 C.3            1 S1                 0.0000
     19 ****        -1.2222   3.7789  -0.8485 S.3            1 S1                 0.0000
     20 ****        -4.4639   2.8641  -0.3659 H              1 S1                 0.0000
     21 ****        -4.0257   4.2639  -1.3613 H              1 S1                 0.0000
     22 ****        -4.6477   4.5058   0.2786 H              1 S1                 0.0000
     23 ****         0.0677   1.4377   0.4359 H              1 S1                 0.0000
     24 ****         2.4749   0.0221  -0.3582 H              1 S1                 0.0000
     25 ****         3.1686  -0.4519   1.8204 H              1 S1                 0.0000
     26 ****         1.6009  -0.0855   2.5281 H              1 S1                 0.0000
     27 ****         2.5245  -2.7290   1.8335 H              1 S1                 0.0000
     28 ****         0.9080  -2.2608   2.3695 H              1 S1                 0.0000
     29 ****         0.6982  -4.3263   0.4050 H              1 S1                 0.0000
     30 ****        -0.6669  -3.2547   0.6791 H              1 S1                 0.0000
     31 ****         0.7402  -3.7924  -1.9923 H              1 S1                 0.0000
     32 ****        -0.8824  -4.2831  -1.5738 H              1 S1                 0.0000
     33 ****        -0.8324  -2.2264  -3.0456 H              1 S1                 0.0000
     34 ****        -1.6478  -1.9453  -1.5262 H              1 S1                 0.0000
     35 ****         1.2210  -1.1270  -2.2118 H              1 S1                 0.0000
     36 ****        -0.1361  -0.0500  -1.9636 H              1 S1                 0.0000
     37 ****        -0.3415  -0.8213   0.4101 H              1 S1                 0.0000
     38 ****         1.9614  -2.4291  -0.3249 H              1 S1                 0.0000
     39 ****        -3.0705   3.7580   2.2090 LP             1 S1                 0.0000
     40 ****        -0.6176   3.6881   2.6682 LP             1 S1                 0.0000
     41 ****         1.5870   4.5245   0.7453 LP             1 S1                 0.0000
     42 ****         3.5430   3.2836   0.6861 LP             1 S1                 0.0000
     43 ****         3.4649   1.5605   0.5286 LP             1 S1                 0.0000
@<TRIPOS>BOND
    1    1    2 1     
    2    1   20 1     
    3    1   21 1     
    4    1   22 1     
    5    2   19 1     
    6    2    3 2     
    7    3    4 1     
    8    4    5 2     
    9    5    6 1     
   10    5   19 1     
   11    6    7 1     
   12    7    8 2     
   13    7    9 am    
   14    9   10 1     
   15    9   23 1     
   16   10   18 1     
   17   10   11 1     
   18   10   24 1     
   19   11   12 1     
   20   11   25 1     
   21   11   26 1     
   22   12   13 1     
   23   12   27 1     
   24   12   28 1     
   25   13   18 1     
   26   13   14 1     
   27   13   38 1     
   28   14   15 1     
   29   14   29 1     
   30   14   30 1     
   31   15   16 1     
   32   15   31 1     
   33   15   32 1     
   34   16   17 1     
   35   16   33 1     
   36   16   34 1     
   37   17   18 1     
   38   17   35 1     
   39   17   36 1     
   40   18   37 1     
   41    3   39 1     
   42    4   40 1     
   43    6   41 1     
   44    8   42 1     
   45    8   43 1     
@<TRIPOS>SUBSTRUCTURE
      1 S1             1
@<TRIPOS>SET
LONE_PAIRS      STATIC     ATOMS    <user>   **** ""
5 39 40 41 42 43
DONOR_HYDROGENS      STATIC     ATOMS    <user>   **** ""
2 23 38
ATOM$BLUE        STATIC     ATOMS    COLORGROUP SYSTEM
5 39 40 41 42 43
ATOM$RED        STATIC     ATOMS    COLORGROUP SYSTEM
2 23 38
