AV-unprocessed.smi:3303|AV-procd|sdf|12665|dock3
  -GOLD-   2272019 03D 1   1.00000     0.00000
 Structure written by MMmdl.
 45 46  0  0  0  0  0  0  0  0  3 V2000
  149.4977  140.6100  154.3589 C   0  0  0  0  0  0  0  0  0  0  0  0
  148.2630  140.9404  155.2145 C   0  0  2  0  0  0  0  0  0  0  0  0
  147.3790  142.0243  154.5681 C   0  0  0  0  0  0  0  0  0  0  0  0
  146.1406  142.2702  155.3536 N   0  3  2  0  0  0  0  0  0  0  0  0
  145.2417  143.2109  154.6413 C   0  0  0  0  0  0  0  0  0  0  0  0
  146.4348  142.6633  156.7653 C   0  0  1  0  0  0  0  0  0  0  0  0
  145.1560  142.8697  157.6004 C   0  0  0  0  0  0  0  0  0  0  0  0
  147.3310  141.6062  157.4512 C   0  0  0  0  0  0  0  0  0  0  0  0
  148.6211  141.3074  156.6696 C   0  0  2  0  0  0  0  0  0  0  0  0
  149.5575  142.4557  156.7444 N   0  3  0  0  0  0  0  0  0  0  0  0
  150.9726  142.1176  156.4925 C   0  0  0  0  0  0  0  0  0  0  0  0
  151.6254  141.5103  157.7413 C   0  0  0  0  0  0  0  0  0  0  0  0
  151.8376  142.5413  158.8332 C   0  0  0  0  0  0  0  0  0  0  0  0
  152.4386  142.1830  160.0586 C   0  0  0  0  0  0  0  0  0  0  0  0
  152.6050  143.1796  161.0397 C   0  0  0  0  0  0  0  0  0  0  0  0
  152.1654  144.4876  160.7593 C   0  0  0  0  0  0  0  0  0  0  0  0
  151.5756  144.7427  159.5053 C   0  0  0  0  0  0  0  0  0  0  0  0
  151.4104  143.7938  158.5579 N   0  0  0  0  0  0  0  0  0  0  0  0
  150.1405  141.4798  154.2214 H   0  0  0  0  0  0  0  0  0  0  0  0
  149.2042  140.2604  153.3686 H   0  0  0  0  0  0  0  0  0  0  0  0
  150.0951  139.8227  154.8193 H   0  0  0  0  0  0  0  0  0  0  0  0
  147.6664  140.0271  155.2545 H   0  0  0  0  0  0  0  0  0  0  0  0
  147.9343  142.9574  154.4585 H   0  0  0  0  0  0  0  0  0  0  0  0
  147.1048  141.7046  153.5617 H   0  0  0  0  0  0  0  0  0  0  0  0
  145.6449  144.2245  154.6546 H   0  0  0  0  0  0  0  0  0  0  0  0
  144.2463  143.2269  155.0840 H   0  0  0  0  0  0  0  0  0  0  0  0
  145.1137  142.9120  153.6003 H   0  0  0  0  0  0  0  0  0  0  0  0
  146.9745  143.6114  156.7428 H   0  0  0  0  0  0  0  0  0  0  0  0
  145.4007  143.0587  158.6462 H   0  0  0  0  0  0  0  0  0  0  0  0
  144.5120  141.9902  157.5677 H   0  0  0  0  0  0  0  0  0  0  0  0
  144.5761  143.7273  157.2600 H   0  0  0  0  0  0  0  0  0  0  0  0
  147.5811  141.9246  158.4644 H   0  0  0  0  0  0  0  0  0  0  0  0
  146.7654  140.6796  157.5616 H   0  0  0  0  0  0  0  0  0  0  0  0
  149.0943  140.4398  157.1332 H   0  0  0  0  0  0  0  0  0  0  0  0
  149.2722  143.1474  156.0658 H   0  0  0  0  0  0  0  0  0  0  0  0
  151.0277  141.4138  155.6605 H   0  0  0  0  0  0  0  0  0  0  0  0
  151.5112  143.0179  156.1937 H   0  0  0  0  0  0  0  0  0  0  0  0
  151.0071  140.6994  158.1288 H   0  0  0  0  0  0  0  0  0  0  0  0
  152.5884  141.0662  157.4841 H   0  0  0  0  0  0  0  0  0  0  0  0
  152.7658  141.1709  160.2462 H   0  0  0  0  0  0  0  0  0  0  0  0
  153.0612  142.9449  161.9900 H   0  0  0  0  0  0  0  0  0  0  0  0
  152.2775  145.2772  161.4876 H   0  0  0  0  0  0  0  0  0  0  0  0
  151.2264  145.7339  159.2570 H   0  0  0  0  0  0  0  0  0  0  0  0
  149.4939  142.8642  157.6661 H   0  0  0  0  0  0  0  0  0  0  0  0
  145.6493  141.3882  155.3944 H   0  0  0  0  0  0  0  0  0  0  0  0
  1  2  1  0  0  0  0
  1 19  1  0  0  0  0
  1 20  1  0  0  0  0
  1 21  1  0  0  0  0
  2  9  1  0  0  0  0
  2  3  1  0  0  0  0
  2 22  1  0  0  0  0
  3  4  1  0  0  0  0
  3 23  1  0  0  0  0
  3 24  1  0  0  0  0
  4  5  1  0  0  0  0
  4  6  1  0  0  0  0
  4 45  1  0  0  0  0
  5 25  1  0  0  0  0
  5 26  1  0  0  0  0
  5 27  1  0  0  0  0
  6  7  1  0  0  0  0
  6  8  1  0  0  0  0
  6 28  1  0  0  0  0
  7 29  1  0  0  0  0
  7 30  1  0  0  0  0
  7 31  1  0  0  0  0
  8  9  1  0  0  0  0
  8 32  1  0  0  0  0
  8 33  1  0  0  0  0
  9 10  1  0  0  0  0
  9 34  1  0  0  0  0
 10 11  1  0  0  0  0
 10 35  1  0  0  0  0
 10 44  1  0  0  0  0
 11 12  1  0  0  0  0
 11 36  1  0  0  0  0
 11 37  1  0  0  0  0
 12 13  1  0  0  0  0
 12 38  1  0  0  0  0
 12 39  1  0  0  0  0
 13 18  1  0  0  0  0
 13 14  2  0  0  0  0
 14 15  1  0  0  0  0
 14 40  1  0  0  0  0
 15 16  2  0  0  0  0
 15 41  1  0  0  0  0
 16 17  1  0  0  0  0
 16 42  1  0  0  0  0
 17 18  2  0  0  0  0
 17 43  1  0  0  0  0
M  CHG  1   4   1
M  CHG  1  10   1
M  END
> <s_m_source_file>
AV-unprocessed.smi

> <i_m_source_file_index>
3303

> <i_lp_mmshare_version>
43012

> <i_f3d_flags>
0

> <s_epik_input>
W0NIM11bQ0BASF0xW0NIMl1OKFtDSDNdKVtDQEBIXShbQ0gzXSlbQ0gyXVtDQEhdMVtOSF1bQ0gyXVtDSDJdYzJbY0hdW2NIXVtjSF1bY0hdbjI=

> <s_epik_cmdline>
J2VwaWtfcHl0aG9uJywgJy1waCcsICc3LjAnLCAnLXRuJywgJzgnLCAnLW1hJywgJzIwMCcsICctbWV0YWxfYmluZGluZycsICctaW1hZScsICc8aW5maWxlLm1hZT4nLCAnLW9tYWUnLCAnPG91dGZpbGUubWFlPic=

> <r_epik_Ionization_Penalty>
0.0769462

> <r_epik_Ionization_Penalty_Charging>
0.0759813

> <r_epik_Ionization_Penalty_Neutral>
0.000964829

> <r_epik_State_Penalty>
0.0654373

> <r_epik_Charging_Adjusted_Penalty>
0.141419

> <i_epik_Tot_Q>
2

> <i_epik_Tot_abs_Q>
2

> <r_epik_Metal_State_Penalty>
0.0656439

> <b_epik_Metal_Only>
0

> <s_lp_Force_Field>
OPLS_2005

> <r_lp_Energy>
34.324

> <b_lp_Chiralities_Consistent>
1

> <s_lp_Variant>
AV-unprocessed.smi:3303-9

> <Gold.Version>
5.8.1

> <Gold.Id.Protein>
6NUR|6NUR_protein|mol2

> <Gold.PLP.Fitness>
43.4971

> <Gold.PLP.PLP>
-38.2892

> <Gold.PLP.part.hbond>
-1.0000

> <Gold.PLP.part.metal>
0.0000

> <Gold.PLP.part.buried>
-5.2961

> <Gold.PLP.part.nonpolar>
-31.5799

> <Gold.PLP.part.repulsive>
0.1434

> <Gold.PLP.ligand.clash>
0.0000

> <Gold.PLP.ligand.torsion>
0.3286

> <Gold.PLP.Chemscore.Hbond>
1.9520

> <Gold.PLP.Chemscore.CHOScore>
0.0000

> <Gold.PLP.Chemscore.Metal>
0.0000

> <Gold.Chemscore.Hbonds>
donor molecule, donor type, donor heavy atom, donor atom, acceptor molecule, acceptor atom, score
      L1  H    10    35       P1  8028  2.00

> <Gold.PLP.Chemscore.Internal.Correction>
0.0091

> <Gold.Rescore>
     Score         DG    S(hbond)    S(metal)    S(lipo)     H(rot)  DE(clash)    DE(int)     intcor
     14.67     -17.43       0.97        0.00     104.45       1.37       0.03       2.74       ----

> <Gold.Chemscore.Fitness>
14.6672

> <Gold.Chemscore.DG>
-17.4297

> <Gold.Chemscore.ZeroCoef>
-5.4800

> <Gold.Chemscore.Hbond>
0.9721

> <Gold.Chemscore.Metal>
0.0000

> <Gold.Chemscore.Lipo>
104.4549

> <Gold.Chemscore.Internal_Hbond>
0.0000

> <Gold.Chemscore.DEClash>
0.0252

> <Gold.Chemscore.DEInternal>
2.7373

> <Gold.Chemscore.Rot>
1.3744

> <Gold.Chemscore.Internal.Correction>
   9.000000E+99

> <Gold.Chemscore.Hbonds>
donor molecule, donor type, donor heavy atom, donor atom, acceptor molecule, acceptor atom, score
      L1  H    10    35       P1  8028  0.95

> <Gold.Chemscore.Hbond.Weighted>
-3.2469

> <Gold.Chemscore.Metal.Weighted>
-0.0000

> <Gold.Chemscore.Lipo.Weighted>
-12.2212

> <Gold.Chemscore.Internal_Hbond.Weighted>
0.0000

> <Gold.Chemscore.DEClash.Weighted>
0.0252

> <Gold.Chemscore.DEInternal.Weighted>
2.7373

> <Gold.Chemscore.Rot.Weighted>
3.5185

> <Gold.Chemscore.Internal.Correction.Weighted>
   9.000000E+99

> <Gold.Protein.RotatedTorsions>
[ 6907 6896 6895 6894 ] final  -95.49 input  -60.11 | X-H torsion
[ 7974 7965 7964 7962 ] final   75.40 input  175.53 | X-H torsion
[ 8008 7997 7996 7995 ] final   18.88 input   59.86 | X-H torsion
[ 10167 10162 10161 10158 ] final   95.09 input  -65.29 | X-H torsion
[ 10718 10713 10712 10709 ] final  -49.69 input   66.30 | X-H torsion
[ 10763 10752 10751 10750 ] final  -35.17 input  -60.55 | X-H torsion
[ 11005 11000 10999 10996 ] final -125.63 input  -57.11 | X-H torsion

> <Gold.Protein.ActiveResidues>
 VAL166  LYS551  ARG553  GLY616  TRP617  ASP618  TYR619  PRO620  LYS621  CYS622 
 ASP623  PHE694  ASN695  SER759  ASP760  ASP761  ALA762  ILE779  LEU786  VAL792 
 PHE793  MET794  SER795  GLU796  ALA797  LYS798  CYS799  TRP800  GLU811  SER814 

> <Gold.Protein.RotatedAtoms>
  150.6965  134.1650  159.4190 H   0  0  0  0  0  0  0  0  0  0  0  0  # atno 6907 bound_to 6896
  151.9629  135.0112  160.0558 H   0  0  0  0  0  0  0  0  0  0  0  0  # atno 6908 bound_to 6896
  152.1910  133.4738  159.5045 H   0  0  0  0  0  0  0  0  0  0  0  0  # atno 6909 bound_to 6896
  145.7160  139.2631  143.1623 H   0  0  0  0  0  0  0  0  0  0  0  0  # atno 7974 bound_to 7965
  154.9125  140.3016  155.5258 H   0  0  0  0  0  0  0  0  0  0  0  0  # atno 8008 bound_to 7997
  156.3014  140.2386  156.4102 H   0  0  0  0  0  0  0  0  0  0  0  0  # atno 8009 bound_to 7997
  154.8411  140.0414  157.1530 H   0  0  0  0  0  0  0  0  0  0  0  0  # atno 8010 bound_to 7997
  139.8022  144.6809  150.9750 H   0  0  0  0  0  0  0  0  0  0  0  0  # atno 10167 bound_to 10162
  156.1870  130.4152  149.9425 H   0  0  0  0  0  0  0  0  0  0  0  0  # atno 10718 bound_to 10713
  153.8588  135.6842  153.4785 H   0  0  0  0  0  0  0  0  0  0  0  0  # atno 10763 bound_to 10752
  153.1354  135.4680  154.9412 H   0  0  0  0  0  0  0  0  0  0  0  0  # atno 10764 bound_to 10752
  154.7768  135.3256  154.8023 H   0  0  0  0  0  0  0  0  0  0  0  0  # atno 10765 bound_to 10752
  140.9747  134.0757  157.3831 H   0  0  0  0  0  0  0  0  0  0  0  0  # atno 11005 bound_to 11000
  146.0669  140.7911  142.9707 LP  0  0  0  0  0  0  0  0  0  0  0  0  # atno 17320 bound_to 7965
  144.6929  140.3282  143.7220 LP  0  0  0  0  0  0  0  0  0  0  0  0  # atno 17321 bound_to 7965
  140.7820  143.4270  151.0753 LP  0  0  0  0  0  0  0  0  0  0  0  0  # atno 17342 bound_to 10162
  139.7941  143.8176  152.3155 LP  0  0  0  0  0  0  0  0  0  0  0  0  # atno 17343 bound_to 10162
  156.7178  130.8995  151.3615 LP  0  0  0  0  0  0  0  0  0  0  0  0  # atno 17370 bound_to 10713
  157.6905  130.9229  150.0501 LP  0  0  0  0  0  0  0  0  0  0  0  0  # atno 17371 bound_to 10713
  139.8926  135.0125  156.6853 LP  0  0  0  0  0  0  0  0  0  0  0  0  # atno 17394 bound_to 11000
  140.7277  133.9086  155.8190 LP  0  0  0  0  0  0  0  0  0  0  0  0  # atno 17395 bound_to 11000

$$$$
