AV-unprocessed.smi:3112|AV-procd|sdf|11845|dock8
  -GOLD-   2272017223D 1   1.00000     0.00000
 Structure written by MMmdl.
 36 36  0  0  0  0  0  0  0  0  1 V2000
  150.6678  138.4061  157.2457 C   0  0  0  0  0  0  0  0  0  0  0  0
  150.3102  139.8965  157.3217 C   0  0  0  0  0  0  0  0  0  0  0  0
  151.1113  140.7659  156.3320 C   0  0  1  0  0  0  0  0  0  0  0  0
  150.7285  140.4970  154.9980 O   0  0  0  0  0  0  0  0  0  0  0  0
  151.0076  142.2815  156.5876 C   0  0  0  0  0  0  0  0  0  0  0  0
  151.2455  142.6281  157.9917 N   0  0  0  0  0  0  0  0  0  0  0  0
  151.4606  144.0551  158.2501 C   0  0  2  0  0  0  0  0  0  0  0  0
  152.7688  144.4774  157.5547 C   0  0  0  0  0  0  0  0  0  0  0  0
  151.4754  144.3691  159.7766 C   0  0  2  0  0  0  0  0  0  0  0  0
  151.8809  145.8127  160.1279 C   0  0  0  0  0  0  0  0  0  0  0  0
  152.3163  143.4341  160.5148 N   0  0  0  0  0  0  0  0  0  0  0  0
  152.4932  143.3403  161.8801 C   0  0  0  0  0  0  0  0  0  0  0  0
  153.3706  142.3196  162.1096 C   0  0  0  0  0  0  0  0  0  0  0  0
  153.6819  141.8422  160.8061 C   0  0  0  0  0  0  0  0  0  0  0  0
  153.0510  142.5100  159.8544 N   0  0  0  0  0  0  0  0  0  0  0  0
  150.1032  137.8345  157.9825 H   0  0  0  0  0  0  0  0  0  0  0  0
  151.7281  138.2440  157.4418 H   0  0  0  0  0  0  0  0  0  0  0  0
  150.4408  137.9923  156.2630 H   0  0  0  0  0  0  0  0  0  0  0  0
  149.2398  140.0186  157.1526 H   0  0  0  0  0  0  0  0  0  0  0  0
  150.5007  140.2454  158.3373 H   0  0  0  0  0  0  0  0  0  0  0  0
  152.1647  140.4955  156.4123 H   0  0  0  0  0  0  0  0  0  0  0  0
  150.1719  139.7337  154.9934 H   0  0  0  0  0  0  0  0  0  0  0  0
  151.7501  142.7872  155.9692 H   0  0  0  0  0  0  0  0  0  0  0  0
  150.0410  142.6436  156.2436 H   0  0  0  0  0  0  0  0  0  0  0  0
  152.0422  142.0989  158.3305 H   0  0  0  0  0  0  0  0  0  0  0  0
  150.6604  144.6307  157.7820 H   0  0  0  0  0  0  0  0  0  0  0  0
  152.9224  145.5557  157.5970 H   0  0  0  0  0  0  0  0  0  0  0  0
  152.7577  144.2022  156.4995 H   0  0  0  0  0  0  0  0  0  0  0  0
  153.6347  143.9984  158.0129 H   0  0  0  0  0  0  0  0  0  0  0  0
  150.4602  144.2255  160.1505 H   0  0  0  0  0  0  0  0  0  0  0  0
  151.1269  146.5278  159.8007 H   0  0  0  0  0  0  0  0  0  0  0  0
  152.8328  146.0852  159.6711 H   0  0  0  0  0  0  0  0  0  0  0  0
  151.9821  145.9387  161.2064 H   0  0  0  0  0  0  0  0  0  0  0  0
  151.9841  143.9997  162.5677 H   0  0  0  0  0  0  0  0  0  0  0  0
  153.7346  141.9675  163.0634 H   0  0  0  0  0  0  0  0  0  0  0  0
  154.3430  141.0358  160.5249 H   0  0  0  0  0  0  0  0  0  0  0  0
  1  2  1  0  0  0  0
  1 16  1  0  0  0  0
  1 17  1  0  0  0  0
  1 18  1  0  0  0  0
  2  3  1  0  0  0  0
  2 19  1  0  0  0  0
  2 20  1  0  0  0  0
  3  4  1  0  0  0  0
  3  5  1  0  0  0  0
  3 21  1  0  0  0  0
  4 22  1  0  0  0  0
  5  6  1  0  0  0  0
  5 23  1  0  0  0  0
  5 24  1  0  0  0  0
  6  7  1  0  0  0  0
  6 25  1  0  0  0  0
  7  8  1  0  0  0  0
  7  9  1  0  0  0  0
  7 26  1  0  0  0  0
  8 27  1  0  0  0  0
  8 28  1  0  0  0  0
  8 29  1  0  0  0  0
  9 10  1  0  0  0  0
  9 11  1  0  0  0  0
  9 30  1  0  0  0  0
 10 31  1  0  0  0  0
 10 32  1  0  0  0  0
 10 33  1  0  0  0  0
 11 15  1  0  0  0  0
 11 12  1  0  0  0  0
 12 13  2  0  0  0  0
 12 34  1  0  0  0  0
 13 14  1  0  0  0  0
 13 35  1  0  0  0  0
 14 15  2  0  0  0  0
 14 36  1  0  0  0  0
M  END
> <s_m_source_file>
AV-unprocessed.smi

> <i_m_source_file_index>
3112

> <i_lp_mmshare_version>
43012

> <i_f3d_flags>
0

> <s_epik_input>
W0NIM11bQ0gyXVtDQEhdKFtPSF0pW0NIMl1bTkhdW0NASF0oW0NIM10pW0NASF0oW0NIM10pbjFbY0hdW2NIXVtjSF1uMQ==

> <s_epik_cmdline>
J2VwaWtfcHl0aG9uJywgJy1waCcsICc3LjAnLCAnLXRuJywgJzgnLCAnLW1hJywgJzIwMCcsICctbWV0YWxfYmluZGluZycsICctaW1hZScsICc8aW5maWxlLm1hZT4nLCAnLW9tYWUnLCAnPG91dGZpbGUubWFlPic=

> <r_lp_tautomer_probability>
1

> <r_epik_Ionization_Penalty>
2.16876

> <r_epik_Ionization_Penalty_Charging>
0

> <r_epik_Ionization_Penalty_Neutral>
2.16876

> <r_epik_State_Penalty>
2.30854

> <r_epik_Charging_Adjusted_Penalty>
2.30854

> <i_epik_Tot_Q>
0

> <i_epik_Tot_abs_Q>
0

> <r_epik_Metal_State_Penalty>
2.3073

> <b_epik_Metal_Only>
0

> <s_lp_Force_Field>
OPLS_2005

> <r_lp_Energy>
23.3328

> <b_lp_Chiralities_Consistent>
1

> <s_lp_Variant>
AV-unprocessed.smi:3112-10

> <Gold.Version>
5.8.1

> <Gold.Id.Protein>
6NUR|6NUR_protein|mol2

> <Gold.PLP.Fitness>
43.4405

> <Gold.PLP.PLP>
-40.9574

> <Gold.PLP.part.hbond>
-1.0000

> <Gold.PLP.part.metal>
0.0000

> <Gold.PLP.part.buried>
-6.0221

> <Gold.PLP.part.nonpolar>
-32.8411

> <Gold.PLP.part.repulsive>
0.0000

> <Gold.PLP.ligand.clash>
0.0000

> <Gold.PLP.ligand.torsion>
0.3380

> <Gold.PLP.Chemscore.Hbond>
1.0000

> <Gold.PLP.Chemscore.CHOScore>
0.0000

> <Gold.PLP.Chemscore.Metal>
0.0000

> <Gold.Chemscore.Hbonds>
donor molecule, donor type, donor heavy atom, donor atom, acceptor molecule, acceptor atom, score
      P1  H  7989  7998       L1     4  1.00

> <Gold.PLP.Chemscore.Internal.Correction>
0.1590

> <Gold.Rescore>
     Score         DG    S(hbond)    S(metal)    S(lipo)     H(rot)  DE(clash)    DE(int)     intcor
     12.29     -15.24       0.99        0.00     105.70       2.31       0.78       2.16       ----

> <Gold.Chemscore.Fitness>
12.2948

> <Gold.Chemscore.DG>
-15.2380

> <Gold.Chemscore.ZeroCoef>
-5.4800

> <Gold.Chemscore.Hbond>
0.9902

> <Gold.Chemscore.Metal>
0.0000

> <Gold.Chemscore.Lipo>
105.6969

> <Gold.Chemscore.Internal_Hbond>
0.0000

> <Gold.Chemscore.DEClash>
0.7846

> <Gold.Chemscore.DEInternal>
2.1586

> <Gold.Chemscore.Rot>
2.3108

> <Gold.Chemscore.Internal.Correction>
   9.000000E+99

> <Gold.Chemscore.Hbonds>
donor molecule, donor type, donor heavy atom, donor atom, acceptor molecule, acceptor atom, score
      P1  H  7989  7998       L1     4  0.91

> <Gold.Chemscore.Hbond.Weighted>
-3.3071

> <Gold.Chemscore.Metal.Weighted>
-0.0000

> <Gold.Chemscore.Lipo.Weighted>
-12.3665

> <Gold.Chemscore.Internal_Hbond.Weighted>
0.0000

> <Gold.Chemscore.DEClash.Weighted>
0.7846

> <Gold.Chemscore.DEInternal.Weighted>
2.1586

> <Gold.Chemscore.Rot.Weighted>
5.9157

> <Gold.Chemscore.Internal.Correction.Weighted>
   9.000000E+99

> <Gold.Protein.RotatedTorsions>
[ 6907 6896 6895 6894 ] final  -37.60 input  -60.11 | X-H torsion
[ 7974 7965 7964 7962 ] final  116.76 input  175.53 | X-H torsion
[ 8008 7997 7996 7995 ] final -134.83 input   59.86 | X-H torsion
[ 10167 10162 10161 10158 ] final   49.82 input  -65.29 | X-H torsion
[ 10718 10713 10712 10709 ] final -145.12 input   66.30 | X-H torsion
[ 10763 10752 10751 10750 ] final -175.21 input  -60.55 | X-H torsion
[ 11005 11000 10999 10996 ] final  -21.36 input  -57.11 | X-H torsion

> <Gold.Protein.ActiveResidues>
 VAL166  LYS551  ARG553  GLY616  TRP617  ASP618  TYR619  PRO620  LYS621  CYS622 
 ASP623  PHE694  ASN695  SER759  ASP760  ASP761  ALA762  ILE779  LEU786  VAL792 
 PHE793  MET794  SER795  GLU796  ALA797  LYS798  CYS799  TRP800  GLU811  SER814 

> <Gold.Protein.RotatedAtoms>
  151.0127  134.9409  159.8015 H   0  0  0  0  0  0  0  0  0  0  0  0  # atno 6907 bound_to 6896
  152.5306  134.3006  159.9087 H   0  0  0  0  0  0  0  0  0  0  0  0  # atno 6908 bound_to 6896
  151.3013  133.4079  159.2674 H   0  0  0  0  0  0  0  0  0  0  0  0  # atno 6909 bound_to 6896
  145.1757  139.3077  143.4444 H   0  0  0  0  0  0  0  0  0  0  0  0  # atno 7974 bound_to 7965
  155.3686  140.0487  157.3046 H   0  0  0  0  0  0  0  0  0  0  0  0  # atno 8008 bound_to 7997
  154.5141  140.2202  155.9062 H   0  0  0  0  0  0  0  0  0  0  0  0  # atno 8009 bound_to 7997
  156.1617  140.3115  155.8823 H   0  0  0  0  0  0  0  0  0  0  0  0  # atno 8010 bound_to 7997
  140.2789  144.3179  150.6269 H   0  0  0  0  0  0  0  0  0  0  0  0  # atno 10167 bound_to 10162
  156.3785  130.7825  151.2014 H   0  0  0  0  0  0  0  0  0  0  0  0  # atno 10718 bound_to 10713
  154.5870  135.2841  155.0674 H   0  0  0  0  0  0  0  0  0  0  0  0  # atno 10763 bound_to 10752
  154.1989  135.6428  153.5085 H   0  0  0  0  0  0  0  0  0  0  0  0  # atno 10764 bound_to 10752
  153.0108  135.5464  154.6543 H   0  0  0  0  0  0  0  0  0  0  0  0  # atno 10765 bound_to 10752
  140.8553  133.7827  156.0013 H   0  0  0  0  0  0  0  0  0  0  0  0  # atno 11005 bound_to 11000
  146.3461  140.1918  142.8589 LP  0  0  0  0  0  0  0  0  0  0  0  0  # atno 17320 bound_to 7965
  145.0187  140.8776  143.5180 LP  0  0  0  0  0  0  0  0  0  0  0  0  # atno 17321 bound_to 7965
  140.5828  143.2171  151.7397 LP  0  0  0  0  0  0  0  0  0  0  0  0  # atno 17342 bound_to 10162
  139.4968  144.4055  152.0136 LP  0  0  0  0  0  0  0  0  0  0  0  0  # atno 17343 bound_to 10162
  157.7490  131.0351  150.4348 LP  0  0  0  0  0  0  0  0  0  0  0  0  # atno 17370 bound_to 10713
  156.4587  130.4027  149.6590 LP  0  0  0  0  0  0  0  0  0  0  0  0  # atno 17371 bound_to 10713
  140.8744  134.2688  157.5175 LP  0  0  0  0  0  0  0  0  0  0  0  0  # atno 17394 bound_to 11000
  139.8705  134.9583  156.4297 LP  0  0  0  0  0  0  0  0  0  0  0  0  # atno 17395 bound_to 11000

$$$$
