AV-unprocessed.smi:1207|AV-procd|sdf|5052|dock3
  -GOLD-   22720 4 83D 1   1.00000     0.00000
 Structure written by MMmdl.
 52 54  0  0  0  0  0  0  0  0  2 V2000
  152.3947  143.2591  160.6321 C   0  0  0  0  0  0  0  0  0  0  0  0
  152.0573  142.4623  159.3843 C   0  0  0  0  0  0  0  0  0  0  0  0
  152.2210  141.0585  159.4000 C   0  0  0  0  0  0  0  0  0  0  0  0
  151.9190  140.2815  158.2605 C   0  0  0  0  0  0  0  0  0  0  0  0
  152.0040  138.9151  158.0550 N   0  0  0  0  0  0  0  0  0  0  0  0
  151.5862  138.8060  156.7972 C   0  0  0  0  0  0  0  0  0  0  0  0
  151.2438  139.9426  156.1605 N   0  0  0  0  0  0  0  0  0  0  0  0
  150.7649  140.0768  154.7963 C   0  0  0  0  0  0  0  0  0  0  0  0
  149.4182  140.8202  154.7225 C   0  0  1  0  0  0  0  0  0  0  0  0
  149.1835  141.2384  153.3912 O   0  0  0  0  0  0  0  0  0  0  0  0
  148.2379  139.9435  155.1842 C   0  0  0  0  0  0  0  0  0  0  0  0
  146.9736  140.7197  155.2441 N   0  3  1  0  0  0  0  0  0  0  0  0
  145.7858  139.8519  155.4167 C   0  0  0  0  0  0  0  0  0  0  0  0
  147.0164  141.8330  156.2270 C   0  0  0  0  0  0  0  0  0  0  0  0
  145.7602  142.6595  156.1554 C   0  0  0  0  0  0  0  0  0  0  0  0
  145.2307  143.3293  155.0151 C   0  0  0  0  0  0  0  0  0  0  0  0
  145.7836  143.3733  153.6187 C   0  0  0  0  0  0  0  0  0  0  0  0
  144.1065  143.9659  155.2945 N   0  0  0  0  0  0  0  0  0  0  0  0
  143.8635  143.7367  156.6519 O   0  0  0  0  0  0  0  0  0  0  0  0
  144.8616  142.9593  157.1432 C   0  0  0  0  0  0  0  0  0  0  0  0
  144.7743  142.6071  158.5901 C   0  0  0  0  0  0  0  0  0  0  0  0
  151.4434  140.9523  157.0960 C   0  0  0  0  0  0  0  0  0  0  0  0
  151.2738  142.3481  157.0688 C   0  0  0  0  0  0  0  0  0  0  0  0
  151.5838  143.1097  158.2147 C   0  0  0  0  0  0  0  0  0  0  0  0
  151.4028  144.6168  158.1736 C   0  0  0  0  0  0  0  0  0  0  0  0
  152.7112  142.6078  161.4473 H   0  0  0  0  0  0  0  0  0  0  0  0
  151.5257  143.8221  160.9736 H   0  0  0  0  0  0  0  0  0  0  0  0
  153.2050  143.9599  160.4296 H   0  0  0  0  0  0  0  0  0  0  0  0
  152.5820  140.5650  160.2907 H   0  0  0  0  0  0  0  0  0  0  0  0
  151.5297  137.8437  156.3096 H   0  0  0  0  0  0  0  0  0  0  0  0
  151.5224  140.5931  154.2044 H   0  0  0  0  0  0  0  0  0  0  0  0
  150.6661  139.0755  154.3750 H   0  0  0  0  0  0  0  0  0  0  0  0
  149.4822  141.7135  155.3427 H   0  0  0  0  0  0  0  0  0  0  0  0
  149.3048  140.4997  152.8139 H   0  0  0  0  0  0  0  0  0  0  0  0
  148.1371  139.1018  154.4967 H   0  0  0  0  0  0  0  0  0  0  0  0
  148.4368  139.5097  156.1656 H   0  0  0  0  0  0  0  0  0  0  0  0
  145.8166  139.3328  156.3756 H   0  0  0  0  0  0  0  0  0  0  0  0
  145.7352  139.1042  154.6246 H   0  0  0  0  0  0  0  0  0  0  0  0
  144.8652  140.4334  155.3717 H   0  0  0  0  0  0  0  0  0  0  0  0
  147.1837  141.4315  157.2272 H   0  0  0  0  0  0  0  0  0  0  0  0
  147.8783  142.4713  156.0330 H   0  0  0  0  0  0  0  0  0  0  0  0
  146.8212  143.7086  153.6191 H   0  0  0  0  0  0  0  0  0  0  0  0
  145.2185  144.0537  152.9802 H   0  0  0  0  0  0  0  0  0  0  0  0
  145.7538  142.3864  153.1570 H   0  0  0  0  0  0  0  0  0  0  0  0
  145.6256  142.0028  158.9025 H   0  0  0  0  0  0  0  0  0  0  0  0
  143.8662  142.0394  158.7941 H   0  0  0  0  0  0  0  0  0  0  0  0
  144.7558  143.5065  159.2058 H   0  0  0  0  0  0  0  0  0  0  0  0
  150.9100  142.8291  156.1731 H   0  0  0  0  0  0  0  0  0  0  0  0
  151.0720  144.9516  157.1900 H   0  0  0  0  0  0  0  0  0  0  0  0
  152.3422  145.1219  158.3992 H   0  0  0  0  0  0  0  0  0  0  0  0
  150.6559  144.9309  158.9032 H   0  0  0  0  0  0  0  0  0  0  0  0
  146.8796  141.1441  154.3319 H   0  0  0  0  0  0  0  0  0  0  0  0
  1  2  1  0  0  0  0
  1 26  1  0  0  0  0
  1 27  1  0  0  0  0
  1 28  1  0  0  0  0
  2 24  1  0  0  0  0
  2  3  2  0  0  0  0
  3  4  1  0  0  0  0
  3 29  1  0  0  0  0
  4 22  2  0  0  0  0
  4  5  1  0  0  0  0
  5  6  2  0  0  0  0
  6  7  1  0  0  0  0
  6 30  1  0  0  0  0
  7  8  1  0  0  0  0
  7 22  1  0  0  0  0
  8  9  1  0  0  0  0
  8 31  1  0  0  0  0
  8 32  1  0  0  0  0
  9 10  1  0  0  0  0
  9 11  1  0  0  0  0
  9 33  1  0  0  0  0
 10 34  1  0  0  0  0
 11 12  1  0  0  0  0
 11 35  1  0  0  0  0
 11 36  1  0  0  0  0
 12 13  1  0  0  0  0
 12 14  1  0  0  0  0
 12 52  1  0  0  0  0
 13 37  1  0  0  0  0
 13 38  1  0  0  0  0
 13 39  1  0  0  0  0
 14 15  1  0  0  0  0
 14 40  1  0  0  0  0
 14 41  1  0  0  0  0
 15 20  2  0  0  0  0
 15 16  1  0  0  0  0
 16 17  1  0  0  0  0
 16 18  2  0  0  0  0
 17 42  1  0  0  0  0
 17 43  1  0  0  0  0
 17 44  1  0  0  0  0
 18 19  1  0  0  0  0
 19 20  1  0  0  0  0
 20 21  1  0  0  0  0
 21 45  1  0  0  0  0
 21 46  1  0  0  0  0
 21 47  1  0  0  0  0
 22 23  1  0  0  0  0
 23 24  2  0  0  0  0
 23 48  1  0  0  0  0
 24 25  1  0  0  0  0
 25 49  1  0  0  0  0
 25 50  1  0  0  0  0
 25 51  1  0  0  0  0
M  CHG  1  12   1
M  END
> <s_m_source_file>
AV-unprocessed.smi

> <i_m_source_file_index>
1207

> <i_lp_mmshare_version>
43012

> <i_f3d_flags>
0

> <s_epik_input>
W0NIM11jKFtjSF0xKWMoW0NIM10pW2NIXWMoYzEyKW4oW2NIXW4yKVtDSDJdW0NASF0oW09IXSlbQ0gyXU4oW0NIM10pW0NIMl1jM2MoW0NIM10pbm9jM1tDSDNd

> <s_epik_cmdline>
J2VwaWtfcHl0aG9uJywgJy1waCcsICc3LjAnLCAnLXRuJywgJzgnLCAnLW1hJywgJzIwMCcsICctbWV0YWxfYmluZGluZycsICctaW1hZScsICc8aW5maWxlLm1hZT4nLCAnLW9tYWUnLCAnPG91dGZpbGUubWFlPic=

> <r_epik_Ionization_Penalty>
0.646518

> <r_epik_Ionization_Penalty_Charging>
0.559419

> <r_epik_Ionization_Penalty_Neutral>
0.0870981

> <r_epik_State_Penalty>
0.661677

> <r_epik_Charging_Adjusted_Penalty>
1.2211

> <i_epik_Tot_Q>
1

> <i_epik_Tot_abs_Q>
1

> <r_epik_Metal_State_Penalty>
0.649158

> <b_epik_Metal_Only>
0

> <s_lp_Force_Field>
OPLS_2005

> <r_lp_Energy>
8.27883

> <b_lp_Chiralities_Consistent>
1

> <s_lp_Variant>
AV-unprocessed.smi:1207-4

> <Gold.Version>
5.8.1

> <Gold.Id.Protein>
6NUR|6NUR_protein|mol2

> <Gold.PLP.Fitness>
48.0732

> <Gold.PLP.PLP>
-42.9295

> <Gold.PLP.part.hbond>
-2.9985

> <Gold.PLP.part.metal>
0.0000

> <Gold.PLP.part.buried>
-4.4463

> <Gold.PLP.part.nonpolar>
-34.8990

> <Gold.PLP.part.repulsive>
0.1573

> <Gold.PLP.ligand.clash>
0.0000

> <Gold.PLP.ligand.torsion>
0.2113

> <Gold.PLP.Chemscore.Hbond>
1.8000

> <Gold.PLP.Chemscore.CHOScore>
0.0000

> <Gold.PLP.Chemscore.Metal>
0.0000

> <Gold.Chemscore.Hbonds>
donor molecule, donor type, donor heavy atom, donor atom, acceptor molecule, acceptor atom, score
      L1  H    10    34       P1  7957  0.86
      P1  H  8011  8017       L1    10  0.80

> <Gold.PLP.Chemscore.Internal.Correction>
0.1663

> <Gold.Rescore>
     Score         DG    S(hbond)    S(metal)    S(lipo)     H(rot)  DE(clash)    DE(int)     intcor
     15.97     -16.51       1.33        0.00     110.13       2.46       0.33       0.22       ----

> <Gold.Chemscore.Fitness>
15.9658

> <Gold.Chemscore.DG>
-16.5109

> <Gold.Chemscore.ZeroCoef>
-5.4800

> <Gold.Chemscore.Hbond>
1.3276

> <Gold.Chemscore.Metal>
0.0000

> <Gold.Chemscore.Lipo>
110.1319

> <Gold.Chemscore.Internal_Hbond>
0.0000

> <Gold.Chemscore.DEClash>
0.3273

> <Gold.Chemscore.DEInternal>
0.2177

> <Gold.Chemscore.Rot>
2.4565

> <Gold.Chemscore.Internal.Correction>
   9.000000E+99

> <Gold.Chemscore.Hbonds>
donor molecule, donor type, donor heavy atom, donor atom, acceptor molecule, acceptor atom, score
      L1  H    10    34       P1  7957  0.85
      P1  H  8011  8017       L1    10  0.11

> <Gold.Chemscore.Hbond.Weighted>
-4.4341

> <Gold.Chemscore.Metal.Weighted>
-0.0000

> <Gold.Chemscore.Lipo.Weighted>
-12.8854

> <Gold.Chemscore.Internal_Hbond.Weighted>
0.0000

> <Gold.Chemscore.DEClash.Weighted>
0.3273

> <Gold.Chemscore.DEInternal.Weighted>
0.2177

> <Gold.Chemscore.Rot.Weighted>
6.2887

> <Gold.Chemscore.Internal.Correction.Weighted>
   9.000000E+99

> <Gold.Protein.RotatedTorsions>
[ 6907 6896 6895 6894 ] final  -23.21 input  -60.11 | X-H torsion
[ 7974 7965 7964 7962 ] final  132.10 input  175.53 | X-H torsion
[ 8008 7997 7996 7995 ] final   70.21 input   59.86 | X-H torsion
[ 10167 10162 10161 10158 ] final   10.49 input  -65.29 | X-H torsion
[ 10718 10713 10712 10709 ] final  106.76 input   66.30 | X-H torsion
[ 10763 10752 10751 10750 ] final   82.41 input  -60.55 | X-H torsion
[ 11005 11000 10999 10996 ] final -104.03 input  -57.11 | X-H torsion

> <Gold.Protein.ActiveResidues>
 VAL166  LYS551  ARG553  GLY616  TRP617  ASP618  TYR619  PRO620  LYS621  CYS622 
 ASP623  PHE694  ASN695  SER759  ASP760  ASP761  ALA762  ILE779  LEU786  VAL792 
 PHE793  MET794  SER795  GLU796  ALA797  LYS798  CYS799  TRP800  GLU811  SER814 

> <Gold.Protein.RotatedAtoms>
  151.2073  135.0467  159.8896 H   0  0  0  0  0  0  0  0  0  0  0  0  # atno 6907 bound_to 6896
  152.5428  134.0784  159.8235 H   0  0  0  0  0  0  0  0  0  0  0  0  # atno 6908 bound_to 6896
  151.0933  133.5252  159.2645 H   0  0  0  0  0  0  0  0  0  0  0  0  # atno 6909 bound_to 6896
  145.0004  139.4317  143.5295 H   0  0  0  0  0  0  0  0  0  0  0  0  # atno 7974 bound_to 7965
  155.7354  140.3491  155.5079 H   0  0  0  0  0  0  0  0  0  0  0  0  # atno 8008 bound_to 7997
  155.9144  140.1056  157.1276 H   0  0  0  0  0  0  0  0  0  0  0  0  # atno 8009 bound_to 7997
  154.4060  140.1261  156.4585 H   0  0  0  0  0  0  0  0  0  0  0  0  # atno 8010 bound_to 7997
  140.6191  143.8244  150.7153 H   0  0  0  0  0  0  0  0  0  0  0  0  # atno 10167 bound_to 10162
  157.6655  131.0858  150.6055 H   0  0  0  0  0  0  0  0  0  0  0  0  # atno 10718 bound_to 10713
  153.1200  135.4729  154.9180 H   0  0  0  0  0  0  0  0  0  0  0  0  # atno 10763 bound_to 10752
  154.7566  135.3120  154.8460 H   0  0  0  0  0  0  0  0  0  0  0  0  # atno 10764 bound_to 10752
  153.9026  135.6873  153.4808 H   0  0  0  0  0  0  0  0  0  0  0  0  # atno 10765 bound_to 10752
  141.1119  133.8689  157.1560 H   0  0  0  0  0  0  0  0  0  0  0  0  # atno 11005 bound_to 11000
  146.3451  139.9389  142.8743 LP  0  0  0  0  0  0  0  0  0  0  0  0  # atno 17320 bound_to 7965
  145.2161  140.9916  143.4072 LP  0  0  0  0  0  0  0  0  0  0  0  0  # atno 17321 bound_to 7965
  140.1830  143.4099  152.1919 LP  0  0  0  0  0  0  0  0  0  0  0  0  # atno 17342 bound_to 10162
  139.5423  144.7268  151.4693 LP  0  0  0  0  0  0  0  0  0  0  0  0  # atno 17343 bound_to 10162
  156.6356  130.4444  149.5771 LP  0  0  0  0  0  0  0  0  0  0  0  0  # atno 17370 bound_to 10713
  156.2248  130.6759  151.1405 LP  0  0  0  0  0  0  0  0  0  0  0  0  # atno 17371 bound_to 10713
  140.0018  135.0025  157.0205 LP  0  0  0  0  0  0  0  0  0  0  0  0  # atno 17394 bound_to 11000
  140.4752  134.1346  155.7209 LP  0  0  0  0  0  0  0  0  0  0  0  0  # atno 17395 bound_to 11000

$$$$
