#       Name:                AV-unprocessed.smi:2845
#       Creating user name   scv26
#       Creation time:       Fri Mar 27 15:39:38 2020


#       File generated by GOLD software.
#

@<TRIPOS>MOLECULE
AV-unprocessed.smi:2845
    47    49     1
SMALL
NO_CHARGES


@<TRIPOS>ATOM
      1 ****        -4.4949   4.0890   1.8782 C.3            1 S1                 0.0000
      2 ****        -3.6760   3.0880   1.0825 C.ar           1 S1                 0.0000
      3 ****        -3.2098   3.4484  -0.2017 C.ar           1 S1                 0.0000
      4 ****        -2.4465   2.5465  -0.9748 C.ar           1 S1                 0.0000
      5 ****        -1.9008   2.6878  -2.2391 N.2            1 S1                 0.0000
      6 ****        -1.3108   1.5084  -2.4085 C.2            1 S1                 0.0000
      7 ****        -1.4059   0.6195  -1.4011 N.pl3          1 S1                 0.0000
      8 ****        -0.8476  -0.7210  -1.3679 C.3            1 S1                 0.0000
      9 ****         0.6838  -0.7191  -1.2025 C.3            1 S1                 0.0000
     10 ****         1.0309  -0.0710   0.0071 O.3            1 S1                 0.0000
     11 ****         1.2666  -2.1449  -1.2174 C.3            1 S1                 0.0000
     12 ****         2.7181  -2.1483  -1.2349 N.pl3          1 S1                 0.0000
     13 ****         3.5694  -2.0736  -2.2621 C.2            1 S1                 0.0000
     14 ****         4.8472  -2.0953  -1.9070 N.2            1 S1                 0.0000
     15 ****         4.6900  -2.1900  -0.5551 C.2            1 S1                 0.0000
     16 ****         6.1263  -2.2602   0.5612 S.o            1 S1                 0.0000
     17 ****         6.0566  -4.0920   0.8450 C.3            1 S1                 0.0000
     18 ****         5.6834  -1.5856   1.8612 O.2            1 S1                 0.0000
     19 ****         3.4415  -2.2284  -0.0928 N.2            1 S1                 0.0000
     20 ****        -2.1572   1.2637  -0.4233 C.ar           1 S1                 0.0000
     21 ****        -2.6142   0.8945   0.8545 C.ar           1 S1                 0.0000
     22 ****        -3.3776   1.8071   1.6127 C.ar           1 S1                 0.0000
     23 ****        -3.8683   1.3975   2.9901 C.3            1 S1                 0.0000
     24 ****        -4.6400   5.0162   1.3229 H              1 S1                 0.0000
     25 ****        -3.9929   4.3348   2.8142 H              1 S1                 0.0000
     26 ****        -5.4789   3.6805   2.1089 H              1 S1                 0.0000
     27 ****        -3.4361   4.4241  -0.6061 H              1 S1                 0.0000
     28 ****        -0.7758   1.2763  -3.3180 H              1 S1                 0.0000
     29 ****        -1.3176  -1.2812  -0.5587 H              1 S1                 0.0000
     30 ****        -1.1243  -1.2237  -2.2954 H              1 S1                 0.0000
     31 ****         1.1260  -0.1508  -2.0221 H              1 S1                 0.0000
     32 ****         1.9706  -0.0993   0.1058 H              1 S1                 0.0000
     33 ****         0.9175  -2.7150  -0.3547 H              1 S1                 0.0000
     34 ****         0.9225  -2.6794  -2.1038 H              1 S1                 0.0000
     35 ****         3.2470  -1.9985  -3.2903 H              1 S1                 0.0000
     36 ****         5.5290  -4.5976   0.0361 H              1 S1                 0.0000
     37 ****         5.5436  -4.3082   1.7820 H              1 S1                 0.0000
     38 ****         7.0662  -4.4987   0.9015 H              1 S1                 0.0000
     39 ****        -2.3783  -0.0829   1.2482 H              1 S1                 0.0000
     40 ****        -3.5304   0.3942   3.2507 H              1 S1                 0.0000
     41 ****        -4.9579   1.4027   3.0239 H              1 S1                 0.0000
     42 ****        -3.4941   2.0839   3.7499 H              1 S1                 0.0000
     43 ****        -1.9400   3.4702  -2.8607 LP             1 S1                 0.0000
     44 ****         0.5971  -0.5394   0.7768 LP             1 S1                 0.0000
     45 ****         0.7236   0.8803  -0.0202 LP             1 S1                 0.0000
     46 ****         5.6771  -2.0544  -2.4634 LP             1 S1                 0.0000
     47 ****         3.1214  -2.2982   0.8520 LP             1 S1                 0.0000
@<TRIPOS>BOND
    1    1    2 1     
    2    1   24 1     
    3    1   25 1     
    4    1   26 1     
    5    2   22 ar    
    6    2    3 ar    
    7    3    4 ar    
    8    3   27 1     
    9    4   20 ar    
   10    4    5 1     
   11    5    6 2     
   12    6    7 1     
   13    6   28 1     
   14    7    8 1     
   15    7   20 1     
   16    8    9 1     
   17    8   29 1     
   18    8   30 1     
   19    9   10 1     
   20    9   11 1     
   21    9   31 1     
   22   10   32 1     
   23   11   12 1     
   24   11   33 1     
   25   11   34 1     
   26   12   19 1     
   27   12   13 1     
   28   13   14 2     
   29   13   35 1     
   30   14   15 1     
   31   15   16 1     
   32   15   19 2     
   33   16   17 1     
   34   16   18 2     
   35   17   36 1     
   36   17   37 1     
   37   17   38 1     
   38   20   21 ar    
   39   21   22 ar    
   40   21   39 1     
   41   22   23 1     
   42   23   40 1     
   43   23   41 1     
   44   23   42 1     
   45    5   43 1     
   46   10   44 1     
   47   10   45 1     
   48   14   46 1     
   49   19   47 1     
@<TRIPOS>SUBSTRUCTURE
      1 S1             1
@<TRIPOS>SET
LONE_PAIRS      STATIC     ATOMS    <user>   **** ""
6 43 44 45 46 18 47
DONOR_HYDROGENS      STATIC     ATOMS    <user>   **** ""
1 32
ATOM$BLUE        STATIC     ATOMS    COLORGROUP SYSTEM
6 43 44 45 46 18 47
ATOM$RED        STATIC     ATOMS    COLORGROUP SYSTEM
1 32
