AV-unprocessed.smi:1525|AV-procd|sdf|6141|dock7
  -GOLD-   22720 6283D 1   1.00000     0.00000
 Structure written by MMmdl.
 48 50  0  0  0  0  0  0  0  0  1 V2000
  149.7459  135.1746  156.1147 O   0  0  0  0  0  0  0  0  0  0  0  0
  149.2004  135.5933  155.0939 C   0  0  0  0  0  0  0  0  0  0  0  0
  148.3007  134.8902  154.3913 N   0  0  0  0  0  0  0  0  0  0  0  0
  147.8685  133.5296  154.6955 C   0  0  0  0  0  0  0  0  0  0  0  0
  148.3208  132.5345  153.6084 C   0  0  0  0  0  0  0  0  0  0  0  0
  147.3118  132.1944  152.6051 N   0  0  0  0  0  0  0  0  0  0  0  0
  146.1818  131.4580  153.1672 C   0  0  0  0  0  0  0  0  0  0  0  0
  145.1356  131.1131  152.0933 C   0  0  0  0  0  0  0  0  0  0  0  0
  144.6952  132.3072  151.4542 O   0  0  0  0  0  0  0  0  0  0  0  0
  145.7630  133.0373  150.8586 C   0  0  0  0  0  0  0  0  0  0  0  0
  146.8103  133.3860  151.9305 C   0  0  0  0  0  0  0  0  0  0  0  0
  149.4312  136.7875  154.5231 N   0  0  0  0  0  0  0  0  0  0  0  0
  150.3728  137.7882  154.8998 C   0  0  0  0  0  0  0  0  0  0  0  0
  151.6062  137.4650  155.5179 C   0  0  0  0  0  0  0  0  0  0  0  0
  152.5070  138.4938  155.8419 C   0  0  0  0  0  0  0  0  0  0  0  0
  152.1419  139.8158  155.5402 C   0  0  0  0  0  0  0  0  0  0  0  0
  150.9639  140.1430  154.9732 N   0  0  0  0  0  0  0  0  0  0  0  0
  150.0779  139.1630  154.6680 C   0  0  0  0  0  0  0  0  0  0  0  0
  148.8495  139.5693  154.0975 N   0  0  0  0  0  0  0  0  0  0  0  0
  147.6176  139.1769  154.7754 C   0  0  0  0  0  0  0  0  0  0  0  0
  146.6463  140.3527  154.6250 C   0  0  0  0  0  0  0  0  0  0  0  0
  147.1863  141.1139  153.4186 C   0  0  0  0  0  0  0  0  0  0  0  0
  148.6927  140.9160  153.5576 C   0  0  0  0  0  0  0  0  0  0  0  0
  147.9071  135.3158  153.5651 H   0  0  0  0  0  0  0  0  0  0  0  0
  148.1916  133.2217  155.6903 H   0  0  0  0  0  0  0  0  0  0  0  0
  146.7790  133.5389  154.7316 H   0  0  0  0  0  0  0  0  0  0  0  0
  149.2072  132.9289  153.1097 H   0  0  0  0  0  0  0  0  0  0  0  0
  148.6468  131.6221  154.1100 H   0  0  0  0  0  0  0  0  0  0  0  0
  146.5210  130.5331  153.6315 H   0  0  0  0  0  0  0  0  0  0  0  0
  145.7101  132.0474  153.9550 H   0  0  0  0  0  0  0  0  0  0  0  0
  145.5544  130.4286  151.3537 H   0  0  0  0  0  0  0  0  0  0  0  0
  144.2790  130.6125  152.5447 H   0  0  0  0  0  0  0  0  0  0  0  0
  146.2125  132.4492  150.0569 H   0  0  0  0  0  0  0  0  0  0  0  0
  145.3654  133.9458  150.4060 H   0  0  0  0  0  0  0  0  0  0  0  0
  146.3682  134.0665  152.6600 H   0  0  0  0  0  0  0  0  0  0  0  0
  147.6367  133.9226  151.4630 H   0  0  0  0  0  0  0  0  0  0  0  0
  148.9620  136.9522  153.6447 H   0  0  0  0  0  0  0  0  0  0  0  0
  151.8764  136.4482  155.7566 H   0  0  0  0  0  0  0  0  0  0  0  0
  153.4562  138.2732  156.3079 H   0  0  0  0  0  0  0  0  0  0  0  0
  152.8090  140.6339  155.7673 H   0  0  0  0  0  0  0  0  0  0  0  0
  147.2106  138.2954  154.2800 H   0  0  0  0  0  0  0  0  0  0  0  0
  147.7851  138.9297  155.8246 H   0  0  0  0  0  0  0  0  0  0  0  0
  145.6114  140.0341  154.5000 H   0  0  0  0  0  0  0  0  0  0  0  0
  146.6985  140.9878  155.5104 H   0  0  0  0  0  0  0  0  0  0  0  0
  146.8315  140.6514  152.4966 H   0  0  0  0  0  0  0  0  0  0  0  0
  146.8941  142.1643  153.4077 H   0  0  0  0  0  0  0  0  0  0  0  0
  149.0922  141.6613  154.2466 H   0  0  0  0  0  0  0  0  0  0  0  0
  149.2049  141.0222  152.6011 H   0  0  0  0  0  0  0  0  0  0  0  0
  1  2  2  0  0  0  0
  2  3  1  0  0  0  0
  2 12  1  0  0  0  0
  3  4  1  0  0  0  0
  3 24  1  0  0  0  0
  4  5  1  0  0  0  0
  4 25  1  0  0  0  0
  4 26  1  0  0  0  0
  5  6  1  0  0  0  0
  5 27  1  0  0  0  0
  5 28  1  0  0  0  0
  6 11  1  0  0  0  0
  6  7  1  0  0  0  0
  7  8  1  0  0  0  0
  7 29  1  0  0  0  0
  7 30  1  0  0  0  0
  8  9  1  0  0  0  0
  8 31  1  0  0  0  0
  8 32  1  0  0  0  0
  9 10  1  0  0  0  0
 10 11  1  0  0  0  0
 10 33  1  0  0  0  0
 10 34  1  0  0  0  0
 11 35  1  0  0  0  0
 11 36  1  0  0  0  0
 12 13  1  0  0  0  0
 12 37  1  0  0  0  0
 13 18  1  0  0  0  0
 13 14  2  0  0  0  0
 14 15  1  0  0  0  0
 14 38  1  0  0  0  0
 15 16  2  0  0  0  0
 15 39  1  0  0  0  0
 16 17  1  0  0  0  0
 16 40  1  0  0  0  0
 17 18  2  0  0  0  0
 18 19  1  0  0  0  0
 19 23  1  0  0  0  0
 19 20  1  0  0  0  0
 20 21  1  0  0  0  0
 20 41  1  0  0  0  0
 20 42  1  0  0  0  0
 21 22  1  0  0  0  0
 21 43  1  0  0  0  0
 21 44  1  0  0  0  0
 22 23  1  0  0  0  0
 22 45  1  0  0  0  0
 22 46  1  0  0  0  0
 23 47  1  0  0  0  0
 23 48  1  0  0  0  0
M  END
> <s_m_source_file>
AV-unprocessed.smi

> <i_m_source_file_index>
1525

> <i_lp_mmshare_version>
43012

> <i_f3d_flags>
0

> <s_epik_input>
W0NIMl0xW0NIMl1PW0NIMl1bQ0gyXU4xW0NIMl1bQ0gyXVtOSF1DKD1PKVtOSF1jMltjSF1bY0hdW2NIXW5jMk4zW0NIMl1bQ0gyXVtDSDJdW0NIMl0z

> <s_epik_cmdline>
J2VwaWtfcHl0aG9uJywgJy1waCcsICc3LjAnLCAnLXRuJywgJzgnLCAnLW1hJywgJzIwMCcsICctbWV0YWxfYmluZGluZycsICctaW1hZScsICc8aW5maWxlLm1hZT4nLCAnLW9tYWUnLCAnPG91dGZpbGUubWFlPic=

> <r_lp_tautomer_probability>
1

> <r_epik_Ionization_Penalty>
0.363951

> <r_epik_Ionization_Penalty_Charging>
0

> <r_epik_Ionization_Penalty_Neutral>
0.363951

> <r_epik_State_Penalty>
0.349372

> <r_epik_Charging_Adjusted_Penalty>
0.349372

> <i_epik_Tot_Q>
0

> <i_epik_Tot_abs_Q>
0

> <r_epik_Metal_State_Penalty>
0.33306

> <b_epik_Metal_Only>
0

> <s_lp_Force_Field>
OPLS_2005

> <r_lp_Energy>
53.9404

> <b_lp_Chiralities_Consistent>
1

> <s_lp_Variant>
AV-unprocessed.smi:1525-1

> <Gold.Version>
5.8.1

> <Gold.Id.Protein>
6NUR|6NUR_protein|mol2

> <Gold.PLP.Fitness>
39.7009

> <Gold.PLP.PLP>
-34.2303

> <Gold.PLP.part.hbond>
-3.0000

> <Gold.PLP.part.metal>
0.0000

> <Gold.PLP.part.buried>
-2.8254

> <Gold.PLP.part.nonpolar>
-29.9881

> <Gold.PLP.part.repulsive>
2.0391

> <Gold.PLP.ligand.clash>
0.0000

> <Gold.PLP.ligand.torsion>
0.6975

> <Gold.PLP.Chemscore.Hbond>
2.1620

> <Gold.PLP.Chemscore.CHOScore>
0.0000

> <Gold.PLP.Chemscore.Metal>
0.0000

> <Gold.Chemscore.Hbonds>
donor molecule, donor type, donor heavy atom, donor atom, acceptor molecule, acceptor atom, score
      L1  H     3    24       P1  7948  0.35
      L1  H    12    37       P1  7948  0.75
      P1  H  7989  7998       L1    17  0.85

> <Gold.PLP.Chemscore.Internal.Correction>
0.3797

> <Gold.Rescore>
     Score         DG    S(hbond)    S(metal)    S(lipo)     H(rot)  DE(clash)    DE(int)     intcor
     12.39     -15.91       1.41        0.00      83.80       1.60       1.11       2.41       ----

> <Gold.Chemscore.Fitness>
12.3912

> <Gold.Chemscore.DG>
-15.9141

> <Gold.Chemscore.ZeroCoef>
-5.4800

> <Gold.Chemscore.Hbond>
1.4147

> <Gold.Chemscore.Metal>
0.0000

> <Gold.Chemscore.Lipo>
83.8005

> <Gold.Chemscore.Internal_Hbond>
0.0000

> <Gold.Chemscore.DEClash>
1.1128

> <Gold.Chemscore.DEInternal>
2.4100

> <Gold.Chemscore.Rot>
1.5998

> <Gold.Chemscore.Internal.Correction>
   9.000000E+99

> <Gold.Chemscore.Hbonds>
donor molecule, donor type, donor heavy atom, donor atom, acceptor molecule, acceptor atom, score
      L1  H     3    24       P1  7948  0.34
      L1  H    12    37       P1  7948  0.76
      P1  H  7989  7998       L1    17  0.11

> <Gold.Chemscore.Hbond.Weighted>
-4.7250

> <Gold.Chemscore.Metal.Weighted>
-0.0000

> <Gold.Chemscore.Lipo.Weighted>
-9.8047

> <Gold.Chemscore.Internal_Hbond.Weighted>
0.0000

> <Gold.Chemscore.DEClash.Weighted>
1.1128

> <Gold.Chemscore.DEInternal.Weighted>
2.4100

> <Gold.Chemscore.Rot.Weighted>
4.0956

> <Gold.Chemscore.Internal.Correction.Weighted>
   9.000000E+99

> <Gold.Protein.RotatedTorsions>
[ 6907 6896 6895 6894 ] final -171.84 input  -60.11 | X-H torsion
[ 7974 7965 7964 7962 ] final   10.35 input  175.53 | X-H torsion
[ 8008 7997 7996 7995 ] final   55.80 input   59.86 | X-H torsion
[ 10167 10162 10161 10158 ] final  146.03 input  -65.29 | X-H torsion
[ 10718 10713 10712 10709 ] final  170.90 input   66.30 | X-H torsion
[ 10763 10752 10751 10750 ] final  164.35 input  -60.55 | X-H torsion
[ 11005 11000 10999 10996 ] final  170.25 input  -57.11 | X-H torsion

> <Gold.Protein.ActiveResidues>
 VAL166  LYS551  ARG553  GLY616  TRP617  ASP618  TYR619  PRO620  LYS621  CYS622 
 ASP623  PHE694  ASN695  SER759  ASP760  ASP761  ALA762  ILE779  LEU786  VAL792 
 PHE793  MET794  SER795  GLU796  ALA797  LYS798  CYS799  TRP800  GLU811  SER814 

> <Gold.Protein.RotatedAtoms>
  151.5304  133.3450  159.2916 H   0  0  0  0  0  0  0  0  0  0  0  0  # atno 6907 bound_to 6896
  150.8597  134.7948  159.7084 H   0  0  0  0  0  0  0  0  0  0  0  0  # atno 6908 bound_to 6896
  152.4620  134.5171  159.9823 H   0  0  0  0  0  0  0  0  0  0  0  0  # atno 6909 bound_to 6896
  146.2389  139.9647  142.8454 H   0  0  0  0  0  0  0  0  0  0  0  0  # atno 7974 bound_to 7965
  155.5070  140.3476  155.4381 H   0  0  0  0  0  0  0  0  0  0  0  0  # atno 8008 bound_to 7997
  156.0875  140.1402  156.9661 H   0  0  0  0  0  0  0  0  0  0  0  0  # atno 8009 bound_to 7997
  154.4615  140.0933  156.6883 H   0  0  0  0  0  0  0  0  0  0  0  0  # atno 8010 bound_to 7997
  139.4915  144.5859  151.6779 H   0  0  0  0  0  0  0  0  0  0  0  0  # atno 10167 bound_to 10162
  157.0014  131.0177  151.2829 H   0  0  0  0  0  0  0  0  0  0  0  0  # atno 10718 bound_to 10713
  154.3076  135.2758  155.2581 H   0  0  0  0  0  0  0  0  0  0  0  0  # atno 10763 bound_to 10752
  154.4991  135.5813  153.6520 H   0  0  0  0  0  0  0  0  0  0  0  0  # atno 10764 bound_to 10752
  152.9892  135.6153  154.3251 H   0  0  0  0  0  0  0  0  0  0  0  0  # atno 10765 bound_to 10752
  140.3064  134.7553  157.3957 H   0  0  0  0  0  0  0  0  0  0  0  0  # atno 11005 bound_to 11000
  145.1738  140.9734  143.4306 LP  0  0  0  0  0  0  0  0  0  0  0  0  # atno 17320 bound_to 7965
  145.0004  139.3603  143.6170 LP  0  0  0  0  0  0  0  0  0  0  0  0  # atno 17321 bound_to 7965
  140.5475  144.0479  150.6113 LP  0  0  0  0  0  0  0  0  0  0  0  0  # atno 17342 bound_to 10162
  140.3522  143.2956  152.0474 LP  0  0  0  0  0  0  0  0  0  0  0  0  # atno 17343 bound_to 10162
  157.5387  130.8105  149.8003 LP  0  0  0  0  0  0  0  0  0  0  0  0  # atno 17370 bound_to 10713
  156.0169  130.3810  150.2081 LP  0  0  0  0  0  0  0  0  0  0  0  0  # atno 17371 bound_to 10713
  140.1064  134.5404  155.8306 LP  0  0  0  0  0  0  0  0  0  0  0  0  # atno 17394 bound_to 11000
  141.2117  133.6710  156.6606 LP  0  0  0  0  0  0  0  0  0  0  0  0  # atno 17395 bound_to 11000

$$$$
