AV-unprocessed.smi:2422|AV-procd|sdf|9557|dock10
  -GOLD-   2272013193D 1   1.00000     0.00000
 Structure written by MMmdl.
 46 47  0  0  0  0  0  0  0  0  1 V2000
  153.6678  132.7577  165.2076 C   0  0  0  0  0  0  0  0  0  0  0  0
  154.2968  133.0318  163.9682 O   0  0  0  0  0  0  0  0  0  0  0  0
  154.1854  134.3961  163.5905 C   0  0  0  0  0  0  0  0  0  0  0  0
  155.1957  134.7275  162.4661 C   0  0  0  0  0  0  0  0  0  0  0  0
  156.6207  134.3777  162.9345 C   0  0  0  0  0  0  0  0  0  0  0  0
  154.8774  133.8978  161.2039 C   0  0  0  0  0  0  0  0  0  0  0  0
  155.1824  136.1620  162.1503 N   0  0  0  0  0  0  0  0  0  0  0  0
  154.3494  136.8293  161.3335 C   0  0  0  0  0  0  0  0  0  0  0  0
  153.4436  136.2991  160.6904 O   0  0  0  0  0  0  0  0  0  0  0  0
  154.6407  138.1416  161.3201 N   0  0  0  0  0  0  0  0  0  0  0  0
  153.9939  139.1774  160.5971 C   0  0  0  0  0  0  0  0  0  0  0  0
  153.2868  138.9861  159.4410 N   0  0  0  0  0  0  0  0  0  0  0  0
  152.9151  140.2384  159.2116 C   0  0  0  0  0  0  0  0  0  0  0  0
  153.3418  141.1099  160.1302 N   0  0  0  0  0  0  0  0  0  0  0  0
  153.1518  142.5499  160.2148 C   0  0  0  0  0  0  0  0  0  0  0  0
  152.3525  142.9388  161.4753 C   0  0  0  0  0  0  0  0  0  0  0  0
  152.1682  144.4625  161.5695 C   0  0  0  0  0  0  0  0  0  0  0  0
  151.5069  145.0241  160.3005 C   0  0  0  0  0  0  0  0  0  0  0  0
  152.2993  144.6381  159.0411 C   0  0  0  0  0  0  0  0  0  0  0  0
  152.4813  143.1147  158.9442 C   0  0  0  0  0  0  0  0  0  0  0  0
  154.0665  140.4268  161.0511 N   0  0  0  0  0  0  0  0  0  0  0  0
  153.7831  131.7017  165.4512 H   0  0  0  0  0  0  0  0  0  0  0  0
  152.6008  132.9798  165.1662 H   0  0  0  0  0  0  0  0  0  0  0  0
  154.1159  133.3396  166.0142 H   0  0  0  0  0  0  0  0  0  0  0  0
  153.1694  134.5974  163.2470 H   0  0  0  0  0  0  0  0  0  0  0  0
  154.3494  135.0331  164.4607 H   0  0  0  0  0  0  0  0  0  0  0  0
  156.7027  133.3242  163.2032 H   0  0  0  0  0  0  0  0  0  0  0  0
  156.9115  134.9619  163.8086 H   0  0  0  0  0  0  0  0  0  0  0  0
  157.3554  134.5738  162.1525 H   0  0  0  0  0  0  0  0  0  0  0  0
  154.9698  132.8297  161.4032 H   0  0  0  0  0  0  0  0  0  0  0  0
  155.5588  134.1387  160.3871 H   0  0  0  0  0  0  0  0  0  0  0  0
  153.8619  134.0676  160.8459 H   0  0  0  0  0  0  0  0  0  0  0  0
  155.8831  136.7119  162.6249 H   0  0  0  0  0  0  0  0  0  0  0  0
  155.4105  138.4370  161.9018 H   0  0  0  0  0  0  0  0  0  0  0  0
  152.3204  140.5257  158.3569 H   0  0  0  0  0  0  0  0  0  0  0  0
  154.1446  142.9960  160.2958 H   0  0  0  0  0  0  0  0  0  0  0  0
  151.3736  142.4576  161.4608 H   0  0  0  0  0  0  0  0  0  0  0  0
  152.8626  142.5751  162.3680 H   0  0  0  0  0  0  0  0  0  0  0  0
  151.5661  144.7113  162.4438 H   0  0  0  0  0  0  0  0  0  0  0  0
  153.1382  144.9391  161.7167 H   0  0  0  0  0  0  0  0  0  0  0  0
  150.4875  144.6438  160.2210 H   0  0  0  0  0  0  0  0  0  0  0  0
  151.4273  146.1092  160.3716 H   0  0  0  0  0  0  0  0  0  0  0  0
  151.7882  145.0088  158.1520 H   0  0  0  0  0  0  0  0  0  0  0  0
  153.2764  145.1227  159.0602 H   0  0  0  0  0  0  0  0  0  0  0  0
  153.0790  142.8704  158.0653 H   0  0  0  0  0  0  0  0  0  0  0  0
  151.5064  142.6484  158.7940 H   0  0  0  0  0  0  0  0  0  0  0  0
  1  2  1  0  0  0  0
  1 22  1  0  0  0  0
  1 23  1  0  0  0  0
  1 24  1  0  0  0  0
  2  3  1  0  0  0  0
  3  4  1  0  0  0  0
  3 25  1  0  0  0  0
  3 26  1  0  0  0  0
  4  5  1  0  0  0  0
  4  6  1  0  0  0  0
  4  7  1  0  0  0  0
  5 27  1  0  0  0  0
  5 28  1  0  0  0  0
  5 29  1  0  0  0  0
  6 30  1  0  0  0  0
  6 31  1  0  0  0  0
  6 32  1  0  0  0  0
  7  8  1  0  0  0  0
  7 33  1  0  0  0  0
  8  9  2  0  0  0  0
  8 10  1  0  0  0  0
 10 11  1  0  0  0  0
 10 34  1  0  0  0  0
 11 21  2  0  0  0  0
 11 12  1  0  0  0  0
 12 13  2  0  0  0  0
 13 14  1  0  0  0  0
 13 35  1  0  0  0  0
 14 15  1  0  0  0  0
 14 21  1  0  0  0  0
 15 20  1  0  0  0  0
 15 16  1  0  0  0  0
 15 36  1  0  0  0  0
 16 17  1  0  0  0  0
 16 37  1  0  0  0  0
 16 38  1  0  0  0  0
 17 18  1  0  0  0  0
 17 39  1  0  0  0  0
 17 40  1  0  0  0  0
 18 19  1  0  0  0  0
 18 41  1  0  0  0  0
 18 42  1  0  0  0  0
 19 20  1  0  0  0  0
 19 43  1  0  0  0  0
 19 44  1  0  0  0  0
 20 45  1  0  0  0  0
 20 46  1  0  0  0  0
M  END
> <s_m_source_file>
AV-unprocessed.smi

> <i_m_source_file_index>
2422

> <i_lp_mmshare_version>
43012

> <i_f3d_flags>
0

> <s_epik_input>
W0NIM11PW0NIMl1DKFtDSDNdKShbQ0gzXSlbTkhdQyg9TylbTkhdYzFuW2NIXW4objEpW0NIXTJbQ0gyXVtDSDJdW0NIMl1bQ0gyXVtDSDJdMg==

> <s_epik_cmdline>
J2VwaWtfcHl0aG9uJywgJy1waCcsICc3LjAnLCAnLXRuJywgJzgnLCAnLW1hJywgJzIwMCcsICctbWV0YWxfYmluZGluZycsICctaW1hZScsICc8aW5maWxlLm1hZT4nLCAnLW9tYWUnLCAnPG91dGZpbGUubWFlPic=

> <r_lp_tautomer_probability>
1

> <r_epik_Ionization_Penalty>
0.000103736

> <r_epik_Ionization_Penalty_Charging>
0

> <r_epik_Ionization_Penalty_Neutral>
0.000103736

> <r_epik_State_Penalty>
-0

> <r_epik_Charging_Adjusted_Penalty>
0

> <i_epik_Tot_Q>
0

> <i_epik_Tot_abs_Q>
0

> <r_epik_Metal_State_Penalty>
-0

> <b_epik_Metal_Only>
0

> <s_lp_Force_Field>
OPLS_2005

> <r_lp_Energy>
18.085

> <b_lp_Chiralities_Consistent>
1

> <s_lp_Variant>
AV-unprocessed.smi:2422-1

> <Gold.Version>
5.8.1

> <Gold.Id.Protein>
6NUR|6NUR_protein|mol2

> <Gold.PLP.Fitness>
43.5164

> <Gold.PLP.PLP>
-42.0338

> <Gold.PLP.part.hbond>
-1.0000

> <Gold.PLP.part.metal>
0.0000

> <Gold.PLP.part.buried>
-5.4398

> <Gold.PLP.part.nonpolar>
-35.9262

> <Gold.PLP.part.repulsive>
0.0288

> <Gold.PLP.ligand.clash>
0.0000

> <Gold.PLP.ligand.torsion>
0.7646

> <Gold.PLP.Chemscore.Hbond>
0.9913

> <Gold.PLP.Chemscore.CHOScore>
0.0000

> <Gold.PLP.Chemscore.Metal>
0.0000

> <Gold.Chemscore.Hbonds>
donor molecule, donor type, donor heavy atom, donor atom, acceptor molecule, acceptor atom, score
      P1  H  6896  6907       L1     9  1.00

> <Gold.PLP.Chemscore.Internal.Correction>
0.0380

> <Gold.Rescore>
     Score         DG    S(hbond)    S(metal)    S(lipo)     H(rot)  DE(clash)    DE(int)     intcor
     13.87     -15.27       1.00        0.00      92.22       1.70       0.10       1.30       ----

> <Gold.Chemscore.Fitness>
13.8719

> <Gold.Chemscore.DG>
-15.2682

> <Gold.Chemscore.ZeroCoef>
-5.4800

> <Gold.Chemscore.Hbond>
0.9995

> <Gold.Chemscore.Metal>
0.0000

> <Gold.Chemscore.Lipo>
92.2219

> <Gold.Chemscore.Internal_Hbond>
0.0000

> <Gold.Chemscore.DEClash>
0.0963

> <Gold.Chemscore.DEInternal>
1.2999

> <Gold.Chemscore.Rot>
1.6954

> <Gold.Chemscore.Internal.Correction>
   9.000000E+99

> <Gold.Chemscore.Hbonds>
donor molecule, donor type, donor heavy atom, donor atom, acceptor molecule, acceptor atom, score
      P1  H  6896  6907       L1     9  0.99

> <Gold.Chemscore.Hbond.Weighted>
-3.3384

> <Gold.Chemscore.Metal.Weighted>
-0.0000

> <Gold.Chemscore.Lipo.Weighted>
-10.7900

> <Gold.Chemscore.Internal_Hbond.Weighted>
0.0000

> <Gold.Chemscore.DEClash.Weighted>
0.0963

> <Gold.Chemscore.DEInternal.Weighted>
1.2999

> <Gold.Chemscore.Rot.Weighted>
4.3402

> <Gold.Chemscore.Internal.Correction.Weighted>
   9.000000E+99

> <Gold.Protein.RotatedTorsions>
[ 6907 6896 6895 6894 ] final   45.22 input  -60.11 | X-H torsion
[ 7974 7965 7964 7962 ] final  175.16 input  175.53 | X-H torsion
[ 8008 7997 7996 7995 ] final   11.79 input   59.86 | X-H torsion
[ 10167 10162 10161 10158 ] final  -92.19 input  -65.29 | X-H torsion
[ 10718 10713 10712 10709 ] final -160.67 input   66.30 | X-H torsion
[ 10763 10752 10751 10750 ] final -140.33 input  -60.55 | X-H torsion
[ 11005 11000 10999 10996 ] final   37.06 input  -57.11 | X-H torsion

> <Gold.Protein.ActiveResidues>
 VAL166  LYS551  ARG553  GLY616  TRP617  ASP618  TYR619  PRO620  LYS621  CYS622 
 ASP623  PHE694  ASN695  SER759  ASP760  ASP761  ALA762  ILE779  LEU786  VAL792 
 PHE793  MET794  SER795  GLU796  ALA797  LYS798  CYS799  TRP800  GLU811  SER814 

> <Gold.Protein.RotatedAtoms>
  152.2419  134.8219  160.0458 H   0  0  0  0  0  0  0  0  0  0  0  0  # atno 6907 bound_to 6896
  151.8931  133.3515  159.3813 H   0  0  0  0  0  0  0  0  0  0  0  0  # atno 6908 bound_to 6896
  150.7056  134.4830  159.5523 H   0  0  0  0  0  0  0  0  0  0  0  0  # atno 6909 bound_to 6896
  144.7207  139.9905  143.6440 H   0  0  0  0  0  0  0  0  0  0  0  0  # atno 7974 bound_to 7965
  154.8117  140.2869  155.5848 H   0  0  0  0  0  0  0  0  0  0  0  0  # atno 8008 bound_to 7997
  156.2989  140.2567  156.2937 H   0  0  0  0  0  0  0  0  0  0  0  0  # atno 8009 bound_to 7997
  154.9439  140.0380  157.2100 H   0  0  0  0  0  0  0  0  0  0  0  0  # atno 8010 bound_to 7997
  140.3373  143.2961  151.9875 H   0  0  0  0  0  0  0  0  0  0  0  0  # atno 10167 bound_to 10162
  156.5854  130.8747  151.2876 H   0  0  0  0  0  0  0  0  0  0  0  0  # atno 10718 bound_to 10713
  154.8582  135.3556  154.5691 H   0  0  0  0  0  0  0  0  0  0  0  0  # atno 10763 bound_to 10752
  153.6304  135.7002  153.5282 H   0  0  0  0  0  0  0  0  0  0  0  0  # atno 10764 bound_to 10752
  153.3054  135.4194  155.1249 H   0  0  0  0  0  0  0  0  0  0  0  0  # atno 10765 bound_to 10752
  140.2263  134.3581  155.7983 H   0  0  0  0  0  0  0  0  0  0  0  0  # atno 11005 bound_to 11000
  146.0415  139.3426  143.0694 LP  0  0  0  0  0  0  0  0  0  0  0  0  # atno 17320 bound_to 7965
  145.8329  140.9621  143.0840 LP  0  0  0  0  0  0  0  0  0  0  0  0  # atno 17321 bound_to 7965
  139.4846  144.6186  151.7299 LP  0  0  0  0  0  0  0  0  0  0  0  0  # atno 17342 bound_to 10162
  140.5342  144.0683  150.6064 LP  0  0  0  0  0  0  0  0  0  0  0  0  # atno 17343 bound_to 10162
  157.7316  130.9703  150.1890 LP  0  0  0  0  0  0  0  0  0  0  0  0  # atno 17370 bound_to 10713
  156.2595  130.3709  149.8146 LP  0  0  0  0  0  0  0  0  0  0  0  0  # atno 17371 bound_to 10713
  141.2220  133.7221  156.8658 LP  0  0  0  0  0  0  0  0  0  0  0  0  # atno 17394 bound_to 11000
  140.1797  134.9042  157.2934 LP  0  0  0  0  0  0  0  0  0  0  0  0  # atno 17395 bound_to 11000

$$$$
