#       Name:                AV-unprocessed.smi:694
#       Creating user name   scv26
#       Creation time:       Fri Mar 27 00:36:25 2020


#       File generated by GOLD software.
#

@<TRIPOS>MOLECULE
AV-unprocessed.smi:694
    47    48     1
SMALL
NO_CHARGES


@<TRIPOS>ATOM
      1 ****        -6.2572   0.3273   1.7123 C.3            1 S1                 0.0000
      2 ****        -5.5814  -0.9139   1.3476 N.pl3          1 S1                 0.0000
      3 ****        -6.3588  -2.1284   1.1353 C.3            1 S1                 0.0000
      4 ****        -4.1714  -0.9450   1.2492 C.ar           1 S1                 0.0000
      5 ****        -3.4807  -2.1285   0.8885 C.ar           1 S1                 0.0000
      6 ****        -2.0759  -2.1049   0.8009 C.ar           1 S1                 0.0000
      7 ****        -1.3877  -0.9054   1.0638 C.ar           1 S1                 0.0000
      8 ****         0.0307  -0.9156   0.9822 N.am           1 S1                 0.0000
      9 ****         0.8638   0.1245   0.8084 C.2            1 S1                 0.0000
     10 ****         0.5178   1.2978   0.6718 O.2            1 S1                 0.0000
     11 ****         2.1415  -0.2801   0.7744 N.am           1 S1                 0.0000
     12 ****         3.2986   0.5846   0.5627 C.3            1 S1                 0.0000
     13 ****         3.7835   0.5442  -0.9002 C.3            1 S1                 0.0000
     14 ****         2.7691   1.0751  -1.9245 C.3            1 S1                 0.0000
     15 ****         3.5888   1.5643  -3.1281 C.3            1 S1                 0.0000
     16 ****         5.0581   1.5478  -2.6866 C.3            1 S1                 0.0000
     17 ****         5.0214   1.4067  -1.1631 C.3            1 S1                 0.0000
     18 ****         6.2034   0.8103  -0.6709 O.3            1 S1                 0.0000
     19 ****        -2.1574   0.2233   1.4303 C.ar           1 S1                 0.0000
     20 ****        -3.5039   0.2038   1.5172 N.ar           1 S1                 0.0000
     21 ****        -5.9771   0.6312   2.7214 H              1 S1                 0.0000
     22 ****        -7.3410   0.2140   1.6849 H              1 S1                 0.0000
     23 ****        -5.9906   1.1284   1.0222 H              1 S1                 0.0000
     24 ****        -6.2249  -2.4952   0.1172 H              1 S1                 0.0000
     25 ****        -7.4232  -1.9497   1.2872 H              1 S1                 0.0000
     26 ****        -6.0509  -2.9086   1.8321 H              1 S1                 0.0000
     27 ****        -3.9979  -3.0517   0.6763 H              1 S1                 0.0000
     28 ****        -1.5362  -3.0003   0.5284 H              1 S1                 0.0000
     29 ****         0.4585  -1.8297   0.9952 H              1 S1                 0.0000
     30 ****         2.3298  -1.2648   0.8921 H              1 S1                 0.0000
     31 ****         3.0836   1.6101   0.8684 H              1 S1                 0.0000
     32 ****         4.0946   0.2347   1.2203 H              1 S1                 0.0000
     33 ****         4.0207  -0.4876  -1.1669 H              1 S1                 0.0000
     34 ****         2.0362   0.3181  -2.2050 H              1 S1                 0.0000
     35 ****         2.2198   1.9181  -1.5032 H              1 S1                 0.0000
     36 ****         3.4420   0.9207  -3.9961 H              1 S1                 0.0000
     37 ****         3.2774   2.5701  -3.4122 H              1 S1                 0.0000
     38 ****         5.5512   0.6814  -3.1305 H              1 S1                 0.0000
     39 ****         5.6023   2.4357  -3.0097 H              1 S1                 0.0000
     40 ****         4.8948   2.3898  -0.7072 H              1 S1                 0.0000
     41 ****         6.9317   1.3779  -0.8720 H              1 S1                 0.0000
     42 ****        -1.7039   1.1685   1.6845 H              1 S1                 0.0000
     43 ****        -0.4529   1.5377   0.6855 LP             1 S1                 0.0000
     44 ****         1.2074   2.0112   0.5472 LP             1 S1                 0.0000
     45 ****         6.3389  -0.0796  -1.1065 LP             1 S1                 0.0000
     46 ****         6.1333   0.6895   0.3193 LP             1 S1                 0.0000
     47 ****        -4.0047   1.0295   1.7770 LP             1 S1                 0.0000
@<TRIPOS>BOND
    1    1    2 1     
    2    1   21 1     
    3    1   22 1     
    4    1   23 1     
    5    2    3 1     
    6    2    4 1     
    7    3   24 1     
    8    3   25 1     
    9    3   26 1     
   10    4   20 ar    
   11    4    5 ar    
   12    5    6 ar    
   13    5   27 1     
   14    6    7 ar    
   15    6   28 1     
   16    7    8 1     
   17    7   19 ar    
   18    8    9 am    
   19    8   29 1     
   20    9   10 2     
   21    9   11 am    
   22   11   12 1     
   23   11   30 1     
   24   12   13 1     
   25   12   31 1     
   26   12   32 1     
   27   13   17 1     
   28   13   14 1     
   29   13   33 1     
   30   14   15 1     
   31   14   34 1     
   32   14   35 1     
   33   15   16 1     
   34   15   36 1     
   35   15   37 1     
   36   16   17 1     
   37   16   38 1     
   38   16   39 1     
   39   17   18 1     
   40   17   40 1     
   41   18   41 1     
   42   19   20 ar    
   43   19   42 1     
   44   10   43 1     
   45   10   44 1     
   46   18   45 1     
   47   18   46 1     
   48   20   47 1     
@<TRIPOS>SUBSTRUCTURE
      1 S1             1
@<TRIPOS>SET
LONE_PAIRS      STATIC     ATOMS    <user>   **** ""
5 43 44 45 46 47
DONOR_HYDROGENS      STATIC     ATOMS    <user>   **** ""
3 29 30 41
ATOM$BLUE        STATIC     ATOMS    COLORGROUP SYSTEM
5 43 44 45 46 47
ATOM$RED        STATIC     ATOMS    COLORGROUP SYSTEM
3 29 30 41
