AV-unprocessed.smi:678|AV-procd|sdf|3317|dock9
  -GOLD-   22720 0283D 1   1.00000     0.00000
 Structure written by MMmdl.
 50 51  0  0  0  0  0  0  0  0  1 V2000
  152.5804  142.8003  161.8962 C   0  0  0  0  0  0  0  0  0  0  0  0
  151.9852  143.4643  160.6668 C   0  0  0  0  0  0  0  0  0  0  0  0
  151.3931  144.6764  160.7372 C   0  0  0  0  0  0  0  0  0  0  0  0
  150.8295  145.2999  159.5649 C   0  0  0  0  0  0  0  0  0  0  0  0
  150.9122  144.6450  158.3985 C   0  0  0  0  0  0  0  0  0  0  0  0
  151.5288  143.3838  158.2959 N   0  0  0  0  0  0  0  0  0  0  0  0
  151.5451  142.7676  156.9560 C   0  0  0  0  0  0  0  0  0  0  0  0
  150.3838  141.7953  156.6870 C   0  0  0  0  0  0  0  0  0  0  0  0
  149.9731  141.0850  157.6038 O   0  0  0  0  0  0  0  0  0  0  0  0
  149.8873  141.7333  155.4404 N   0  0  0  0  0  0  0  0  0  0  0  0
  148.9115  140.7604  154.9646 C   0  0  0  0  0  0  0  0  0  0  0  0
  149.6022  139.4531  154.5378 C   0  0  2  0  0  0  0  0  0  0  0  0
  149.2375  138.2609  155.4488 C   0  0  0  0  0  0  0  0  0  0  0  0
  149.9367  137.0405  155.0596 N   0  0  0  0  0  0  0  0  0  0  0  0
  149.6092  135.8998  155.9170 C   0  0  0  0  0  0  0  0  0  0  0  0
  150.3490  134.5808  155.6013 C   0  0  0  0  0  0  0  0  0  0  0  0
  149.8027  133.9523  154.3117 C   0  0  0  0  0  0  0  0  0  0  0  0
  150.2719  133.5790  156.7652 C   0  0  0  0  0  0  0  0  0  0  0  0
  151.3722  137.2994  155.0562 C   0  0  0  0  0  0  0  0  0  0  0  0
  151.7403  138.4947  154.1605 C   0  0  0  0  0  0  0  0  0  0  0  0
  151.0130  139.6468  154.5769 O   0  0  0  0  0  0  0  0  0  0  0  0
  152.0687  142.7465  159.3808 C   0  0  0  0  0  0  0  0  0  0  0  0
  152.5847  141.6320  159.2808 O   0  0  0  0  0  0  0  0  0  0  0  0
  152.4578  143.4213  162.7842 H   0  0  0  0  0  0  0  0  0  0  0  0
  153.6470  142.6223  161.7546 H   0  0  0  0  0  0  0  0  0  0  0  0
  152.0939  141.8429  162.0856 H   0  0  0  0  0  0  0  0  0  0  0  0
  151.3365  145.1942  161.6839 H   0  0  0  0  0  0  0  0  0  0  0  0
  150.3480  146.2650  159.6262 H   0  0  0  0  0  0  0  0  0  0  0  0
  150.5077  145.0359  157.4756 H   0  0  0  0  0  0  0  0  0  0  0  0
  151.5173  143.5508  156.1968 H   0  0  0  0  0  0  0  0  0  0  0  0
  152.4835  142.2403  156.7764 H   0  0  0  0  0  0  0  0  0  0  0  0
  150.2702  142.3627  154.7500 H   0  0  0  0  0  0  0  0  0  0  0  0
  148.1602  140.5632  155.7311 H   0  0  0  0  0  0  0  0  0  0  0  0
  148.3817  141.1959  154.1171 H   0  0  0  0  0  0  0  0  0  0  0  0
  149.3134  139.2242  153.5100 H   0  0  0  0  0  0  0  0  0  0  0  0
  149.4702  138.5076  156.4860 H   0  0  0  0  0  0  0  0  0  0  0  0
  148.1618  138.1016  155.3983 H   0  0  0  0  0  0  0  0  0  0  0  0
  149.8287  136.1661  156.9521 H   0  0  0  0  0  0  0  0  0  0  0  0
  148.5334  135.7214  155.8800 H   0  0  0  0  0  0  0  0  0  0  0  0
  151.3991  134.7997  155.4127 H   0  0  0  0  0  0  0  0  0  0  0  0
  148.7497  133.6884  154.4136 H   0  0  0  0  0  0  0  0  0  0  0  0
  150.3502  133.0452  154.0544 H   0  0  0  0  0  0  0  0  0  0  0  0
  149.8945  134.6398  153.4702 H   0  0  0  0  0  0  0  0  0  0  0  0
  149.2382  133.3288  157.0047 H   0  0  0  0  0  0  0  0  0  0  0  0
  150.7360  133.9805  157.6666 H   0  0  0  0  0  0  0  0  0  0  0  0
  150.7915  132.6523  156.5203 H   0  0  0  0  0  0  0  0  0  0  0  0
  151.7148  137.4951  156.0736 H   0  0  0  0  0  0  0  0  0  0  0  0
  151.9079  136.4138  154.7124 H   0  0  0  0  0  0  0  0  0  0  0  0
  152.8079  138.7032  154.2268 H   0  0  0  0  0  0  0  0  0  0  0  0
  151.5208  138.2756  153.1145 H   0  0  0  0  0  0  0  0  0  0  0  0
  1  2  1  0  0  0  0
  1 24  1  0  0  0  0
  1 25  1  0  0  0  0
  1 26  1  0  0  0  0
  2 22  1  0  0  0  0
  2  3  2  0  0  0  0
  3  4  1  0  0  0  0
  3 27  1  0  0  0  0
  4  5  2  0  0  0  0
  4 28  1  0  0  0  0
  5  6  1  0  0  0  0
  5 29  1  0  0  0  0
  6  7  1  0  0  0  0
  6 22  1  0  0  0  0
  7  8  1  0  0  0  0
  7 30  1  0  0  0  0
  7 31  1  0  0  0  0
  8  9  2  0  0  0  0
  8 10  1  0  0  0  0
 10 11  1  0  0  0  0
 10 32  1  0  0  0  0
 11 12  1  0  0  0  0
 11 33  1  0  0  0  0
 11 34  1  0  0  0  0
 12 21  1  0  0  0  0
 12 13  1  0  0  0  0
 12 35  1  0  0  0  0
 13 14  1  0  0  0  0
 13 36  1  0  0  0  0
 13 37  1  0  0  0  0
 14 15  1  0  0  0  0
 14 19  1  0  0  0  0
 15 16  1  0  0  0  0
 15 38  1  0  0  0  0
 15 39  1  0  0  0  0
 16 17  1  0  0  0  0
 16 18  1  0  0  0  0
 16 40  1  0  0  0  0
 17 41  1  0  0  0  0
 17 42  1  0  0  0  0
 17 43  1  0  0  0  0
 18 44  1  0  0  0  0
 18 45  1  0  0  0  0
 18 46  1  0  0  0  0
 19 20  1  0  0  0  0
 19 47  1  0  0  0  0
 19 48  1  0  0  0  0
 20 21  1  0  0  0  0
 20 49  1  0  0  0  0
 20 50  1  0  0  0  0
 22 23  2  0  0  0  0
M  END
> <s_m_source_file>
AV-unprocessed.smi

> <i_m_source_file_index>
678

> <i_lp_mmshare_version>
43012

> <i_f3d_flags>
0

> <s_epik_input>
W0NIM11jMVtjSF1bY0hdW2NIXW4oYzE9TylbQ0gyXUMoPU8pW05IXVtDSDJdW0NAQEhdMltDSDJdTihbQ0gyXVtDSDJdTzIpW0NIMl1bQ0hdKFtDSDNdKVtDSDNd

> <s_epik_cmdline>
J2VwaWtfcHl0aG9uJywgJy1waCcsICc3LjAnLCAnLXRuJywgJzgnLCAnLW1hJywgJzIwMCcsICctbWV0YWxfYmluZGluZycsICctaW1hZScsICc8aW5maWxlLm1hZT4nLCAnLW9tYWUnLCAnPG91dGZpbGUubWFlPic=

> <r_lp_tautomer_probability>
1

> <r_epik_Ionization_Penalty>
1.11669

> <r_epik_Ionization_Penalty_Charging>
7.32459e-07

> <r_epik_Ionization_Penalty_Neutral>
1.11669

> <r_epik_State_Penalty>
1.17516

> <r_epik_Charging_Adjusted_Penalty>
1.17516

> <i_epik_Tot_Q>
0

> <i_epik_Tot_abs_Q>
0

> <r_epik_Metal_State_Penalty>
1.17513

> <b_epik_Metal_Only>
0

> <s_lp_Force_Field>
OPLS_2005

> <r_lp_Energy>
32.9221

> <b_lp_Chiralities_Consistent>
1

> <s_lp_Variant>
AV-unprocessed.smi:678-5

> <Gold.Version>
5.8.1

> <Gold.Id.Protein>
6NUR|6NUR_protein|mol2

> <Gold.PLP.Fitness>
49.1159

> <Gold.PLP.PLP>
-46.4795

> <Gold.PLP.part.hbond>
-1.5245

> <Gold.PLP.part.metal>
0.0000

> <Gold.PLP.part.buried>
-8.9177

> <Gold.PLP.part.nonpolar>
-37.8057

> <Gold.PLP.part.repulsive>
0.4557

> <Gold.PLP.ligand.clash>
0.0000

> <Gold.PLP.ligand.torsion>
1.7101

> <Gold.PLP.Chemscore.Hbond>
1.0000

> <Gold.PLP.Chemscore.CHOScore>
1.0000

> <Gold.PLP.Chemscore.Metal>
0.0000

> <Gold.Chemscore.Hbonds>
donor molecule, donor type, donor heavy atom, donor atom, acceptor molecule, acceptor atom, score
      P1  H  7989  7998       L1    21  1.00
      L1  C     5    29       P1  8028  0.86
      L1  C     5    29       P1  8029  0.04

> <Gold.PLP.Chemscore.Internal.Correction>
0.0566

> <Gold.Rescore>
     Score         DG    S(hbond)    S(metal)    S(lipo)     H(rot)  DE(clash)    DE(int)     intcor
     13.65     -16.65       0.69        0.00     115.67       1.82       1.61       1.39       ----

> <Gold.Chemscore.Fitness>
13.6474

> <Gold.Chemscore.DG>
-16.6458

> <Gold.Chemscore.ZeroCoef>
-5.4800

> <Gold.Chemscore.Hbond>
0.6895

> <Gold.Chemscore.Metal>
0.0000

> <Gold.Chemscore.Lipo>
115.6667

> <Gold.Chemscore.Internal_Hbond>
0.0000

> <Gold.Chemscore.DEClash>
1.6076

> <Gold.Chemscore.DEInternal>
1.3907

> <Gold.Chemscore.Rot>
1.8243

> <Gold.Chemscore.Internal.Correction>
   9.000000E+99

> <Gold.Chemscore.Hbonds>
donor molecule, donor type, donor heavy atom, donor atom, acceptor molecule, acceptor atom, score
      P1  H  7989  7998       L1    21  0.28

> <Gold.Chemscore.Hbond.Weighted>
-2.3030

> <Gold.Chemscore.Metal.Weighted>
-0.0000

> <Gold.Chemscore.Lipo.Weighted>
-13.5330

> <Gold.Chemscore.Internal_Hbond.Weighted>
0.0000

> <Gold.Chemscore.DEClash.Weighted>
1.6076

> <Gold.Chemscore.DEInternal.Weighted>
1.3907

> <Gold.Chemscore.Rot.Weighted>
4.6703

> <Gold.Chemscore.Internal.Correction.Weighted>
   9.000000E+99

> <Gold.Protein.RotatedTorsions>
[ 6907 6896 6895 6894 ] final  -46.39 input  -60.11 | X-H torsion
[ 7974 7965 7964 7962 ] final -126.02 input  175.53 | X-H torsion
[ 8008 7997 7996 7995 ] final  -42.62 input   59.86 | X-H torsion
[ 10167 10162 10161 10158 ] final  107.41 input  -65.29 | X-H torsion
[ 10718 10713 10712 10709 ] final -151.64 input   66.30 | X-H torsion
[ 10763 10752 10751 10750 ] final   74.77 input  -60.55 | X-H torsion
[ 11005 11000 10999 10996 ] final   -5.71 input  -57.11 | X-H torsion

> <Gold.Protein.ActiveResidues>
 VAL166  LYS551  ARG553  GLY616  TRP617  ASP618  TYR619  PRO620  LYS621  CYS622 
 ASP623  PHE694  ASN695  SER759  ASP760  ASP761  ALA762  ILE779  LEU786  VAL792 
 PHE793  MET794  SER795  GLU796  ALA797  LYS798  CYS799  TRP800  GLU811  SER814 

> <Gold.Protein.RotatedAtoms>
  150.9118  134.8535  159.7429 H   0  0  0  0  0  0  0  0  0  0  0  0  # atno 6907 bound_to 6896
  152.4948  134.4348  159.9534 H   0  0  0  0  0  0  0  0  0  0  0  0  # atno 6908 bound_to 6896
  151.4390  133.3609  159.2814 H   0  0  0  0  0  0  0  0  0  0  0  0  # atno 6909 bound_to 6896
  144.9916  140.7737  143.4551 H   0  0  0  0  0  0  0  0  0  0  0  0  # atno 7974 bound_to 7965
  154.3998  140.1469  156.3384 H   0  0  0  0  0  0  0  0  0  0  0  0  # atno 8008 bound_to 7997
  155.8379  140.3463  155.5592 H   0  0  0  0  0  0  0  0  0  0  0  0  # atno 8009 bound_to 7997
  155.8119  140.0885  157.1889 H   0  0  0  0  0  0  0  0  0  0  0  0  # atno 8010 bound_to 7997
  139.6929  144.7105  151.1317 H   0  0  0  0  0  0  0  0  0  0  0  0  # atno 10167 bound_to 10162
  156.4619  130.8217  151.2448 H   0  0  0  0  0  0  0  0  0  0  0  0  # atno 10718 bound_to 10713
  153.0609  135.5013  154.8091 H   0  0  0  0  0  0  0  0  0  0  0  0  # atno 10763 bound_to 10752
  154.6881  135.2979  154.9521 H   0  0  0  0  0  0  0  0  0  0  0  0  # atno 10764 bound_to 10752
  154.0284  135.6733  153.4831 H   0  0  0  0  0  0  0  0  0  0  0  0  # atno 10765 bound_to 10752
  140.6941  133.9046  155.8638 H   0  0  0  0  0  0  0  0  0  0  0  0  # atno 11005 bound_to 11000
  145.2278  139.2129  143.5059 LP  0  0  0  0  0  0  0  0  0  0  0  0  # atno 17320 bound_to 7965
  146.3432  140.2149  142.8590 LP  0  0  0  0  0  0  0  0  0  0  0  0  # atno 17321 bound_to 7965
  140.7688  143.5533  150.9180 LP  0  0  0  0  0  0  0  0  0  0  0  0  # atno 17342 bound_to 10162
  139.9211  143.6605  152.3096 LP  0  0  0  0  0  0  0  0  0  0  0  0  # atno 17343 bound_to 10162
  157.7497  131.0104  150.3306 LP  0  0  0  0  0  0  0  0  0  0  0  0  # atno 17370 bound_to 10713
  156.3708  130.3863  149.7177 LP  0  0  0  0  0  0  0  0  0  0  0  0  # atno 17371 bound_to 10713
  141.0217  134.0880  157.4113 LP  0  0  0  0  0  0  0  0  0  0  0  0  # atno 17394 bound_to 11000
  139.8915  135.0119  156.6794 LP  0  0  0  0  0  0  0  0  0  0  0  0  # atno 17395 bound_to 11000

$$$$
