AV-unprocessed.smi:253|AV-procd|sdf|1944|dock5
  -GOLD-   2262021 73D 1   1.00000     0.00000
 Structure written by MMmdl.
 52 54  0  0  0  0  0  0  0  0  1 V2000
  147.4232  136.4047  161.9405 C   0  0  0  0  0  0  0  0  0  0  0  0
  147.9563  135.5644  160.7732 C   0  0  0  0  0  0  0  0  0  0  0  0
  147.8498  136.2801  159.5081 N   0  0  0  0  0  0  0  0  0  0  0  0
  148.8859  136.6918  158.7576 C   0  0  0  0  0  0  0  0  0  0  0  0
  150.0583  136.4992  159.0776 O   0  0  0  0  0  0  0  0  0  0  0  0
  148.5835  137.4381  157.4491 C   0  0  0  0  0  0  0  0  0  0  0  0
  149.5624  137.1950  156.3796 N   0  0  0  0  0  0  0  0  0  0  0  0
  149.1968  136.2732  155.3032 C   0  0  0  0  0  0  0  0  0  0  0  0
  150.3091  135.2716  154.9507 C   0  0  0  0  0  0  0  0  0  0  0  0
  150.4003  138.2324  156.1260 C   0  0  0  0  0  0  0  0  0  0  0  0
  151.4531  137.9895  155.3038 N   0  0  0  0  0  0  0  0  0  0  0  0
  152.3184  138.9633  155.0095 C   0  0  0  0  0  0  0  0  0  0  0  0
  152.3222  140.2298  155.4281 N   0  0  0  0  0  0  0  0  0  0  0  0
  151.2769  140.4765  156.2683 C   0  0  0  0  0  0  0  0  0  0  0  0
  150.2770  139.5447  156.6695 C   0  0  0  0  0  0  0  0  0  0  0  0
  149.3878  140.1612  157.5429 N   0  0  0  0  0  0  0  0  0  0  0  0
  149.8293  141.3849  157.6431 C   0  0  0  0  0  0  0  0  0  0  0  0
  150.9641  141.6593  156.9151 N   0  0  0  0  0  0  0  0  0  0  0  0
  151.6705  142.9297  156.8479 C   0  0  0  0  0  0  0  0  0  0  0  0
  151.9748  143.5525  158.2330 C   0  0  0  0  0  0  0  0  0  0  0  0
  152.8352  144.6598  158.0256 O   0  0  0  0  0  0  0  0  0  0  0  0
  150.7038  144.0510  158.9554 C   0  0  0  0  0  0  0  0  0  0  0  0
  150.9911  144.4763  160.4063 C   0  0  0  0  0  0  0  0  0  0  0  0
  151.6098  143.4101  161.1161 O   0  0  0  0  0  0  0  0  0  0  0  0
  152.8736  143.0484  160.5733 C   0  0  0  0  0  0  0  0  0  0  0  0
  152.7003  142.5327  159.1335 C   0  0  0  0  0  0  0  0  0  0  0  0
  147.4731  135.8450  162.8746 H   0  0  0  0  0  0  0  0  0  0  0  0
  146.3833  136.6892  161.7784 H   0  0  0  0  0  0  0  0  0  0  0  0
  148.0050  137.3176  162.0701 H   0  0  0  0  0  0  0  0  0  0  0  0
  148.9905  135.2696  160.9571 H   0  0  0  0  0  0  0  0  0  0  0  0
  147.3811  134.6422  160.6904 H   0  0  0  0  0  0  0  0  0  0  0  0
  146.9180  136.4744  159.1698 H   0  0  0  0  0  0  0  0  0  0  0  0
  147.5918  137.1378  157.1080 H   0  0  0  0  0  0  0  0  0  0  0  0
  148.5064  138.5043  157.6717 H   0  0  0  0  0  0  0  0  0  0  0  0
  148.3204  135.7076  155.6221 H   0  0  0  0  0  0  0  0  0  0  0  0
  148.8848  136.8303  154.4203 H   0  0  0  0  0  0  0  0  0  0  0  0
  149.9620  134.5634  154.1983 H   0  0  0  0  0  0  0  0  0  0  0  0
  150.6112  134.6993  155.8282 H   0  0  0  0  0  0  0  0  0  0  0  0
  151.1956  135.7618  154.5494 H   0  0  0  0  0  0  0  0  0  0  0  0
  153.1231  138.6882  154.3436 H   0  0  0  0  0  0  0  0  0  0  0  0
  149.3412  142.1244  158.2612 H   0  0  0  0  0  0  0  0  0  0  0  0
  152.5989  142.7709  156.2977 H   0  0  0  0  0  0  0  0  0  0  0  0
  151.0771  143.6182  156.2446 H   0  0  0  0  0  0  0  0  0  0  0  0
  153.7233  144.3423  157.9655 H   0  0  0  0  0  0  0  0  0  0  0  0
  150.2474  144.8812  158.4150 H   0  0  0  0  0  0  0  0  0  0  0  0
  149.9625  143.2511  158.9701 H   0  0  0  0  0  0  0  0  0  0  0  0
  151.6235  145.3646  160.4383 H   0  0  0  0  0  0  0  0  0  0  0  0
  150.0590  144.7366  160.9081 H   0  0  0  0  0  0  0  0  0  0  0  0
  153.5548  143.8997  160.6080 H   0  0  0  0  0  0  0  0  0  0  0  0
  153.3120  142.2691  161.1969 H   0  0  0  0  0  0  0  0  0  0  0  0
  152.1226  141.6080  159.1678 H   0  0  0  0  0  0  0  0  0  0  0  0
  153.6708  142.2698  158.7108 H   0  0  0  0  0  0  0  0  0  0  0  0
  1  2  1  0  0  0  0
  1 27  1  0  0  0  0
  1 28  1  0  0  0  0
  1 29  1  0  0  0  0
  2  3  1  0  0  0  0
  2 30  1  0  0  0  0
  2 31  1  0  0  0  0
  3  4  1  0  0  0  0
  3 32  1  0  0  0  0
  4  5  2  0  0  0  0
  4  6  1  0  0  0  0
  6  7  1  0  0  0  0
  6 33  1  0  0  0  0
  6 34  1  0  0  0  0
  7  8  1  0  0  0  0
  7 10  1  0  0  0  0
  8  9  1  0  0  0  0
  8 35  1  0  0  0  0
  8 36  1  0  0  0  0
  9 37  1  0  0  0  0
  9 38  1  0  0  0  0
  9 39  1  0  0  0  0
 10 15  1  0  0  0  0
 10 11  2  0  0  0  0
 11 12  1  0  0  0  0
 12 13  2  0  0  0  0
 12 40  1  0  0  0  0
 13 14  1  0  0  0  0
 14 18  1  0  0  0  0
 14 15  2  0  0  0  0
 15 16  1  0  0  0  0
 16 17  2  0  0  0  0
 17 18  1  0  0  0  0
 17 41  1  0  0  0  0
 18 19  1  0  0  0  0
 19 20  1  0  0  0  0
 19 42  1  0  0  0  0
 19 43  1  0  0  0  0
 20 26  1  0  0  0  0
 20 21  1  0  0  0  0
 20 22  1  0  0  0  0
 21 44  1  0  0  0  0
 22 23  1  0  0  0  0
 22 45  1  0  0  0  0
 22 46  1  0  0  0  0
 23 24  1  0  0  0  0
 23 47  1  0  0  0  0
 23 48  1  0  0  0  0
 24 25  1  0  0  0  0
 25 26  1  0  0  0  0
 25 49  1  0  0  0  0
 25 50  1  0  0  0  0
 26 51  1  0  0  0  0
 26 52  1  0  0  0  0
M  END
> <s_m_source_file>
AV-unprocessed.smi

> <i_m_source_file_index>
253

> <i_lp_mmshare_version>
43012

> <i_f3d_flags>
0

> <s_epik_input>
W0NIM11bQ0gyXVtOSF1DKD1PKVtDSDJdTihbQ0gyXVtDSDNdKWMobltjSF1uMSljKGMxMiluW2NIXW4yW0NIMl1DMyhbT0hdKVtDSDJdW0NIMl1PW0NIMl1bQ0gyXTM=

> <s_epik_cmdline>
J2VwaWtfcHl0aG9uJywgJy1waCcsICc3LjAnLCAnLXRuJywgJzgnLCAnLW1hJywgJzIwMCcsICctbWV0YWxfYmluZGluZycsICctaW1hZScsICc8aW5maWxlLm1hZT4nLCAnLW9tYWUnLCAnPG91dGZpbGUubWFlPic=

> <r_lp_tautomer_probability>
1

> <r_epik_Ionization_Penalty>
0.000710585

> <r_epik_Ionization_Penalty_Charging>
0

> <r_epik_Ionization_Penalty_Neutral>
0.000710585

> <r_epik_State_Penalty>
0.000343566

> <r_epik_Charging_Adjusted_Penalty>
0.000343566

> <i_epik_Tot_Q>
0

> <i_epik_Tot_abs_Q>
0

> <r_epik_Metal_State_Penalty>
-0

> <b_epik_Metal_Only>
0

> <s_lp_Force_Field>
OPLS_2005

> <r_lp_Energy>
18.5015

> <b_lp_Chiralities_Consistent>
1

> <s_lp_Variant>
AV-unprocessed.smi:253-1

> <Gold.Version>
5.8.1

> <Gold.Id.Protein>
6NUR|6NUR_protein|mol2

> <Gold.PLP.Fitness>
46.4540

> <Gold.PLP.PLP>
-42.5508

> <Gold.PLP.part.hbond>
-3.5847

> <Gold.PLP.part.metal>
0.0000

> <Gold.PLP.part.buried>
-7.4616

> <Gold.PLP.part.nonpolar>
-32.1559

> <Gold.PLP.part.repulsive>
0.3228

> <Gold.PLP.ligand.clash>
0.0000

> <Gold.PLP.ligand.torsion>
1.2506

> <Gold.PLP.Chemscore.Hbond>
1.8107

> <Gold.PLP.Chemscore.CHOScore>
0.0000

> <Gold.PLP.Chemscore.Metal>
0.0000

> <Gold.Chemscore.Hbonds>
donor molecule, donor type, donor heavy atom, donor atom, acceptor molecule, acceptor atom, score
      P1  H  6896  6907       L1     5  1.00
      P1  H  7989  7998       L1    13  0.23
      P1  H  7997  8009       L1    13  0.51

> <Gold.PLP.Chemscore.Internal.Correction>
0.9724

> <Gold.Rescore>
     Score         DG    S(hbond)    S(metal)    S(lipo)     H(rot)  DE(clash)    DE(int)     intcor
      8.50     -12.65       1.06        0.00      96.97       3.01       1.58       2.57       ----

> <Gold.Chemscore.Fitness>
8.4985

> <Gold.Chemscore.DG>
-12.6513

> <Gold.Chemscore.ZeroCoef>
-5.4800

> <Gold.Chemscore.Hbond>
1.0593

> <Gold.Chemscore.Metal>
0.0000

> <Gold.Chemscore.Lipo>
96.9671

> <Gold.Chemscore.Internal_Hbond>
0.0000

> <Gold.Chemscore.DEClash>
1.5828

> <Gold.Chemscore.DEInternal>
2.5700

> <Gold.Chemscore.Rot>
3.0125

> <Gold.Chemscore.Internal.Correction>
   9.000000E+99

> <Gold.Chemscore.Hbonds>
donor molecule, donor type, donor heavy atom, donor atom, acceptor molecule, acceptor atom, score
      P1  H  6896  6907       L1     5  1.00
      P1  H  7989  7998       L1    13  0.01
      P1  H  7997  8009       L1    13  0.06

> <Gold.Chemscore.Hbond.Weighted>
-3.5382

> <Gold.Chemscore.Metal.Weighted>
-0.0000

> <Gold.Chemscore.Lipo.Weighted>
-11.3451

> <Gold.Chemscore.Internal_Hbond.Weighted>
0.0000

> <Gold.Chemscore.DEClash.Weighted>
1.5828

> <Gold.Chemscore.DEInternal.Weighted>
2.5700

> <Gold.Chemscore.Rot.Weighted>
7.7120

> <Gold.Chemscore.Internal.Correction.Weighted>
   9.000000E+99

> <Gold.Protein.RotatedTorsions>
[ 6907 6896 6895 6894 ] final  -36.79 input  -60.11 | X-H torsion
[ 7974 7965 7964 7962 ] final  -15.80 input  175.53 | X-H torsion
[ 8008 7997 7996 7995 ] final -152.83 input   59.86 | X-H torsion
[ 10167 10162 10161 10158 ] final   37.18 input  -65.29 | X-H torsion
[ 10718 10713 10712 10709 ] final  -99.62 input   66.30 | X-H torsion
[ 10763 10752 10751 10750 ] final   53.28 input  -60.55 | X-H torsion
[ 11005 11000 10999 10996 ] final   58.71 input  -57.11 | X-H torsion

> <Gold.Protein.ActiveResidues>
 VAL166  LYS551  ARG553  GLY616  TRP617  ASP618  TYR619  PRO620  LYS621  CYS622 
 ASP623  PHE694  ASN695  SER759  ASP760  ASP761  ALA762  ILE779  LEU786  VAL792 
 PHE793  MET794  SER795  GLU796  ALA797  LYS798  CYS799  TRP800  GLU811  SER814 

> <Gold.Protein.RotatedAtoms>
  151.0227  134.9481  159.8068 H   0  0  0  0  0  0  0  0  0  0  0  0  # atno 6907 bound_to 6896
  152.5329  134.2882  159.9043 H   0  0  0  0  0  0  0  0  0  0  0  0  # atno 6908 bound_to 6896
  151.2890  133.4132  159.2666 H   0  0  0  0  0  0  0  0  0  0  0  0  # atno 6909 bound_to 6896
  146.2016  140.3544  142.8421 H   0  0  0  0  0  0  0  0  0  0  0  0  # atno 7974 bound_to 7965
  155.6613  140.0723  157.2553 H   0  0  0  0  0  0  0  0  0  0  0  0  # atno 8008 bound_to 7997
  154.4142  140.1715  156.1830 H   0  0  0  0  0  0  0  0  0  0  0  0  # atno 8009 bound_to 7997
  155.9695  140.3363  155.6565 H   0  0  0  0  0  0  0  0  0  0  0  0  # atno 8010 bound_to 7997
  140.4057  144.1662  150.6136 H   0  0  0  0  0  0  0  0  0  0  0  0  # atno 10167 bound_to 10162
  156.0139  130.5290  150.6696 H   0  0  0  0  0  0  0  0  0  0  0  0  # atno 10718 bound_to 10713
  152.9794  135.5784  154.4716 H   0  0  0  0  0  0  0  0  0  0  0  0  # atno 10763 bound_to 10752
  154.4278  135.2773  155.1934 H   0  0  0  0  0  0  0  0  0  0  0  0  # atno 10764 bound_to 10752
  154.3656  135.6179  153.5767 H   0  0  0  0  0  0  0  0  0  0  0  0  # atno 10765 bound_to 10752
  140.0357  134.5946  155.9447 H   0  0  0  0  0  0  0  0  0  0  0  0  # atno 11005 bound_to 11000
  144.8697  140.7255  143.6055 LP  0  0  0  0  0  0  0  0  0  0  0  0  # atno 17320 bound_to 7965
  145.3464  139.1718  143.4458 LP  0  0  0  0  0  0  0  0  0  0  0  0  # atno 17321 bound_to 7965
  140.4692  143.2419  151.9113 LP  0  0  0  0  0  0  0  0  0  0  0  0  # atno 17342 bound_to 10162
  139.4783  144.5388  151.8559 LP  0  0  0  0  0  0  0  0  0  0  0  0  # atno 17343 bound_to 10162
  157.4422  131.0862  151.0932 LP  0  0  0  0  0  0  0  0  0  0  0  0  # atno 17370 bound_to 10713
  157.1473  130.6169  149.5572 LP  0  0  0  0  0  0  0  0  0  0  0  0  # atno 17371 bound_to 10713
  141.1856  133.6555  156.5205 LP  0  0  0  0  0  0  0  0  0  0  0  0  # atno 17394 bound_to 11000
  140.4151  134.7237  157.4858 LP  0  0  0  0  0  0  0  0  0  0  0  0  # atno 17395 bound_to 11000

$$$$
