AV-unprocessed.smi:1947|AV-procd|sdf|7865|dock4
  -GOLD-   2272010 13D 1   1.00000     0.00000
 Structure written by MMmdl.
 39 40  0  0  0  0  0  0  0  0  1 V2000
  153.5994  139.3578  159.6310 C   0  0  0  0  0  0  0  0  0  0  0  0
  153.3302  140.8335  159.2900 C   0  0  2  0  0  0  0  0  0  0  0  0
  153.1005  141.6570  160.5732 C   0  0  0  0  0  0  0  0  0  0  0  0
  152.8180  143.1344  160.2597 C   0  0  0  0  0  0  0  0  0  0  0  0
  151.6237  143.2778  159.3056 C   0  0  0  0  0  0  0  0  0  0  0  0
  151.8469  142.4704  158.0182 C   0  0  0  0  0  0  0  0  0  0  0  0
  152.1340  140.9861  158.3239 C   0  0  1  0  0  0  0  0  0  0  0  0
  152.4638  140.3080  157.1190 O   0  0  0  0  0  0  0  0  0  0  0  0
  151.3702  140.1054  156.2362 C   0  0  0  0  0  0  0  0  0  0  0  0
  151.8742  139.3521  154.9960 C   0  0  0  0  0  0  0  0  0  0  0  0
  151.1908  138.0735  154.8290 N   0  0  0  0  0  0  0  0  0  0  0  0
  151.3181  137.0165  155.6429 C   0  0  0  0  0  0  0  0  0  0  0  0
  151.9993  137.0279  156.6681 O   0  0  0  0  0  0  0  0  0  0  0  0
  150.6184  135.9659  155.1855 N   0  0  0  0  0  0  0  0  0  0  0  0
  150.5380  134.6643  155.7401 C   0  0  0  0  0  0  0  0  0  0  0  0
  151.2661  134.4000  156.8314 N   0  0  0  0  0  0  0  0  0  0  0  0
  151.0901  133.0932  157.2707 N   0  0  0  0  0  0  0  0  0  0  0  0
  150.2354  132.4226  156.4922 C   0  0  0  0  0  0  0  0  0  0  0  0
  149.5599  133.3198  155.1442 S   0  0  0  0  0  0  0  0  0  0  0  0
  152.7383  138.8996  160.1183 H   0  0  0  0  0  0  0  0  0  0  0  0
  154.4528  139.2599  160.3026 H   0  0  0  0  0  0  0  0  0  0  0  0
  153.8215  138.7761  158.7358 H   0  0  0  0  0  0  0  0  0  0  0  0
  154.2192  141.2272  158.7946 H   0  0  0  0  0  0  0  0  0  0  0  0
  152.2628  141.2394  161.1337 H   0  0  0  0  0  0  0  0  0  0  0  0
  153.9727  141.5836  161.2241 H   0  0  0  0  0  0  0  0  0  0  0  0
  152.6237  143.6803  161.1831 H   0  0  0  0  0  0  0  0  0  0  0  0
  153.7020  143.5894  159.8110 H   0  0  0  0  0  0  0  0  0  0  0  0
  150.7149  142.9335  159.8011 H   0  0  0  0  0  0  0  0  0  0  0  0
  151.4655  144.3290  159.0631 H   0  0  0  0  0  0  0  0  0  0  0  0
  150.9710  142.5653  157.3766 H   0  0  0  0  0  0  0  0  0  0  0  0
  152.6835  142.8975  157.4635 H   0  0  0  0  0  0  0  0  0  0  0  0
  151.2578  140.5318  158.7909 H   0  0  0  0  0  0  0  0  0  0  0  0
  150.5822  139.5323  156.7272 H   0  0  0  0  0  0  0  0  0  0  0  0
  150.9391  141.0618  155.9403 H   0  0  0  0  0  0  0  0  0  0  0  0
  151.7442  139.9635  154.1017 H   0  0  0  0  0  0  0  0  0  0  0  0
  152.9430  139.1594  155.0896 H   0  0  0  0  0  0  0  0  0  0  0  0
  150.6099  137.9759  154.0091 H   0  0  0  0  0  0  0  0  0  0  0  0
  150.0986  136.1070  154.3319 H   0  0  0  0  0  0  0  0  0  0  0  0
  150.0012  131.3918  156.7139 H   0  0  0  0  0  0  0  0  0  0  0  0
  1  2  1  0  0  0  0
  1 20  1  0  0  0  0
  1 21  1  0  0  0  0
  1 22  1  0  0  0  0
  2  7  1  0  0  0  0
  2  3  1  0  0  0  0
  2 23  1  0  0  0  0
  3  4  1  0  0  0  0
  3 24  1  0  0  0  0
  3 25  1  0  0  0  0
  4  5  1  0  0  0  0
  4 26  1  0  0  0  0
  4 27  1  0  0  0  0
  5  6  1  0  0  0  0
  5 28  1  0  0  0  0
  5 29  1  0  0  0  0
  6  7  1  0  0  0  0
  6 30  1  0  0  0  0
  6 31  1  0  0  0  0
  7  8  1  0  0  0  0
  7 32  1  0  0  0  0
  8  9  1  0  0  0  0
  9 10  1  0  0  0  0
  9 33  1  0  0  0  0
  9 34  1  0  0  0  0
 10 11  1  0  0  0  0
 10 35  1  0  0  0  0
 10 36  1  0  0  0  0
 11 12  1  0  0  0  0
 11 37  1  0  0  0  0
 12 13  2  0  0  0  0
 12 14  1  0  0  0  0
 14 15  1  0  0  0  0
 14 38  1  0  0  0  0
 15 19  1  0  0  0  0
 15 16  2  0  0  0  0
 16 17  1  0  0  0  0
 17 18  2  0  0  0  0
 18 19  1  0  0  0  0
 18 39  1  0  0  0  0
M  END
> <s_m_source_file>
AV-unprocessed.smi

> <i_m_source_file_index>
1947

> <i_lp_mmshare_version>
43012

> <i_f3d_flags>
0

> <s_epik_input>
W0NIM11bQ0BASF0xW0NIMl1bQ0gyXVtDSDJdW0NIMl1bQ0BIXTFPW0NIMl1bQ0gyXVtOSF1DKD1PKVtOSF1jMm5uW2NIXXMy

> <s_epik_cmdline>
J2VwaWtfcHl0aG9uJywgJy1waCcsICc3LjAnLCAnLXRuJywgJzgnLCAnLW1hJywgJzIwMCcsICctbWV0YWxfYmluZGluZycsICctaW1hZScsICc8aW5maWxlLm1hZT4nLCAnLW9tYWUnLCAnPG91dGZpbGUubWFlPic=

> <r_lp_tautomer_probability>
1

> <r_epik_Ionization_Penalty>
0.00220897

> <r_epik_Ionization_Penalty_Charging>
0

> <r_epik_Ionization_Penalty_Neutral>
0.00220897

> <r_epik_State_Penalty>
-0

> <r_epik_Charging_Adjusted_Penalty>
0

> <i_epik_Tot_Q>
0

> <i_epik_Tot_abs_Q>
0

> <r_epik_Metal_State_Penalty>
0.345002

> <b_epik_Metal_Only>
0

> <s_lp_Force_Field>
OPLS_2005

> <r_lp_Energy>
7.38762

> <b_lp_Chiralities_Consistent>
1

> <s_lp_Variant>
AV-unprocessed.smi:1947-1

> <Gold.Version>
5.8.1

> <Gold.Id.Protein>
6NUR|6NUR_protein|mol2

> <Gold.PLP.Fitness>
37.9002

> <Gold.PLP.PLP>
-33.3818

> <Gold.PLP.part.hbond>
-2.7212

> <Gold.PLP.part.metal>
0.0000

> <Gold.PLP.part.buried>
-1.6178

> <Gold.PLP.part.nonpolar>
-27.4868

> <Gold.PLP.part.repulsive>
0.1972

> <Gold.PLP.ligand.clash>
0.0000

> <Gold.PLP.ligand.torsion>
0.4825

> <Gold.PLP.Chemscore.Hbond>
1.8240

> <Gold.PLP.Chemscore.CHOScore>
0.0000

> <Gold.PLP.Chemscore.Metal>
0.0000

> <Gold.Chemscore.Hbonds>
donor molecule, donor type, donor heavy atom, donor atom, acceptor molecule, acceptor atom, score
      P1  H  6896  6909       L1    17  0.79
      P1  H  7997  8010       L1     8  0.99

> <Gold.PLP.Chemscore.Internal.Correction>
0.0114

> <Gold.Rescore>
     Score         DG    S(hbond)    S(metal)    S(lipo)     H(rot)  DE(clash)    DE(int)     intcor
     12.62     -14.64       1.14        0.00      88.03       1.94       0.08       1.94       ----

> <Gold.Chemscore.Fitness>
12.6175

> <Gold.Chemscore.DG>
-14.6404

> <Gold.Chemscore.ZeroCoef>
-5.4800

> <Gold.Chemscore.Hbond>
1.1447

> <Gold.Chemscore.Metal>
0.0000

> <Gold.Chemscore.Lipo>
88.0318

> <Gold.Chemscore.Internal_Hbond>
0.0000

> <Gold.Chemscore.DEClash>
0.0787

> <Gold.Chemscore.DEInternal>
1.9441

> <Gold.Chemscore.Rot>
1.9385

> <Gold.Chemscore.Internal.Correction>
   9.000000E+99

> <Gold.Chemscore.Hbonds>
donor molecule, donor type, donor heavy atom, donor atom, acceptor molecule, acceptor atom, score
      P1  H  6896  6909       L1    17  0.17
      P1  H  7997  8010       L1     8  0.88

> <Gold.Chemscore.Hbond.Weighted>
-3.8232

> <Gold.Chemscore.Metal.Weighted>
-0.0000

> <Gold.Chemscore.Lipo.Weighted>
-10.2997

> <Gold.Chemscore.Internal_Hbond.Weighted>
0.0000

> <Gold.Chemscore.DEClash.Weighted>
0.0787

> <Gold.Chemscore.DEInternal.Weighted>
1.9441

> <Gold.Chemscore.Rot.Weighted>
4.9625

> <Gold.Chemscore.Internal.Correction.Weighted>
   9.000000E+99

> <Gold.Protein.RotatedTorsions>
[ 6907 6896 6895 6894 ] final  -45.15 input  -60.11 | X-H torsion
[ 7974 7965 7964 7962 ] final -179.69 input  175.53 | X-H torsion
[ 8008 7997 7996 7995 ] final   60.64 input   59.86 | X-H torsion
[ 10167 10162 10161 10158 ] final -154.25 input  -65.29 | X-H torsion
[ 10718 10713 10712 10709 ] final -102.48 input   66.30 | X-H torsion
[ 10763 10752 10751 10750 ] final -151.37 input  -60.55 | X-H torsion
[ 11005 11000 10999 10996 ] final  149.19 input  -57.11 | X-H torsion

> <Gold.Protein.ActiveResidues>
 VAL166  LYS551  ARG553  GLY616  TRP617  ASP618  TYR619  PRO620  LYS621  CYS622 
 ASP623  PHE694  ASN695  SER759  ASP760  ASP761  ALA762  ILE779  LEU786  VAL792 
 PHE793  MET794  SER795  GLU796  ALA797  LYS798  CYS799  TRP800  GLU811  SER814 

> <Gold.Protein.RotatedAtoms>
  150.9251  134.8668  159.7514 H   0  0  0  0  0  0  0  0  0  0  0  0  # atno 6907 bound_to 6896
  152.5011  134.4161  159.9475 H   0  0  0  0  0  0  0  0  0  0  0  0  # atno 6908 bound_to 6896
  151.4192  133.3664  159.2789 H   0  0  0  0  0  0  0  0  0  0  0  0  # atno 6909 bound_to 6896
  144.7138  140.0679  143.6430 H   0  0  0  0  0  0  0  0  0  0  0  0  # atno 7974 bound_to 7965
  155.5856  140.3492  155.4552 H   0  0  0  0  0  0  0  0  0  0  0  0  # atno 8008 bound_to 7997
  156.0340  140.1281  157.0252 H   0  0  0  0  0  0  0  0  0  0  0  0  # atno 8009 bound_to 7997
  154.4364  140.1037  156.6127 H   0  0  0  0  0  0  0  0  0  0  0  0  # atno 8010 bound_to 7997
  139.7029  143.9233  152.2436 H   0  0  0  0  0  0  0  0  0  0  0  0  # atno 10167 bound_to 10162
  156.0230  130.5422  150.7115 H   0  0  0  0  0  0  0  0  0  0  0  0  # atno 10718 bound_to 10713
  154.8062  135.3262  154.7424 H   0  0  0  0  0  0  0  0  0  0  0  0  # atno 10763 bound_to 10752
  153.8082  135.6898  153.4849 H   0  0  0  0  0  0  0  0  0  0  0  0  # atno 10764 bound_to 10752
  153.1809  135.4587  154.9972 H   0  0  0  0  0  0  0  0  0  0  0  0  # atno 10765 bound_to 10752
  140.1023  134.8975  157.1814 H   0  0  0  0  0  0  0  0  0  0  0  0  # atno 11005 bound_to 11000
  145.9808  139.2940  143.1043 LP  0  0  0  0  0  0  0  0  0  0  0  0  # atno 17320 bound_to 7965
  145.9013  140.9241  143.0502 LP  0  0  0  0  0  0  0  0  0  0  0  0  # atno 17321 bound_to 7965
  139.9081  144.6873  150.8592 LP  0  0  0  0  0  0  0  0  0  0  0  0  # atno 17342 bound_to 10162
  140.7714  143.3464  151.2103 LP  0  0  0  0  0  0  0  0  0  0  0  0  # atno 17343 bound_to 10162
  157.4752  131.0897  151.0598 LP  0  0  0  0  0  0  0  0  0  0  0  0  # atno 17370 bound_to 10713
  157.1047  130.5996  149.5468 LP  0  0  0  0  0  0  0  0  0  0  0  0  # atno 17371 bound_to 10713
  140.3203  134.2924  155.7248 LP  0  0  0  0  0  0  0  0  0  0  0  0  # atno 17394 bound_to 11000
  141.2109  133.7705  156.9901 LP  0  0  0  0  0  0  0  0  0  0  0  0  # atno 17395 bound_to 11000

$$$$
