AV-unprocessed.smi:1243|AV-procd|sdf|5219|dock7
  -GOLD-   22720 4313D 1   1.00000     0.00000
 Structure written by MMmdl.
 51 52  0  0  0  0  0  0  0  0  2 V2000
  147.9904  131.8903  153.2147 C   0  0  0  0  0  0  0  0  0  0  0  0
  147.6150  132.9335  152.3220 O   0  0  0  0  0  0  0  0  0  0  0  0
  146.3963  132.8431  151.6768 C   0  0  0  0  0  0  0  0  0  0  0  0
  145.8761  131.6109  151.4493 N   0  0  0  0  0  0  0  0  0  0  0  0
  144.6854  131.5215  150.8219 C   0  0  0  0  0  0  0  0  0  0  0  0
  143.9524  132.6445  150.3969 C   0  0  0  0  0  0  0  0  0  0  0  0
  144.4892  133.9237  150.6321 C   0  0  0  0  0  0  0  0  0  0  0  0
  145.7452  134.0334  151.2766 C   0  0  0  0  0  0  0  0  0  0  0  0
  146.3666  135.2758  151.5807 N   0  0  0  0  0  0  0  0  0  0  0  0
  145.7845  136.4440  151.8983 C   0  0  0  0  0  0  0  0  0  0  0  0
  144.5712  136.6405  151.9647 O   0  0  0  0  0  0  0  0  0  0  0  0
  146.7013  137.3955  152.1255 N   0  0  0  0  0  0  0  0  0  0  0  0
  146.4158  138.7898  152.4623 C   0  0  0  0  0  0  0  0  0  0  0  0
  146.4701  139.0859  153.9920 C   0  0  0  0  0  0  0  0  0  0  0  0
  145.8240  137.9263  154.7921 C   0  0  0  0  0  0  0  0  0  0  0  0
  147.9460  139.1566  154.4577 C   0  0  0  0  0  0  0  0  0  0  0  0
  145.7686  140.3788  154.3247 N   0  3  0  0  0  0  0  0  0  0  0  0
  146.5678  141.6224  154.1272 C   0  0  0  0  0  0  0  0  0  0  0  0
  145.6793  142.8745  154.2823 C   0  0  0  0  0  0  0  0  0  0  0  0
  145.0148  142.9265  155.5838 N   0  0  0  0  0  0  0  0  0  0  0  0
  145.9267  143.2216  156.6838 C   0  0  0  0  0  0  0  0  0  0  0  0
  144.2381  141.7045  155.7876 C   0  0  0  0  0  0  0  0  0  0  0  0
  145.1024  140.4329  155.6579 C   0  0  0  0  0  0  0  0  0  0  0  0
  148.9730  132.1098  153.6322 H   0  0  0  0  0  0  0  0  0  0  0  0
  148.0563  130.9305  152.7001 H   0  0  0  0  0  0  0  0  0  0  0  0
  147.2900  131.8037  154.0464 H   0  0  0  0  0  0  0  0  0  0  0  0
  144.3025  130.5248  150.6598 H   0  0  0  0  0  0  0  0  0  0  0  0
  142.9976  132.5277  149.9059 H   0  0  0  0  0  0  0  0  0  0  0  0
  143.9234  134.7910  150.3291 H   0  0  0  0  0  0  0  0  0  0  0  0
  147.3704  135.2915  151.4733 H   0  0  0  0  0  0  0  0  0  0  0  0
  147.6746  137.1397  152.0446 H   0  0  0  0  0  0  0  0  0  0  0  0
  147.1589  139.3844  151.9323 H   0  0  0  0  0  0  0  0  0  0  0  0
  145.4522  139.0774  152.0412 H   0  0  0  0  0  0  0  0  0  0  0  0
  146.4303  137.0207  154.7558 H   0  0  0  0  0  0  0  0  0  0  0  0
  144.8451  137.6486  154.4013 H   0  0  0  0  0  0  0  0  0  0  0  0
  145.7057  138.1857  155.8448 H   0  0  0  0  0  0  0  0  0  0  0  0
  148.4290  138.1795  154.4181 H   0  0  0  0  0  0  0  0  0  0  0  0
  148.0221  139.5082  155.4876 H   0  0  0  0  0  0  0  0  0  0  0  0
  148.5484  139.8147  153.8321 H   0  0  0  0  0  0  0  0  0  0  0  0
  147.4045  141.6598  154.8239 H   0  0  0  0  0  0  0  0  0  0  0  0
  146.9958  141.6600  153.1277 H   0  0  0  0  0  0  0  0  0  0  0  0
  146.2699  143.7800  154.1375 H   0  0  0  0  0  0  0  0  0  0  0  0
  144.9161  142.8774  153.5029 H   0  0  0  0  0  0  0  0  0  0  0  0
  145.3731  143.3083  157.6193 H   0  0  0  0  0  0  0  0  0  0  0  0
  146.4307  144.1728  156.5100 H   0  0  0  0  0  0  0  0  0  0  0  0
  146.6902  142.4557  156.8146 H   0  0  0  0  0  0  0  0  0  0  0  0
  143.7556  141.7375  156.7652 H   0  0  0  0  0  0  0  0  0  0  0  0
  143.4353  141.6762  155.0495 H   0  0  0  0  0  0  0  0  0  0  0  0
  144.4399  139.5817  155.7995 H   0  0  0  0  0  0  0  0  0  0  0  0
  145.8381  140.3911  156.4604 H   0  0  0  0  0  0  0  0  0  0  0  0
  145.0172  140.4420  153.6528 H   0  0  0  0  0  0  0  0  0  0  0  0
  1  2  1  0  0  0  0
  1 24  1  0  0  0  0
  1 25  1  0  0  0  0
  1 26  1  0  0  0  0
  2  3  1  0  0  0  0
  3  8  1  0  0  0  0
  3  4  2  0  0  0  0
  4  5  1  0  0  0  0
  5  6  2  0  0  0  0
  5 27  1  0  0  0  0
  6  7  1  0  0  0  0
  6 28  1  0  0  0  0
  7  8  2  0  0  0  0
  7 29  1  0  0  0  0
  8  9  1  0  0  0  0
  9 10  1  0  0  0  0
  9 30  1  0  0  0  0
 10 11  2  0  0  0  0
 10 12  1  0  0  0  0
 12 13  1  0  0  0  0
 12 31  1  0  0  0  0
 13 14  1  0  0  0  0
 13 32  1  0  0  0  0
 13 33  1  0  0  0  0
 14 15  1  0  0  0  0
 14 16  1  0  0  0  0
 14 17  1  0  0  0  0
 15 34  1  0  0  0  0
 15 35  1  0  0  0  0
 15 36  1  0  0  0  0
 16 37  1  0  0  0  0
 16 38  1  0  0  0  0
 16 39  1  0  0  0  0
 17 23  1  0  0  0  0
 17 18  1  0  0  0  0
 17 51  1  0  0  0  0
 18 19  1  0  0  0  0
 18 40  1  0  0  0  0
 18 41  1  0  0  0  0
 19 20  1  0  0  0  0
 19 42  1  0  0  0  0
 19 43  1  0  0  0  0
 20 21  1  0  0  0  0
 20 22  1  0  0  0  0
 21 44  1  0  0  0  0
 21 45  1  0  0  0  0
 21 46  1  0  0  0  0
 22 23  1  0  0  0  0
 22 47  1  0  0  0  0
 22 48  1  0  0  0  0
 23 49  1  0  0  0  0
 23 50  1  0  0  0  0
M  CHG  1  17   1
M  END
> <s_m_source_file>
AV-unprocessed.smi

> <i_m_source_file_index>
1243

> <i_lp_mmshare_version>
43012

> <i_f3d_flags>
0

> <s_epik_input>
W0NIM11PYzFuW2NIXVtjSF1bY0hdYzFbTkhdQyg9TylbTkhdW0NIMl1DKFtDSDNdKShbQ0gzXSlOMltDSDJdW0NIMl1OKFtDSDNdKVtDSDJdW0NIMl0y

> <s_epik_cmdline>
J2VwaWtfcHl0aG9uJywgJy1waCcsICc3LjAnLCAnLXRuJywgJzgnLCAnLW1hJywgJzIwMCcsICctbWV0YWxfYmluZGluZycsICctaW1hZScsICc8aW5maWxlLm1hZT4nLCAnLW9tYWUnLCAnPG91dGZpbGUubWFlPic=

> <r_epik_Ionization_Penalty>
0.0907124

> <r_epik_Ionization_Penalty_Charging>
0.0886444

> <r_epik_Ionization_Penalty_Neutral>
0.00206798

> <r_epik_State_Penalty>
1.00524

> <r_epik_Charging_Adjusted_Penalty>
1.09388

> <i_epik_Tot_Q>
1

> <i_epik_Tot_abs_Q>
1

> <r_epik_Metal_State_Penalty>
1.00525

> <b_epik_Metal_Only>
0

> <s_lp_Force_Field>
OPLS_2005

> <r_lp_Energy>
29.8833

> <b_lp_Chiralities_Consistent>
1

> <s_lp_Variant>
AV-unprocessed.smi:1243-2

> <Gold.Version>
5.8.1

> <Gold.Id.Protein>
6NUR|6NUR_protein|mol2

> <Gold.PLP.Fitness>
41.3357

> <Gold.PLP.PLP>
-33.3963

> <Gold.PLP.part.hbond>
-2.9756

> <Gold.PLP.part.metal>
0.0000

> <Gold.PLP.part.buried>
-6.8197

> <Gold.PLP.part.nonpolar>
-25.8274

> <Gold.PLP.part.repulsive>
1.4650

> <Gold.PLP.ligand.clash>
0.0615

> <Gold.PLP.ligand.torsion>
1.9714

> <Gold.PLP.Chemscore.Hbond>
3.9440

> <Gold.PLP.Chemscore.CHOScore>
0.0000

> <Gold.PLP.Chemscore.Metal>
0.0000

> <Gold.Chemscore.Hbonds>
donor molecule, donor type, donor heavy atom, donor atom, acceptor molecule, acceptor atom, score
      L1  H     9    30       P1  7948  0.94
      L1  H    12    31       P1  7948  1.00
      L1  H    17    51       P1 10175  2.00

> <Gold.PLP.Chemscore.Internal.Correction>
0.1117

> <Gold.Rescore>
     Score         DG    S(hbond)    S(metal)    S(lipo)     H(rot)  DE(clash)    DE(int)     intcor
     16.01     -18.67       2.87        0.00      68.39       1.72       0.12       2.54       ----

> <Gold.Chemscore.Fitness>
16.0101

> <Gold.Chemscore.DG>
-18.6685

> <Gold.Chemscore.ZeroCoef>
-5.4800

> <Gold.Chemscore.Hbond>
2.8722

> <Gold.Chemscore.Metal>
0.0000

> <Gold.Chemscore.Lipo>
68.3930

> <Gold.Chemscore.Internal_Hbond>
0.0000

> <Gold.Chemscore.DEClash>
0.1231

> <Gold.Chemscore.DEInternal>
2.5353

> <Gold.Chemscore.Rot>
1.7213

> <Gold.Chemscore.Internal.Correction>
   9.000000E+99

> <Gold.Chemscore.Hbonds>
donor molecule, donor type, donor heavy atom, donor atom, acceptor molecule, acceptor atom, score
      L1  H     9    30       P1  7948  0.78
      L1  H    12    31       P1  7948  0.96
      L1  H    17    51       P1 10175  1.00

> <Gold.Chemscore.Hbond.Weighted>
-9.5930

> <Gold.Chemscore.Metal.Weighted>
-0.0000

> <Gold.Chemscore.Lipo.Weighted>
-8.0020

> <Gold.Chemscore.Internal_Hbond.Weighted>
0.0000

> <Gold.Chemscore.DEClash.Weighted>
0.1231

> <Gold.Chemscore.DEInternal.Weighted>
2.5353

> <Gold.Chemscore.Rot.Weighted>
4.4066

> <Gold.Chemscore.Internal.Correction.Weighted>
   9.000000E+99

> <Gold.Protein.RotatedTorsions>
[ 6907 6896 6895 6894 ] final   81.35 input  -60.11 | X-H torsion
[ 7974 7965 7964 7962 ] final  -72.73 input  175.53 | X-H torsion
[ 8008 7997 7996 7995 ] final   47.67 input   59.86 | X-H torsion
[ 10167 10162 10161 10158 ] final  146.44 input  -65.29 | X-H torsion
[ 10718 10713 10712 10709 ] final -101.75 input   66.30 | X-H torsion
[ 10763 10752 10751 10750 ] final  162.34 input  -60.55 | X-H torsion
[ 11005 11000 10999 10996 ] final   76.84 input  -57.11 | X-H torsion

> <Gold.Protein.ActiveResidues>
 VAL166  LYS551  ARG553  GLY616  TRP617  ASP618  TYR619  PRO620  LYS621  CYS622 
 ASP623  PHE694  ASN695  SER759  ASP760  ASP761  ALA762  ILE779  LEU786  VAL792 
 PHE793  MET794  SER795  GLU796  ALA797  LYS798  CYS799  TRP800  GLU811  SER814 

> <Gold.Protein.RotatedAtoms>
  152.5265  134.3218  159.9150 H   0  0  0  0  0  0  0  0  0  0  0  0  # atno 6907 bound_to 6896
  151.3167  133.4051  159.2659 H   0  0  0  0  0  0  0  0  0  0  0  0  # atno 6908 bound_to 6896
  150.9993  134.9326  159.8002 H   0  0  0  0  0  0  0  0  0  0  0  0  # atno 6909 bound_to 6896
  145.6614  140.9251  143.0932 H   0  0  0  0  0  0  0  0  0  0  0  0  # atno 7974 bound_to 7965
  155.3729  140.3424  155.4244 H   0  0  0  0  0  0  0  0  0  0  0  0  # atno 8008 bound_to 7997
  156.1652  140.1614  156.8577 H   0  0  0  0  0  0  0  0  0  0  0  0  # atno 8009 bound_to 7997
  154.5178  140.0774  156.8097 H   0  0  0  0  0  0  0  0  0  0  0  0  # atno 8010 bound_to 7997
  139.4907  144.5829  151.6835 H   0  0  0  0  0  0  0  0  0  0  0  0  # atno 10167 bound_to 10162
  156.0205  130.5388  150.7008 H   0  0  0  0  0  0  0  0  0  0  0  0  # atno 10718 bound_to 10713
  154.2769  135.2764  155.2714 H   0  0  0  0  0  0  0  0  0  0  0  0  # atno 10763 bound_to 10752
  154.5253  135.5745  153.6717 H   0  0  0  0  0  0  0  0  0  0  0  0  # atno 10764 bound_to 10752
  152.9935  135.6214  154.2926 H   0  0  0  0  0  0  0  0  0  0  0  0  # atno 10765 bound_to 10752
  139.9280  134.7634  156.1447 H   0  0  0  0  0  0  0  0  0  0  0  0  # atno 11005 bound_to 11000
  144.7088  139.8454  143.7421 LP  0  0  0  0  0  0  0  0  0  0  0  0  # atno 17320 bound_to 7965
  146.1122  139.4128  143.0280 LP  0  0  0  0  0  0  0  0  0  0  0  0  # atno 17321 bound_to 7965
  140.5439  144.0534  150.6099 LP  0  0  0  0  0  0  0  0  0  0  0  0  # atno 17342 bound_to 10162
  140.3566  143.2932  152.0429 LP  0  0  0  0  0  0  0  0  0  0  0  0  # atno 17343 bound_to 10162
  157.4669  131.0889  151.0685 LP  0  0  0  0  0  0  0  0  0  0  0  0  # atno 17370 bound_to 10713
  157.1157  130.6040  149.5492 LP  0  0  0  0  0  0  0  0  0  0  0  0  # atno 17371 bound_to 10713
  141.0851  133.6737  156.2419 LP  0  0  0  0  0  0  0  0  0  0  0  0  # atno 17394 bound_to 11000
  140.6281  134.5292  157.5556 LP  0  0  0  0  0  0  0  0  0  0  0  0  # atno 17395 bound_to 11000

$$$$
