AV-unprocessed.smi:3331|AV-procd|sdf|12828|dock3
  -GOLD-   2272019203D 1   1.00000     0.00000
 Structure written by MMmdl.
 46 47  0  0  0  0  0  0  0  0  1 V2000
  153.4099  143.0307  162.6222 C   0  0  0  0  0  0  0  0  0  0  0  0
  152.4868  143.1214  161.3992 C   0  0  1  0  0  0  0  0  0  0  0  0
  152.2557  144.5899  160.9738 C   0  0  0  0  0  0  0  0  0  0  0  0
  151.4473  144.7180  159.6626 C   0  0  2  0  0  0  0  0  0  0  0  0
  149.9435  144.4742  159.8817 C   0  0  0  0  0  0  0  0  0  0  0  0
  152.0537  143.7957  158.5825 C   0  0  0  0  0  0  0  0  0  0  0  0
  152.1022  142.4140  159.0822 N   0  0  0  0  0  0  0  0  0  0  0  0
  151.3509  141.3695  158.6481 C   0  0  0  0  0  0  0  0  0  0  0  0
  151.4845  140.2358  159.1137 O   0  0  0  0  0  0  0  0  0  0  0  0
  150.2894  141.5758  157.5410 C   0  0  1  0  0  0  0  0  0  0  0  0
  150.9521  142.1631  156.2849 C   0  0  0  0  0  0  0  0  0  0  0  0
  149.5650  140.3416  157.1835 N   0  0  0  0  0  0  0  0  0  0  0  0
  150.4134  139.3187  156.5812 C   0  0  0  0  0  0  0  0  0  0  0  0
  150.3367  139.4285  155.0519 C   0  0  0  0  0  0  0  0  0  0  0  0
  149.0006  139.7769  154.6086 N   0  0  0  0  0  0  0  0  0  0  0  0
  148.0375  138.9553  154.0614 C   0  0  0  0  0  0  0  0  0  0  0  0
  146.9418  139.7290  153.8051 C   0  0  0  0  0  0  0  0  0  0  0  0
  147.3364  141.0265  154.2356 C   0  0  0  0  0  0  0  0  0  0  0  0
  148.5696  141.0523  154.7150 N   0  0  0  0  0  0  0  0  0  0  0  0
  153.0323  142.2974  160.2138 C   0  0  0  0  0  0  0  0  0  0  0  0
  154.4009  143.4287  162.4021 H   0  0  0  0  0  0  0  0  0  0  0  0
  153.5306  141.9967  162.9465 H   0  0  0  0  0  0  0  0  0  0  0  0
  153.0034  143.5936  163.4627 H   0  0  0  0  0  0  0  0  0  0  0  0
  151.5246  142.6958  161.6876 H   0  0  0  0  0  0  0  0  0  0  0  0
  151.7672  145.1453  161.7756 H   0  0  0  0  0  0  0  0  0  0  0  0
  153.2255  145.0676  160.8269 H   0  0  0  0  0  0  0  0  0  0  0  0
  151.5484  145.7463  159.3132 H   0  0  0  0  0  0  0  0  0  0  0  0
  149.7408  143.4674  160.2465 H   0  0  0  0  0  0  0  0  0  0  0  0
  149.3866  144.6077  158.9542 H   0  0  0  0  0  0  0  0  0  0  0  0
  149.5366  145.1755  160.6103 H   0  0  0  0  0  0  0  0  0  0  0  0
  151.5313  143.9112  157.6351 H   0  0  0  0  0  0  0  0  0  0  0  0
  153.0731  144.1187  158.3657 H   0  0  0  0  0  0  0  0  0  0  0  0
  149.5294  142.2758  157.8815 H   0  0  0  0  0  0  0  0  0  0  0  0
  151.4574  143.1046  156.5029 H   0  0  0  0  0  0  0  0  0  0  0  0
  150.2119  142.3644  155.5098 H   0  0  0  0  0  0  0  0  0  0  0  0
  151.6921  141.4792  155.8664 H   0  0  0  0  0  0  0  0  0  0  0  0
  148.7771  140.5354  156.5818 H   0  0  0  0  0  0  0  0  0  0  0  0
  151.4492  139.4343  156.9012 H   0  0  0  0  0  0  0  0  0  0  0  0
  150.0811  138.3303  156.9019 H   0  0  0  0  0  0  0  0  0  0  0  0
  151.0339  140.1830  154.6836 H   0  0  0  0  0  0  0  0  0  0  0  0
  150.6185  138.4823  154.5874 H   0  0  0  0  0  0  0  0  0  0  0  0
  148.2090  137.9008  153.9029 H   0  0  0  0  0  0  0  0  0  0  0  0
  146.0016  139.4160  153.3759 H   0  0  0  0  0  0  0  0  0  0  0  0
  146.7678  141.9445  154.2135 H   0  0  0  0  0  0  0  0  0  0  0  0
  154.0147  142.6667  159.9152 H   0  0  0  0  0  0  0  0  0  0  0  0
  153.1922  141.2643  160.5252 H   0  0  0  0  0  0  0  0  0  0  0  0
  1  2  1  0  0  0  0
  1 21  1  0  0  0  0
  1 22  1  0  0  0  0
  1 23  1  0  0  0  0
  2 20  1  0  0  0  0
  2  3  1  0  0  0  0
  2 24  1  0  0  0  0
  3  4  1  0  0  0  0
  3 25  1  0  0  0  0
  3 26  1  0  0  0  0
  4  5  1  0  0  0  0
  4  6  1  0  0  0  0
  4 27  1  0  0  0  0
  5 28  1  0  0  0  0
  5 29  1  0  0  0  0
  5 30  1  0  0  0  0
  6  7  1  0  0  0  0
  6 31  1  0  0  0  0
  6 32  1  0  0  0  0
  7  8  1  0  0  0  0
  7 20  1  0  0  0  0
  8  9  2  0  0  0  0
  8 10  1  0  0  0  0
 10 11  1  0  0  0  0
 10 12  1  0  0  0  0
 10 33  1  0  0  0  0
 11 34  1  0  0  0  0
 11 35  1  0  0  0  0
 11 36  1  0  0  0  0
 12 13  1  0  0  0  0
 12 37  1  0  0  0  0
 13 14  1  0  0  0  0
 13 38  1  0  0  0  0
 13 39  1  0  0  0  0
 14 15  1  0  0  0  0
 14 40  1  0  0  0  0
 14 41  1  0  0  0  0
 15 19  1  0  0  0  0
 15 16  1  0  0  0  0
 16 17  2  0  0  0  0
 16 42  1  0  0  0  0
 17 18  1  0  0  0  0
 17 43  1  0  0  0  0
 18 19  2  0  0  0  0
 18 44  1  0  0  0  0
 20 45  1  0  0  0  0
 20 46  1  0  0  0  0
M  END
> <s_m_source_file>
AV-unprocessed.smi

> <i_m_source_file_index>
3331

> <i_lp_mmshare_version>
43012

> <i_f3d_flags>
0

> <s_epik_input>
W0NIM11bQ0BASF0xW0NIMl1bQ0BASF0oW0NIM10pW0NIMl1OKFtDSDJdMSlDKD1PKVtDQEhdKFtDSDNdKVtOSF1bQ0gyXVtDSDJdbjJbY0hdW2NIXVtjSF1uMg==

> <s_epik_cmdline>
J2VwaWtfcHl0aG9uJywgJy1waCcsICc3LjAnLCAnLXRuJywgJzgnLCAnLW1hJywgJzIwMCcsICctbWV0YWxfYmluZGluZycsICctaW1hZScsICc8aW5maWxlLm1hZT4nLCAnLW9tYWUnLCAnPG91dGZpbGUubWFlPic=

> <r_lp_tautomer_probability>
1

> <r_epik_Ionization_Penalty>
0.767994

> <r_epik_Ionization_Penalty_Charging>
0

> <r_epik_Ionization_Penalty_Neutral>
0.767994

> <r_epik_State_Penalty>
0.795453

> <r_epik_Charging_Adjusted_Penalty>
0.795453

> <i_epik_Tot_Q>
0

> <i_epik_Tot_abs_Q>
0

> <r_epik_Metal_State_Penalty>
0.794784

> <b_epik_Metal_Only>
0

> <s_lp_Force_Field>
OPLS_2005

> <r_lp_Energy>
29.1639

> <b_lp_Chiralities_Consistent>
1

> <s_lp_Variant>
AV-unprocessed.smi:3331-12

> <Gold.Version>
5.8.1

> <Gold.Id.Protein>
6NUR|6NUR_protein|mol2

> <Gold.PLP.Fitness>
48.2939

> <Gold.PLP.PLP>
-46.4596

> <Gold.PLP.part.hbond>
0.0000

> <Gold.PLP.part.metal>
0.0000

> <Gold.PLP.part.buried>
-5.3595

> <Gold.PLP.part.nonpolar>
-40.1901

> <Gold.PLP.part.repulsive>
0.1413

> <Gold.PLP.ligand.clash>
0.0000

> <Gold.PLP.ligand.torsion>
0.6116

> <Gold.PLP.Chemscore.Hbond>
0.0000

> <Gold.PLP.Chemscore.CHOScore>
0.9993

> <Gold.PLP.Chemscore.Metal>
0.0000

> <Gold.Chemscore.Hbonds>
donor molecule, donor type, donor heavy atom, donor atom, acceptor molecule, acceptor atom, score
      L1  C    16    42       P1  7948  0.50

> <Gold.PLP.Chemscore.Internal.Correction>
0.0595

> <Gold.Rescore>
     Score         DG    S(hbond)    S(metal)    S(lipo)     H(rot)  DE(clash)    DE(int)     intcor
     11.51     -15.37       0.00        0.00     120.93       1.66       0.53       3.33       ----

> <Gold.Chemscore.Fitness>
11.5069

> <Gold.Chemscore.DG>
-15.3672

> <Gold.Chemscore.ZeroCoef>
-5.4800

> <Gold.Chemscore.Hbond>
0.0000

> <Gold.Chemscore.Metal>
0.0000

> <Gold.Chemscore.Lipo>
120.9343

> <Gold.Chemscore.Internal_Hbond>
0.0000

> <Gold.Chemscore.DEClash>
0.5255

> <Gold.Chemscore.DEInternal>
3.3348

> <Gold.Chemscore.Rot>
1.6649

> <Gold.Chemscore.Internal.Correction>
   9.000000E+99

> <Gold.Chemscore.Hbond.Weighted>
-0.0000

> <Gold.Chemscore.Metal.Weighted>
-0.0000

> <Gold.Chemscore.Lipo.Weighted>
-14.1493

> <Gold.Chemscore.Internal_Hbond.Weighted>
0.0000

> <Gold.Chemscore.DEClash.Weighted>
0.5255

> <Gold.Chemscore.DEInternal.Weighted>
3.3348

> <Gold.Chemscore.Rot.Weighted>
4.2621

> <Gold.Chemscore.Internal.Correction.Weighted>
   9.000000E+99

> <Gold.Protein.RotatedTorsions>
[ 6907 6896 6895 6894 ] final   29.58 input  -60.11 | X-H torsion
[ 7974 7965 7964 7962 ] final  129.54 input  175.53 | X-H torsion
[ 8008 7997 7996 7995 ] final -107.39 input   59.86 | X-H torsion
[ 10167 10162 10161 10158 ] final    4.80 input  -65.29 | X-H torsion
[ 10718 10713 10712 10709 ] final -147.25 input   66.30 | X-H torsion
[ 10763 10752 10751 10750 ] final  -79.34 input  -60.55 | X-H torsion
[ 11005 11000 10999 10996 ] final  144.08 input  -57.11 | X-H torsion

> <Gold.Protein.ActiveResidues>
 VAL166  LYS551  ARG553  GLY616  TRP617  ASP618  TYR619  PRO620  LYS621  CYS622 
 ASP623  PHE694  ASN695  SER759  ASP760  ASP761  ALA762  ILE779  LEU786  VAL792 
 PHE793  MET794  SER795  GLU796  ALA797  LYS798  CYS799  TRP800  GLU811  SER814 

> <Gold.Protein.RotatedAtoms>
  152.0336  134.9753  160.0572 H   0  0  0  0  0  0  0  0  0  0  0  0  # atno 6907 bound_to 6896
  152.1220  133.4354  159.4688 H   0  0  0  0  0  0  0  0  0  0  0  0  # atno 6908 bound_to 6896
  150.6850  134.2442  159.4528 H   0  0  0  0  0  0  0  0  0  0  0  0  # atno 6909 bound_to 6896
  145.0275  139.4075  143.5166 H   0  0  0  0  0  0  0  0  0  0  0  0  # atno 7974 bound_to 7965
  154.9286  140.0405  157.2036 H   0  0  0  0  0  0  0  0  0  0  0  0  # atno 8008 bound_to 7997
  154.8183  140.2879  155.5783 H   0  0  0  0  0  0  0  0  0  0  0  0  # atno 8009 bound_to 7997
  156.2978  140.2523  156.3085 H   0  0  0  0  0  0  0  0  0  0  0  0  # atno 8010 bound_to 7997
  140.6516  143.7531  150.7584 H   0  0  0  0  0  0  0  0  0  0  0  0  # atno 10167 bound_to 10162
  156.4052  130.7954  151.2167 H   0  0  0  0  0  0  0  0  0  0  0  0  # atno 10718 bound_to 10713
  154.5374  135.5699  153.6810 H   0  0  0  0  0  0  0  0  0  0  0  0  # atno 10763 bound_to 10752
  152.9954  135.6219  154.2548 H   0  0  0  0  0  0  0  0  0  0  0  0  # atno 10764 bound_to 10752
  154.2477  135.2860  155.2808 H   0  0  0  0  0  0  0  0  0  0  0  0  # atno 10765 bound_to 10752
  140.0604  134.9207  157.1175 H   0  0  0  0  0  0  0  0  0  0  0  0  # atno 11005 bound_to 11000
  146.3494  139.9807  142.8696 LP  0  0  0  0  0  0  0  0  0  0  0  0  # atno 17320 bound_to 7965
  145.1814  140.9768  143.4264 LP  0  0  0  0  0  0  0  0  0  0  0  0  # atno 17321 bound_to 7965
  140.1182  143.4636  152.2329 LP  0  0  0  0  0  0  0  0  0  0  0  0  # atno 17342 bound_to 10162
  139.5732  144.7474  151.3835 LP  0  0  0  0  0  0  0  0  0  0  0  0  # atno 17343 bound_to 10162
  157.7505  131.0274  150.4006 LP  0  0  0  0  0  0  0  0  0  0  0  0  # atno 17370 bound_to 10713
  156.4294  130.3969  149.6771 LP  0  0  0  0  0  0  0  0  0  0  0  0  # atno 17371 bound_to 10713
  140.3778  134.2320  155.7173 LP  0  0  0  0  0  0  0  0  0  0  0  0  # atno 17394 bound_to 11000
  141.1971  133.8068  157.0644 LP  0  0  0  0  0  0  0  0  0  0  0  0  # atno 17395 bound_to 11000

$$$$
