AV-unprocessed.smi:1797|AV-procd|sdf|7256|dock2
  -GOLD-   22720 8503D 1   1.00000     0.00000
 Structure written by MMmdl.
 30 31  0  0  0  0  0  0  0  0  1 V2000
  145.5426  143.7214  162.1912 C   0  0  0  0  0  0  0  0  0  0  0  0
  146.1347  143.1828  160.9338 C   0  0  0  0  0  0  0  0  0  0  0  0
  145.7799  142.0002  160.4185 N   0  0  0  0  0  0  0  0  0  0  0  0
  146.4657  141.7098  159.2479 N   0  0  0  0  0  0  0  0  0  0  0  0
  147.3210  142.6855  158.9092 C   0  0  0  0  0  0  0  0  0  0  0  0
  148.1664  142.6625  157.7617 N   0  0  0  0  0  0  0  0  0  0  0  0
  148.8196  141.6545  157.1446 C   0  0  0  0  0  0  0  0  0  0  0  0
  148.7481  140.5024  157.5689 O   0  0  0  0  0  0  0  0  0  0  0  0
  149.5458  141.9842  156.0639 N   0  0  0  0  0  0  0  0  0  0  0  0
  150.3317  141.0585  155.2549 C   0  0  1  0  0  0  0  0  0  0  0  0
  151.4672  140.4679  156.1000 C   0  0  0  0  0  0  0  0  0  0  0  0
  152.3298  139.5044  155.2696 C   0  0  0  0  0  0  0  0  0  0  0  0
  151.5058  138.5164  154.4305 C   0  0  0  0  0  0  0  0  0  0  0  0
  152.0436  137.5033  153.9894 O   0  0  0  0  0  0  0  0  0  0  0  0
  150.2183  138.8001  154.1663 N   0  0  0  0  0  0  0  0  0  0  0  0
  149.4480  139.9223  154.7018 C   0  0  0  0  0  0  0  0  0  0  0  0
  147.3610  144.0482  160.0162 S   0  0  0  0  0  0  0  0  0  0  0  0
  144.4609  143.5847  162.1877 H   0  0  0  0  0  0  0  0  0  0  0  0
  145.7584  144.7857  162.2867 H   0  0  0  0  0  0  0  0  0  0  0  0
  145.9608  143.2006  163.0527 H   0  0  0  0  0  0  0  0  0  0  0  0
  148.3028  143.5663  157.3328 H   0  0  0  0  0  0  0  0  0  0  0  0
  149.5521  142.9539  155.7805 H   0  0  0  0  0  0  0  0  0  0  0  0
  150.7773  141.6051  154.4212 H   0  0  0  0  0  0  0  0  0  0  0  0
  152.0940  141.2669  156.4978 H   0  0  0  0  0  0  0  0  0  0  0  0
  151.0556  139.9406  156.9623 H   0  0  0  0  0  0  0  0  0  0  0  0
  152.9554  140.0763  154.5836 H   0  0  0  0  0  0  0  0  0  0  0  0
  153.0070  138.9522  155.9220 H   0  0  0  0  0  0  0  0  0  0  0  0
  149.7125  138.1478  153.5845 H   0  0  0  0  0  0  0  0  0  0  0  0
  148.8085  139.5282  155.4928 H   0  0  0  0  0  0  0  0  0  0  0  0
  148.7851  140.2999  153.9228 H   0  0  0  0  0  0  0  0  0  0  0  0
  1  2  1  0  0  0  0
  1 18  1  0  0  0  0
  1 19  1  0  0  0  0
  1 20  1  0  0  0  0
  2 17  1  0  0  0  0
  2  3  2  0  0  0  0
  3  4  1  0  0  0  0
  4  5  2  0  0  0  0
  5  6  1  0  0  0  0
  5 17  1  0  0  0  0
  6  7  1  0  0  0  0
  6 21  1  0  0  0  0
  7  8  2  0  0  0  0
  7  9  1  0  0  0  0
  9 10  1  0  0  0  0
  9 22  1  0  0  0  0
 10 16  1  0  0  0  0
 10 11  1  0  0  0  0
 10 23  1  0  0  0  0
 11 12  1  0  0  0  0
 11 24  1  0  0  0  0
 11 25  1  0  0  0  0
 12 13  1  0  0  0  0
 12 26  1  0  0  0  0
 12 27  1  0  0  0  0
 13 14  2  0  0  0  0
 13 15  1  0  0  0  0
 15 16  1  0  0  0  0
 15 28  1  0  0  0  0
 16 29  1  0  0  0  0
 16 30  1  0  0  0  0
M  END
> <s_m_source_file>
AV-unprocessed.smi

> <i_m_source_file_index>
1797

> <i_lp_mmshare_version>
43012

> <i_f3d_flags>
0

> <s_epik_input>
W0NIM11jMW5uYyhzMSlbTkhdQyg9TylbTkhdW0NAQEhdMltDSDJdW0NIMl1DKD1PKVtOSF1bQ0gyXTI=

> <s_epik_cmdline>
J2VwaWtfcHl0aG9uJywgJy1waCcsICc3LjAnLCAnLXRuJywgJzgnLCAnLW1hJywgJzIwMCcsICctbWV0YWxfYmluZGluZycsICctaW1hZScsICc8aW5maWxlLm1hZT4nLCAnLW9tYWUnLCAnPG91dGZpbGUubWFlPic=

> <r_lp_tautomer_probability>
1

> <r_epik_Ionization_Penalty>
0.00282347

> <r_epik_Ionization_Penalty_Charging>
0

> <r_epik_Ionization_Penalty_Neutral>
0.00282347

> <r_epik_State_Penalty>
-0

> <r_epik_Charging_Adjusted_Penalty>
0

> <i_epik_Tot_Q>
0

> <i_epik_Tot_abs_Q>
0

> <r_epik_Metal_State_Penalty>
0.357935

> <b_epik_Metal_Only>
0

> <s_lp_Force_Field>
OPLS_2005

> <r_lp_Energy>
10.7191

> <b_lp_Chiralities_Consistent>
1

> <s_lp_Variant>
AV-unprocessed.smi:1797-2

> <Gold.Version>
5.8.1

> <Gold.Id.Protein>
6NUR|6NUR_protein|mol2

> <Gold.PLP.Fitness>
35.5532

> <Gold.PLP.PLP>
-29.1066

> <Gold.PLP.part.hbond>
-5.3368

> <Gold.PLP.part.metal>
0.0000

> <Gold.PLP.part.buried>
-4.6172

> <Gold.PLP.part.nonpolar>
-19.9919

> <Gold.PLP.part.repulsive>
0.5619

> <Gold.PLP.ligand.clash>
0.0000

> <Gold.PLP.ligand.torsion>
0.2685

> <Gold.PLP.Chemscore.Hbond>
2.3275

> <Gold.PLP.Chemscore.CHOScore>
0.0000

> <Gold.PLP.Chemscore.Metal>
0.0000

> <Gold.Chemscore.Hbonds>
donor molecule, donor type, donor heavy atom, donor atom, acceptor molecule, acceptor atom, score
      L1  H     6    21       P1  8028  0.39
      L1  H     9    22       P1  8028  1.00
      P1  H 10752 10765       L1    14  0.90

> <Gold.PLP.Chemscore.Internal.Correction>
0.0012

> <Gold.Rescore>
     Score         DG    S(hbond)    S(metal)    S(lipo)     H(rot)  DE(clash)    DE(int)     intcor
     11.55     -13.97       1.92        0.00      39.55       1.00       0.04       2.38       ----

> <Gold.Chemscore.Fitness>
11.5468

> <Gold.Chemscore.DG>
-13.9662

> <Gold.Chemscore.ZeroCoef>
-5.4800

> <Gold.Chemscore.Hbond>
1.9218

> <Gold.Chemscore.Metal>
0.0000

> <Gold.Chemscore.Lipo>
39.5493

> <Gold.Chemscore.Internal_Hbond>
0.0000

> <Gold.Chemscore.DEClash>
0.0419

> <Gold.Chemscore.DEInternal>
2.3775

> <Gold.Chemscore.Rot>
1.0000

> <Gold.Chemscore.Internal.Correction>
   9.000000E+99

> <Gold.Chemscore.Hbonds>
donor molecule, donor type, donor heavy atom, donor atom, acceptor molecule, acceptor atom, score
      L1  H     6    21       P1  8028  0.01
      L1  H     9    22       P1  8028  0.98
      P1  H 10752 10765       L1    14  0.82

> <Gold.Chemscore.Hbond.Weighted>
-6.4189

> <Gold.Chemscore.Metal.Weighted>
-0.0000

> <Gold.Chemscore.Lipo.Weighted>
-4.6273

> <Gold.Chemscore.Internal_Hbond.Weighted>
0.0000

> <Gold.Chemscore.DEClash.Weighted>
0.0419

> <Gold.Chemscore.DEInternal.Weighted>
2.3775

> <Gold.Chemscore.Rot.Weighted>
2.5600

> <Gold.Chemscore.Internal.Correction.Weighted>
   9.000000E+99

> <Gold.Protein.RotatedTorsions>
[ 6907 6896 6895 6894 ] final  -54.38 input  -60.11 | X-H torsion
[ 7974 7965 7964 7962 ] final   44.50 input  175.53 | X-H torsion
[ 8008 7997 7996 7995 ] final   30.60 input   59.86 | X-H torsion
[ 10167 10162 10161 10158 ] final    1.36 input  -65.29 | X-H torsion
[ 10718 10713 10712 10709 ] final  141.78 input   66.30 | X-H torsion
[ 10763 10752 10751 10750 ] final  155.57 input  -60.55 | X-H torsion
[ 11005 11000 10999 10996 ] final   67.04 input  -57.11 | X-H torsion

> <Gold.Protein.ActiveResidues>
 VAL166  LYS551  ARG553  GLY616  TRP617  ASP618  TYR619  PRO620  LYS621  CYS622 
 ASP623  PHE694  ASN695  SER759  ASP760  ASP761  ALA762  ILE779  LEU786  VAL792 
 PHE793  MET794  SER795  GLU796  ALA797  LYS798  CYS799  TRP800  GLU811  SER814 

> <Gold.Protein.RotatedAtoms>
  150.8343  134.7610  159.6879 H   0  0  0  0  0  0  0  0  0  0  0  0  # atno 6907 bound_to 6896
  152.4442  134.5525  159.9880 H   0  0  0  0  0  0  0  0  0  0  0  0  # atno 6908 bound_to 6896
  151.5678  133.3356  159.3019 H   0  0  0  0  0  0  0  0  0  0  0  0  # atno 6909 bound_to 6896
  146.0563  139.5067  142.9686 H   0  0  0  0  0  0  0  0  0  0  0  0  # atno 7974 bound_to 7965
  155.0931  140.3222  155.4568 H   0  0  0  0  0  0  0  0  0  0  0  0  # atno 8008 bound_to 7997
  156.2737  140.2074  156.6004 H   0  0  0  0  0  0  0  0  0  0  0  0  # atno 8009 bound_to 7997
  154.6888  140.0518  157.0329 H   0  0  0  0  0  0  0  0  0  0  0  0  # atno 8010 bound_to 7997
  140.6686  143.7110  150.7877 H   0  0  0  0  0  0  0  0  0  0  0  0  # atno 10167 bound_to 10162
  157.3881  131.1001  151.0674 H   0  0  0  0  0  0  0  0  0  0  0  0  # atno 10718 bound_to 10713
  154.1704  135.2805  155.3082 H   0  0  0  0  0  0  0  0  0  0  0  0  # atno 10763 bound_to 10752
  154.6079  135.5508  153.7446 H   0  0  0  0  0  0  0  0  0  0  0  0  # atno 10764 bound_to 10752
  153.0166  135.6408  154.1844 H   0  0  0  0  0  0  0  0  0  0  0  0  # atno 10765 bound_to 10752
  139.9795  134.6767  156.0290 H   0  0  0  0  0  0  0  0  0  0  0  0  # atno 11005 bound_to 11000
  145.6638  141.0234  143.1694 LP  0  0  0  0  0  0  0  0  0  0  0  0  # atno 17320 bound_to 7965
  144.7150  139.8231  143.7402 LP  0  0  0  0  0  0  0  0  0  0  0  0  # atno 17321 bound_to 7965
  140.0792  143.4985  152.2539 LP  0  0  0  0  0  0  0  0  0  0  0  0  # atno 17342 bound_to 10162
  139.5945  144.7562  151.3320 LP  0  0  0  0  0  0  0  0  0  0  0  0  # atno 17343 bound_to 10162
  157.1717  130.6270  149.5643 LP  0  0  0  0  0  0  0  0  0  0  0  0  # atno 17370 bound_to 10713
  155.9791  130.4783  150.6698 LP  0  0  0  0  0  0  0  0  0  0  0  0  # atno 17371 bound_to 10713
  141.1468  133.6554  156.3893 LP  0  0  0  0  0  0  0  0  0  0  0  0  # atno 17394 bound_to 11000
  140.5126  134.6381  157.5290 LP  0  0  0  0  0  0  0  0  0  0  0  0  # atno 17395 bound_to 11000

$$$$
