#       Name:                AV-unprocessed.smi:1669
#       Creating user name   scv26
#       Creation time:       Fri Mar 27 07:41:11 2020


#       File generated by GOLD software.
#

@<TRIPOS>MOLECULE
AV-unprocessed.smi:1669
    53    55     1
SMALL
NO_CHARGES


@<TRIPOS>ATOM
      1 ****        -3.6594  -0.4137   0.8092 C.3            1 S1                 0.0000
      2 ****        -2.2791  -0.4316   0.3334 N.3            1 S1                 0.0000
      3 ****        -2.2028  -0.0273  -1.0740 C.3            1 S1                 0.0000
      4 ****        -2.6029   1.4175  -1.3174 C.ar           1 S1                 0.0000
      5 ****        -1.8477   2.4651  -0.7488 C.ar           1 S1                 0.0000
      6 ****        -2.2170   3.8057  -0.9729 C.ar           1 S1                 0.0000
      7 ****        -3.3393   4.1036  -1.7700 C.ar           1 S1                 0.0000
      8 ****        -4.0928   3.0604  -2.3426 C.ar           1 S1                 0.0000
      9 ****        -3.7258   1.7192  -2.1165 C.ar           1 S1                 0.0000
     10 ****        -1.6858  -1.7502   0.5673 C.3            1 S1                 0.0000
     11 ****        -0.1577  -1.8363   0.3772 C.3            1 S1                 0.0000
     12 ****         0.2339  -3.1763   0.5956 O.3            1 S1                 0.0000
     13 ****         0.6157  -0.9104   1.3390 C.3            1 S1                 0.0000
     14 ****         2.0494  -0.9206   1.0844 N.pl3          1 S1                 0.0000
     15 ****         3.0317  -1.5419   1.7847 C.2            1 S1                 0.0000
     16 ****         2.7294  -2.3546   3.0112 C.3            1 S1                 0.0000
     17 ****         3.8280  -3.1086   3.4814 O.3            1 S1                 0.0000
     18 ****         4.2707  -1.3673   1.3175 N.2            1 S1                 0.0000
     19 ****         4.0715  -0.5629   0.2125 C.ar           1 S1                 0.0000
     20 ****         4.9946  -0.0277  -0.7143 C.ar           1 S1                 0.0000
     21 ****         4.5484   0.7849  -1.7773 C.ar           1 S1                 0.0000
     22 ****         3.1766   1.0747  -1.9281 C.ar           1 S1                 0.0000
     23 ****         2.2405   0.5513  -1.0159 C.ar           1 S1                 0.0000
     24 ****         2.6914  -0.2612   0.0416 C.ar           1 S1                 0.0000
     25 ****        -3.7095  -0.6905   1.8627 H              1 S1                 0.0000
     26 ****        -4.2794  -1.1120   0.2453 H              1 S1                 0.0000
     27 ****        -4.0976   0.5804   0.7177 H              1 S1                 0.0000
     28 ****        -1.1832  -0.1192  -1.4438 H              1 S1                 0.0000
     29 ****        -2.8125  -0.6904  -1.6894 H              1 S1                 0.0000
     30 ****        -0.9852   2.2408  -0.1377 H              1 S1                 0.0000
     31 ****        -1.6390   4.6053  -0.5335 H              1 S1                 0.0000
     32 ****        -3.6216   5.1316  -1.9430 H              1 S1                 0.0000
     33 ****        -4.9526   3.2888  -2.9552 H              1 S1                 0.0000
     34 ****        -4.3099   0.9241  -2.5565 H              1 S1                 0.0000
     35 ****        -1.9081  -2.0620   1.5890 H              1 S1                 0.0000
     36 ****        -2.1728  -2.4826  -0.0788 H              1 S1                 0.0000
     37 ****         0.1096  -1.6043  -0.6528 H              1 S1                 0.0000
     38 ****         0.0101  -3.4150   1.4821 H              1 S1                 0.0000
     39 ****         0.2726   0.1185   1.2238 H              1 S1                 0.0000
     40 ****         0.4182  -1.1769   2.3772 H              1 S1                 0.0000
     41 ****         2.3965  -1.6861   3.8055 H              1 S1                 0.0000
     42 ****         1.9126  -3.0442   2.7991 H              1 S1                 0.0000
     43 ****         4.5371  -2.5130   3.6713 H              1 S1                 0.0000
     44 ****         6.0475  -0.2426  -0.6070 H              1 S1                 0.0000
     45 ****         5.2624   1.1886  -2.4802 H              1 S1                 0.0000
     46 ****         2.8432   1.6981  -2.7446 H              1 S1                 0.0000
     47 ****         1.1890   0.7707  -1.1281 H              1 S1                 0.0000
     48 ****        -1.7458   0.2372   0.8514 LP             1 S1                 0.0000
     49 ****         1.2210  -3.2649   0.4618 LP             1 S1                 0.0000
     50 ****        -0.2446  -3.7760  -0.0458 LP             1 S1                 0.0000
     51 ****         4.1140  -3.7625   2.7809 LP             1 S1                 0.0000
     52 ****         3.5690  -3.6018   4.3119 LP             1 S1                 0.0000
     53 ****         5.1301  -1.7294   1.6785 LP             1 S1                 0.0000
@<TRIPOS>BOND
    1    1    2 1     
    2    1   25 1     
    3    1   26 1     
    4    1   27 1     
    5    2    3 1     
    6    2   10 1     
    7    3    4 1     
    8    3   28 1     
    9    3   29 1     
   10    4    9 ar    
   11    4    5 ar    
   12    5    6 ar    
   13    5   30 1     
   14    6    7 ar    
   15    6   31 1     
   16    7    8 ar    
   17    7   32 1     
   18    8    9 ar    
   19    8   33 1     
   20    9   34 1     
   21   10   11 1     
   22   10   35 1     
   23   10   36 1     
   24   11   12 1     
   25   11   13 1     
   26   11   37 1     
   27   12   38 1     
   28   13   14 1     
   29   13   39 1     
   30   13   40 1     
   31   14   24 1     
   32   14   15 1     
   33   15   16 1     
   34   15   18 2     
   35   16   17 1     
   36   16   41 1     
   37   16   42 1     
   38   17   43 1     
   39   18   19 1     
   40   19   24 ar    
   41   19   20 ar    
   42   20   21 ar    
   43   20   44 1     
   44   21   22 ar    
   45   21   45 1     
   46   22   23 ar    
   47   22   46 1     
   48   23   24 ar    
   49   23   47 1     
   50    2   48 1     
   51   12   49 1     
   52   12   50 1     
   53   17   51 1     
   54   17   52 1     
   55   18   53 1     
@<TRIPOS>SUBSTRUCTURE
      1 S1             1
@<TRIPOS>SET
LONE_PAIRS      STATIC     ATOMS    <user>   **** ""
6 48 49 50 51 52 53
DONOR_HYDROGENS      STATIC     ATOMS    <user>   **** ""
2 38 43
ATOM$BLUE        STATIC     ATOMS    COLORGROUP SYSTEM
6 48 49 50 51 52 53
ATOM$RED        STATIC     ATOMS    COLORGROUP SYSTEM
2 38 43
