AV-unprocessed.smi:318|AV-procd|sdf|2330|dock7
  -GOLD-   2262022233D 1   1.00000     0.00000
 Structure written by MMmdl.
 38 39  0  0  0  0  0  0  0  0  1 V2000
  148.9181  139.7807  156.3709 O   0  0  0  0  0  0  0  0  0  0  0  0
  149.3279  140.9398  156.2917 C   0  0  0  0  0  0  0  0  0  0  0  0
  150.8318  141.2517  156.3046 C   0  0  0  0  0  0  0  0  0  0  0  0
  151.3071  141.8183  157.5789 N   0  0  0  0  0  0  0  0  0  0  0  0
  150.6901  143.0043  158.0157 C   0  0  0  0  0  0  0  0  0  0  0  0
  151.0451  143.6041  159.1599 C   0  0  0  0  0  0  0  0  0  0  0  0
  152.0899  143.0008  159.9505 C   0  0  0  0  0  0  0  0  0  0  0  0
  152.7060  141.8633  159.5538 C   0  0  0  0  0  0  0  0  0  0  0  0
  153.8120  141.2107  160.3801 C   0  0  0  0  0  0  0  0  0  0  0  0
  153.5825  139.9048  160.5243 F   0  0  0  0  0  0  0  0  0  0  0  0
  154.9944  141.3623  159.7823 F   0  0  0  0  0  0  0  0  0  0  0  0
  153.9001  141.7449  161.5992 F   0  0  0  0  0  0  0  0  0  0  0  0
  152.3089  141.2119  158.2886 C   0  0  0  0  0  0  0  0  0  0  0  0
  152.8434  140.1784  157.8829 O   0  0  0  0  0  0  0  0  0  0  0  0
  148.5145  142.0003  156.1745 N   0  0  0  0  0  0  0  0  0  0  0  0
  147.0559  141.9486  156.1369 C   0  0  0  0  0  0  0  0  0  0  0  0
  146.5241  142.4858  154.7911 C   0  0  0  0  0  0  0  0  0  0  0  0
  144.9874  142.5180  154.7648 C   0  0  0  0  0  0  0  0  0  0  0  0
  144.4260  143.3303  155.9420 C   0  0  0  0  0  0  0  0  0  0  0  0
  144.9464  142.7921  157.2838 C   0  0  0  0  0  0  0  0  0  0  0  0
  146.4830  142.7610  157.3139 C   0  0  0  0  0  0  0  0  0  0  0  0
  151.3707  140.3318  156.0729 H   0  0  0  0  0  0  0  0  0  0  0  0
  151.0629  141.9299  155.4811 H   0  0  0  0  0  0  0  0  0  0  0  0
  149.9227  143.3940  157.3628 H   0  0  0  0  0  0  0  0  0  0  0  0
  150.5645  144.5169  159.4800 H   0  0  0  0  0  0  0  0  0  0  0  0
  152.3743  143.4805  160.8750 H   0  0  0  0  0  0  0  0  0  0  0  0
  148.9374  142.9149  156.1103 H   0  0  0  0  0  0  0  0  0  0  0  0
  146.7362  140.9112  156.2543 H   0  0  0  0  0  0  0  0  0  0  0  0
  146.9088  143.4918  154.6168 H   0  0  0  0  0  0  0  0  0  0  0  0
  146.8878  141.8699  153.9676 H   0  0  0  0  0  0  0  0  0  0  0  0
  144.6406  142.9420  153.8221 H   0  0  0  0  0  0  0  0  0  0  0  0
  144.6006  141.4992  154.8059 H   0  0  0  0  0  0  0  0  0  0  0  0
  144.7103  144.3776  155.8325 H   0  0  0  0  0  0  0  0  0  0  0  0
  143.3361  143.3023  155.9274 H   0  0  0  0  0  0  0  0  0  0  0  0
  144.5716  143.4080  158.1018 H   0  0  0  0  0  0  0  0  0  0  0  0
  144.5576  141.7866  157.4500 H   0  0  0  0  0  0  0  0  0  0  0  0
  146.8222  142.3375  158.2602 H   0  0  0  0  0  0  0  0  0  0  0  0
  146.8638  143.7827  157.2781 H   0  0  0  0  0  0  0  0  0  0  0  0
  1  2  2  0  0  0  0
  2  3  1  0  0  0  0
  2 15  1  0  0  0  0
  3  4  1  0  0  0  0
  3 22  1  0  0  0  0
  3 23  1  0  0  0  0
  4 13  1  0  0  0  0
  4  5  1  0  0  0  0
  5  6  2  0  0  0  0
  5 24  1  0  0  0  0
  6  7  1  0  0  0  0
  6 25  1  0  0  0  0
  7  8  2  0  0  0  0
  7 26  1  0  0  0  0
  8  9  1  0  0  0  0
  8 13  1  0  0  0  0
  9 10  1  0  0  0  0
  9 11  1  0  0  0  0
  9 12  1  0  0  0  0
 13 14  2  0  0  0  0
 15 16  1  0  0  0  0
 15 27  1  0  0  0  0
 16 21  1  0  0  0  0
 16 17  1  0  0  0  0
 16 28  1  0  0  0  0
 17 18  1  0  0  0  0
 17 29  1  0  0  0  0
 17 30  1  0  0  0  0
 18 19  1  0  0  0  0
 18 31  1  0  0  0  0
 18 32  1  0  0  0  0
 19 20  1  0  0  0  0
 19 33  1  0  0  0  0
 19 34  1  0  0  0  0
 20 21  1  0  0  0  0
 20 35  1  0  0  0  0
 20 36  1  0  0  0  0
 21 37  1  0  0  0  0
 21 38  1  0  0  0  0
M  END
> <s_m_source_file>
AV-unprocessed.smi

> <i_m_source_file_index>
318

> <i_lp_mmshare_version>
43012

> <i_f3d_flags>
0

> <s_epik_input>
W0NIMl0xW0NIMl1bQ0gyXVtDSDJdW0NIMl1bQ0hdMVtOSF1DKD1PKVtDSDJdbjJbY0hdW2NIXVtjSF1jKEMoRikoRilGKWMyPU8=

> <s_epik_cmdline>
J2VwaWtfcHl0aG9uJywgJy1waCcsICc3LjAnLCAnLXRuJywgJzgnLCAnLW1hJywgJzIwMCcsICctbWV0YWxfYmluZGluZycsICctaW1hZScsICc8aW5maWxlLm1hZT4nLCAnLW9tYWUnLCAnPG91dGZpbGUubWFlPic=

> <r_lp_tautomer_probability>
1

> <r_epik_Ionization_Penalty>
2.11101e-08

> <r_epik_Ionization_Penalty_Charging>
2.0632e-09

> <r_epik_Ionization_Penalty_Neutral>
1.90469e-08

> <r_epik_State_Penalty>
-0

> <r_epik_Charging_Adjusted_Penalty>
2.0632e-09

> <i_epik_Tot_Q>
0

> <i_epik_Tot_abs_Q>
0

> <r_epik_Metal_State_Penalty>
-0

> <b_epik_Metal_Only>
0

> <s_lp_Force_Field>
OPLS_2005

> <r_lp_Energy>
18.6605

> <b_lp_Chiralities_Consistent>
1

> <s_lp_Variant>
AV-unprocessed.smi:318-1

> <Gold.Version>
5.8.1

> <Gold.Id.Protein>
6NUR|6NUR_protein|mol2

> <Gold.PLP.Fitness>
47.2325

> <Gold.PLP.PLP>
-39.0804

> <Gold.PLP.part.hbond>
-2.0000

> <Gold.PLP.part.metal>
0.0000

> <Gold.PLP.part.buried>
-3.8130

> <Gold.PLP.part.nonpolar>
-33.3250

> <Gold.PLP.part.repulsive>
0.0418

> <Gold.PLP.ligand.clash>
0.0000

> <Gold.PLP.ligand.torsion>
0.5589

> <Gold.PLP.Chemscore.Hbond>
1.9840

> <Gold.PLP.Chemscore.CHOScore>
1.0000

> <Gold.PLP.Chemscore.Metal>
0.0000

> <Gold.Chemscore.Hbonds>
donor molecule, donor type, donor heavy atom, donor atom, acceptor molecule, acceptor atom, score
      L1  H    15    27       P1  8028  1.00
      P1  H  7997  8009       L1    14  0.96
      L1  C     5    24       P1  8028  1.00

> <Gold.PLP.Chemscore.Internal.Correction>
0.3178

> <Gold.Rescore>
     Score         DG    S(hbond)    S(metal)    S(lipo)     H(rot)  DE(clash)    DE(int)     intcor
     13.83     -16.74       1.89        0.00      75.90       1.54       0.03       2.89       ----

> <Gold.Chemscore.Fitness>
13.8264

> <Gold.Chemscore.DG>
-16.7431

> <Gold.Chemscore.ZeroCoef>
-5.4800

> <Gold.Chemscore.Hbond>
1.8926

> <Gold.Chemscore.Metal>
0.0000

> <Gold.Chemscore.Lipo>
75.8970

> <Gold.Chemscore.Internal_Hbond>
0.0000

> <Gold.Chemscore.DEClash>
0.0292

> <Gold.Chemscore.DEInternal>
2.8875

> <Gold.Chemscore.Rot>
1.5383

> <Gold.Chemscore.Internal.Correction>
   9.000000E+99

> <Gold.Chemscore.Hbonds>
donor molecule, donor type, donor heavy atom, donor atom, acceptor molecule, acceptor atom, score
      L1  H    15    27       P1  8028  0.95
      P1  H  7997  8009       L1    14  0.91

> <Gold.Chemscore.Hbond.Weighted>
-6.3211

> <Gold.Chemscore.Metal.Weighted>
-0.0000

> <Gold.Chemscore.Lipo.Weighted>
-8.8799

> <Gold.Chemscore.Internal_Hbond.Weighted>
0.0000

> <Gold.Chemscore.DEClash.Weighted>
0.0292

> <Gold.Chemscore.DEInternal.Weighted>
2.8875

> <Gold.Chemscore.Rot.Weighted>
3.9380

> <Gold.Chemscore.Internal.Correction.Weighted>
   9.000000E+99

> <Gold.Protein.RotatedTorsions>
[ 6907 6896 6895 6894 ] final   16.55 input  -60.11 | X-H torsion
[ 7974 7965 7964 7962 ] final -146.47 input  175.53 | X-H torsion
[ 8008 7997 7996 7995 ] final  157.85 input   59.86 | X-H torsion
[ 10167 10162 10161 10158 ] final   20.18 input  -65.29 | X-H torsion
[ 10718 10713 10712 10709 ] final   54.40 input   66.30 | X-H torsion
[ 10763 10752 10751 10750 ] final -150.10 input  -60.55 | X-H torsion
[ 11005 11000 10999 10996 ] final  -14.31 input  -57.11 | X-H torsion

> <Gold.Protein.ActiveResidues>
 VAL166  LYS551  ARG553  GLY616  TRP617  ASP618  TYR619  PRO620  LYS621  CYS622 
 ASP623  PHE694  ASN695  SER759  ASP760  ASP761  ALA762  ILE779  LEU786  VAL792 
 PHE793  MET794  SER795  GLU796  ALA797  LYS798  CYS799  TRP800  GLU811  SER814 

> <Gold.Protein.RotatedAtoms>
  151.8357  135.0607  160.0441 H   0  0  0  0  0  0  0  0  0  0  0  0  # atno 6907 bound_to 6896
  152.2847  133.5499  159.5528 H   0  0  0  0  0  0  0  0  0  0  0  0  # atno 6908 bound_to 6896
  150.7204  134.0431  159.3814 H   0  0  0  0  0  0  0  0  0  0  0  0  # atno 6909 bound_to 6896
  144.8157  140.5451  143.5612 H   0  0  0  0  0  0  0  0  0  0  0  0  # atno 7974 bound_to 7965
  156.2339  140.1874  156.7172 H   0  0  0  0  0  0  0  0  0  0  0  0  # atno 8008 bound_to 7997
  154.6070  140.0627  156.9472 H   0  0  0  0  0  0  0  0  0  0  0  0  # atno 8009 bound_to 7997
  155.2078  140.3297  155.4336 H   0  0  0  0  0  0  0  0  0  0  0  0  # atno 8010 bound_to 7997
  140.5523  143.9488  150.6586 H   0  0  0  0  0  0  0  0  0  0  0  0  # atno 10167 bound_to 10162
  157.5253  130.8593  149.8613 H   0  0  0  0  0  0  0  0  0  0  0  0  # atno 10718 bound_to 10713
  154.8139  135.3292  154.7231 H   0  0  0  0  0  0  0  0  0  0  0  0  # atno 10763 bound_to 10752
  153.7875  135.6913  153.4882 H   0  0  0  0  0  0  0  0  0  0  0  0  # atno 10764 bound_to 10752
  153.1939  135.4541  155.0130 H   0  0  0  0  0  0  0  0  0  0  0  0  # atno 10765 bound_to 10752
  140.7851  133.8332  155.9328 H   0  0  0  0  0  0  0  0  0  0  0  0  # atno 11005 bound_to 11000
  145.5220  139.1476  143.3547 LP  0  0  0  0  0  0  0  0  0  0  0  0  # atno 17320 bound_to 7965
  146.2460  140.5361  142.8914 LP  0  0  0  0  0  0  0  0  0  0  0  0  # atno 17321 bound_to 7965
  140.2916  143.3320  152.1056 LP  0  0  0  0  0  0  0  0  0  0  0  0  # atno 17342 bound_to 10162
  139.5032  144.6751  151.6147 LP  0  0  0  0  0  0  0  0  0  0  0  0  # atno 17343 bound_to 10162
  156.0382  130.3745  150.1503 LP  0  0  0  0  0  0  0  0  0  0  0  0  # atno 17370 bound_to 10713
  156.9690  130.9828  151.3463 LP  0  0  0  0  0  0  0  0  0  0  0  0  # atno 17371 bound_to 10713
  140.9444  134.1859  157.4774 LP  0  0  0  0  0  0  0  0  0  0  0  0  # atno 17394 bound_to 11000
  139.8737  134.9885  156.5413 LP  0  0  0  0  0  0  0  0  0  0  0  0  # atno 17395 bound_to 11000

$$$$
