AV-unprocessed.smi:2962|AV-procd|sdf|11316|dock3
  -GOLD-   2272016223D 1   1.00000     0.00000
 Structure written by MMmdl.
 36 37  0  0  0  0  0  0  0  0  1 V2000
  155.3107  139.2692  159.8611 C   0  0  0  0  0  0  0  0  0  0  0  0
  154.6564  139.2119  158.6063 O   0  0  0  0  0  0  0  0  0  0  0  0
  153.4682  138.4389  158.6464 C   0  0  0  0  0  0  0  0  0  0  0  0
  152.3995  139.1720  159.4683 C   0  0  0  0  0  0  0  0  0  0  0  0
  151.8497  140.3145  158.7524 N   0  0  0  0  0  0  0  0  0  0  0  0
  151.0157  140.3190  157.6823 C   0  0  0  0  0  0  0  0  0  0  0  0
  150.4170  138.8362  156.9428 S   0  0  0  0  0  0  0  0  0  0  0  0
  151.0864  139.0786  155.2690 C   0  0  1  0  0  0  0  0  0  0  0  0
  152.6065  139.3212  155.3015 C   0  0  0  0  0  0  0  0  0  0  0  0
  150.7011  137.9107  154.3530 C   0  0  0  0  0  0  0  0  0  0  0  0
  149.8865  138.1903  153.3318 N   0  0  0  0  0  0  0  0  0  0  0  0
  151.1246  136.7737  154.5552 O   0  0  0  0  0  0  0  0  0  0  0  0
  150.6823  141.5214  157.2139 N   0  0  0  0  0  0  0  0  0  0  0  0
  151.3571  142.3773  158.0617 C   0  0  0  0  0  0  0  0  0  0  0  0
  151.4094  143.7892  158.0910 C   0  0  0  0  0  0  0  0  0  0  0  0
  152.1827  144.4545  159.0649 C   0  0  0  0  0  0  0  0  0  0  0  0
  152.9135  143.7192  160.0207 C   0  0  0  0  0  0  0  0  0  0  0  0
  152.8746  142.3117  160.0093 C   0  0  0  0  0  0  0  0  0  0  0  0
  152.0993  141.6529  159.0363 C   0  0  0  0  0  0  0  0  0  0  0  0
  156.2112  139.8776  159.7767 H   0  0  0  0  0  0  0  0  0  0  0  0
  155.6062  138.2744  160.1970 H   0  0  0  0  0  0  0  0  0  0  0  0
  154.6700  139.7196  160.6202 H   0  0  0  0  0  0  0  0  0  0  0  0
  153.1002  138.2675  157.6339 H   0  0  0  0  0  0  0  0  0  0  0  0
  153.6731  137.4624  159.0884 H   0  0  0  0  0  0  0  0  0  0  0  0
  151.5991  138.4859  159.7416 H   0  0  0  0  0  0  0  0  0  0  0  0
  152.8287  139.5265  160.4060 H   0  0  0  0  0  0  0  0  0  0  0  0
  150.6200  139.9714  154.8509 H   0  0  0  0  0  0  0  0  0  0  0  0
  153.0192  139.3987  154.2947 H   0  0  0  0  0  0  0  0  0  0  0  0
  153.1287  138.5131  155.8153 H   0  0  0  0  0  0  0  0  0  0  0  0
  152.8465  140.2501  155.8182 H   0  0  0  0  0  0  0  0  0  0  0  0
  149.6093  137.4598  152.6926 H   0  0  0  0  0  0  0  0  0  0  0  0
  149.5588  139.1359  153.1983 H   0  0  0  0  0  0  0  0  0  0  0  0
  150.8542  144.3610  157.3622 H   0  0  0  0  0  0  0  0  0  0  0  0
  152.2165  145.5341  159.0780 H   0  0  0  0  0  0  0  0  0  0  0  0
  153.5045  144.2366  160.7622 H   0  0  0  0  0  0  0  0  0  0  0  0
  153.4337  141.7453  160.7390 H   0  0  0  0  0  0  0  0  0  0  0  0
  1  2  1  0  0  0  0
  1 20  1  0  0  0  0
  1 21  1  0  0  0  0
  1 22  1  0  0  0  0
  2  3  1  0  0  0  0
  3  4  1  0  0  0  0
  3 23  1  0  0  0  0
  3 24  1  0  0  0  0
  4  5  1  0  0  0  0
  4 25  1  0  0  0  0
  4 26  1  0  0  0  0
  5 19  1  0  0  0  0
  5  6  1  0  0  0  0
  6  7  1  0  0  0  0
  6 13  2  0  0  0  0
  7  8  1  0  0  0  0
  8  9  1  0  0  0  0
  8 10  1  0  0  0  0
  8 27  1  0  0  0  0
  9 28  1  0  0  0  0
  9 29  1  0  0  0  0
  9 30  1  0  0  0  0
 10 11  1  0  0  0  0
 10 12  2  0  0  0  0
 11 31  1  0  0  0  0
 11 32  1  0  0  0  0
 13 14  1  0  0  0  0
 14 19  2  0  0  0  0
 14 15  1  0  0  0  0
 15 16  2  0  0  0  0
 15 33  1  0  0  0  0
 16 17  1  0  0  0  0
 16 34  1  0  0  0  0
 17 18  2  0  0  0  0
 17 35  1  0  0  0  0
 18 19  1  0  0  0  0
 18 36  1  0  0  0  0
M  END
> <s_m_source_file>
AV-unprocessed.smi

> <i_m_source_file_index>
2962

> <i_lp_mmshare_version>
43012

> <i_f3d_flags>
0

> <s_epik_input>
W2NIXTFbY0hdW2NIXVtjSF1jKGMxMiluKFtDSDJdW0NIMl1PW0NIM10pYyhuMilTW0NASF0oW0NIM10pQyg9TylbTkgyXQ==

> <s_epik_cmdline>
J2VwaWtfcHl0aG9uJywgJy1waCcsICc3LjAnLCAnLXRuJywgJzgnLCAnLW1hJywgJzIwMCcsICctbWV0YWxfYmluZGluZycsICctaW1hZScsICc8aW5maWxlLm1hZT4nLCAnLW9tYWUnLCAnPG91dGZpbGUubWFlPic=

> <r_epik_Ionization_Penalty>
0.0199986

> <r_epik_Ionization_Penalty_Charging>
0

> <r_epik_Ionization_Penalty_Neutral>
0.0199986

> <r_epik_State_Penalty>
0.0160044

> <r_epik_Charging_Adjusted_Penalty>
0.0160044

> <i_epik_Tot_Q>
0

> <i_epik_Tot_abs_Q>
0

> <r_epik_Metal_State_Penalty>
0.015472

> <b_epik_Metal_Only>
0

> <s_lp_Force_Field>
OPLS_2005

> <r_lp_Energy>
4.7896

> <b_lp_Chiralities_Consistent>
1

> <s_lp_Variant>
AV-unprocessed.smi:2962-2

> <Gold.Version>
5.8.1

> <Gold.Id.Protein>
6NUR|6NUR_protein|mol2

> <Gold.PLP.Fitness>
47.5197

> <Gold.PLP.PLP>
-38.1558

> <Gold.PLP.part.hbond>
-4.9490

> <Gold.PLP.part.metal>
0.0000

> <Gold.PLP.part.buried>
-1.9708

> <Gold.PLP.part.nonpolar>
-32.6139

> <Gold.PLP.part.repulsive>
0.7031

> <Gold.PLP.ligand.clash>
0.0000

> <Gold.PLP.ligand.torsion>
0.2394

> <Gold.PLP.Chemscore.Hbond>
3.2565

> <Gold.PLP.Chemscore.CHOScore>
0.0000

> <Gold.PLP.Chemscore.Metal>
0.0000

> <Gold.Chemscore.Hbonds>
donor molecule, donor type, donor heavy atom, donor atom, acceptor molecule, acceptor atom, score
      L1  H    11    31       P1  7948  1.00
      L1  H    11    32       P1  7957  0.20
      P1  H  7997  8008       L1     2  1.00
      P1  H 10752 10763       L1    12  0.71

> <Gold.PLP.Chemscore.Internal.Correction>
0.0732

> <Gold.Rescore>
     Score         DG    S(hbond)    S(metal)    S(lipo)     H(rot)  DE(clash)    DE(int)     intcor
     19.89     -20.49       2.86        0.00     101.34       2.50       0.02       0.59       ----

> <Gold.Chemscore.Fitness>
19.8851

> <Gold.Chemscore.DG>
-20.4939

> <Gold.Chemscore.ZeroCoef>
-5.4800

> <Gold.Chemscore.Hbond>
2.8637

> <Gold.Chemscore.Metal>
0.0000

> <Gold.Chemscore.Lipo>
101.3359

> <Gold.Chemscore.Internal_Hbond>
0.0000

> <Gold.Chemscore.DEClash>
0.0156

> <Gold.Chemscore.DEInternal>
0.5932

> <Gold.Chemscore.Rot>
2.5027

> <Gold.Chemscore.Internal.Correction>
   9.000000E+99

> <Gold.Chemscore.Hbonds>
donor molecule, donor type, donor heavy atom, donor atom, acceptor molecule, acceptor atom, score
      L1  H    11    31       P1  7948  0.49
      L1  H    11    32       P1  7957  0.20
      P1  H  7997  8008       L1     2  0.86
      P1  H 10752 10763       L1    12  0.71

> <Gold.Chemscore.Hbond.Weighted>
-9.5646

> <Gold.Chemscore.Metal.Weighted>
-0.0000

> <Gold.Chemscore.Lipo.Weighted>
-11.8563

> <Gold.Chemscore.Internal_Hbond.Weighted>
0.0000

> <Gold.Chemscore.DEClash.Weighted>
0.0156

> <Gold.Chemscore.DEInternal.Weighted>
0.5932

> <Gold.Chemscore.Rot.Weighted>
6.4070

> <Gold.Chemscore.Internal.Correction.Weighted>
   9.000000E+99

> <Gold.Protein.RotatedTorsions>
[ 6907 6896 6895 6894 ] final -139.98 input  -60.11 | X-H torsion
[ 7974 7965 7964 7962 ] final  108.32 input  175.53 | X-H torsion
[ 8008 7997 7996 7995 ] final -104.84 input   59.86 | X-H torsion
[ 10167 10162 10161 10158 ] final  125.97 input  -65.29 | X-H torsion
[ 10718 10713 10712 10709 ] final   -7.34 input   66.30 | X-H torsion
[ 10763 10752 10751 10750 ] final   41.34 input  -60.55 | X-H torsion
[ 11005 11000 10999 10996 ] final  101.38 input  -57.11 | X-H torsion

> <Gold.Protein.ActiveResidues>
 VAL166  LYS551  ARG553  GLY616  TRP617  ASP618  TYR619  PRO620  LYS621  CYS622 
 ASP623  PHE694  ASN695  SER759  ASP760  ASP761  ALA762  ILE779  LEU786  VAL792 
 PHE793  MET794  SER795  GLU796  ALA797  LYS798  CYS799  TRP800  GLU811  SER814 

> <Gold.Protein.RotatedAtoms>
  151.0547  133.5594  159.2639 H   0  0  0  0  0  0  0  0  0  0  0  0  # atno 6907 bound_to 6896
  151.2591  135.0647  159.9101 H   0  0  0  0  0  0  0  0  0  0  0  0  # atno 6908 bound_to 6896
  152.5388  134.0296  159.8072 H   0  0  0  0  0  0  0  0  0  0  0  0  # atno 6909 bound_to 6896
  145.2822  139.2629  143.3910 H   0  0  0  0  0  0  0  0  0  0  0  0  # atno 7974 bound_to 7965
  154.8912  140.0416  157.1839 H   0  0  0  0  0  0  0  0  0  0  0  0  # atno 8008 bound_to 7997
  154.8539  140.2933  155.5560 H   0  0  0  0  0  0  0  0  0  0  0  0  # atno 8009 bound_to 7997
  156.2997  140.2459  156.3502 H   0  0  0  0  0  0  0  0  0  0  0  0  # atno 8010 bound_to 7997
  139.5656  144.6909  151.3918 H   0  0  0  0  0  0  0  0  0  0  0  0  # atno 10167 bound_to 10162
  156.7186  130.5144  149.5874 H   0  0  0  0  0  0  0  0  0  0  0  0  # atno 10718 bound_to 10713
  152.9911  135.6165  154.2771 H   0  0  0  0  0  0  0  0  0  0  0  0  # atno 10763 bound_to 10752
  154.2502  135.2785  155.2821 H   0  0  0  0  0  0  0  0  0  0  0  0  # atno 10764 bound_to 10752
  154.5295  135.5792  153.6804 H   0  0  0  0  0  0  0  0  0  0  0  0  # atno 10765 bound_to 10752
  139.8773  134.9180  156.4897 H   0  0  0  0  0  0  0  0  0  0  0  0  # atno 11005 bound_to 11000
  146.3213  140.3292  142.8639 LP  0  0  0  0  0  0  0  0  0  0  0  0  # atno 17320 bound_to 7965
  144.9244  140.7904  143.5728 LP  0  0  0  0  0  0  0  0  0  0  0  0  # atno 17321 bound_to 7965
  140.6940  143.7794  150.7298 LP  0  0  0  0  0  0  0  0  0  0  0  0  # atno 17342 bound_to 10162
  140.1285  143.4547  152.2269 LP  0  0  0  0  0  0  0  0  0  0  0  0  # atno 17343 bound_to 10162
  156.1610  130.6374  151.0719 LP  0  0  0  0  0  0  0  0  0  0  0  0  # atno 17370 bound_to 10713
  157.6907  131.0811  150.7115 LP  0  0  0  0  0  0  0  0  0  0  0  0  # atno 17371 bound_to 10713
  140.8667  133.8019  155.9321 LP  0  0  0  0  0  0  0  0  0  0  0  0  # atno 17394 bound_to 11000
  140.8994  134.2397  157.5050 LP  0  0  0  0  0  0  0  0  0  0  0  0  # atno 17395 bound_to 11000

$$$$
