AV-unprocessed.smi:1873|AV-procd|sdf|7607|dock5
  -GOLD-   22720 9323D 1   1.00000     0.00000
 Structure written by MMmdl.
 36 38  0  0  0  0  0  0  0  0  1 V2000
  151.4038  140.7496  155.0805 O   0  0  0  0  0  0  0  0  0  0  0  0
  150.1048  141.1576  155.4662 C   0  0  2  0  0  0  0  0  0  0  0  0
  149.9544  141.0427  156.9955 C   0  0  0  0  0  0  0  0  0  0  0  0
  150.8937  141.8878  157.7101 N   0  0  0  0  0  0  0  0  0  0  0  0
  150.9592  143.2330  157.6892 C   0  0  0  0  0  0  0  0  0  0  0  0
  151.9058  143.8082  158.4258 N   0  0  0  0  0  0  0  0  0  0  0  0
  152.5275  142.7078  158.9908 C   0  0  0  0  0  0  0  0  0  0  0  0
  153.6201  142.6287  159.8839 C   0  0  0  0  0  0  0  0  0  0  0  0
  154.0873  141.3754  160.3322 C   0  0  0  0  0  0  0  0  0  0  0  0
  153.4715  140.1843  159.8954 C   0  0  0  0  0  0  0  0  0  0  0  0
  152.3815  140.2377  159.0054 C   0  0  0  0  0  0  0  0  0  0  0  0
  151.9184  141.4903  158.5612 C   0  0  0  0  0  0  0  0  0  0  0  0
  149.0154  140.3796  154.7449 C   0  0  0  0  0  0  0  0  0  0  0  0
  148.0784  141.0416  153.9229 C   0  0  0  0  0  0  0  0  0  0  0  0
  147.0819  140.3087  153.2504 C   0  0  0  0  0  0  0  0  0  0  0  0
  147.0019  138.9087  153.3905 C   0  0  0  0  0  0  0  0  0  0  0  0
  146.0151  138.2487  152.6937 O   0  0  0  0  0  0  0  0  0  0  0  0
  145.8945  136.9004  152.8215 C   0  0  0  0  0  0  0  0  0  0  0  0
  145.0522  136.6113  153.8425 F   0  0  0  0  0  0  0  0  0  0  0  0
  145.3690  136.3626  151.6934 F   0  0  0  0  0  0  0  0  0  0  0  0
  147.9513  138.2451  154.2044 C   0  0  0  0  0  0  0  0  0  0  0  0
  148.9482  138.9771  154.8775 C   0  0  0  0  0  0  0  0  0  0  0  0
  151.5759  139.9010  155.4588 H   0  0  0  0  0  0  0  0  0  0  0  0
  150.0132  142.2068  155.1826 H   0  0  0  0  0  0  0  0  0  0  0  0
  148.9464  141.3307  157.2970 H   0  0  0  0  0  0  0  0  0  0  0  0
  150.0945  140.0100  157.3188 H   0  0  0  0  0  0  0  0  0  0  0  0
  150.2708  143.8235  157.1021 H   0  0  0  0  0  0  0  0  0  0  0  0
  154.0992  143.5344  160.2253 H   0  0  0  0  0  0  0  0  0  0  0  0
  154.9228  141.3280  161.0151 H   0  0  0  0  0  0  0  0  0  0  0  0
  153.8364  139.2295  160.2444 H   0  0  0  0  0  0  0  0  0  0  0  0
  151.9064  139.3283  158.6688 H   0  0  0  0  0  0  0  0  0  0  0  0
  148.1229  142.1140  153.8010 H   0  0  0  0  0  0  0  0  0  0  0  0
  146.3720  140.8262  152.6220 H   0  0  0  0  0  0  0  0  0  0  0  0
  146.8530  136.4279  153.0374 H   0  0  0  0  0  0  0  0  0  0  0  0
  147.9322  137.1713  154.3155 H   0  0  0  0  0  0  0  0  0  0  0  0
  149.6662  138.4543  155.4926 H   0  0  0  0  0  0  0  0  0  0  0  0
  1  2  1  0  0  0  0
  1 23  1  0  0  0  0
  2  3  1  0  0  0  0
  2 13  1  0  0  0  0
  2 24  1  0  0  0  0
  3  4  1  0  0  0  0
  3 25  1  0  0  0  0
  3 26  1  0  0  0  0
  4 12  1  0  0  0  0
  4  5  1  0  0  0  0
  5  6  2  0  0  0  0
  5 27  1  0  0  0  0
  6  7  1  0  0  0  0
  7 12  2  0  0  0  0
  7  8  1  0  0  0  0
  8  9  2  0  0  0  0
  8 28  1  0  0  0  0
  9 10  1  0  0  0  0
  9 29  1  0  0  0  0
 10 11  2  0  0  0  0
 10 30  1  0  0  0  0
 11 12  1  0  0  0  0
 11 31  1  0  0  0  0
 13 22  1  0  0  0  0
 13 14  2  0  0  0  0
 14 15  1  0  0  0  0
 14 32  1  0  0  0  0
 15 16  2  0  0  0  0
 15 33  1  0  0  0  0
 16 17  1  0  0  0  0
 16 21  1  0  0  0  0
 17 18  1  0  0  0  0
 18 19  1  0  0  0  0
 18 20  1  0  0  0  0
 18 34  1  0  0  0  0
 21 22  2  0  0  0  0
 21 35  1  0  0  0  0
 22 36  1  0  0  0  0
M  END
> <s_m_source_file>
AV-unprocessed.smi

> <i_m_source_file_index>
1873

> <i_lp_mmshare_version>
43012

> <i_f3d_flags>
0

> <s_epik_input>
RltDSF0oRilPYyhbY0hdW2NIXTEpW2NIXVtjSF1jMVtDQEhdKFtPSF0pW0NIMl1uKFtjSF1uMiljKGMyMylbY0hdW2NIXVtjSF1bY0hdMw==

> <s_epik_cmdline>
J2VwaWtfcHl0aG9uJywgJy1waCcsICc3LjAnLCAnLXRuJywgJzgnLCAnLW1hJywgJzIwMCcsICctbWV0YWxfYmluZGluZycsICctaW1hZScsICc8aW5maWxlLm1hZT4nLCAnLW9tYWUnLCAnPG91dGZpbGUubWFlPic=

> <r_lp_tautomer_probability>
1

> <r_epik_Ionization_Penalty>
0.0696507

> <r_epik_Ionization_Penalty_Charging>
0

> <r_epik_Ionization_Penalty_Neutral>
0.0696507

> <r_epik_State_Penalty>
0.0610247

> <r_epik_Charging_Adjusted_Penalty>
0.0610247

> <i_epik_Tot_Q>
0

> <i_epik_Tot_abs_Q>
0

> <r_epik_Metal_State_Penalty>
6.42746e-05

> <b_epik_Metal_Only>
0

> <s_lp_Force_Field>
OPLS_2005

> <r_lp_Energy>
11.1273

> <b_lp_Chiralities_Consistent>
1

> <s_lp_Variant>
AV-unprocessed.smi:1873-1

> <Gold.Version>
5.8.1

> <Gold.Id.Protein>
6NUR|6NUR_protein|mol2

> <Gold.PLP.Fitness>
44.8480

> <Gold.PLP.PLP>
-40.0719

> <Gold.PLP.part.hbond>
-1.0000

> <Gold.PLP.part.metal>
0.0000

> <Gold.PLP.part.buried>
-3.9707

> <Gold.PLP.part.nonpolar>
-36.6343

> <Gold.PLP.part.repulsive>
0.3313

> <Gold.PLP.ligand.clash>
0.0000

> <Gold.PLP.ligand.torsion>
0.4008

> <Gold.PLP.Chemscore.Hbond>
0.8320

> <Gold.PLP.Chemscore.CHOScore>
1.0000

> <Gold.PLP.Chemscore.Metal>
0.0000

> <Gold.Chemscore.Hbonds>
donor molecule, donor type, donor heavy atom, donor atom, acceptor molecule, acceptor atom, score
      P1  H  7989  7998       L1     1  0.77
      L1  C     5    27       P1  8028  1.00

> <Gold.PLP.Chemscore.Internal.Correction>
0.0818

> <Gold.Rescore>
     Score         DG    S(hbond)    S(metal)    S(lipo)     H(rot)  DE(clash)    DE(int)     intcor
     12.89     -13.96       0.52        0.00     109.94       2.40       0.45       0.62       ----

> <Gold.Chemscore.Fitness>
12.8859

> <Gold.Chemscore.DG>
-13.9552

> <Gold.Chemscore.ZeroCoef>
-5.4800

> <Gold.Chemscore.Hbond>
0.5249

> <Gold.Chemscore.Metal>
0.0000

> <Gold.Chemscore.Lipo>
109.9379

> <Gold.Chemscore.Internal_Hbond>
0.0000

> <Gold.Chemscore.DEClash>
0.4471

> <Gold.Chemscore.DEInternal>
0.6222

> <Gold.Chemscore.Rot>
2.3986

> <Gold.Chemscore.Internal.Correction>
   9.000000E+99

> <Gold.Chemscore.Hbonds>
donor molecule, donor type, donor heavy atom, donor atom, acceptor molecule, acceptor atom, score
      P1  H  7989  7998       L1     1  0.60

> <Gold.Chemscore.Hbond.Weighted>
-1.7530

> <Gold.Chemscore.Metal.Weighted>
-0.0000

> <Gold.Chemscore.Lipo.Weighted>
-12.8627

> <Gold.Chemscore.Internal_Hbond.Weighted>
0.0000

> <Gold.Chemscore.DEClash.Weighted>
0.4471

> <Gold.Chemscore.DEInternal.Weighted>
0.6222

> <Gold.Chemscore.Rot.Weighted>
6.1405

> <Gold.Chemscore.Internal.Correction.Weighted>
   9.000000E+99

> <Gold.Protein.RotatedTorsions>
[ 6907 6896 6895 6894 ] final -117.25 input  -60.11 | X-H torsion
[ 7974 7965 7964 7962 ] final   93.64 input  175.53 | X-H torsion
[ 8008 7997 7996 7995 ] final   82.43 input   59.86 | X-H torsion
[ 10167 10162 10161 10158 ] final  162.60 input  -65.29 | X-H torsion
[ 10718 10713 10712 10709 ] final -161.25 input   66.30 | X-H torsion
[ 10763 10752 10751 10750 ] final  -99.07 input  -60.55 | X-H torsion
[ 11005 11000 10999 10996 ] final  154.41 input  -57.11 | X-H torsion

> <Gold.Protein.ActiveResidues>
 VAL166  LYS551  ARG553  GLY616  TRP617  ASP618  TYR619  PRO620  LYS621  CYS622 
 ASP623  PHE694  ASN695  SER759  ASP760  ASP761  ALA762  ILE779  LEU786  VAL792 
 PHE793  MET794  SER795  GLU796  ALA797  LYS798  CYS799  TRP800  GLU811  SER814 

> <Gold.Protein.RotatedAtoms>
  150.8121  133.8402  159.3177 H   0  0  0  0  0  0  0  0  0  0  0  0  # atno 6907 bound_to 6896
  151.6185  135.1032  160.0106 H   0  0  0  0  0  0  0  0  0  0  0  0  # atno 6908 bound_to 6896
  152.4213  133.7081  159.6519 H   0  0  0  0  0  0  0  0  0  0  0  0  # atno 6909 bound_to 6896
  145.4762  139.2280  143.2907 H   0  0  0  0  0  0  0  0  0  0  0  0  # atno 7974 bound_to 7965
  155.9105  140.3427  155.6095 H   0  0  0  0  0  0  0  0  0  0  0  0  # atno 8008 bound_to 7997
  155.7393  140.0805  157.2272 H   0  0  0  0  0  0  0  0  0  0  0  0  # atno 8009 bound_to 7997
  154.4055  140.1573  156.2585 H   0  0  0  0  0  0  0  0  0  0  0  0  # atno 8010 bound_to 7997
  139.4863  144.4421  151.8938 H   0  0  0  0  0  0  0  0  0  0  0  0  # atno 10167 bound_to 10162
  156.5936  130.8781  151.2896 H   0  0  0  0  0  0  0  0  0  0  0  0  # atno 10718 bound_to 10713
  154.7467  135.4986  153.9217 H   0  0  0  0  0  0  0  0  0  0  0  0  # atno 10763 bound_to 10752
  153.1100  135.6707  153.9526 H   0  0  0  0  0  0  0  0  0  0  0  0  # atno 10764 bound_to 10752
  153.9288  135.3080  155.3425 H   0  0  0  0  0  0  0  0  0  0  0  0  # atno 10765 bound_to 10752
  140.1487  134.8690  157.2426 H   0  0  0  0  0  0  0  0  0  0  0  0  # atno 11005 bound_to 11000
  146.2368  140.5545  142.8951 LP  0  0  0  0  0  0  0  0  0  0  0  0  # atno 17320 bound_to 7965
  144.7916  140.6042  143.6538 LP  0  0  0  0  0  0  0  0  0  0  0  0  # atno 17321 bound_to 7965
  140.3874  144.2660  150.5903 LP  0  0  0  0  0  0  0  0  0  0  0  0  # atno 17342 bound_to 10162
  140.5178  143.2273  151.8436 LP  0  0  0  0  0  0  0  0  0  0  0  0  # atno 17343 bound_to 10162
  157.7297  130.9675  150.1801 LP  0  0  0  0  0  0  0  0  0  0  0  0  # atno 17370 bound_to 10713
  156.2528  130.3702  149.8213 LP  0  0  0  0  0  0  0  0  0  0  0  0  # atno 17371 bound_to 10713
  140.2632  134.3547  155.7399 LP  0  0  0  0  0  0  0  0  0  0  0  0  # atno 17394 bound_to 11000
  141.2196  133.7381  156.9111 LP  0  0  0  0  0  0  0  0  0  0  0  0  # atno 17395 bound_to 11000

$$$$
