AV-unprocessed.smi:1240|AV-procd|sdf|5200|dock6
  -GOLD-   22720 4283D 1   1.00000     0.00000
 Structure written by MMmdl.
 48 50  0  0  0  0  0  0  0  0  2 V2000
  144.5651  136.3568  152.2412 O   0  0  0  0  0  0  0  0  0  0  0  0
  145.7558  136.3180  151.9317 C   0  0  0  0  0  0  0  0  0  0  0  0
  146.6249  137.2938  152.2315 N   0  0  0  0  0  0  0  0  0  0  0  0
  146.2920  138.5152  152.9558 C   0  0  0  0  0  0  0  0  0  0  0  0
  147.5236  139.2436  153.5687 C   0  0  1  0  0  0  0  0  0  0  0  0
  147.1675  140.2431  154.7063 C   0  0  2  0  0  0  0  0  0  0  0  0
  146.2461  141.3924  154.3211 C   0  0  0  0  0  0  0  0  0  0  0  0
  146.5368  142.4589  155.3768 C   0  0  0  0  0  0  0  0  0  0  0  0
  147.8040  142.1328  155.9361 O   0  0  0  0  0  0  0  0  0  0  0  0
  148.3667  141.0391  155.2286 C   0  0  0  0  0  0  0  0  0  0  0  0
  148.5570  138.2756  154.0460 N   0  3  0  0  0  0  0  0  0  0  0  0
  149.9563  138.7723  154.0721 C   0  0  0  0  0  0  0  0  0  0  0  0
  150.9150  137.6173  154.4060 C   0  0  0  0  0  0  0  0  0  0  0  0
  150.5474  137.0394  155.6531 O   0  0  0  0  0  0  0  0  0  0  0  0
  149.2343  136.4918  155.6248 C   0  0  0  0  0  0  0  0  0  0  0  0
  148.2149  137.6038  155.3237 C   0  0  0  0  0  0  0  0  0  0  0  0
  146.3561  135.3247  151.2536 N   0  0  0  0  0  0  0  0  0  0  0  0
  145.8004  134.1010  150.7913 C   0  0  0  0  0  0  0  0  0  0  0  0
  144.4062  134.0504  150.5856 C   0  0  0  0  0  0  0  0  0  0  0  0
  143.8323  132.8543  150.1105 C   0  0  0  0  0  0  0  0  0  0  0  0
  144.5515  131.7476  149.8292 N   0  0  0  0  0  0  0  0  0  0  0  0
  145.8877  131.8020  150.0127 C   0  0  0  0  0  0  0  0  0  0  0  0
  146.5611  132.9469  150.4846 C   0  0  0  0  0  0  0  0  0  0  0  0
  147.5837  137.1862  151.9338 H   0  0  0  0  0  0  0  0  0  0  0  0
  145.7790  139.1704  152.2518 H   0  0  0  0  0  0  0  0  0  0  0  0
  145.5621  138.2641  153.7260 H   0  0  0  0  0  0  0  0  0  0  0  0
  148.0001  139.8291  152.7810 H   0  0  0  0  0  0  0  0  0  0  0  0
  146.7142  139.7102  155.5431 H   0  0  0  0  0  0  0  0  0  0  0  0
  146.5080  141.7742  153.3331 H   0  0  0  0  0  0  0  0  0  0  0  0
  145.1923  141.1144  154.3082 H   0  0  0  0  0  0  0  0  0  0  0  0
  146.5462  143.4604  154.9457 H   0  0  0  0  0  0  0  0  0  0  0  0
  145.7890  142.4387  156.1702 H   0  0  0  0  0  0  0  0  0  0  0  0
  149.0166  140.4505  155.8768 H   0  0  0  0  0  0  0  0  0  0  0  0
  148.9677  141.4245  154.4033 H   0  0  0  0  0  0  0  0  0  0  0  0
  150.2285  139.2031  153.1089 H   0  0  0  0  0  0  0  0  0  0  0  0
  150.0668  139.5574  154.8212 H   0  0  0  0  0  0  0  0  0  0  0  0
  150.9016  136.8596  153.6208 H   0  0  0  0  0  0  0  0  0  0  0  0
  151.9386  137.9859  154.4756 H   0  0  0  0  0  0  0  0  0  0  0  0
  149.1756  135.6969  154.8793 H   0  0  0  0  0  0  0  0  0  0  0  0
  149.0200  136.0371  156.5922 H   0  0  0  0  0  0  0  0  0  0  0  0
  148.2071  138.3260  156.1404 H   0  0  0  0  0  0  0  0  0  0  0  0
  147.2144  137.1737  155.2659 H   0  0  0  0  0  0  0  0  0  0  0  0
  147.3202  135.4808  150.9991 H   0  0  0  0  0  0  0  0  0  0  0  0
  143.7822  134.9078  150.7910 H   0  0  0  0  0  0  0  0  0  0  0  0
  142.7664  132.7867  149.9504 H   0  0  0  0  0  0  0  0  0  0  0  0
  146.4403  130.9065  149.7688 H   0  0  0  0  0  0  0  0  0  0  0  0
  147.6346  132.9187  150.5874 H   0  0  0  0  0  0  0  0  0  0  0  0
  148.5476  137.5351  153.3590 H   0  0  0  0  0  0  0  0  0  0  0  0
  1  2  2  0  0  0  0
  2  3  1  0  0  0  0
  2 17  1  0  0  0  0
  3  4  1  0  0  0  0
  3 24  1  0  0  0  0
  4  5  1  0  0  0  0
  4 25  1  0  0  0  0
  4 26  1  0  0  0  0
  5  6  1  0  0  0  0
  5 11  1  0  0  0  0
  5 27  1  0  0  0  0
  6 10  1  0  0  0  0
  6  7  1  0  0  0  0
  6 28  1  0  0  0  0
  7  8  1  0  0  0  0
  7 29  1  0  0  0  0
  7 30  1  0  0  0  0
  8  9  1  0  0  0  0
  8 31  1  0  0  0  0
  8 32  1  0  0  0  0
  9 10  1  0  0  0  0
 10 33  1  0  0  0  0
 10 34  1  0  0  0  0
 11 16  1  0  0  0  0
 11 12  1  0  0  0  0
 11 48  1  0  0  0  0
 12 13  1  0  0  0  0
 12 35  1  0  0  0  0
 12 36  1  0  0  0  0
 13 14  1  0  0  0  0
 13 37  1  0  0  0  0
 13 38  1  0  0  0  0
 14 15  1  0  0  0  0
 15 16  1  0  0  0  0
 15 39  1  0  0  0  0
 15 40  1  0  0  0  0
 16 41  1  0  0  0  0
 16 42  1  0  0  0  0
 17 18  1  0  0  0  0
 17 43  1  0  0  0  0
 18 23  1  0  0  0  0
 18 19  2  0  0  0  0
 19 20  1  0  0  0  0
 19 44  1  0  0  0  0
 20 21  2  0  0  0  0
 20 45  1  0  0  0  0
 21 22  1  0  0  0  0
 22 23  2  0  0  0  0
 22 46  1  0  0  0  0
 23 47  1  0  0  0  0
M  CHG  1  11   1
M  END
> <s_m_source_file>
AV-unprocessed.smi

> <i_m_source_file_index>
1240

> <i_lp_mmshare_version>
43012

> <i_f3d_flags>
0

> <s_epik_input>
W2NIXTFbY0hdbltjSF1bY0hdYzFbTkhdQyg9TylbTkhdW0NIMl1bQ0BIXShbQ0BASF0yW0NIMl1bQ0gyXU9bQ0gyXTIpTjNbQ0gyXVtDSDJdT1tDSDJdW0NIMl0z

> <s_epik_cmdline>
J2VwaWtfcHl0aG9uJywgJy1waCcsICc3LjAnLCAnLXRuJywgJzgnLCAnLW1hJywgJzIwMCcsICctbWV0YWxfYmluZGluZycsICctaW1hZScsICc8aW5maWxlLm1hZT4nLCAnLW9tYWUnLCAnPG91dGZpbGUubWFlPic=

> <r_epik_Ionization_Penalty>
1.08433

> <r_epik_Ionization_Penalty_Charging>
0.98326

> <r_epik_Ionization_Penalty_Neutral>
0.10107

> <r_epik_State_Penalty>
1.11265

> <r_epik_Charging_Adjusted_Penalty>
2.09591

> <i_epik_Tot_Q>
1

> <i_epik_Tot_abs_Q>
1

> <r_epik_Metal_State_Penalty>
1.10731

> <b_epik_Metal_Only>
0

> <s_lp_Force_Field>
OPLS_2005

> <r_lp_Energy>
42.8142

> <b_lp_Chiralities_Consistent>
1

> <s_lp_Variant>
AV-unprocessed.smi:1240-6

> <Gold.Version>
5.8.1

> <Gold.Id.Protein>
6NUR|6NUR_protein|mol2

> <Gold.PLP.Fitness>
48.5209

> <Gold.PLP.PLP>
-33.1525

> <Gold.PLP.part.hbond>
-3.9465

> <Gold.PLP.part.metal>
0.0000

> <Gold.PLP.part.buried>
-2.9730

> <Gold.PLP.part.nonpolar>
-29.5547

> <Gold.PLP.part.repulsive>
2.7527

> <Gold.PLP.ligand.clash>
0.0000

> <Gold.PLP.ligand.torsion>
0.8036

> <Gold.PLP.Chemscore.Hbond>
3.9082

> <Gold.PLP.Chemscore.CHOScore>
1.6634

> <Gold.PLP.Chemscore.Metal>
0.0000

> <Gold.Chemscore.Hbonds>
donor molecule, donor type, donor heavy atom, donor atom, acceptor molecule, acceptor atom, score
      L1  H     3    24       P1  7948  0.99
      L1  H    11    48       P1  7948  2.00
      L1  H    17    43       P1  7948  0.78
      P1  H 10785 10796       L1    21  0.10
      L1  C    20    45       P1 10186  1.00
      L1  C    22    46       P1 10747  0.71

> <Gold.PLP.Chemscore.Internal.Correction>
0.2608

> <Gold.Rescore>
     Score         DG    S(hbond)    S(metal)    S(lipo)     H(rot)  DE(clash)    DE(int)     intcor
     17.79     -21.40       2.78        0.00      93.82       1.70       1.31       2.30       ----

> <Gold.Chemscore.Fitness>
17.7897

> <Gold.Chemscore.DG>
-21.3964

> <Gold.Chemscore.ZeroCoef>
-5.4800

> <Gold.Chemscore.Hbond>
2.7835

> <Gold.Chemscore.Metal>
0.0000

> <Gold.Chemscore.Lipo>
93.8197

> <Gold.Chemscore.Internal_Hbond>
0.0000

> <Gold.Chemscore.DEClash>
1.3107

> <Gold.Chemscore.DEInternal>
2.2961

> <Gold.Chemscore.Rot>
1.7021

> <Gold.Chemscore.Internal.Correction>
   9.000000E+99

> <Gold.Chemscore.Hbonds>
donor molecule, donor type, donor heavy atom, donor atom, acceptor molecule, acceptor atom, score
      L1  H     3    24       P1  7948  0.94
      L1  H    11    48       P1  7948  0.94
      L1  H    17    43       P1  7948  0.50
      P1  H 10785 10796       L1    21  0.08

> <Gold.Chemscore.Hbond.Weighted>
-9.2970

> <Gold.Chemscore.Metal.Weighted>
-0.0000

> <Gold.Chemscore.Lipo.Weighted>
-10.9769

> <Gold.Chemscore.Internal_Hbond.Weighted>
0.0000

> <Gold.Chemscore.DEClash.Weighted>
1.3107

> <Gold.Chemscore.DEInternal.Weighted>
2.2961

> <Gold.Chemscore.Rot.Weighted>
4.3575

> <Gold.Chemscore.Internal.Correction.Weighted>
   9.000000E+99

> <Gold.Protein.RotatedTorsions>
[ 6907 6896 6895 6894 ] final  -79.74 input  -60.11 | X-H torsion
[ 7974 7965 7964 7962 ] final -160.99 input  175.53 | X-H torsion
[ 8008 7997 7996 7995 ] final  -57.45 input   59.86 | X-H torsion
[ 10167 10162 10161 10158 ] final -123.75 input  -65.29 | X-H torsion
[ 10718 10713 10712 10709 ] final  -51.45 input   66.30 | X-H torsion
[ 10763 10752 10751 10750 ] final   60.39 input  -60.55 | X-H torsion
[ 11005 11000 10999 10996 ] final -168.73 input  -57.11 | X-H torsion

> <Gold.Protein.ActiveResidues>
 VAL166  LYS551  ARG553  GLY616  TRP617  ASP618  TYR619  PRO620  LYS621  CYS622 
 ASP623  PHE694  ASN695  SER759  ASP760  ASP761  ALA762  ILE779  LEU786  VAL792 
 PHE793  MET794  SER795  GLU796  ALA797  LYS798  CYS799  TRP800  GLU811  SER814 

> <Gold.Protein.RotatedAtoms>
  150.6943  134.4075  159.5146 H   0  0  0  0  0  0  0  0  0  0  0  0  # atno 6907 bound_to 6896
  152.1838  134.8728  160.0533 H   0  0  0  0  0  0  0  0  0  0  0  0  # atno 6908 bound_to 6896
  151.9709  133.3690  159.4107 H   0  0  0  0  0  0  0  0  0  0  0  0  # atno 6909 bound_to 6896
  144.7407  140.3463  143.6125 H   0  0  0  0  0  0  0  0  0  0  0  0  # atno 7974 bound_to 7965
  154.4269  140.1106  156.5800 H   0  0  0  0  0  0  0  0  0  0  0  0  # atno 8008 bound_to 7997
  155.6122  140.3494  155.4607 H   0  0  0  0  0  0  0  0  0  0  0  0  # atno 8009 bound_to 7997
  156.0090  140.1215  157.0462 H   0  0  0  0  0  0  0  0  0  0  0  0  # atno 8010 bound_to 7997
  140.0001  143.5549  152.2307 H   0  0  0  0  0  0  0  0  0  0  0  0  # atno 10167 bound_to 10162
  156.1709  130.4149  149.9648 H   0  0  0  0  0  0  0  0  0  0  0  0  # atno 10718 bound_to 10713
  152.9920  135.5538  154.5866 H   0  0  0  0  0  0  0  0  0  0  0  0  # atno 10763 bound_to 10752
  154.5236  135.2809  155.1243 H   0  0  0  0  0  0  0  0  0  0  0  0  # atno 10764 bound_to 10752
  154.2586  135.6385  153.5319 H   0  0  0  0  0  0  0  0  0  0  0  0  # atno 10765 bound_to 10752
  140.5387  134.5544  157.5094 H   0  0  0  0  0  0  0  0  0  0  0  0  # atno 11005 bound_to 11000
  145.7323  139.1740  143.2423 LP  0  0  0  0  0  0  0  0  0  0  0  0  # atno 17320 bound_to 7965
  146.1197  140.7325  142.9463 LP  0  0  0  0  0  0  0  0  0  0  0  0  # atno 17321 bound_to 7965
  139.6278  144.7640  151.2601 LP  0  0  0  0  0  0  0  0  0  0  0  0  # atno 17342 bound_to 10162
  140.7422  143.6533  150.8229 LP  0  0  0  0  0  0  0  0  0  0  0  0  # atno 17343 bound_to 10162
  156.7449  130.9093  151.3634 LP  0  0  0  0  0  0  0  0  0  0  0  0  # atno 17370 bound_to 10713
  157.6802  130.9133  150.0248 LP  0  0  0  0  0  0  0  0  0  0  0  0  # atno 17371 bound_to 10713
  139.9516  134.7608  156.0436 LP  0  0  0  0  0  0  0  0  0  0  0  0  # atno 17394 bound_to 11000
  141.1240  133.6604  156.3288 LP  0  0  0  0  0  0  0  0  0  0  0  0  # atno 17395 bound_to 11000

$$$$
