#       Name:                AV-unprocessed.smi:2040
#       Creating user name   scv26
#       Creation time:       Fri Mar 27 10:55:45 2020


#       File generated by GOLD software.
#

@<TRIPOS>MOLECULE
AV-unprocessed.smi:2040
    43    44     1
SMALL
NO_CHARGES


@<TRIPOS>ATOM
      1 ****        -5.9664  -0.3600  -1.1002 C.3            1 S1                 0.0000
      2 ****        -4.5968   0.2510  -1.0631 C.2            1 S1                 0.0000
      3 ****        -3.3474  -0.4063  -0.8664 C.2            1 S1                 0.0000
      4 ****        -2.4516   0.6259  -0.9266 C.2            1 S1                 0.0000
      5 ****        -1.0986   0.5932  -0.7972 N.am           1 S1                 0.0000
      6 ****        -0.2948  -0.4725  -0.6388 C.2            1 S1                 0.0000
      7 ****        -0.6635  -1.6467  -0.6127 O.2            1 S1                 0.0000
      8 ****         0.9852  -0.0931  -0.5134 N.am           1 S1                 0.0000
      9 ****         2.1261  -0.9855  -0.3168 C.3            1 S1                 0.0000
     10 ****         2.8757  -1.1532  -1.6473 C.3            1 S1                 0.0000
     11 ****         3.0369  -0.4321   0.7962 C.3            1 S1                 0.0000
     12 ****         2.3367  -0.2122   2.1400 C.3            1 S1                 0.0000
     13 ****         3.4914  -0.3122   3.1094 C.3            1 S1                 0.0000
     14 ****         4.3173  -1.4322   2.4865 C.3            1 S1                 0.0000
     15 ****         4.0940  -1.3470   1.0814 O.3            1 S1                 0.0000
     16 ****        -3.1387   1.7998  -1.1406 N.pl3          1 S1                 0.0000
     17 ****        -2.6321   3.1516  -1.2750 C.3            1 S1                 0.0000
     18 ****        -4.4655   1.5627  -1.2268 N.2            1 S1                 0.0000
     19 ****        -5.9287  -1.4256  -0.8731 H              1 S1                 0.0000
     20 ****        -6.4196  -0.2467  -2.0851 H              1 S1                 0.0000
     21 ****        -6.6271   0.1105  -0.3716 H              1 S1                 0.0000
     22 ****        -3.1633  -1.4581  -0.7075 H              1 S1                 0.0000
     23 ****        -0.6429   1.4933  -0.8213 H              1 S1                 0.0000
     24 ****         1.1901   0.8946  -0.5502 H              1 S1                 0.0000
     25 ****         1.7761  -1.9692   0.0012 H              1 S1                 0.0000
     26 ****         3.7188  -1.8362  -1.5410 H              1 S1                 0.0000
     27 ****         3.2635  -0.2003  -2.0085 H              1 S1                 0.0000
     28 ****         2.2206  -1.5607  -2.4181 H              1 S1                 0.0000
     29 ****         3.4922   0.5077   0.4784 H              1 S1                 0.0000
     30 ****         1.8125   0.7422   2.1973 H              1 S1                 0.0000
     31 ****         1.6174  -1.0094   2.3346 H              1 S1                 0.0000
     32 ****         4.0595   0.6190   3.1132 H              1 S1                 0.0000
     33 ****         3.1791  -0.5290   4.1312 H              1 S1                 0.0000
     34 ****         5.3773  -1.3516   2.7280 H              1 S1                 0.0000
     35 ****         3.9636  -2.4038   2.8335 H              1 S1                 0.0000
     36 ****        -2.0082   3.2205  -2.1663 H              1 S1                 0.0000
     37 ****        -2.0342   3.4079  -0.4000 H              1 S1                 0.0000
     38 ****        -3.4539   3.8637  -1.3617 H              1 S1                 0.0000
     39 ****        -1.6333  -1.8686  -0.7143 LP             1 S1                 0.0000
     40 ****         0.0067  -2.3786  -0.4900 LP             1 S1                 0.0000
     41 ****         4.9310  -1.0321   0.6339 LP             1 S1                 0.0000
     42 ****         3.8493  -2.2514   0.7319 LP             1 S1                 0.0000
     43 ****        -5.1931   2.2312  -1.3809 LP             1 S1                 0.0000
@<TRIPOS>BOND
    1    1    2 1     
    2    1   19 1     
    3    1   20 1     
    4    1   21 1     
    5    2   18 2     
    6    2    3 1     
    7    3    4 2     
    8    3   22 1     
    9    4    5 1     
   10    4   16 1     
   11    5    6 am    
   12    5   23 1     
   13    6    7 2     
   14    6    8 am    
   15    8    9 1     
   16    8   24 1     
   17    9   10 1     
   18    9   11 1     
   19    9   25 1     
   20   10   26 1     
   21   10   27 1     
   22   10   28 1     
   23   11   15 1     
   24   11   12 1     
   25   11   29 1     
   26   12   13 1     
   27   12   30 1     
   28   12   31 1     
   29   13   14 1     
   30   13   32 1     
   31   13   33 1     
   32   14   15 1     
   33   14   34 1     
   34   14   35 1     
   35   16   17 1     
   36   16   18 1     
   37   17   36 1     
   38   17   37 1     
   39   17   38 1     
   40    7   39 1     
   41    7   40 1     
   42   15   41 1     
   43   15   42 1     
   44   18   43 1     
@<TRIPOS>SUBSTRUCTURE
      1 S1             1
@<TRIPOS>SET
LONE_PAIRS      STATIC     ATOMS    <user>   **** ""
5 39 40 41 42 43
DONOR_HYDROGENS      STATIC     ATOMS    <user>   **** ""
2 23 24
ATOM$BLUE        STATIC     ATOMS    COLORGROUP SYSTEM
5 39 40 41 42 43
ATOM$RED        STATIC     ATOMS    COLORGROUP SYSTEM
2 23 24
