AV-unprocessed.smi:235|AV-procd|sdf|1808|dock8
  -GOLD-   2262020393D 1   1.00000     0.00000
 Structure written by MMmdl.
 54 58  0  0  0  0  0  0  0  0  1 V2000
  152.1977  140.8834  157.5414 O   0  0  0  0  0  0  0  0  0  0  0  0
  151.2517  141.6599  157.4015 C   0  0  0  0  0  0  0  0  0  0  0  0
  151.2670  142.9290  157.8337 N   0  0  0  0  0  0  0  0  0  0  0  0
  152.3530  143.5617  158.5090 C   0  0  0  0  0  0  0  0  0  0  0  0
  152.1024  144.9196  159.1280 C   0  0  0  0  0  0  0  0  0  0  0  0
  152.9357  144.8091  157.8812 C   0  0  0  0  0  0  0  0  0  0  0  0
  149.9672  141.2036  156.6907 C   0  0  1  0  0  0  0  0  0  0  0  0
  149.7479  141.9761  155.3797 C   0  0  0  0  0  0  0  0  0  0  0  0
  148.9516  141.0052  154.5143 C   0  0  0  0  0  0  0  0  0  0  0  0
  149.5171  139.6410  154.9056 C   0  0  0  0  0  0  0  0  0  0  0  0
  150.0287  139.8034  156.2607 N   0  0  0  0  0  0  0  0  0  0  0  0
  149.9660  138.7629  157.1349 C   0  0  0  0  0  0  0  0  0  0  0  0
  151.1072  138.1031  157.4695 N   0  0  0  0  0  0  0  0  0  0  0  0
  151.0737  137.0765  158.3235 C   0  0  0  0  0  0  0  0  0  0  0  0
  150.0220  136.5465  158.9494 N   0  0  0  0  0  0  0  0  0  0  0  0
  148.8714  137.1960  158.6136 C   0  0  0  0  0  0  0  0  0  0  0  0
  148.7525  138.3034  157.7255 C   0  0  0  0  0  0  0  0  0  0  0  0
  147.4178  138.6838  157.6290 N   0  0  0  0  0  0  0  0  0  0  0  0
  146.7881  137.8553  158.4165 C   0  0  0  0  0  0  0  0  0  0  0  0
  147.5856  136.9277  159.0461 N   0  0  0  0  0  0  0  0  0  0  0  0
  147.1566  135.8892  159.9654 C   0  0  0  0  0  0  0  0  0  0  0  0
  148.0382  135.8209  161.2273 C   0  0  1  0  0  0  0  0  0  0  0  0
  147.9138  137.0072  161.9891 O   0  0  0  0  0  0  0  0  0  0  0  0
  147.7318  134.5890  162.1026 C   0  0  1  0  0  0  0  0  0  0  0  0
  146.3141  134.5112  162.6954 C   0  0  0  0  0  0  0  0  0  0  0  0
  145.8377  133.1170  162.3201 C   0  0  0  0  0  0  0  0  0  0  0  0
  147.1320  132.3805  161.9961 C   0  0  0  0  0  0  0  0  0  0  0  0
  147.9184  133.3812  161.3724 O   0  0  0  0  0  0  0  0  0  0  0  0
  150.4433  143.4903  157.6740 H   0  0  0  0  0  0  0  0  0  0  0  0
  153.0582  142.9191  159.0345 H   0  0  0  0  0  0  0  0  0  0  0  0
  151.1056  145.3466  159.0309 H   0  0  0  0  0  0  0  0  0  0  0  0
  152.6180  145.1492  160.0582 H   0  0  0  0  0  0  0  0  0  0  0  0
  154.0084  144.9641  157.9781 H   0  0  0  0  0  0  0  0  0  0  0  0
  152.4962  145.1654  156.9513 H   0  0  0  0  0  0  0  0  0  0  0  0
  149.0991  141.3428  157.3383 H   0  0  0  0  0  0  0  0  0  0  0  0
  149.2239  142.9200  155.5332 H   0  0  0  0  0  0  0  0  0  0  0  0
  150.6975  142.1991  154.8892 H   0  0  0  0  0  0  0  0  0  0  0  0
  147.8957  141.0579  154.7826 H   0  0  0  0  0  0  0  0  0  0  0  0
  149.0400  141.2116  153.4474 H   0  0  0  0  0  0  0  0  0  0  0  0
  148.7506  138.8681  154.8324 H   0  0  0  0  0  0  0  0  0  0  0  0
  150.3443  139.3660  154.2500 H   0  0  0  0  0  0  0  0  0  0  0  0
  152.0263  136.6129  158.5337 H   0  0  0  0  0  0  0  0  0  0  0  0
  145.7182  137.8978  158.5600 H   0  0  0  0  0  0  0  0  0  0  0  0
  146.1146  136.0707  160.2318 H   0  0  0  0  0  0  0  0  0  0  0  0
  147.1814  134.9354  159.4370 H   0  0  0  0  0  0  0  0  0  0  0  0
  149.0819  135.7588  160.9161 H   0  0  0  0  0  0  0  0  0  0  0  0
  146.9971  137.1481  162.1708 H   0  0  0  0  0  0  0  0  0  0  0  0
  148.4445  134.5657  162.9289 H   0  0  0  0  0  0  0  0  0  0  0  0
  146.3551  134.6277  163.7790 H   0  0  0  0  0  0  0  0  0  0  0  0
  145.6379  135.2753  162.3107 H   0  0  0  0  0  0  0  0  0  0  0  0
  145.2611  132.6347  163.1098 H   0  0  0  0  0  0  0  0  0  0  0  0
  145.2124  133.1696  161.4277 H   0  0  0  0  0  0  0  0  0  0  0  0
  147.6272  132.0394  162.9068 H   0  0  0  0  0  0  0  0  0  0  0  0
  146.9778  131.5214  161.3427 H   0  0  0  0  0  0  0  0  0  0  0  0
  1  2  2  0  0  0  0
  2  3  1  0  0  0  0
  2  7  1  0  0  0  0
  3  4  1  0  0  0  0
  3 29  1  0  0  0  0
  4  6  1  0  0  0  0
  4  5  1  0  0  0  0
  4 30  1  0  0  0  0
  5  6  1  0  0  0  0
  5 31  1  0  0  0  0
  5 32  1  0  0  0  0
  6 33  1  0  0  0  0
  6 34  1  0  0  0  0
  7 11  1  0  0  0  0
  7  8  1  0  0  0  0
  7 35  1  0  0  0  0
  8  9  1  0  0  0  0
  8 36  1  0  0  0  0
  8 37  1  0  0  0  0
  9 10  1  0  0  0  0
  9 38  1  0  0  0  0
  9 39  1  0  0  0  0
 10 11  1  0  0  0  0
 10 40  1  0  0  0  0
 10 41  1  0  0  0  0
 11 12  1  0  0  0  0
 12 17  1  0  0  0  0
 12 13  2  0  0  0  0
 13 14  1  0  0  0  0
 14 15  2  0  0  0  0
 14 42  1  0  0  0  0
 15 16  1  0  0  0  0
 16 20  1  0  0  0  0
 16 17  2  0  0  0  0
 17 18  1  0  0  0  0
 18 19  2  0  0  0  0
 19 20  1  0  0  0  0
 19 43  1  0  0  0  0
 20 21  1  0  0  0  0
 21 22  1  0  0  0  0
 21 44  1  0  0  0  0
 21 45  1  0  0  0  0
 22 23  1  0  0  0  0
 22 24  1  0  0  0  0
 22 46  1  0  0  0  0
 23 47  1  0  0  0  0
 24 28  1  0  0  0  0
 24 25  1  0  0  0  0
 24 48  1  0  0  0  0
 25 26  1  0  0  0  0
 25 49  1  0  0  0  0
 25 50  1  0  0  0  0
 26 27  1  0  0  0  0
 26 51  1  0  0  0  0
 26 52  1  0  0  0  0
 27 28  1  0  0  0  0
 27 53  1  0  0  0  0
 27 54  1  0  0  0  0
M  END
> <s_m_source_file>
AV-unprocessed.smi

> <i_m_source_file_index>
235

> <i_lp_mmshare_version>
43012

> <i_f3d_flags>
0

> <s_epik_input>
W0NIMl0xW0NIMl1bQ0hdMVtOSF1DKD1PKVtDQEBIXTJbQ0gyXVtDSDJdW0NIMl1OMmMobltjSF1uMyljKGMzNCluW2NIXW40W0NIMl1bQ0BIXShbT0hdKVtDQEBIXTVbQ0gyXVtDSDJdW0NIMl1PNQ==

> <s_epik_cmdline>
J2VwaWtfcHl0aG9uJywgJy1waCcsICc3LjAnLCAnLXRuJywgJzgnLCAnLW1hJywgJzIwMCcsICctbWV0YWxfYmluZGluZycsICctaW1hZScsICc8aW5maWxlLm1hZT4nLCAnLW9tYWUnLCAnPG91dGZpbGUubWFlPic=

> <r_lp_tautomer_probability>
1

> <r_epik_Ionization_Penalty>
0.000526714

> <r_epik_Ionization_Penalty_Charging>
0

> <r_epik_Ionization_Penalty_Neutral>
0.000526714

> <r_epik_State_Penalty>
0.000272704

> <r_epik_Charging_Adjusted_Penalty>
0.000272704

> <i_epik_Tot_Q>
0

> <i_epik_Tot_abs_Q>
0

> <r_epik_Metal_State_Penalty>
-0

> <b_epik_Metal_Only>
0

> <s_lp_Force_Field>
OPLS_2005

> <r_lp_Energy>
60.2581

> <b_lp_Chiralities_Consistent>
1

> <s_lp_Variant>
AV-unprocessed.smi:235-8

> <Gold.Version>
5.8.1

> <Gold.Id.Protein>
6NUR|6NUR_protein|mol2

> <Gold.PLP.Fitness>
50.1806

> <Gold.PLP.PLP>
-47.4653

> <Gold.PLP.part.hbond>
-3.0000

> <Gold.PLP.part.metal>
0.0000

> <Gold.PLP.part.buried>
-4.1733

> <Gold.PLP.part.nonpolar>
-39.1849

> <Gold.PLP.part.repulsive>
0.0164

> <Gold.PLP.ligand.clash>
0.0000

> <Gold.PLP.ligand.torsion>
1.6572

> <Gold.PLP.Chemscore.Hbond>
1.8760

> <Gold.PLP.Chemscore.CHOScore>
0.0000

> <Gold.PLP.Chemscore.Metal>
0.0000

> <Gold.Chemscore.Hbonds>
donor molecule, donor type, donor heavy atom, donor atom, acceptor molecule, acceptor atom, score
      P1  H  6896  6907       L1    15  1.00
      P1  H  6931  6943       L1    23  1.00

> <Gold.PLP.Chemscore.Internal.Correction>
0.4017

> <Gold.Rescore>
     Score         DG    S(hbond)    S(metal)    S(lipo)     H(rot)  DE(clash)    DE(int)     intcor
     12.19     -16.56       1.37        0.00     114.06       2.68       0.32       4.05       ----

> <Gold.Chemscore.Fitness>
12.1896

> <Gold.Chemscore.DG>
-16.5592

> <Gold.Chemscore.ZeroCoef>
-5.4800

> <Gold.Chemscore.Hbond>
1.3726

> <Gold.Chemscore.Metal>
0.0000

> <Gold.Chemscore.Lipo>
114.0625

> <Gold.Chemscore.Internal_Hbond>
0.0000

> <Gold.Chemscore.DEClash>
0.3211

> <Gold.Chemscore.DEInternal>
4.0485

> <Gold.Chemscore.Rot>
2.6760

> <Gold.Chemscore.Internal.Correction>
   9.000000E+99

> <Gold.Chemscore.Hbonds>
donor molecule, donor type, donor heavy atom, donor atom, acceptor molecule, acceptor atom, score
      P1  H  6896  6907       L1    15  0.24
      P1  H  6931  6943       L1    23  0.98
      P1  H  7997  8008       L1     1  0.02

> <Gold.Chemscore.Hbond.Weighted>
-4.5845

> <Gold.Chemscore.Metal.Weighted>
-0.0000

> <Gold.Chemscore.Lipo.Weighted>
-13.3453

> <Gold.Chemscore.Internal_Hbond.Weighted>
0.0000

> <Gold.Chemscore.DEClash.Weighted>
0.3211

> <Gold.Chemscore.DEInternal.Weighted>
4.0485

> <Gold.Chemscore.Rot.Weighted>
6.8506

> <Gold.Chemscore.Internal.Correction.Weighted>
   9.000000E+99

> <Gold.Protein.RotatedTorsions>
[ 6907 6896 6895 6894 ] final  -48.91 input  -60.11 | X-H torsion
[ 7974 7965 7964 7962 ] final -163.43 input  175.53 | X-H torsion
[ 8008 7997 7996 7995 ] final  -63.07 input   59.86 | X-H torsion
[ 10167 10162 10161 10158 ] final  -67.92 input  -65.29 | X-H torsion
[ 10718 10713 10712 10709 ] final  -63.36 input   66.30 | X-H torsion
[ 10763 10752 10751 10750 ] final  -85.13 input  -60.55 | X-H torsion
[ 11005 11000 10999 10996 ] final   84.24 input  -57.11 | X-H torsion

> <Gold.Protein.ActiveResidues>
 VAL166  LYS551  ARG553  GLY616  TRP617  ASP618  TYR619  PRO620  LYS621  CYS622 
 ASP623  PHE694  ASN695  SER759  ASP760  ASP761  ALA762  ILE779  LEU786  VAL792 
 PHE793  MET794  SER795  GLU796  ALA797  LYS798  CYS799  TRP800  GLU811  SER814 

> <Gold.Protein.RotatedAtoms>
  150.8857  134.8255  159.7257 H   0  0  0  0  0  0  0  0  0  0  0  0  # atno 6907 bound_to 6896
  152.4806  134.4726  159.9650 H   0  0  0  0  0  0  0  0  0  0  0  0  # atno 6908 bound_to 6896
  151.4794  133.3511  159.2871 H   0  0  0  0  0  0  0  0  0  0  0  0  # atno 6909 bound_to 6896
  144.7326  140.3108  143.6188 H   0  0  0  0  0  0  0  0  0  0  0  0  # atno 7974 bound_to 7965
  154.4534  140.0982  156.6685 H   0  0  0  0  0  0  0  0  0  0  0  0  # atno 8008 bound_to 7997
  155.5214  140.3479  155.4389 H   0  0  0  0  0  0  0  0  0  0  0  0  # atno 8009 bound_to 7997
  156.0728  140.1353  156.9797 H   0  0  0  0  0  0  0  0  0  0  0  0  # atno 8010 bound_to 7997
  140.5547  143.2312  151.6844 H   0  0  0  0  0  0  0  0  0  0  0  0  # atno 10167 bound_to 10162
  156.0796  130.4220  150.1266 H   0  0  0  0  0  0  0  0  0  0  0  0  # atno 10718 bound_to 10713
  154.6075  135.5496  153.7438 H   0  0  0  0  0  0  0  0  0  0  0  0  # atno 10763 bound_to 10752
  153.0181  135.6381  154.1626 H   0  0  0  0  0  0  0  0  0  0  0  0  # atno 10764 bound_to 10752
  154.1564  135.2900  155.3101 H   0  0  0  0  0  0  0  0  0  0  0  0  # atno 10765 bound_to 10752
  139.9006  134.8203  156.2419 H   0  0  0  0  0  0  0  0  0  0  0  0  # atno 11005 bound_to 11000
  145.7666  139.1843  143.2236 LP  0  0  0  0  0  0  0  0  0  0  0  0  # atno 17320 bound_to 7965
  146.0944  140.7618  142.9579 LP  0  0  0  0  0  0  0  0  0  0  0  0  # atno 17321 bound_to 7965
  139.5042  144.3761  152.0422 LP  0  0  0  0  0  0  0  0  0  0  0  0  # atno 17342 bound_to 10162
  140.2881  144.3784  150.6097 LP  0  0  0  0  0  0  0  0  0  0  0  0  # atno 17343 bound_to 10162
  156.9300  130.9711  151.3534 LP  0  0  0  0  0  0  0  0  0  0  0  0  # atno 17370 bound_to 10713
  157.5907  130.8441  149.8654 LP  0  0  0  0  0  0  0  0  0  0  0  0  # atno 17371 bound_to 10713
  141.0279  133.7005  156.1380 LP  0  0  0  0  0  0  0  0  0  0  0  0  # atno 17394 bound_to 11000
  140.7139  134.4432  157.5580 LP  0  0  0  0  0  0  0  0  0  0  0  0  # atno 17395 bound_to 11000

$$$$
