#       Name:                AV-unprocessed.smi:280
#       Creating user name   scv26
#       Creation time:       Thu Mar 26 21:38:39 2020


#       File generated by GOLD software.
#

@<TRIPOS>MOLECULE
AV-unprocessed.smi:280
    68    71     1
SMALL
NO_CHARGES


@<TRIPOS>ATOM
      1 ****        -0.2367  -1.2620   2.6770 C.3            1 S1                 0.0000
      2 ****        -1.7145  -1.3258   2.2311 C.3            1 S1                 0.0000
      3 ****        -1.8808  -2.0935   0.9021 C.3            1 S1                 0.0000
      4 ****        -1.4126  -1.2933  -0.2300 N.pl3          1 S1                 0.0000
      5 ****        -0.1734  -1.5449  -0.7345 C.ar           1 S1                 0.0000
      6 ****         0.1528  -2.8447  -0.9604 N.ar           1 S1                 0.0000
      7 ****         1.3476  -3.1735  -1.4571 C.ar           1 S1                 0.0000
      8 ****         2.3567  -2.3720  -1.7957 N.ar           1 S1                 0.0000
      9 ****         2.0446  -1.0639  -1.5733 C.ar           1 S1                 0.0000
     10 ****         0.8165  -0.5635  -1.0492 C.ar           1 S1                 0.0000
     11 ****         0.8913   0.8224  -0.9511 N.2            1 S1                 0.0000
     12 ****         2.0772   1.1215  -1.4040 C.2            1 S1                 0.0000
     13 ****         2.8339   0.0483  -1.8116 N.pl3          1 S1                 0.0000
     14 ****         4.1823   0.0861  -2.3565 C.3            1 S1                 0.0000
     15 ****         4.2645   0.4210  -3.8619 C.3            1 S1                 0.0000
     16 ****         3.4703  -0.6057  -4.6911 C.3            1 S1                 0.0000
     17 ****         2.0842  -0.3257  -4.7012 O.3            1 S1                 0.0000
     18 ****         4.0761   1.8970  -4.2467 C.3            1 S1                 0.0000
     19 ****         5.4967   2.1050  -4.3872 O.3            1 S1                 0.0000
     20 ****         5.6990   0.6769  -4.3489 C.3            1 S1                 0.0000
     21 ****        -2.0239   0.0271  -0.3374 C.3            1 S1                 0.0000
     22 ****        -1.8726   0.8159   0.9768 C.3            1 S1                 0.0000
     23 ****        -2.3615   0.0167   2.1334 N.4            1 S1                 1.0000
     24 ****        -2.4097   0.7705   3.4163 C.3            1 S1                 0.0000
     25 ****        -3.7984   1.3894   3.7098 C.3            1 S1                 0.0000
     26 ****        -4.9247   0.3397   3.6785 C.3            1 S1                 0.0000
     27 ****        -3.7774   2.1038   5.0716 C.3            1 S1                 0.0000
     28 ****        -4.0899   2.3822   2.7474 O.3            1 S1                 0.0000
     29 ****         0.1874  -2.2643   2.7415 H              1 S1                 0.0000
     30 ****        -0.1246  -0.8053   3.6598 H              1 S1                 0.0000
     31 ****         0.3815  -0.6966   1.9802 H              1 S1                 0.0000
     32 ****        -2.2568  -1.8891   2.9918 H              1 S1                 0.0000
     33 ****        -1.3867  -3.0629   0.9673 H              1 S1                 0.0000
     34 ****        -2.9372  -2.3095   0.7387 H              1 S1                 0.0000
     35 ****         1.5186  -4.2297  -1.6058 H              1 S1                 0.0000
     36 ****         2.4328   2.1402  -1.4502 H              1 S1                 0.0000
     37 ****         4.7488   0.8161  -1.7765 H              1 S1                 0.0000
     38 ****         4.6587  -0.8746  -2.1571 H              1 S1                 0.0000
     39 ****         3.8033  -0.6065  -5.7292 H              1 S1                 0.0000
     40 ****         3.6264  -1.6189  -4.3199 H              1 S1                 0.0000
     41 ****         1.6485  -0.9863  -5.2180 H              1 S1                 0.0000
     42 ****         3.5525   2.0451  -5.1926 H              1 S1                 0.0000
     43 ****         3.6415   2.5171  -3.4638 H              1 S1                 0.0000
     44 ****         6.4706   0.3832  -3.6360 H              1 S1                 0.0000
     45 ****         5.9180   0.2753  -5.3396 H              1 S1                 0.0000
     46 ****        -1.6349   0.5871  -1.1868 H              1 S1                 0.0000
     47 ****        -3.0844  -0.1177  -0.5468 H              1 S1                 0.0000
     48 ****        -0.8327   1.0965   1.1411 H              1 S1                 0.0000
     49 ****        -2.4296   1.7475   0.8933 H              1 S1                 0.0000
     50 ****        -2.1809   0.0934   4.2402 H              1 S1                 0.0000
     51 ****        -1.6270   1.5310   3.4336 H              1 S1                 0.0000
     52 ****        -4.7403  -0.4563   4.4006 H              1 S1                 0.0000
     53 ****        -5.0233  -0.1222   2.6958 H              1 S1                 0.0000
     54 ****        -5.8891   0.7864   3.9232 H              1 S1                 0.0000
     55 ****        -3.5672   1.4038   5.8812 H              1 S1                 0.0000
     56 ****        -4.7356   2.5776   5.2897 H              1 S1                 0.0000
     57 ****        -3.0126   2.8810   5.1027 H              1 S1                 0.0000
     58 ****        -4.9145   2.7872   2.9712 H              1 S1                 0.0000
     59 ****        -3.3280  -0.1864   1.9217 H              1 S1                 0.0000
     60 ****        -0.5103  -3.5636  -0.7520 LP             1 S1                 0.0000
     61 ****         3.2301  -2.6891  -2.1652 LP             1 S1                 0.0000
     62 ****         0.1914   1.4497  -0.6093 LP             1 S1                 0.0000
     63 ****         1.9252   0.5762  -5.1029 LP             1 S1                 0.0000
     64 ****         1.7301  -0.3411  -3.7661 LP             1 S1                 0.0000
     65 ****         5.9158   2.5988  -3.6252 LP             1 S1                 0.0000
     66 ****         5.7647   2.5338  -5.2499 LP             1 S1                 0.0000
     67 ****        -4.1550   1.9641   1.8414 LP             1 S1                 0.0000
     68 ****        -3.3657   3.0718   2.7450 LP             1 S1                 0.0000
@<TRIPOS>BOND
    1    1    2 1     
    2    1   29 1     
    3    1   30 1     
    4    1   31 1     
    5    2   23 1     
    6    2    3 1     
    7    2   32 1     
    8    3    4 1     
    9    3   33 1     
   10    3   34 1     
   11    4    5 1     
   12    4   21 1     
   13    5   10 ar    
   14    5    6 ar    
   15    6    7 ar    
   16    7    8 ar    
   17    7   35 1     
   18    8    9 ar    
   19    9   13 1     
   20    9   10 ar    
   21   10   11 1     
   22   11   12 2     
   23   12   13 1     
   24   12   36 1     
   25   13   14 1     
   26   14   15 1     
   27   14   37 1     
   28   14   38 1     
   29   15   20 1     
   30   15   16 1     
   31   15   18 1     
   32   16   17 1     
   33   16   39 1     
   34   16   40 1     
   35   17   41 1     
   36   18   19 1     
   37   18   42 1     
   38   18   43 1     
   39   19   20 1     
   40   20   44 1     
   41   20   45 1     
   42   21   22 1     
   43   21   46 1     
   44   21   47 1     
   45   22   23 1     
   46   22   48 1     
   47   22   49 1     
   48   23   24 1     
   49   23   59 1     
   50   24   25 1     
   51   24   50 1     
   52   24   51 1     
   53   25   26 1     
   54   25   27 1     
   55   25   28 1     
   56   26   52 1     
   57   26   53 1     
   58   26   54 1     
   59   27   55 1     
   60   27   56 1     
   61   27   57 1     
   62   28   58 1     
   63    6   60 1     
   64    8   61 1     
   65   11   62 1     
   66   17   63 1     
   67   17   64 1     
   68   19   65 1     
   69   19   66 1     
   70   28   67 1     
   71   28   68 1     
@<TRIPOS>SUBSTRUCTURE
      1 S1             1
@<TRIPOS>SET
LONE_PAIRS      STATIC     ATOMS    <user>   **** ""
9 60 61 62 63 64 65 66 67 68
DONOR_HYDROGENS      STATIC     ATOMS    <user>   **** ""
3 41 59 58
ATOM$BLUE        STATIC     ATOMS    COLORGROUP SYSTEM
9 60 61 62 63 64 65 66 67 68
ATOM$RED        STATIC     ATOMS    COLORGROUP SYSTEM
3 41 59 58
