AV-unprocessed.smi:850|AV-procd|sdf|3948|dock5
  -GOLD-   22720 1423D 1   1.00000     0.00000
 Structure written by MMmdl.
 40 42  0  0  0  0  0  0  0  0  1 V2000
  153.7653  139.7393  159.9231 C   0  0  0  0  0  0  0  0  0  0  0  0
  152.9603  140.8355  159.3976 N   0  0  0  0  0  0  0  0  0  0  0  0
  152.4047  140.9220  158.1661 C   0  0  0  0  0  0  0  0  0  0  0  0
  152.4910  140.0809  157.2714 O   0  0  0  0  0  0  0  0  0  0  0  0
  151.7406  142.0994  158.0884 N   0  0  0  0  0  0  0  0  0  0  0  0
  151.0132  142.6122  156.9294 C   0  0  0  0  0  0  0  0  0  0  0  0
  149.8218  141.7061  156.5586 C   0  0  1  0  0  0  0  0  0  0  0  0
  148.6002  142.3258  156.9056 O   0  0  0  0  0  0  0  0  0  0  0  0
  149.7674  141.3649  155.0601 C   0  0  0  0  0  0  0  0  0  0  0  0
  150.7341  140.3661  154.7571 O   0  0  0  0  0  0  0  0  0  0  0  0
  150.3553  139.0433  154.8341 C   0  0  0  0  0  0  0  0  0  0  0  0
  151.3524  138.0777  154.5834 C   0  0  0  0  0  0  0  0  0  0  0  0
  151.0560  136.7024  154.6430 C   0  0  0  0  0  0  0  0  0  0  0  0
  149.7516  136.2771  154.9552 C   0  0  0  0  0  0  0  0  0  0  0  0
  148.7462  137.2295  155.2057 C   0  0  0  0  0  0  0  0  0  0  0  0
  149.0431  138.6052  155.1464 C   0  0  0  0  0  0  0  0  0  0  0  0
  151.8881  142.7913  159.2994 C   0  0  0  0  0  0  0  0  0  0  0  0
  151.4085  144.0460  159.7138 C   0  0  0  0  0  0  0  0  0  0  0  0
  151.7457  144.4663  161.0220 C   0  0  0  0  0  0  0  0  0  0  0  0
  152.5367  143.6464  161.8685 C   0  0  0  0  0  0  0  0  0  0  0  0
  153.0074  142.3881  161.4251 C   0  0  0  0  0  0  0  0  0  0  0  0
  152.6565  141.9952  160.1221 C   0  0  0  0  0  0  0  0  0  0  0  0
  153.7756  138.8800  159.2511 H   0  0  0  0  0  0  0  0  0  0  0  0
  153.3710  139.4075  160.8838 H   0  0  0  0  0  0  0  0  0  0  0  0
  154.7946  140.0667  160.0701 H   0  0  0  0  0  0  0  0  0  0  0  0
  150.6868  143.6404  157.0957 H   0  0  0  0  0  0  0  0  0  0  0  0
  151.7132  142.6567  156.0944 H   0  0  0  0  0  0  0  0  0  0  0  0
  149.8807  140.7689  157.1135 H   0  0  0  0  0  0  0  0  0  0  0  0
  148.5023  143.1072  156.3827 H   0  0  0  0  0  0  0  0  0  0  0  0
  148.7733  140.9799  154.8267 H   0  0  0  0  0  0  0  0  0  0  0  0
  149.9253  142.2621  154.4587 H   0  0  0  0  0  0  0  0  0  0  0  0
  152.3563  138.3959  154.3431 H   0  0  0  0  0  0  0  0  0  0  0  0
  151.8299  135.9746  154.4492 H   0  0  0  0  0  0  0  0  0  0  0  0
  149.5227  135.2226  155.0018 H   0  0  0  0  0  0  0  0  0  0  0  0
  147.7441  136.9045  155.4441 H   0  0  0  0  0  0  0  0  0  0  0  0
  148.2456  139.3049  155.3449 H   0  0  0  0  0  0  0  0  0  0  0  0
  150.8093  144.6668  159.0642 H   0  0  0  0  0  0  0  0  0  0  0  0
  151.3979  145.4240  161.3805 H   0  0  0  0  0  0  0  0  0  0  0  0
  152.7833  143.9879  162.8631 H   0  0  0  0  0  0  0  0  0  0  0  0
  153.6115  141.7589  162.0621 H   0  0  0  0  0  0  0  0  0  0  0  0
  1  2  1  0  0  0  0
  1 23  1  0  0  0  0
  1 24  1  0  0  0  0
  1 25  1  0  0  0  0
  2 22  1  0  0  0  0
  2  3  1  0  0  0  0
  3  4  2  0  0  0  0
  3  5  1  0  0  0  0
  5  6  1  0  0  0  0
  5 17  1  0  0  0  0
  6  7  1  0  0  0  0
  6 26  1  0  0  0  0
  6 27  1  0  0  0  0
  7  8  1  0  0  0  0
  7  9  1  0  0  0  0
  7 28  1  0  0  0  0
  8 29  1  0  0  0  0
  9 10  1  0  0  0  0
  9 30  1  0  0  0  0
  9 31  1  0  0  0  0
 10 11  1  0  0  0  0
 11 16  1  0  0  0  0
 11 12  2  0  0  0  0
 12 13  1  0  0  0  0
 12 32  1  0  0  0  0
 13 14  2  0  0  0  0
 13 33  1  0  0  0  0
 14 15  1  0  0  0  0
 14 34  1  0  0  0  0
 15 16  2  0  0  0  0
 15 35  1  0  0  0  0
 16 36  1  0  0  0  0
 17 22  2  0  0  0  0
 17 18  1  0  0  0  0
 18 19  2  0  0  0  0
 18 37  1  0  0  0  0
 19 20  1  0  0  0  0
 19 38  1  0  0  0  0
 20 21  2  0  0  0  0
 20 39  1  0  0  0  0
 21 22  1  0  0  0  0
 21 40  1  0  0  0  0
M  END
> <s_m_source_file>
AV-unprocessed.smi

> <i_m_source_file_index>
850

> <i_lp_mmshare_version>
43012

> <i_f3d_flags>
0

> <s_epik_input>
W2NIXTFbY0hdW2NIXVtjSF1jKGMxMiluKFtDSDNdKWMoPU8pbjJbQ0gyXVtDQEhdKFtPSF0pW0NIMl1PYzNbY0hdW2NIXVtjSF1bY0hdW2NIXTM=

> <s_epik_cmdline>
J2VwaWtfcHl0aG9uJywgJy1waCcsICc3LjAnLCAnLXRuJywgJzgnLCAnLW1hJywgJzIwMCcsICctbWV0YWxfYmluZGluZycsICctaW1hZScsICc8aW5maWxlLm1hZT4nLCAnLW9tYWUnLCAnPG91dGZpbGUubWFlPic=

> <r_lp_tautomer_probability>
1

> <r_epik_Ionization_Penalty>
2.40205e-06

> <r_epik_Ionization_Penalty_Charging>
2.75209e-09

> <r_epik_Ionization_Penalty_Neutral>
2.3993e-06

> <r_epik_State_Penalty>
-0

> <r_epik_Charging_Adjusted_Penalty>
2.75209e-09

> <i_epik_Tot_Q>
0

> <i_epik_Tot_abs_Q>
0

> <r_epik_Metal_State_Penalty>
-0

> <b_epik_Metal_Only>
0

> <s_lp_Force_Field>
OPLS_2005

> <r_lp_Energy>
47.9965

> <b_lp_Chiralities_Consistent>
1

> <s_lp_Variant>
AV-unprocessed.smi:850-2

> <Gold.Version>
5.8.1

> <Gold.Id.Protein>
6NUR|6NUR_protein|mol2

> <Gold.PLP.Fitness>
55.2213

> <Gold.PLP.PLP>
-48.2695

> <Gold.PLP.part.hbond>
-3.0000

> <Gold.PLP.part.metal>
0.0000

> <Gold.PLP.part.buried>
-3.5123

> <Gold.PLP.part.nonpolar>
-40.8304

> <Gold.PLP.part.repulsive>
0.0768

> <Gold.PLP.ligand.clash>
0.0000

> <Gold.PLP.ligand.torsion>
1.0390

> <Gold.PLP.Chemscore.Hbond>
3.0000

> <Gold.PLP.Chemscore.CHOScore>
0.0000

> <Gold.PLP.Chemscore.Metal>
0.0000

> <Gold.Chemscore.Hbonds>
donor molecule, donor type, donor heavy atom, donor atom, acceptor molecule, acceptor atom, score
      L1  H     8    29       P1  8028  1.00
      P1  H  7989  7998       L1    10  1.00
      P1  H  7997  8008       L1     4  1.00

> <Gold.PLP.Chemscore.Internal.Correction>
0.0299

> <Gold.Rescore>
     Score         DG    S(hbond)    S(metal)    S(lipo)     H(rot)  DE(clash)    DE(int)     intcor
     22.04     -23.20       2.38        0.00     129.89       2.12       0.12       1.04       ----

> <Gold.Chemscore.Fitness>
22.0357

> <Gold.Chemscore.DG>
-23.1983

> <Gold.Chemscore.ZeroCoef>
-5.4800

> <Gold.Chemscore.Hbond>
2.3787

> <Gold.Chemscore.Metal>
0.0000

> <Gold.Chemscore.Lipo>
129.8851

> <Gold.Chemscore.Internal_Hbond>
0.0000

> <Gold.Chemscore.DEClash>
0.1235

> <Gold.Chemscore.DEInternal>
1.0390

> <Gold.Chemscore.Rot>
2.1184

> <Gold.Chemscore.Internal.Correction>
   9.000000E+99

> <Gold.Chemscore.Hbonds>
donor molecule, donor type, donor heavy atom, donor atom, acceptor molecule, acceptor atom, score
      L1  H     8    29       P1  8028  0.82
      P1  H  7989  7998       L1    10  0.63
      P1  H  7997  8008       L1     4  0.62

> <Gold.Chemscore.Hbond.Weighted>
-7.9448

> <Gold.Chemscore.Metal.Weighted>
-0.0000

> <Gold.Chemscore.Lipo.Weighted>
-15.1966

> <Gold.Chemscore.Internal_Hbond.Weighted>
0.0000

> <Gold.Chemscore.DEClash.Weighted>
0.1235

> <Gold.Chemscore.DEInternal.Weighted>
1.0390

> <Gold.Chemscore.Rot.Weighted>
5.4231

> <Gold.Chemscore.Internal.Correction.Weighted>
   9.000000E+99

> <Gold.Protein.RotatedTorsions>
[ 6907 6896 6895 6894 ] final  -55.44 input  -60.11 | X-H torsion
[ 7974 7965 7964 7962 ] final   24.01 input  175.53 | X-H torsion
[ 8008 7997 7996 7995 ] final  -55.32 input   59.86 | X-H torsion
[ 10167 10162 10161 10158 ] final  -65.59 input  -65.29 | X-H torsion
[ 10718 10713 10712 10709 ] final   55.69 input   66.30 | X-H torsion
[ 10763 10752 10751 10750 ] final  110.98 input  -60.55 | X-H torsion
[ 11005 11000 10999 10996 ] final  -58.45 input  -57.11 | X-H torsion

> <Gold.Protein.ActiveResidues>
 VAL166  LYS551  ARG553  GLY616  TRP617  ASP618  TYR619  PRO620  LYS621  CYS622 
 ASP623  PHE694  ASN695  SER759  ASP760  ASP761  ALA762  ILE779  LEU786  VAL792 
 PHE793  MET794  SER795  GLU796  ALA797  LYS798  CYS799  TRP800  GLU811  SER814 

> <Gold.Protein.RotatedAtoms>
  150.8252  134.7479  159.6806 H   0  0  0  0  0  0  0  0  0  0  0  0  # atno 6907 bound_to 6896
  152.4363  134.5676  159.9922 H   0  0  0  0  0  0  0  0  0  0  0  0  # atno 6908 bound_to 6896
  151.5850  133.3335  159.3052 H   0  0  0  0  0  0  0  0  0  0  0  0  # atno 6909 bound_to 6896
  146.1957  139.7664  142.8799 H   0  0  0  0  0  0  0  0  0  0  0  0  # atno 7974 bound_to 7965
  154.4191  140.1155  156.5458 H   0  0  0  0  0  0  0  0  0  0  0  0  # atno 8008 bound_to 7997
  155.6461  140.3496  155.4712 H   0  0  0  0  0  0  0  0  0  0  0  0  # atno 8009 bound_to 7997
  155.9831  140.1164  157.0698 H   0  0  0  0  0  0  0  0  0  0  0  0  # atno 8010 bound_to 7997
  140.5719  143.2318  151.6521 H   0  0  0  0  0  0  0  0  0  0  0  0  # atno 10167 bound_to 10162
  157.5367  130.8668  149.8763 H   0  0  0  0  0  0  0  0  0  0  0  0  # atno 10718 bound_to 10713
  153.4568  135.3731  155.2315 H   0  0  0  0  0  0  0  0  0  0  0  0  # atno 10763 bound_to 10752
  154.8757  135.3899  154.3972 H   0  0  0  0  0  0  0  0  0  0  0  0  # atno 10764 bound_to 10752
  153.4540  135.7086  153.6155 H   0  0  0  0  0  0  0  0  0  0  0  0  # atno 10765 bound_to 10752
  141.1208  133.6612  156.4922 H   0  0  0  0  0  0  0  0  0  0  0  0  # atno 11005 bound_to 11000
  145.3649  141.0332  143.3263 LP  0  0  0  0  0  0  0  0  0  0  0  0  # atno 17320 bound_to 7965
  144.8576  139.5225  143.6827 LP  0  0  0  0  0  0  0  0  0  0  0  0  # atno 17321 bound_to 7965
  139.5122  144.3485  152.0675 LP  0  0  0  0  0  0  0  0  0  0  0  0  # atno 17342 bound_to 10162
  140.2623  144.4054  150.6181 LP  0  0  0  0  0  0  0  0  0  0  0  0  # atno 17343 bound_to 10162
  156.0464  130.3727  150.1307 LP  0  0  0  0  0  0  0  0  0  0  0  0  # atno 17370 bound_to 10713
  156.9489  130.9768  151.3502 LP  0  0  0  0  0  0  0  0  0  0  0  0  # atno 17371 bound_to 10713
  140.4514  134.6925  157.5041 LP  0  0  0  0  0  0  0  0  0  0  0  0  # atno 17394 bound_to 11000
  140.0163  134.6614  155.9305 LP  0  0  0  0  0  0  0  0  0  0  0  0  # atno 17395 bound_to 11000

$$$$
