AV-unprocessed.smi:1901|AV-procd|sdf|7718|dock10
  -GOLD-   22720 9463D 1   1.00000     0.00000
 Structure written by MMmdl.
 27 28  0  0  0  0  0  0  0  0  2 V2000
  150.8200  140.4753  158.4859 O   0  0  0  0  0  0  0  0  0  0  0  0
  151.9726  140.5592  158.0564 C   0  0  0  0  0  0  0  0  0  0  0  0
  152.8868  141.2407  158.7598 N   0  0  0  0  0  0  0  0  0  0  0  0
  152.6419  141.9131  160.0300 C   0  0  0  0  0  0  0  0  0  0  0  0
  152.7860  143.4368  159.8834 C   0  0  2  0  0  0  0  0  0  0  0  0
  151.9902  144.2495  160.8859 C   0  0  0  0  0  0  0  0  0  0  0  0
  151.9364  145.6166  160.2105 C   0  0  0  0  0  0  0  0  0  0  0  0
  151.9532  145.3612  158.8086 O   0  0  0  0  0  0  0  0  0  0  0  0
  152.2440  143.9878  158.5650 C   0  0  0  0  0  0  0  0  0  0  0  0
  152.4687  140.0288  156.9094 N   0  5  0  0  0  0  0  0  0  0  0  0
  151.7464  139.3713  155.9750 C   0  0  0  0  0  0  0  0  0  0  0  0
  150.8725  139.9064  155.1063 N   0  0  0  0  0  0  0  0  0  0  0  0
  150.2754  138.9771  154.2543 C   0  0  0  0  0  0  0  0  0  0  0  0
  150.7005  137.6948  154.4716 C   0  0  0  0  0  0  0  0  0  0  0  0
  151.8669  137.6223  155.7603 S   0  0  0  0  0  0  0  0  0  0  0  0
  153.8219  141.2930  158.3835 H   0  0  0  0  0  0  0  0  0  0  0  0
  151.6369  141.6687  160.3769 H   0  0  0  0  0  0  0  0  0  0  0  0
  153.3399  141.5364  160.7794 H   0  0  0  0  0  0  0  0  0  0  0  0
  153.8390  143.7118  159.9676 H   0  0  0  0  0  0  0  0  0  0  0  0
  150.9829  143.8432  160.9908 H   0  0  0  0  0  0  0  0  0  0  0  0
  152.4489  144.2837  161.8744 H   0  0  0  0  0  0  0  0  0  0  0  0
  151.0560  146.1901  160.5011 H   0  0  0  0  0  0  0  0  0  0  0  0
  152.8210  146.2010  160.4657 H   0  0  0  0  0  0  0  0  0  0  0  0
  152.9492  143.8699  157.7419 H   0  0  0  0  0  0  0  0  0  0  0  0
  151.3158  143.4858  158.2886 H   0  0  0  0  0  0  0  0  0  0  0  0
  149.5585  139.3177  153.5223 H   0  0  0  0  0  0  0  0  0  0  0  0
  150.4019  136.7941  153.9572 H   0  0  0  0  0  0  0  0  0  0  0  0
  1  2  2  0  0  0  0
  2  3  1  0  0  0  0
  2 10  1  0  0  0  0
  3  4  1  0  0  0  0
  3 16  1  0  0  0  0
  4  5  1  0  0  0  0
  4 17  1  0  0  0  0
  4 18  1  0  0  0  0
  5  9  1  0  0  0  0
  5  6  1  0  0  0  0
  5 19  1  0  0  0  0
  6  7  1  0  0  0  0
  6 20  1  0  0  0  0
  6 21  1  0  0  0  0
  7  8  1  0  0  0  0
  7 22  1  0  0  0  0
  7 23  1  0  0  0  0
  8  9  1  0  0  0  0
  9 24  1  0  0  0  0
  9 25  1  0  0  0  0
 10 11  1  0  0  0  0
 11 15  1  0  0  0  0
 11 12  2  0  0  0  0
 12 13  1  0  0  0  0
 13 14  2  0  0  0  0
 13 26  1  0  0  0  0
 14 15  1  0  0  0  0
 14 27  1  0  0  0  0
M  CHG  1  10  -1
M  END
> <s_m_source_file>
AV-unprocessed.smi

> <i_m_source_file_index>
1901

> <i_lp_mmshare_version>
43012

> <i_f3d_flags>
0

> <s_epik_input>
czFbY0hdW2NIXW5jMVtOSF1DKD1PKVtOSF1bQ0gyXVtDQEBIXTJbQ0gyXVtDSDJdT1tDSDJdMg==

> <s_epik_cmdline>
J2VwaWtfcHl0aG9uJywgJy1waCcsICc3LjAnLCAnLXRuJywgJzgnLCAnLW1hJywgJzIwMCcsICctbWV0YWxfYmluZGluZycsICctaW1hZScsICc8aW5maWxlLm1hZT4nLCAnLW9tYWUnLCAnPG91dGZpbGUubWFlPic=

> <r_lp_tautomer_probability>
0.999

> <r_epik_Ionization_Penalty>
8.4411

> <r_epik_Ionization_Penalty_Charging>
6.72681

> <r_epik_Ionization_Penalty_Neutral>
1.71429

> <r_epik_State_Penalty>
6.72698

> <r_epik_Charging_Adjusted_Penalty>
13.4538

> <i_epik_Tot_Q>
-1

> <i_epik_Tot_abs_Q>
1

> <r_epik_Metal_State_Penalty>
2.64812

> <b_epik_Metal_Only>
1

> <s_lp_Force_Field>
OPLS_2005

> <r_lp_Energy>
18.4833

> <b_lp_Chiralities_Consistent>
1

> <s_lp_Variant>
AV-unprocessed.smi:1901-3

> <Gold.Version>
5.8.1

> <Gold.Id.Protein>
6NUR|6NUR_protein|mol2

> <Gold.PLP.Fitness>
46.8888

> <Gold.PLP.PLP>
-35.0078

> <Gold.PLP.part.hbond>
-2.3720

> <Gold.PLP.part.metal>
0.0000

> <Gold.PLP.part.buried>
-2.1255

> <Gold.PLP.part.nonpolar>
-29.8600

> <Gold.PLP.part.repulsive>
0.2306

> <Gold.PLP.ligand.clash>
0.0000

> <Gold.PLP.ligand.torsion>
0.9650

> <Gold.PLP.Chemscore.Hbond>
2.5000

> <Gold.PLP.Chemscore.CHOScore>
2.1015

> <Gold.PLP.Chemscore.Metal>
0.0000

> <Gold.Chemscore.Hbonds>
donor molecule, donor type, donor heavy atom, donor atom, acceptor molecule, acceptor atom, score
      P1  H  7989  7998       L1    12  0.50
      P1  H  7997  8009       L1    10  2.00
      L1  C    13    26       P1  7957  1.00
      L1  C    14    27       P1  7948  0.70
      L1  C    14    27       P1  7949  0.24

> <Gold.PLP.Chemscore.Internal.Correction>
0.0064

> <Gold.Rescore>
     Score         DG    S(hbond)    S(metal)    S(lipo)     H(rot)  DE(clash)    DE(int)     intcor
     14.14     -14.99       0.96        0.00      82.42       1.30       0.07       0.78       ----

> <Gold.Chemscore.Fitness>
14.1421

> <Gold.Chemscore.DG>
-14.9917

> <Gold.Chemscore.ZeroCoef>
-5.4800

> <Gold.Chemscore.Hbond>
0.9571

> <Gold.Chemscore.Metal>
0.0000

> <Gold.Chemscore.Lipo>
82.4181

> <Gold.Chemscore.Internal_Hbond>
0.0000

> <Gold.Chemscore.DEClash>
0.0728

> <Gold.Chemscore.DEInternal>
0.7768

> <Gold.Chemscore.Rot>
1.3000

> <Gold.Chemscore.Internal.Correction>
   9.000000E+99

> <Gold.Chemscore.Hbonds>
donor molecule, donor type, donor heavy atom, donor atom, acceptor molecule, acceptor atom, score
      P1  H  7989  7998       L1    12  0.02
      P1  H  7997  8009       L1    10  0.71

> <Gold.Chemscore.Hbond.Weighted>
-3.1967

> <Gold.Chemscore.Metal.Weighted>
-0.0000

> <Gold.Chemscore.Lipo.Weighted>
-9.6429

> <Gold.Chemscore.Internal_Hbond.Weighted>
0.0000

> <Gold.Chemscore.DEClash.Weighted>
0.0728

> <Gold.Chemscore.DEInternal.Weighted>
0.7768

> <Gold.Chemscore.Rot.Weighted>
3.3280

> <Gold.Chemscore.Internal.Correction.Weighted>
   9.000000E+99

> <Gold.Protein.RotatedTorsions>
[ 6907 6896 6895 6894 ] final  -50.99 input  -60.11 | X-H torsion
[ 7974 7965 7964 7962 ] final   82.79 input  175.53 | X-H torsion
[ 8008 7997 7996 7995 ] final -162.13 input   59.86 | X-H torsion
[ 10167 10162 10161 10158 ] final -170.92 input  -65.29 | X-H torsion
[ 10718 10713 10712 10709 ] final  107.99 input   66.30 | X-H torsion
[ 10763 10752 10751 10750 ] final  -20.46 input  -60.55 | X-H torsion
[ 11005 11000 10999 10996 ] final  -86.72 input  -57.11 | X-H torsion

> <Gold.Protein.ActiveResidues>
 VAL166  LYS551  ARG553  GLY616  TRP617  ASP618  TYR619  PRO620  LYS621  CYS622 
 ASP623  PHE694  ASN695  SER759  ASP760  ASP761  ALA762  ILE779  LEU786  VAL792 
 PHE793  MET794  SER795  GLU796  ALA797  LYS798  CYS799  TRP800  GLU811  SER814 

> <Gold.Protein.RotatedAtoms>
  150.8654  134.8016  159.7114 H   0  0  0  0  0  0  0  0  0  0  0  0  # atno 6907 bound_to 6896
  152.4677  134.5032  159.9741 H   0  0  0  0  0  0  0  0  0  0  0  0  # atno 6908 bound_to 6896
  151.5129  133.3443  159.2923 H   0  0  0  0  0  0  0  0  0  0  0  0  # atno 6909 bound_to 6896
  145.6204  139.2385  143.2141 H   0  0  0  0  0  0  0  0  0  0  0  0  # atno 7974 bound_to 7965
  155.8023  140.0893  157.1950 H   0  0  0  0  0  0  0  0  0  0  0  0  # atno 8008 bound_to 7997
  154.3981  140.1470  156.3348 H   0  0  0  0  0  0  0  0  0  0  0  0  # atno 8009 bound_to 7997
  155.8449  140.3437  155.5658 H   0  0  0  0  0  0  0  0  0  0  0  0  # atno 8010 bound_to 7997
  139.5833  144.1374  152.1543 H   0  0  0  0  0  0  0  0  0  0  0  0  # atno 10167 bound_to 10162
  157.6605  131.0884  150.6239 H   0  0  0  0  0  0  0  0  0  0  0  0  # atno 10718 bound_to 10713
  153.6208  135.6993  153.5311 H   0  0  0  0  0  0  0  0  0  0  0  0  # atno 10763 bound_to 10752
  153.2939  135.4149  155.1191 H   0  0  0  0  0  0  0  0  0  0  0  0  # atno 10764 bound_to 10752
  154.8543  135.3632  154.5749 H   0  0  0  0  0  0  0  0  0  0  0  0  # atno 10765 bound_to 10752
  141.1626  133.7471  156.9203 H   0  0  0  0  0  0  0  0  0  0  0  0  # atno 11005 bound_to 11000
  146.1435  140.7025  142.9356 LP  0  0  0  0  0  0  0  0  0  0  0  0  # atno 17320 bound_to 7965
  144.7233  140.4445  143.6992 LP  0  0  0  0  0  0  0  0  0  0  0  0  # atno 17321 bound_to 7965
  140.0932  144.5602  150.7040 LP  0  0  0  0  0  0  0  0  0  0  0  0  # atno 17342 bound_to 10162
  140.7108  143.2504  151.4586 LP  0  0  0  0  0  0  0  0  0  0  0  0  # atno 17343 bound_to 10162
  156.6542  130.4494  149.5709 LP  0  0  0  0  0  0  0  0  0  0  0  0  # atno 17370 bound_to 10713
  156.2115  130.6681  151.1274 LP  0  0  0  0  0  0  0  0  0  0  0  0  # atno 17371 bound_to 10713
  140.1456  134.9264  157.2525 LP  0  0  0  0  0  0  0  0  0  0  0  0  # atno 17394 bound_to 11000
  140.2784  134.3378  155.7351 LP  0  0  0  0  0  0  0  0  0  0  0  0  # atno 17395 bound_to 11000

$$$$
