AV-unprocessed.smi:3200|AV-procd|sdf|12236|dock8
  -GOLD-   2272018 73D 1   1.00000     0.00000
 Structure written by MMmdl.
 38 39  0  0  0  0  0  0  0  0  2 V2000
  145.6851  143.7448  153.4543 C   0  0  0  0  0  0  0  0  0  0  0  0
  146.6499  142.8689  154.1784 C   0  0  0  0  0  0  0  0  0  0  0  0
  146.2332  141.9277  155.0168 N   0  0  0  0  0  0  0  0  0  0  0  0
  147.4259  141.3451  155.4687 O   0  0  0  0  0  0  0  0  0  0  0  0
  148.4237  142.0272  154.8576 C   0  0  0  0  0  0  0  0  0  0  0  0
  149.8352  141.6068  155.0952 C   0  0  0  0  0  0  0  0  0  0  0  0
  150.1785  141.5392  156.5883 C   0  0  0  0  0  0  0  0  0  0  0  0
  150.7526  142.8160  157.0589 N   0  3  0  0  0  0  0  0  0  0  0  0
  151.0920  142.8501  158.4992 C   0  0  1  0  0  0  0  0  0  0  0  0
  152.0621  141.7384  158.9251 C   0  0  0  0  0  0  0  0  0  0  0  0
  152.7964  142.2836  160.1571 C   0  0  0  0  0  0  0  0  0  0  0  0
  152.3711  143.7524  160.2982 C   0  0  0  0  0  0  0  0  0  0  0  0
  151.7704  144.1643  158.9422 C   0  0  0  0  0  0  0  0  0  0  0  0
  152.8981  144.6118  157.9829 C   0  0  0  0  0  0  0  0  0  0  0  0
  150.7525  145.3079  159.1100 C   0  0  0  0  0  0  0  0  0  0  0  0
  147.9987  142.9758  154.0273 N   0  0  0  0  0  0  0  0  0  0  0  0
  144.7034  143.2736  153.3938 H   0  0  0  0  0  0  0  0  0  0  0  0
  146.0346  143.9387  152.4398 H   0  0  0  0  0  0  0  0  0  0  0  0
  145.5811  144.6980  153.9731 H   0  0  0  0  0  0  0  0  0  0  0  0
  149.9904  140.6333  154.6286 H   0  0  0  0  0  0  0  0  0  0  0  0
  150.4973  142.3084  154.5861 H   0  0  0  0  0  0  0  0  0  0  0  0
  149.2817  141.3127  157.1668 H   0  0  0  0  0  0  0  0  0  0  0  0
  150.8898  140.7317  156.7655 H   0  0  0  0  0  0  0  0  0  0  0  0
  151.5871  143.0187  156.5271 H   0  0  0  0  0  0  0  0  0  0  0  0
  150.1689  142.7323  159.0706 H   0  0  0  0  0  0  0  0  0  0  0  0
  151.5432  140.8037  159.1401 H   0  0  0  0  0  0  0  0  0  0  0  0
  152.7844  141.5345  158.1333 H   0  0  0  0  0  0  0  0  0  0  0  0
  152.5475  141.7190  161.0563 H   0  0  0  0  0  0  0  0  0  0  0  0
  153.8747  142.2071  160.0132 H   0  0  0  0  0  0  0  0  0  0  0  0
  151.6090  143.8189  161.0762 H   0  0  0  0  0  0  0  0  0  0  0  0
  153.1957  144.3944  160.6102 H   0  0  0  0  0  0  0  0  0  0  0  0
  153.4327  145.4736  158.3836 H   0  0  0  0  0  0  0  0  0  0  0  0
  152.5061  144.9052  157.0088 H   0  0  0  0  0  0  0  0  0  0  0  0
  153.6338  143.8246  157.8178 H   0  0  0  0  0  0  0  0  0  0  0  0
  151.2290  146.2019  159.5139 H   0  0  0  0  0  0  0  0  0  0  0  0
  149.9451  145.0328  159.7898 H   0  0  0  0  0  0  0  0  0  0  0  0
  150.2997  145.5784  158.1557 H   0  0  0  0  0  0  0  0  0  0  0  0
  150.0751  143.5442  156.8829 H   0  0  0  0  0  0  0  0  0  0  0  0
  1  2  1  0  0  0  0
  1 17  1  0  0  0  0
  1 18  1  0  0  0  0
  1 19  1  0  0  0  0
  2 16  1  0  0  0  0
  2  3  2  0  0  0  0
  3  4  1  0  0  0  0
  4  5  1  0  0  0  0
  5  6  1  0  0  0  0
  5 16  2  0  0  0  0
  6  7  1  0  0  0  0
  6 20  1  0  0  0  0
  6 21  1  0  0  0  0
  7  8  1  0  0  0  0
  7 22  1  0  0  0  0
  7 23  1  0  0  0  0
  8  9  1  0  0  0  0
  8 24  1  0  0  0  0
  8 38  1  0  0  0  0
  9 13  1  0  0  0  0
  9 10  1  0  0  0  0
  9 25  1  0  0  0  0
 10 11  1  0  0  0  0
 10 26  1  0  0  0  0
 10 27  1  0  0  0  0
 11 12  1  0  0  0  0
 11 28  1  0  0  0  0
 11 29  1  0  0  0  0
 12 13  1  0  0  0  0
 12 30  1  0  0  0  0
 12 31  1  0  0  0  0
 13 14  1  0  0  0  0
 13 15  1  0  0  0  0
 14 32  1  0  0  0  0
 14 33  1  0  0  0  0
 14 34  1  0  0  0  0
 15 35  1  0  0  0  0
 15 36  1  0  0  0  0
 15 37  1  0  0  0  0
M  CHG  1   8   1
M  END
> <s_m_source_file>
AV-unprocessed.smi

> <i_m_source_file_index>
3200

> <i_lp_mmshare_version>
43012

> <i_f3d_flags>
0

> <s_epik_input>
W0NIM11jMW5vYyhuMSlbQ0gyXVtDSDJdW05IXVtDQEBIXShDMihbQ0gzXSlbQ0gzXSlbQ0gyXVtDSDJdW0NIMl0y

> <s_epik_cmdline>
J2VwaWtfcHl0aG9uJywgJy1waCcsICc3LjAnLCAnLXRuJywgJzgnLCAnLW1hJywgJzIwMCcsICctbWV0YWxfYmluZGluZycsICctaW1hZScsICc8aW5maWxlLm1hZT4nLCAnLW9tYWUnLCAnPG91dGZpbGUubWFlPic=

> <r_lp_tautomer_probability>
1

> <r_epik_Ionization_Penalty>
0.000953161

> <r_epik_Ionization_Penalty_Charging>
0.000953161

> <r_epik_Ionization_Penalty_Neutral>
4.23223e-13

> <r_epik_State_Penalty>
0.000619331

> <r_epik_Charging_Adjusted_Penalty>
0.00157249

> <i_epik_Tot_Q>
1

> <i_epik_Tot_abs_Q>
1

> <r_epik_Metal_State_Penalty>
-0

> <b_epik_Metal_Only>
0

> <s_lp_Force_Field>
OPLS_2005

> <r_lp_Energy>
25.6419

> <b_lp_Chiralities_Consistent>
1

> <s_lp_Variant>
AV-unprocessed.smi:3200-2

> <Gold.Version>
5.8.1

> <Gold.Id.Protein>
6NUR|6NUR_protein|mol2

> <Gold.PLP.Fitness>
44.0567

> <Gold.PLP.PLP>
-36.3823

> <Gold.PLP.part.hbond>
-3.0000

> <Gold.PLP.part.metal>
0.0000

> <Gold.PLP.part.buried>
-1.2589

> <Gold.PLP.part.nonpolar>
-34.7410

> <Gold.PLP.part.repulsive>
3.9767

> <Gold.PLP.ligand.clash>
0.0000

> <Gold.PLP.ligand.torsion>
0.2929

> <Gold.PLP.Chemscore.Hbond>
2.7490

> <Gold.PLP.Chemscore.CHOScore>
0.0000

> <Gold.PLP.Chemscore.Metal>
0.0000

> <Gold.Chemscore.Hbonds>
donor molecule, donor type, donor heavy atom, donor atom, acceptor molecule, acceptor atom, score
      L1  H     8    38       P1  8028  1.85
      P1  H  8022  8030       L1    16  0.88

> <Gold.PLP.Chemscore.Internal.Correction>
0.0132

> <Gold.Rescore>
     Score         DG    S(hbond)    S(metal)    S(lipo)     H(rot)  DE(clash)    DE(int)     intcor
     16.04     -18.29       1.64        0.00     101.75       1.79       2.02       0.24       ----

> <Gold.Chemscore.Fitness>
16.0391

> <Gold.Chemscore.DG>
-18.2947

> <Gold.Chemscore.ZeroCoef>
-5.4800

> <Gold.Chemscore.Hbond>
1.6422

> <Gold.Chemscore.Metal>
0.0000

> <Gold.Chemscore.Lipo>
101.7511

> <Gold.Chemscore.Internal_Hbond>
0.0000

> <Gold.Chemscore.DEClash>
2.0179

> <Gold.Chemscore.DEInternal>
0.2376

> <Gold.Chemscore.Rot>
1.7872

> <Gold.Chemscore.Internal.Correction>
   9.000000E+99

> <Gold.Chemscore.Hbonds>
donor molecule, donor type, donor heavy atom, donor atom, acceptor molecule, acceptor atom, score
      L1  H     8    38       P1  8028  0.86
      P1  H  8022  8030       L1    16  0.74

> <Gold.Chemscore.Hbond.Weighted>
-5.4851

> <Gold.Chemscore.Metal.Weighted>
-0.0000

> <Gold.Chemscore.Lipo.Weighted>
-11.9049

> <Gold.Chemscore.Internal_Hbond.Weighted>
0.0000

> <Gold.Chemscore.DEClash.Weighted>
2.0179

> <Gold.Chemscore.DEInternal.Weighted>
0.2376

> <Gold.Chemscore.Rot.Weighted>
4.5753

> <Gold.Chemscore.Internal.Correction.Weighted>
   9.000000E+99

> <Gold.Protein.RotatedTorsions>
[ 6907 6896 6895 6894 ] final  131.06 input  -60.11 | X-H torsion
[ 7974 7965 7964 7962 ] final  -77.99 input  175.53 | X-H torsion
[ 8008 7997 7996 7995 ] final  -40.06 input   59.86 | X-H torsion
[ 10167 10162 10161 10158 ] final  101.83 input  -65.29 | X-H torsion
[ 10718 10713 10712 10709 ] final -174.15 input   66.30 | X-H torsion
[ 10763 10752 10751 10750 ] final  -35.74 input  -60.55 | X-H torsion
[ 11005 11000 10999 10996 ] final  144.39 input  -57.11 | X-H torsion

> <Gold.Protein.ActiveResidues>
 VAL166  LYS551  ARG553  GLY616  TRP617  ASP618  TYR619  PRO620  LYS621  CYS622 
 ASP623  PHE694  ASN695  SER759  ASP760  ASP761  ALA762  ILE779  LEU786  VAL792 
 PHE793  MET794  SER795  GLU796  ALA797  LYS798  CYS799  TRP800  GLU811  SER814 

> <Gold.Protein.RotatedAtoms>
  152.3464  133.6127  159.5913 H   0  0  0  0  0  0  0  0  0  0  0  0  # atno 6907 bound_to 6896
  150.7510  133.9642  159.3534 H   0  0  0  0  0  0  0  0  0  0  0  0  # atno 6908 bound_to 6896
  151.7500  135.0836  160.0380 H   0  0  0  0  0  0  0  0  0  0  0  0  # atno 6909 bound_to 6896
  145.5924  140.9426  143.1285 H   0  0  0  0  0  0  0  0  0  0  0  0  # atno 7974 bound_to 7965
  154.4016  140.1535  156.2966 H   0  0  0  0  0  0  0  0  0  0  0  0  # atno 8008 bound_to 7997
  155.8738  140.3447  155.5818 H   0  0  0  0  0  0  0  0  0  0  0  0  # atno 8009 bound_to 7997
  155.7744  140.0835  157.2082 H   0  0  0  0  0  0  0  0  0  0  0  0  # atno 8010 bound_to 7997
  139.7403  144.7013  151.0585 H   0  0  0  0  0  0  0  0  0  0  0  0  # atno 10167 bound_to 10162
  156.7808  130.9483  151.3120 H   0  0  0  0  0  0  0  0  0  0  0  0  # atno 10718 bound_to 10713
  153.8682  135.6833  153.4776 H   0  0  0  0  0  0  0  0  0  0  0  0  # atno 10763 bound_to 10752
  153.1302  135.4701  154.9335 H   0  0  0  0  0  0  0  0  0  0  0  0  # atno 10764 bound_to 10752
  154.7726  135.3243  154.8108 H   0  0  0  0  0  0  0  0  0  0  0  0  # atno 10765 bound_to 10752
  140.0629  134.9195  157.1214 H   0  0  0  0  0  0  0  0  0  0  0  0  # atno 11005 bound_to 11000
  144.7345  139.7625  143.7334 LP  0  0  0  0  0  0  0  0  0  0  0  0  # atno 17320 bound_to 7965
  146.1637  139.4761  142.9972 LP  0  0  0  0  0  0  0  0  0  0  0  0  # atno 17321 bound_to 7965
  140.7785  143.4932  150.9866 LP  0  0  0  0  0  0  0  0  0  0  0  0  # atno 17342 bound_to 10162
  139.8621  143.7301  152.3172 LP  0  0  0  0  0  0  0  0  0  0  0  0  # atno 17343 bound_to 10162
  157.6647  130.8997  149.9906 LP  0  0  0  0  0  0  0  0  0  0  0  0  # atno 17370 bound_to 10713
  156.1219  130.3645  149.9873 LP  0  0  0  0  0  0  0  0  0  0  0  0  # atno 17371 bound_to 10713
  140.3743  134.2356  155.7175 LP  0  0  0  0  0  0  0  0  0  0  0  0  # atno 17394 bound_to 11000
  141.1980  133.8045  157.0600 LP  0  0  0  0  0  0  0  0  0  0  0  0  # atno 17395 bound_to 11000

$$$$
