AV-unprocessed.smi:3347|AV-procd|sdf|12914|dock5
  -GOLD-   2272019333D 1   1.00000     0.00000
 Structure written by MMmdl.
 40 42  0  0  0  0  0  0  0  0  2 V2000
  149.3859  134.9582  156.0921 O   0  0  0  0  0  0  0  0  0  0  0  0
  149.2473  135.2590  154.9068 C   0  0  0  0  0  0  0  0  0  0  0  0
  148.4987  134.5509  154.0491 N   0  0  0  0  0  0  0  0  0  0  0  0
  147.7735  133.3249  154.3695 C   0  0  0  0  0  0  0  0  0  0  0  0
  147.6294  132.3967  153.1476 C   0  0  1  0  0  0  0  0  0  0  0  0
  146.6823  131.2208  153.3777 C   0  0  0  0  0  0  0  0  0  0  0  0
  146.2766  130.7799  151.9663 C   0  0  0  0  0  0  0  0  0  0  0  0
  146.5456  131.9259  151.0668 N   0  3  1  0  0  0  0  0  0  0  0  0
  145.4170  132.2777  150.1789 C   0  0  0  0  0  0  0  0  0  0  0  0
  144.4907  133.3171  150.7632 C   0  0  0  0  0  0  0  0  0  0  0  0
  144.0700  131.8638  150.7208 C   0  0  0  0  0  0  0  0  0  0  0  0
  147.0221  133.0470  151.9018 C   0  0  0  0  0  0  0  0  0  0  0  0
  149.7905  136.3311  154.3054 N   0  0  0  0  0  0  0  0  0  0  0  0
  150.6354  137.3303  154.8605 C   0  0  0  0  0  0  0  0  0  0  0  0
  151.4134  137.1630  156.0322 C   0  0  0  0  0  0  0  0  0  0  0  0
  152.2223  138.2299  156.4689 C   0  0  0  0  0  0  0  0  0  0  0  0
  152.2308  139.4202  155.7165 C   0  0  0  0  0  0  0  0  0  0  0  0
  151.5048  139.5894  154.5916 N   0  0  0  0  0  0  0  0  0  0  0  0
  150.7322  138.5623  154.1787 C   0  0  0  0  0  0  0  0  0  0  0  0
  148.4388  134.8756  153.0949 H   0  0  0  0  0  0  0  0  0  0  0  0
  148.3326  132.8102  155.1513 H   0  0  0  0  0  0  0  0  0  0  0  0
  146.7966  133.5560  154.7979 H   0  0  0  0  0  0  0  0  0  0  0  0
  148.6104  131.9960  152.8859 H   0  0  0  0  0  0  0  0  0  0  0  0
  147.1407  130.4160  153.9534 H   0  0  0  0  0  0  0  0  0  0  0  0
  145.7973  131.5553  153.9213 H   0  0  0  0  0  0  0  0  0  0  0  0
  146.8833  129.9362  151.6362 H   0  0  0  0  0  0  0  0  0  0  0  0
  145.2321  130.4653  151.9392 H   0  0  0  0  0  0  0  0  0  0  0  0
  145.6144  132.2518  149.1084 H   0  0  0  0  0  0  0  0  0  0  0  0
  144.7390  133.7408  151.7346 H   0  0  0  0  0  0  0  0  0  0  0  0
  143.9998  133.9981  150.0711 H   0  0  0  0  0  0  0  0  0  0  0  0
  143.3020  131.5887  150.0006 H   0  0  0  0  0  0  0  0  0  0  0  0
  144.0384  131.3211  151.6640 H   0  0  0  0  0  0  0  0  0  0  0  0
  146.1761  133.6754  152.1870 H   0  0  0  0  0  0  0  0  0  0  0  0
  147.7356  133.6682  151.3596 H   0  0  0  0  0  0  0  0  0  0  0  0
  149.5260  136.4794  153.3425 H   0  0  0  0  0  0  0  0  0  0  0  0
  151.4193  136.2432  156.5954 H   0  0  0  0  0  0  0  0  0  0  0  0
  152.8272  138.1354  157.3583 H   0  0  0  0  0  0  0  0  0  0  0  0
  152.8411  140.2565  156.0238 H   0  0  0  0  0  0  0  0  0  0  0  0
  150.1668  138.7331  153.2741 H   0  0  0  0  0  0  0  0  0  0  0  0
  147.3212  131.6522  150.4805 H   0  0  0  0  0  0  0  0  0  0  0  0
  1  2  2  0  0  0  0
  2  3  1  0  0  0  0
  2 13  1  0  0  0  0
  3  4  1  0  0  0  0
  3 20  1  0  0  0  0
  4  5  1  0  0  0  0
  4 21  1  0  0  0  0
  4 22  1  0  0  0  0
  5 12  1  0  0  0  0
  5  6  1  0  0  0  0
  5 23  1  0  0  0  0
  6  7  1  0  0  0  0
  6 24  1  0  0  0  0
  6 25  1  0  0  0  0
  7  8  1  0  0  0  0
  7 26  1  0  0  0  0
  7 27  1  0  0  0  0
  8  9  1  0  0  0  0
  8 12  1  0  0  0  0
  8 40  1  0  0  0  0
  9 11  1  0  0  0  0
  9 10  1  0  0  0  0
  9 28  1  0  0  0  0
 10 11  1  0  0  0  0
 10 29  1  0  0  0  0
 10 30  1  0  0  0  0
 11 31  1  0  0  0  0
 11 32  1  0  0  0  0
 12 33  1  0  0  0  0
 12 34  1  0  0  0  0
 13 14  1  0  0  0  0
 13 35  1  0  0  0  0
 14 19  1  0  0  0  0
 14 15  2  0  0  0  0
 15 16  1  0  0  0  0
 15 36  1  0  0  0  0
 16 17  2  0  0  0  0
 16 37  1  0  0  0  0
 17 18  1  0  0  0  0
 17 38  1  0  0  0  0
 18 19  2  0  0  0  0
 19 39  1  0  0  0  0
M  CHG  1   8   1
M  END
> <s_m_source_file>
AV-unprocessed.smi

> <i_m_source_file_index>
3347

> <i_lp_mmshare_version>
43012

> <i_f3d_flags>
0

> <s_epik_input>
W2NIXTFuW2NIXVtjSF1bY0hdYzFbTkhdQyg9TylbTkhdW0NIMl1bQ0BASF0yW0NIMl1bQ0gyXU4oW0NIMl0yKVtDSF0zW0NIMl1bQ0gyXTM=

> <s_epik_cmdline>
J2VwaWtfcHl0aG9uJywgJy1waCcsICc3LjAnLCAnLXRuJywgJzgnLCAnLW1hJywgJzIwMCcsICctbWV0YWxfYmluZGluZycsICctaW1hZScsICc8aW5maWxlLm1hZT4nLCAnLW9tYWUnLCAnPG91dGZpbGUubWFlPic=

> <r_epik_Ionization_Penalty>
0.00442629

> <r_epik_Ionization_Penalty_Charging>
0.000203384

> <r_epik_Ionization_Penalty_Neutral>
0.00422291

> <r_epik_State_Penalty>
0.00301008

> <r_epik_Charging_Adjusted_Penalty>
0.00321347

> <i_epik_Tot_Q>
1

> <i_epik_Tot_abs_Q>
1

> <r_epik_Metal_State_Penalty>
-0

> <b_epik_Metal_Only>
0

> <s_lp_Force_Field>
OPLS_2005

> <r_lp_Energy>
39.1383

> <b_lp_Chiralities_Consistent>
1

> <s_lp_Variant>
AV-unprocessed.smi:3347-4

> <Gold.Version>
5.8.1

> <Gold.Id.Protein>
6NUR|6NUR_protein|mol2

> <Gold.PLP.Fitness>
47.3692

> <Gold.PLP.PLP>
-33.7244

> <Gold.PLP.part.hbond>
-4.5630

> <Gold.PLP.part.metal>
0.0000

> <Gold.PLP.part.buried>
-4.0906

> <Gold.PLP.part.nonpolar>
-25.5806

> <Gold.PLP.part.repulsive>
0.1811

> <Gold.PLP.ligand.clash>
0.0000

> <Gold.PLP.ligand.torsion>
1.1851

> <Gold.PLP.Chemscore.Hbond>
3.9280

> <Gold.PLP.Chemscore.CHOScore>
0.9888

> <Gold.PLP.Chemscore.Metal>
0.0000

> <Gold.Chemscore.Hbonds>
donor molecule, donor type, donor heavy atom, donor atom, acceptor molecule, acceptor atom, score
      L1  H     3    20       P1  7948  0.93
      L1  H     8    40       P1 10747  1.00
      L1  H    13    35       P1  7948  1.00
      P1  H  7989  7998       L1    18  1.00
      L1  C    19    39       P1  7957  1.00

> <Gold.PLP.Chemscore.Internal.Correction>
1.2646

> <Gold.Rescore>
     Score         DG    S(hbond)    S(metal)    S(lipo)     H(rot)  DE(clash)    DE(int)     intcor
     21.10     -23.49       3.44        0.00      86.82       1.42       0.16       2.22       ----

> <Gold.Chemscore.Fitness>
21.1025

> <Gold.Chemscore.DG>
-23.4869

> <Gold.Chemscore.ZeroCoef>
-5.4800

> <Gold.Chemscore.Hbond>
3.4399

> <Gold.Chemscore.Metal>
0.0000

> <Gold.Chemscore.Lipo>
86.8172

> <Gold.Chemscore.Internal_Hbond>
0.0000

> <Gold.Chemscore.DEClash>
0.1596

> <Gold.Chemscore.DEInternal>
2.2248

> <Gold.Chemscore.Rot>
1.4219

> <Gold.Chemscore.Internal.Correction>
   9.000000E+99

> <Gold.Chemscore.Hbonds>
donor molecule, donor type, donor heavy atom, donor atom, acceptor molecule, acceptor atom, score
      L1  H     3    20       P1  7948  0.58
      L1  H     8    40       P1 10747  0.95
      L1  H    13    35       P1  7948  0.59
      P1  H  7989  7998       L1    18  0.90

> <Gold.Chemscore.Hbond.Weighted>
-11.4894

> <Gold.Chemscore.Metal.Weighted>
-0.0000

> <Gold.Chemscore.Lipo.Weighted>
-10.1576

> <Gold.Chemscore.Internal_Hbond.Weighted>
0.0000

> <Gold.Chemscore.DEClash.Weighted>
0.1596

> <Gold.Chemscore.DEInternal.Weighted>
2.2248

> <Gold.Chemscore.Rot.Weighted>
3.6401

> <Gold.Chemscore.Internal.Correction.Weighted>
   9.000000E+99

> <Gold.Protein.RotatedTorsions>
[ 6907 6896 6895 6894 ] final  137.13 input  -60.11 | X-H torsion
[ 7974 7965 7964 7962 ] final  169.03 input  175.53 | X-H torsion
[ 8008 7997 7996 7995 ] final  129.79 input   59.86 | X-H torsion
[ 10167 10162 10161 10158 ] final  -18.18 input  -65.29 | X-H torsion
[ 10718 10713 10712 10709 ] final  109.53 input   66.30 | X-H torsion
[ 10763 10752 10751 10750 ] final  -16.07 input  -60.55 | X-H torsion
[ 11005 11000 10999 10996 ] final   68.08 input  -57.11 | X-H torsion

> <Gold.Protein.ActiveResidues>
 VAL166  LYS551  ARG553  GLY616  TRP617  ASP618  TYR619  PRO620  LYS621  CYS622 
 ASP623  PHE694  ASN695  SER759  ASP760  ASP761  ALA762  ILE779  LEU786  VAL792 
 PHE793  MET794  SER795  GLU796  ALA797  LYS798  CYS799  TRP800  GLU811  SER814 

> <Gold.Protein.RotatedAtoms>
  152.2815  133.5475  159.5500 H   0  0  0  0  0  0  0  0  0  0  0  0  # atno 6907 bound_to 6896
  150.7198  134.0557  159.3823 H   0  0  0  0  0  0  0  0  0  0  0  0  # atno 6908 bound_to 6896
  151.8467  135.0572  160.0505 H   0  0  0  0  0  0  0  0  0  0  0  0  # atno 6909 bound_to 6896
  144.7368  139.8994  143.6408 H   0  0  0  0  0  0  0  0  0  0  0  0  # atno 7974 bound_to 7965
  156.2943  140.2612  156.2656 H   0  0  0  0  0  0  0  0  0  0  0  0  # atno 8008 bound_to 7997
  154.9745  140.0390  157.2268 H   0  0  0  0  0  0  0  0  0  0  0  0  # atno 8009 bound_to 7997
  154.7828  140.2798  155.6055 H   0  0  0  0  0  0  0  0  0  0  0  0  # atno 8010 bound_to 7997
  140.7256  143.4942  150.9952 H   0  0  0  0  0  0  0  0  0  0  0  0  # atno 10167 bound_to 10162
  157.6537  131.0915  150.6467 H   0  0  0  0  0  0  0  0  0  0  0  0  # atno 10718 bound_to 10713
  153.5530  135.7011  153.5582 H   0  0  0  0  0  0  0  0  0  0  0  0  # atno 10763 bound_to 10752
  153.3498  135.3998  155.1637 H   0  0  0  0  0  0  0  0  0  0  0  0  # atno 10764 bound_to 10752
  154.8658  135.3762  154.5042 H   0  0  0  0  0  0  0  0  0  0  0  0  # atno 10765 bound_to 10752
  139.9733  134.6864  156.0404 H   0  0  0  0  0  0  0  0  0  0  0  0  # atno 11005 bound_to 11000
  146.1083  139.4085  143.0304 LP  0  0  0  0  0  0  0  0  0  0  0  0  # atno 17320 bound_to 7965
  145.7480  140.9983  143.1265 LP  0  0  0  0  0  0  0  0  0  0  0  0  # atno 17321 bound_to 7965
  139.8648  143.7268  152.3171 LP  0  0  0  0  0  0  0  0  0  0  0  0  # atno 17342 bound_to 10162
  139.7496  144.7538  151.0527 LP  0  0  0  0  0  0  0  0  0  0  0  0  # atno 17343 bound_to 10162
  156.6775  130.4557  149.5638 LP  0  0  0  0  0  0  0  0  0  0  0  0  # atno 17370 bound_to 10713
  156.1953  130.6585  151.1107 LP  0  0  0  0  0  0  0  0  0  0  0  0  # atno 17371 bound_to 10713
  141.1411  133.6564  156.3733 LP  0  0  0  0  0  0  0  0  0  0  0  0  # atno 17394 bound_to 11000
  140.5248  134.6269  157.5330 LP  0  0  0  0  0  0  0  0  0  0  0  0  # atno 17395 bound_to 11000

$$$$
