AV-unprocessed.smi:686|AV-procd|sdf|3342|dock6
  -GOLD-   22720 0313D 1   1.00000     0.00000
 Structure written by MMmdl.
 41 42  0  0  0  0  0  0  0  0  2 V2000
  145.6870  138.2580  155.4673 C   0  0  0  0  0  0  0  0  0  0  0  0
  146.4610  137.8647  154.2017 C   0  0  1  0  0  0  0  0  0  0  0  0
  145.9566  136.5742  153.5528 C   0  0  0  0  0  0  0  0  0  0  0  0
  146.3479  136.6795  152.1331 N   0  3  1  0  0  0  0  0  0  0  0  0
  145.6854  135.7120  151.2131 C   0  0  0  0  0  0  0  0  0  0  0  0
  144.1548  135.7244  151.3843 C   0  0  0  0  0  0  0  0  0  0  0  0
  146.2172  134.2822  151.4271 C   0  0  0  0  0  0  0  0  0  0  0  0
  146.1571  138.1048  151.7864 C   0  0  0  0  0  0  0  0  0  0  0  0
  146.3975  138.9127  153.0756 C   0  0  2  0  0  0  0  0  0  0  0  0
  147.6535  139.6703  153.0164 N   0  0  0  0  0  0  0  0  0  0  0  0
  148.4930  140.1061  154.4631 S   0  0  0  0  0  0  0  0  0  0  0  0
  149.5156  141.1058  154.1166 O   0  0  0  0  0  0  0  0  0  0  0  0
  147.4795  140.4050  155.4857 O   0  0  0  0  0  0  0  0  0  0  0  0
  149.3319  138.5310  154.9282 C   0  0  0  0  0  0  0  0  0  0  0  0
  150.8059  138.7736  155.0798 C   0  0  0  0  0  0  0  0  0  0  0  0
  151.8873  138.0001  154.5746 C   0  0  0  0  0  0  0  0  0  0  0  0
  152.9914  138.6732  155.0117 C   0  0  0  0  0  0  0  0  0  0  0  0
  152.6284  139.7706  155.7229 O   0  0  0  0  0  0  0  0  0  0  0  0
  151.2305  139.8270  155.7599 N   0  0  0  0  0  0  0  0  0  0  0  0
  144.6311  138.4258  155.2526 H   0  0  0  0  0  0  0  0  0  0  0  0
  146.0884  139.1744  155.9007 H   0  0  0  0  0  0  0  0  0  0  0  0
  145.7526  137.4762  156.2247 H   0  0  0  0  0  0  0  0  0  0  0  0
  147.5041  137.6972  154.4776 H   0  0  0  0  0  0  0  0  0  0  0  0
  146.3803  135.6913  154.0325 H   0  0  0  0  0  0  0  0  0  0  0  0
  144.8691  136.5120  153.6248 H   0  0  0  0  0  0  0  0  0  0  0  0
  145.9116  136.0070  150.1871 H   0  0  0  0  0  0  0  0  0  0  0  0
  143.6847  134.9798  150.7412 H   0  0  0  0  0  0  0  0  0  0  0  0
  143.7207  136.6875  151.1155 H   0  0  0  0  0  0  0  0  0  0  0  0
  143.8676  135.5003  152.4124 H   0  0  0  0  0  0  0  0  0  0  0  0
  145.6974  133.5711  150.7842 H   0  0  0  0  0  0  0  0  0  0  0  0
  146.0767  133.9574  152.4588 H   0  0  0  0  0  0  0  0  0  0  0  0
  147.2785  134.2010  151.1916 H   0  0  0  0  0  0  0  0  0  0  0  0
  146.8100  138.3982  150.9651 H   0  0  0  0  0  0  0  0  0  0  0  0
  145.1292  138.2636  151.4559 H   0  0  0  0  0  0  0  0  0  0  0  0
  145.5720  139.6078  153.2370 H   0  0  0  0  0  0  0  0  0  0  0  0
  148.2763  139.4002  152.2548 H   0  0  0  0  0  0  0  0  0  0  0  0
  148.8917  138.1635  155.8550 H   0  0  0  0  0  0  0  0  0  0  0  0
  149.1368  137.7894  154.1543 H   0  0  0  0  0  0  0  0  0  0  0  0
  151.8577  137.0933  153.9888 H   0  0  0  0  0  0  0  0  0  0  0  0
  154.0531  138.5070  154.9041 H   0  0  0  0  0  0  0  0  0  0  0  0
  147.3420  136.5047  152.0973 H   0  0  0  0  0  0  0  0  0  0  0  0
  1  2  1  0  0  0  0
  1 20  1  0  0  0  0
  1 21  1  0  0  0  0
  1 22  1  0  0  0  0
  2  9  1  0  0  0  0
  2  3  1  0  0  0  0
  2 23  1  0  0  0  0
  3  4  1  0  0  0  0
  3 24  1  0  0  0  0
  3 25  1  0  0  0  0
  4  5  1  0  0  0  0
  4  8  1  0  0  0  0
  4 41  1  0  0  0  0
  5  6  1  0  0  0  0
  5  7  1  0  0  0  0
  5 26  1  0  0  0  0
  6 27  1  0  0  0  0
  6 28  1  0  0  0  0
  6 29  1  0  0  0  0
  7 30  1  0  0  0  0
  7 31  1  0  0  0  0
  7 32  1  0  0  0  0
  8  9  1  0  0  0  0
  8 33  1  0  0  0  0
  8 34  1  0  0  0  0
  9 10  1  0  0  0  0
  9 35  1  0  0  0  0
 10 11  1  0  0  0  0
 10 36  1  0  0  0  0
 11 12  2  0  0  0  0
 11 13  2  0  0  0  0
 11 14  1  0  0  0  0
 14 15  1  0  0  0  0
 14 37  1  0  0  0  0
 14 38  1  0  0  0  0
 15 19  2  0  0  0  0
 15 16  1  0  0  0  0
 16 17  2  0  0  0  0
 16 39  1  0  0  0  0
 17 18  1  0  0  0  0
 17 40  1  0  0  0  0
 18 19  1  0  0  0  0
M  CHG  1   4   1
M  END
> <s_m_source_file>
AV-unprocessed.smi

> <i_m_source_file_index>
686

> <i_lp_mmshare_version>
43012

> <i_f3d_flags>
0

> <s_epik_input>
W0NIM11bQ0BASF0xW0NIMl1OKFtDSF0oW0NIM10pW0NIM10pW0NIMl1bQ0BIXTFbTkhdUyg9TykoPU8pW0NIMl1jMltjSF1bY0hdb24y

> <s_epik_cmdline>
J2VwaWtfcHl0aG9uJywgJy1waCcsICc3LjAnLCAnLXRuJywgJzgnLCAnLW1hJywgJzIwMCcsICctbWV0YWxfYmluZGluZycsICctaW1hZScsICc8aW5maWxlLm1hZT4nLCAnLW9tYWUnLCAnPG91dGZpbGUubWFlPic=

> <r_epik_Ionization_Penalty>
0.00200818

> <r_epik_Ionization_Penalty_Charging>
0.000701289

> <r_epik_Ionization_Penalty_Neutral>
0.00130689

> <r_epik_State_Penalty>
0.00131314

> <r_epik_Charging_Adjusted_Penalty>
0.00201443

> <i_epik_Tot_Q>
1

> <i_epik_Tot_abs_Q>
1

> <r_epik_Metal_State_Penalty>
0.310831

> <b_epik_Metal_Only>
0

> <s_lp_Force_Field>
OPLS_2005

> <r_lp_Energy>
19.8293

> <b_lp_Chiralities_Consistent>
1

> <s_lp_Variant>
AV-unprocessed.smi:686-6

> <Gold.Version>
5.8.1

> <Gold.Id.Protein>
6NUR|6NUR_protein|mol2

> <Gold.PLP.Fitness>
44.1021

> <Gold.PLP.PLP>
-31.0360

> <Gold.PLP.part.hbond>
-6.3316

> <Gold.PLP.part.metal>
0.0000

> <Gold.PLP.part.buried>
-2.8167

> <Gold.PLP.part.nonpolar>
-24.8617

> <Gold.PLP.part.repulsive>
1.7300

> <Gold.PLP.ligand.clash>
0.0000

> <Gold.PLP.ligand.torsion>
1.0047

> <Gold.PLP.Chemscore.Hbond>
4.9701

> <Gold.PLP.Chemscore.CHOScore>
0.0000

> <Gold.PLP.Chemscore.Metal>
0.0000

> <Gold.Chemscore.Hbonds>
donor molecule, donor type, donor heavy atom, donor atom, acceptor molecule, acceptor atom, score
      L1  H     4    41       P1  7948  2.00
      L1  H    10    36       P1  7957  0.86
      P1  H  7989  7998       L1    12  0.25
      P1  H  7997  8008       L1    18  0.70
      P1  H  8011  8017       L1    12  0.41

> <Gold.PLP.Chemscore.Internal.Correction>
0.1651

> <Gold.Rescore>
     Score         DG    S(hbond)    S(metal)    S(lipo)     H(rot)  DE(clash)    DE(int)     intcor
     14.32     -20.73       3.79        0.00      63.85       1.91       0.76       5.65       ----

> <Gold.Chemscore.Fitness>
14.3166

> <Gold.Chemscore.DG>
-20.7260

> <Gold.Chemscore.ZeroCoef>
-5.4800

> <Gold.Chemscore.Hbond>
3.7929

> <Gold.Chemscore.Metal>
0.0000

> <Gold.Chemscore.Lipo>
63.8550

> <Gold.Chemscore.Internal_Hbond>
0.0000

> <Gold.Chemscore.DEClash>
0.7554

> <Gold.Chemscore.DEInternal>
5.6540

> <Gold.Chemscore.Rot>
1.9115

> <Gold.Chemscore.Internal.Correction>
   9.000000E+99

> <Gold.Chemscore.Hbonds>
donor molecule, donor type, donor heavy atom, donor atom, acceptor molecule, acceptor atom, score
      L1  H     4    41       P1  7948  1.00
      L1  H    10    36       P1  7957  0.87
      P1  H  7989  7998       L1    12  0.25
      P1  H  7997  8008       L1    18  0.07
      P1  H  8011  8017       L1    12  0.40

> <Gold.Chemscore.Hbond.Weighted>
-12.6684

> <Gold.Chemscore.Metal.Weighted>
-0.0000

> <Gold.Chemscore.Lipo.Weighted>
-7.4710

> <Gold.Chemscore.Internal_Hbond.Weighted>
0.0000

> <Gold.Chemscore.DEClash.Weighted>
0.7554

> <Gold.Chemscore.DEInternal.Weighted>
5.6540

> <Gold.Chemscore.Rot.Weighted>
4.8935

> <Gold.Chemscore.Internal.Correction.Weighted>
   9.000000E+99

> <Gold.Protein.RotatedTorsions>
[ 6907 6896 6895 6894 ] final  142.40 input  -60.11 | X-H torsion
[ 7974 7965 7964 7962 ] final -134.73 input  175.53 | X-H torsion
[ 8008 7997 7996 7995 ] final  -41.17 input   59.86 | X-H torsion
[ 10167 10162 10161 10158 ] final  -83.15 input  -65.29 | X-H torsion
[ 10718 10713 10712 10709 ] final  -39.31 input   66.30 | X-H torsion
[ 10763 10752 10751 10750 ] final  105.72 input  -60.55 | X-H torsion
[ 11005 11000 10999 10996 ] final  -13.06 input  -57.11 | X-H torsion

> <Gold.Protein.ActiveResidues>
 VAL166  LYS551  ARG553  GLY616  TRP617  ASP618  TYR619  PRO620  LYS621  CYS622 
 ASP623  PHE694  ASN695  SER759  ASP760  ASP761  ALA762  ILE779  LEU786  VAL792 
 PHE793  MET794  SER795  GLU796  ALA797  LYS798  CYS799  TRP800  GLU811  SER814 

> <Gold.Protein.RotatedAtoms>
  152.2192  133.4970  159.5152 H   0  0  0  0  0  0  0  0  0  0  0  0  # atno 6907 bound_to 6896
  150.7008  134.1365  159.4098 H   0  0  0  0  0  0  0  0  0  0  0  0  # atno 6908 bound_to 6896
  151.9286  135.0266  160.0578 H   0  0  0  0  0  0  0  0  0  0  0  0  # atno 6909 bound_to 6896
  144.9076  140.6854  143.5045 H   0  0  0  0  0  0  0  0  0  0  0  0  # atno 7974 bound_to 7965
  154.4006  140.1506  156.3146 H   0  0  0  0  0  0  0  0  0  0  0  0  # atno 8008 bound_to 7997
  155.8584  140.3454  155.5718 H   0  0  0  0  0  0  0  0  0  0  0  0  # atno 8009 bound_to 7997
  155.7907  140.0856  157.2001 H   0  0  0  0  0  0  0  0  0  0  0  0  # atno 8010 bound_to 7997
  140.4253  143.2569  151.8833 H   0  0  0  0  0  0  0  0  0  0  0  0  # atno 10167 bound_to 10162
  156.2938  130.4231  149.8211 H   0  0  0  0  0  0  0  0  0  0  0  0  # atno 10718 bound_to 10713
  153.3832  135.3900  155.1871 H   0  0  0  0  0  0  0  0  0  0  0  0  # atno 10763 bound_to 10752
  154.8710  135.3730  154.4831 H   0  0  0  0  0  0  0  0  0  0  0  0  # atno 10764 bound_to 10752
  153.5310  135.7086  153.5744 H   0  0  0  0  0  0  0  0  0  0  0  0  # atno 10765 bound_to 10752
  140.7722  133.8429  155.9217 H   0  0  0  0  0  0  0  0  0  0  0  0  # atno 11005 bound_to 11000
  145.3509  139.1706  143.4435 LP  0  0  0  0  0  0  0  0  0  0  0  0  # atno 17320 bound_to 7965
  146.3142  140.3560  142.8660 LP  0  0  0  0  0  0  0  0  0  0  0  0  # atno 17321 bound_to 7965
  139.4783  144.5393  151.8552 LP  0  0  0  0  0  0  0  0  0  0  0  0  # atno 17342 bound_to 10162
  140.4488  144.1885  150.5896 LP  0  0  0  0  0  0  0  0  0  0  0  0  # atno 17343 bound_to 10162
  156.5614  130.8385  151.3330 LP  0  0  0  0  0  0  0  0  0  0  0  0  # atno 17370 bound_to 10713
  157.7350  130.9755  150.2057 LP  0  0  0  0  0  0  0  0  0  0  0  0  # atno 17371 bound_to 10713
  140.9563  134.1714  157.4689 LP  0  0  0  0  0  0  0  0  0  0  0  0  # atno 17394 bound_to 11000
  139.8754  134.9928  156.5613 LP  0  0  0  0  0  0  0  0  0  0  0  0  # atno 17395 bound_to 11000

$$$$
