#       Name:                AV-unprocessed.smi:1665
#       Creating user name   scv26
#       Creation time:       Fri Mar 27 07:38:08 2020


#       File generated by GOLD software.
#

@<TRIPOS>MOLECULE
AV-unprocessed.smi:1665
    42    43     1
SMALL
NO_CHARGES


@<TRIPOS>ATOM
      1 ****        -2.3049  -2.2618   2.0368 C.3            1 S1                 0.0000
      2 ****        -1.7100  -1.3938   0.9167 C.3            1 S1                 0.0000
      3 ****        -2.1686  -1.8774  -0.4723 C.3            1 S1                 0.0000
      4 ****        -1.7074  -1.0101  -1.5423 N.pl3          1 S1                 0.0000
      5 ****        -2.2416   0.1892  -1.9634 C.2            1 S1                 0.0000
      6 ****        -1.4705   0.6357  -2.9979 C.2            1 S1                 0.0000
      7 ****        -0.4754  -0.3719  -3.1373 C.2            1 S1                 0.0000
      8 ****        -0.6179  -1.3539  -2.2628 N.2            1 S1                 0.0000
      9 ****        -0.2508  -1.4015   0.9925 N.am           1 S1                 0.0000
     10 ****         0.4901  -0.6151   1.7867 C.2            1 S1                 0.0000
     11 ****         0.0086   0.1691   2.6044 O.2            1 S1                 0.0000
     12 ****         2.0094  -0.7200   1.6220 C.3            1 S1                 0.0000
     13 ****         2.7018   0.6500   1.4522 C.3            1 S1                 0.0000
     14 ****         2.2115   1.4048   0.2962 N.am           1 S1                 0.0000
     15 ****         1.4746   2.6441   0.5024 C.3            1 S1                 0.0000
     16 ****         0.7984   2.9999  -0.8224 C.3            1 S1                 0.0000
     17 ****         1.7678   2.2426  -2.1419 S.3            1 S1                 0.0000
     18 ****         2.5168   1.0621  -1.0140 C.2            1 S1                 0.0000
     19 ****         3.1938   0.1144  -1.4082 O.2            1 S1                 0.0000
     20 ****        -3.3945  -2.2455   2.0065 H              1 S1                 0.0000
     21 ****        -2.0008  -1.9044   3.0211 H              1 S1                 0.0000
     22 ****        -1.9848  -3.3005   1.9463 H              1 S1                 0.0000
     23 ****        -2.0667  -0.3707   1.0518 H              1 S1                 0.0000
     24 ****        -1.8203  -2.8946  -0.6603 H              1 S1                 0.0000
     25 ****        -3.2579  -1.9101  -0.5159 H              1 S1                 0.0000
     26 ****        -3.1151   0.6197  -1.4964 H              1 S1                 0.0000
     27 ****        -1.5952   1.5450  -3.5669 H              1 S1                 0.0000
     28 ****         0.3447  -0.4150  -3.8388 H              1 S1                 0.0000
     29 ****         0.2325  -2.0130   0.3500 H              1 S1                 0.0000
     30 ****         2.4115  -1.2228   2.5020 H              1 S1                 0.0000
     31 ****         2.2451  -1.3628   0.7726 H              1 S1                 0.0000
     32 ****         2.5716   1.2448   2.3576 H              1 S1                 0.0000
     33 ****         3.7779   0.5039   1.3485 H              1 S1                 0.0000
     34 ****         0.7432   2.5495   1.3056 H              1 S1                 0.0000
     35 ****         2.1831   3.4226   0.7882 H              1 S1                 0.0000
     36 ****        -0.2034   2.5703  -0.8541 H              1 S1                 0.0000
     37 ****         0.7051   4.0765  -0.9653 H              1 S1                 0.0000
     38 ****        -0.0471  -2.1683  -2.1585 LP             1 S1                 0.0000
     39 ****        -0.9839   0.2432   2.7016 LP             1 S1                 0.0000
     40 ****         0.6099   0.7320   3.1714 LP             1 S1                 0.0000
     41 ****         3.5986  -0.5193  -0.7490 LP             1 S1                 0.0000
     42 ****         3.3395  -0.0227  -2.3880 LP             1 S1                 0.0000
@<TRIPOS>BOND
    1    1    2 1     
    2    1   20 1     
    3    1   21 1     
    4    1   22 1     
    5    2    3 1     
    6    2    9 1     
    7    2   23 1     
    8    3    4 1     
    9    3   24 1     
   10    3   25 1     
   11    4    8 1     
   12    4    5 1     
   13    5    6 2     
   14    5   26 1     
   15    6    7 1     
   16    6   27 1     
   17    7    8 2     
   18    7   28 1     
   19    9   10 am    
   20    9   29 1     
   21   10   11 2     
   22   10   12 1     
   23   12   13 1     
   24   12   30 1     
   25   12   31 1     
   26   13   14 1     
   27   13   32 1     
   28   13   33 1     
   29   14   18 am    
   30   14   15 1     
   31   15   16 1     
   32   15   34 1     
   33   15   35 1     
   34   16   17 1     
   35   16   36 1     
   36   16   37 1     
   37   17   18 1     
   38   18   19 2     
   39    8   38 1     
   40   11   39 1     
   41   11   40 1     
   42   19   41 1     
   43   19   42 1     
@<TRIPOS>SUBSTRUCTURE
      1 S1             1
@<TRIPOS>SET
LONE_PAIRS      STATIC     ATOMS    <user>   **** ""
5 38 39 40 41 42
DONOR_HYDROGENS      STATIC     ATOMS    <user>   **** ""
1 29
ATOM$BLUE        STATIC     ATOMS    COLORGROUP SYSTEM
5 38 39 40 41 42
ATOM$RED        STATIC     ATOMS    COLORGROUP SYSTEM
1 29
