AV-unprocessed.smi:215|AV-procd|sdf|1657|dock4
  -GOLD-   2262020 53D 1   1.00000     0.00000
 Structure written by MMmdl.
 59 62  0  0  0  0  0  0  0  0  2 V2000
  152.4101  136.3710  163.9349 C   0  0  0  0  0  0  0  0  0  0  0  0
  153.8142  136.3268  163.2909 C   0  0  1  0  0  0  0  0  0  0  0  0
  154.6620  135.1127  163.7261 C   0  0  1  0  0  0  0  0  0  0  0  0
  154.6367  134.8093  165.1883 N   0  3  1  0  0  0  0  0  0  0  0  0
  155.3149  133.5294  165.5175 C   0  0  0  0  0  0  0  0  0  0  0  0
  155.1486  135.9378  166.0153 C   0  0  0  0  0  0  0  0  0  0  0  0
  155.3974  135.5486  167.4845 C   0  0  0  0  0  0  0  0  0  0  0  0
  155.0692  136.6228  168.3392 O   0  0  0  0  0  0  0  0  0  0  0  0
  154.1274  134.0003  162.8081 C   0  0  0  0  0  0  0  0  0  0  0  0
  153.7750  134.7301  161.5060 C   0  0  0  0  0  0  0  0  0  0  0  0
  153.7243  136.1478  161.8479 N   0  0  0  0  0  0  0  0  0  0  0  0
  153.2265  137.0804  160.9906 C   0  0  0  0  0  0  0  0  0  0  0  0
  152.4371  136.6537  159.9694 N   0  0  0  0  0  0  0  0  0  0  0  0
  151.9122  137.5234  159.1025 C   0  0  0  0  0  0  0  0  0  0  0  0
  152.0528  138.8483  159.0645 N   0  0  0  0  0  0  0  0  0  0  0  0
  152.8571  139.2887  160.0732 C   0  0  0  0  0  0  0  0  0  0  0  0
  153.4777  138.4838  161.0733 C   0  0  0  0  0  0  0  0  0  0  0  0
  154.2123  139.2980  161.9295 N   0  0  0  0  0  0  0  0  0  0  0  0
  154.0260  140.5056  161.4735 C   0  0  0  0  0  0  0  0  0  0  0  0
  153.2473  140.5889  160.3429 N   0  0  0  0  0  0  0  0  0  0  0  0
  152.8528  141.7859  159.6597 C   0  0  0  0  0  0  0  0  0  0  0  0
  153.0093  143.1603  160.3149 C   0  0  0  0  0  0  0  0  0  0  0  0
  151.7512  143.6529  159.5645 C   0  0  0  0  0  0  0  0  0  0  0  0
  150.8222  144.5481  160.4032 C   0  0  0  0  0  0  0  0  0  0  0  0
  150.4937  143.9553  161.6426 O   0  0  0  0  0  0  0  0  0  0  0  0
  152.0584  144.3519  158.2230 C   0  0  0  0  0  0  0  0  0  0  0  0
  150.9300  145.0189  157.6953 O   0  0  0  0  0  0  0  0  0  0  0  0
  151.3773  142.1544  159.4921 C   0  0  0  0  0  0  0  0  0  0  0  0
  154.3598  137.2404  163.5195 H   0  0  0  0  0  0  0  0  0  0  0  0
  155.6999  135.3005  163.4428 H   0  0  0  0  0  0  0  0  0  0  0  0
  152.4703  136.5195  165.0116 H   0  0  0  0  0  0  0  0  0  0  0  0
  151.8490  135.4537  163.7567 H   0  0  0  0  0  0  0  0  0  0  0  0
  151.8168  137.1943  163.5378 H   0  0  0  0  0  0  0  0  0  0  0  0
  156.3575  133.5488  165.1977 H   0  0  0  0  0  0  0  0  0  0  0  0
  154.8265  132.6835  165.0347 H   0  0  0  0  0  0  0  0  0  0  0  0
  155.2955  133.3217  166.5859 H   0  0  0  0  0  0  0  0  0  0  0  0
  156.0675  136.3207  165.5687 H   0  0  0  0  0  0  0  0  0  0  0  0
  154.4469  136.7713  166.0094 H   0  0  0  0  0  0  0  0  0  0  0  0
  154.8435  134.6598  167.7826 H   0  0  0  0  0  0  0  0  0  0  0  0
  156.4536  135.3173  167.6258 H   0  0  0  0  0  0  0  0  0  0  0  0
  154.7277  137.3325  167.8157 H   0  0  0  0  0  0  0  0  0  0  0  0
  154.8489  133.1990  162.6448 H   0  0  0  0  0  0  0  0  0  0  0  0
  153.2244  133.5566  163.2299 H   0  0  0  0  0  0  0  0  0  0  0  0
  154.5486  134.5729  160.7536 H   0  0  0  0  0  0  0  0  0  0  0  0
  152.8263  134.3743  161.1024 H   0  0  0  0  0  0  0  0  0  0  0  0
  151.2912  137.0965  158.3286 H   0  0  0  0  0  0  0  0  0  0  0  0
  154.4610  141.3726  161.9495 H   0  0  0  0  0  0  0  0  0  0  0  0
  153.3557  141.7587  158.6917 H   0  0  0  0  0  0  0  0  0  0  0  0
  152.8784  143.1182  161.3980 H   0  0  0  0  0  0  0  0  0  0  0  0
  153.9328  143.6799  160.0571 H   0  0  0  0  0  0  0  0  0  0  0  0
  151.2984  145.5050  160.6189 H   0  0  0  0  0  0  0  0  0  0  0  0
  149.9021  144.7790  159.8654 H   0  0  0  0  0  0  0  0  0  0  0  0
  150.1043  144.6131  162.1977 H   0  0  0  0  0  0  0  0  0  0  0  0
  152.8694  145.0723  158.3322 H   0  0  0  0  0  0  0  0  0  0  0  0
  152.3931  143.6348  157.4732 H   0  0  0  0  0  0  0  0  0  0  0  0
  150.7486  144.6701  156.8362 H   0  0  0  0  0  0  0  0  0  0  0  0
  150.9367  141.8312  158.5484 H   0  0  0  0  0  0  0  0  0  0  0  0
  150.7656  141.8319  160.3371 H   0  0  0  0  0  0  0  0  0  0  0  0
  153.6630  134.6958  165.4337 H   0  0  0  0  0  0  0  0  0  0  0  0
  1  2  1  0  0  0  0
  1 31  1  0  0  0  0
  1 32  1  0  0  0  0
  1 33  1  0  0  0  0
  2 29  1  0  0  0  0
  2 11  1  0  0  0  0
  2  3  1  0  0  0  0
  3 30  1  0  0  0  0
  3  4  1  0  0  0  0
  3  9  1  0  0  0  0
  4  5  1  0  0  0  0
  4  6  1  0  0  0  0
  4 59  1  0  0  0  0
  5 34  1  0  0  0  0
  5 35  1  0  0  0  0
  5 36  1  0  0  0  0
  6  7  1  0  0  0  0
  6 37  1  0  0  0  0
  6 38  1  0  0  0  0
  7  8  1  0  0  0  0
  7 39  1  0  0  0  0
  7 40  1  0  0  0  0
  8 41  1  0  0  0  0
  9 10  1  0  0  0  0
  9 42  1  0  0  0  0
  9 43  1  0  0  0  0
 10 11  1  0  0  0  0
 10 44  1  0  0  0  0
 10 45  1  0  0  0  0
 11 12  1  0  0  0  0
 12 17  1  0  0  0  0
 12 13  2  0  0  0  0
 13 14  1  0  0  0  0
 14 15  2  0  0  0  0
 14 46  1  0  0  0  0
 15 16  1  0  0  0  0
 16 20  1  0  0  0  0
 16 17  2  0  0  0  0
 17 18  1  0  0  0  0
 18 19  2  0  0  0  0
 19 20  1  0  0  0  0
 19 47  1  0  0  0  0
 20 21  1  0  0  0  0
 21 28  1  0  0  0  0
 21 22  1  0  0  0  0
 21 48  1  0  0  0  0
 22 23  1  0  0  0  0
 22 49  1  0  0  0  0
 22 50  1  0  0  0  0
 23 24  1  0  0  0  0
 23 26  1  0  0  0  0
 23 28  1  0  0  0  0
 24 25  1  0  0  0  0
 24 51  1  0  0  0  0
 24 52  1  0  0  0  0
 25 53  1  0  0  0  0
 26 27  1  0  0  0  0
 26 54  1  0  0  0  0
 26 55  1  0  0  0  0
 27 56  1  0  0  0  0
 28 57  1  0  0  0  0
 28 58  1  0  0  0  0
M  CHG  1   4   1
M  END
> <s_m_source_file>
AV-unprocessed.smi

> <i_m_source_file_index>
215

> <i_lp_mmshare_version>
43012

> <i_f3d_flags>
0

> <s_epik_input>
W09IXVtDSDJdW0NIMl1OKFtDSDNdKVtDQEBIXShbQ0BIXTFbQ0gzXSlbQ0gyXVtDSDJdTjFjKG5bY0hdbjIpYyhjMjMpbltjSF1uM1tDSF0oW0NIMl00KVtDSDJdQzQoW0NIMl1bT0hdKVtDSDJdW09IXQ==

> <s_epik_cmdline>
J2VwaWtfcHl0aG9uJywgJy1waCcsICc3LjAnLCAnLXRuJywgJzgnLCAnLW1hJywgJzIwMCcsICctbWV0YWxfYmluZGluZycsICctaW1hZScsICc8aW5maWxlLm1hZT4nLCAnLW9tYWUnLCAnPG91dGZpbGUubWFlPic=

> <r_lp_tautomer_probability>
1

> <r_epik_Ionization_Penalty>
0.0036237

> <r_epik_Ionization_Penalty_Charging>
0.0032725

> <r_epik_Ionization_Penalty_Neutral>
0.000351196

> <r_epik_State_Penalty>
-0

> <r_epik_Charging_Adjusted_Penalty>
0.0032725

> <i_epik_Tot_Q>
1

> <i_epik_Tot_abs_Q>
1

> <r_epik_Metal_State_Penalty>
-0

> <b_epik_Metal_Only>
0

> <s_lp_Force_Field>
OPLS_2005

> <r_lp_Energy>
65.1718

> <b_lp_Chiralities_Consistent>
1

> <s_lp_Variant>
AV-unprocessed.smi:215-8

> <Gold.Version>
5.8.1

> <Gold.Id.Protein>
6NUR|6NUR_protein|mol2

> <Gold.PLP.Fitness>
52.9160

> <Gold.PLP.PLP>
-49.2262

> <Gold.PLP.part.hbond>
-6.1555

> <Gold.PLP.part.metal>
0.0000

> <Gold.PLP.part.buried>
-5.2097

> <Gold.PLP.part.nonpolar>
-38.6551

> <Gold.PLP.part.repulsive>
0.0000

> <Gold.PLP.ligand.clash>
0.0000

> <Gold.PLP.ligand.torsion>
1.4728

> <Gold.PLP.Chemscore.Hbond>
1.9440

> <Gold.PLP.Chemscore.CHOScore>
0.0000

> <Gold.PLP.Chemscore.Metal>
0.0000

> <Gold.Chemscore.Hbonds>
donor molecule, donor type, donor heavy atom, donor atom, acceptor molecule, acceptor atom, score
      L1  H    27    56       P1  8028  0.38
      P1  H  6896  6907       L1    13  1.00
      P1  H  6933  6945       L1    25  0.04

> <Gold.PLP.Chemscore.Internal.Correction>
0.8035

> <Gold.Rescore>
     Score         DG    S(hbond)    S(metal)    S(lipo)     H(rot)  DE(clash)    DE(int)     intcor
      7.70     -11.03       1.66        0.00      98.10       4.48       1.63       1.70       ----

> <Gold.Chemscore.Fitness>
7.6961

> <Gold.Chemscore.DG>
-11.0340

> <Gold.Chemscore.ZeroCoef>
-5.4800

> <Gold.Chemscore.Hbond>
1.6592

> <Gold.Chemscore.Metal>
0.0000

> <Gold.Chemscore.Lipo>
98.1001

> <Gold.Chemscore.Internal_Hbond>
0.0000

> <Gold.Chemscore.DEClash>
1.6335

> <Gold.Chemscore.DEInternal>
1.7045

> <Gold.Chemscore.Rot>
4.4787

> <Gold.Chemscore.Internal.Correction>
   9.000000E+99

> <Gold.Chemscore.Hbonds>
donor molecule, donor type, donor heavy atom, donor atom, acceptor molecule, acceptor atom, score
      L1  H    27    56       P1  8028  0.34
      P1  H  6896  6907       L1    13  0.93
      P1  H  6933  6945       L1    25  0.04

> <Gold.Chemscore.Hbond.Weighted>
-5.5418

> <Gold.Chemscore.Metal.Weighted>
-0.0000

> <Gold.Chemscore.Lipo.Weighted>
-11.4777

> <Gold.Chemscore.Internal_Hbond.Weighted>
0.0000

> <Gold.Chemscore.DEClash.Weighted>
1.6335

> <Gold.Chemscore.DEInternal.Weighted>
1.7045

> <Gold.Chemscore.Rot.Weighted>
11.4655

> <Gold.Chemscore.Internal.Correction.Weighted>
   9.000000E+99

> <Gold.Protein.RotatedTorsions>
[ 6907 6896 6895 6894 ] final   16.73 input  -60.11 | X-H torsion
[ 7974 7965 7964 7962 ] final   67.21 input  175.53 | X-H torsion
[ 8008 7997 7996 7995 ] final   79.04 input   59.86 | X-H torsion
[ 10167 10162 10161 10158 ] final -116.57 input  -65.29 | X-H torsion
[ 10718 10713 10712 10709 ] final  100.93 input   66.30 | X-H torsion
[ 10763 10752 10751 10750 ] final    1.64 input  -60.55 | X-H torsion
[ 11005 11000 10999 10996 ] final -174.43 input  -57.11 | X-H torsion

> <Gold.Protein.ActiveResidues>
 VAL166  LYS551  ARG553  GLY616  TRP617  ASP618  TYR619  PRO620  LYS621  CYS622 
 ASP623  PHE694  ASN695  SER759  ASP760  ASP761  ALA762  ILE779  LEU786  VAL792 
 PHE793  MET794  SER795  GLU796  ALA797  LYS798  CYS799  TRP800  GLU811  SER814 

> <Gold.Protein.RotatedAtoms>
  151.8384  135.0598  160.0444 H   0  0  0  0  0  0  0  0  0  0  0  0  # atno 6907 bound_to 6896
  152.2827  133.5481  159.5516 H   0  0  0  0  0  0  0  0  0  0  0  0  # atno 6908 bound_to 6896
  150.7196  134.0457  159.3823 H   0  0  0  0  0  0  0  0  0  0  0  0  # atno 6909 bound_to 6896
  145.8174  139.3065  143.1063 H   0  0  0  0  0  0  0  0  0  0  0  0  # atno 7974 bound_to 7965
  155.8642  140.3452  155.5776 H   0  0  0  0  0  0  0  0  0  0  0  0  # atno 8008 bound_to 7997
  155.7900  140.0870  157.2033 H   0  0  0  0  0  0  0  0  0  0  0  0  # atno 8009 bound_to 7997
  154.4013  140.1485  156.3139 H   0  0  0  0  0  0  0  0  0  0  0  0  # atno 8010 bound_to 7997
  140.0777  143.4817  152.1943 H   0  0  0  0  0  0  0  0  0  0  0  0  # atno 10167 bound_to 10162
  157.6842  131.0712  150.5176 H   0  0  0  0  0  0  0  0  0  0  0  0  # atno 10718 bound_to 10713
  153.3055  135.6959  153.7164 H   0  0  0  0  0  0  0  0  0  0  0  0  # atno 10763 bound_to 10752
  153.6061  135.3453  155.2963 H   0  0  0  0  0  0  0  0  0  0  0  0  # atno 10764 bound_to 10752
  154.8562  135.4352  154.2178 H   0  0  0  0  0  0  0  0  0  0  0  0  # atno 10765 bound_to 10752
  140.4746  134.6132  157.4896 H   0  0  0  0  0  0  0  0  0  0  0  0  # atno 11005 bound_to 11000
  145.9712  140.8758  143.0161 LP  0  0  0  0  0  0  0  0  0  0  0  0  # atno 17320 bound_to 7965
  144.6751  140.1948  143.7393 LP  0  0  0  0  0  0  0  0  0  0  0  0  # atno 17321 bound_to 7965
  139.5798  144.7505  151.3670 LP  0  0  0  0  0  0  0  0  0  0  0  0  # atno 17342 bound_to 10162
  140.7093  143.7431  150.7538 LP  0  0  0  0  0  0  0  0  0  0  0  0  # atno 17343 bound_to 10162
  156.5490  130.4227  149.6117 LP  0  0  0  0  0  0  0  0  0  0  0  0  # atno 17370 bound_to 10713
  156.2919  130.7129  151.1979 LP  0  0  0  0  0  0  0  0  0  0  0  0  # atno 17371 bound_to 10713
  139.9864  134.7055  155.9767 LP  0  0  0  0  0  0  0  0  0  0  0  0  # atno 17394 bound_to 11000
  141.1560  133.6543  156.4164 LP  0  0  0  0  0  0  0  0  0  0  0  0  # atno 17395 bound_to 11000

$$$$
