AV-unprocessed.smi:153|AV-procd|sdf|1260|dock6
  -GOLD-   2262018503D 1   1.00000     0.00000
 Structure written by MMmdl.
 59 62  0  0  0  0  0  0  0  0  1 V2000
  152.7728  142.5167  160.3023 C   0  0  0  0  0  0  0  0  0  0  0  0
  152.6713  142.8039  158.7914 C   0  0  2  0  0  0  0  0  0  0  0  0
  152.8416  144.2055  158.6095 O   0  0  0  0  0  0  0  0  0  0  0  0
  151.5768  144.8619  158.5883 C   0  0  0  0  0  0  0  0  0  0  0  0
  150.5156  143.7631  158.4871 C   0  0  0  0  0  0  0  0  0  0  0  0
  151.3030  142.5014  158.1448 C   0  0  2  0  0  0  0  0  0  0  0  0
  150.6777  141.3788  158.7390 O   0  0  0  0  0  0  0  0  0  0  0  0
  151.3820  142.1970  156.6231 C   0  0  0  0  0  0  0  0  0  0  0  0
  150.7426  140.9566  156.2111 N   0  0  0  0  0  0  0  0  0  0  0  0
  149.4249  140.7878  155.8592 C   0  0  0  0  0  0  0  0  0  0  0  0
  149.0909  139.5693  155.5407 N   0  0  0  0  0  0  0  0  0  0  0  0
  150.2654  138.8330  155.6646 C   0  0  0  0  0  0  0  0  0  0  0  0
  150.6215  137.4584  155.4804 C   0  0  0  0  0  0  0  0  0  0  0  0
  149.7596  136.4570  155.1261 N   0  0  0  0  0  0  0  0  0  0  0  0
  150.2861  135.1021  154.9698 C   0  0  0  0  0  0  0  0  0  0  0  0
  148.3288  136.5795  155.4024 C   0  0  0  0  0  0  0  0  0  0  0  0
  148.0081  136.6240  156.9147 C   0  0  2  0  0  0  0  0  0  0  0  0
  147.7376  137.9505  157.3194 O   0  0  0  0  0  0  0  0  0  0  0  0
  149.1193  136.0331  157.8113 C   0  0  0  0  0  0  0  0  0  0  0  0
  148.7208  135.5718  159.1439 N   0  0  0  0  0  0  0  0  0  0  0  0
  147.7212  134.5131  159.0483 C   0  0  0  0  0  0  0  0  0  0  0  0
  147.2887  134.0006  160.4327 C   0  0  0  0  0  0  0  0  0  0  0  0
  146.7978  135.0877  161.2099 O   0  0  0  0  0  0  0  0  0  0  0  0
  147.7588  136.1260  161.3681 C   0  0  0  0  0  0  0  0  0  0  0  0
  148.1951  136.6437  159.9864 C   0  0  0  0  0  0  0  0  0  0  0  0
  151.9292  137.1392  155.6853 N   0  0  0  0  0  0  0  0  0  0  0  0
  152.8171  138.0643  156.0549 C   0  0  0  0  0  0  0  0  0  0  0  0
  152.6211  139.3626  156.2774 N   0  0  0  0  0  0  0  0  0  0  0  0
  151.3195  139.7062  156.0682 C   0  0  0  0  0  0  0  0  0  0  0  0
  152.6915  141.4498  160.5104 H   0  0  0  0  0  0  0  0  0  0  0  0
  151.9935  143.0282  160.8675 H   0  0  0  0  0  0  0  0  0  0  0  0
  153.7345  142.8502  160.6924 H   0  0  0  0  0  0  0  0  0  0  0  0
  153.4738  142.2650  158.2877 H   0  0  0  0  0  0  0  0  0  0  0  0
  151.4429  145.4563  159.4922 H   0  0  0  0  0  0  0  0  0  0  0  0
  151.5382  145.5384  157.7342 H   0  0  0  0  0  0  0  0  0  0  0  0
  150.0329  143.6570  159.4601 H   0  0  0  0  0  0  0  0  0  0  0  0
  149.7303  143.9925  157.7674 H   0  0  0  0  0  0  0  0  0  0  0  0
  151.1730  141.1299  159.5046 H   0  0  0  0  0  0  0  0  0  0  0  0
  150.9246  143.0107  156.0583 H   0  0  0  0  0  0  0  0  0  0  0  0
  152.4245  142.1605  156.3039 H   0  0  0  0  0  0  0  0  0  0  0  0
  148.7105  141.5980  155.8560 H   0  0  0  0  0  0  0  0  0  0  0  0
  151.0719  135.0753  154.2140 H   0  0  0  0  0  0  0  0  0  0  0  0
  149.5055  134.4100  154.6542 H   0  0  0  0  0  0  0  0  0  0  0  0
  150.6942  134.7362  155.9127 H   0  0  0  0  0  0  0  0  0  0  0  0
  147.9392  137.4559  154.8903 H   0  0  0  0  0  0  0  0  0  0  0  0
  147.7960  135.7491  154.9376 H   0  0  0  0  0  0  0  0  0  0  0  0
  147.1035  136.0505  157.1203 H   0  0  0  0  0  0  0  0  0  0  0  0
  147.7350  138.5013  156.5518 H   0  0  0  0  0  0  0  0  0  0  0  0
  149.6490  135.2411  157.2795 H   0  0  0  0  0  0  0  0  0  0  0  0
  149.8548  136.8280  157.9444 H   0  0  0  0  0  0  0  0  0  0  0  0
  146.8450  134.8793  158.5108 H   0  0  0  0  0  0  0  0  0  0  0  0
  148.1181  133.6806  158.4663 H   0  0  0  0  0  0  0  0  0  0  0  0
  146.5034  133.2514  160.3315 H   0  0  0  0  0  0  0  0  0  0  0  0
  148.1242  133.5232  160.9469 H   0  0  0  0  0  0  0  0  0  0  0  0
  147.3192  136.9332  161.9541 H   0  0  0  0  0  0  0  0  0  0  0  0
  148.6174  135.7531  161.9290 H   0  0  0  0  0  0  0  0  0  0  0  0
  148.9495  137.4157  160.1316 H   0  0  0  0  0  0  0  0  0  0  0  0
  147.3467  137.1210  159.4934 H   0  0  0  0  0  0  0  0  0  0  0  0
  153.8280  137.7119  156.1966 H   0  0  0  0  0  0  0  0  0  0  0  0
  1  2  1  0  0  0  0
  1 30  1  0  0  0  0
  1 31  1  0  0  0  0
  1 32  1  0  0  0  0
  2  6  1  0  0  0  0
  2  3  1  0  0  0  0
  2 33  1  0  0  0  0
  3  4  1  0  0  0  0
  4  5  1  0  0  0  0
  4 34  1  0  0  0  0
  4 35  1  0  0  0  0
  5  6  1  0  0  0  0
  5 36  1  0  0  0  0
  5 37  1  0  0  0  0
  6  7  1  0  0  0  0
  6  8  1  0  0  0  0
  7 38  1  0  0  0  0
  8  9  1  0  0  0  0
  8 39  1  0  0  0  0
  8 40  1  0  0  0  0
  9 29  1  0  0  0  0
  9 10  1  0  0  0  0
 10 11  2  0  0  0  0
 10 41  1  0  0  0  0
 11 12  1  0  0  0  0
 12 29  2  0  0  0  0
 12 13  1  0  0  0  0
 13 14  1  0  0  0  0
 13 26  2  0  0  0  0
 14 15  1  0  0  0  0
 14 16  1  0  0  0  0
 15 42  1  0  0  0  0
 15 43  1  0  0  0  0
 15 44  1  0  0  0  0
 16 17  1  0  0  0  0
 16 45  1  0  0  0  0
 16 46  1  0  0  0  0
 17 18  1  0  0  0  0
 17 19  1  0  0  0  0
 17 47  1  0  0  0  0
 18 48  1  0  0  0  0
 19 20  1  0  0  0  0
 19 49  1  0  0  0  0
 19 50  1  0  0  0  0
 20 25  1  0  0  0  0
 20 21  1  0  0  0  0
 21 22  1  0  0  0  0
 21 51  1  0  0  0  0
 21 52  1  0  0  0  0
 22 23  1  0  0  0  0
 22 53  1  0  0  0  0
 22 54  1  0  0  0  0
 23 24  1  0  0  0  0
 24 25  1  0  0  0  0
 24 55  1  0  0  0  0
 24 56  1  0  0  0  0
 25 57  1  0  0  0  0
 25 58  1  0  0  0  0
 26 27  1  0  0  0  0
 27 28  2  0  0  0  0
 27 59  1  0  0  0  0
 28 29  1  0  0  0  0
M  END
> <s_m_source_file>
AV-unprocessed.smi

> <i_m_source_file_index>
153

> <i_lp_mmshare_version>
43012

> <i_f3d_flags>
0

> <s_epik_input>
W0NIMl0xW0NIMl1PW0NAQEhdKFtDSDNdKVtDQEBdMShbT0hdKVtDSDJdbihbY0hdbjIpYyhjMjMpbltjSF1uYzNOKFtDSDNdKVtDSDJdW0NASF0oW09IXSlbQ0gyXU40W0NIMl1bQ0gyXU9bQ0gyXVtDSDJdNA==

> <s_epik_cmdline>
J2VwaWtfcHl0aG9uJywgJy1waCcsICc3LjAnLCAnLXRuJywgJzgnLCAnLW1hJywgJzIwMCcsICctbWV0YWxfYmluZGluZycsICctaW1hZScsICc8aW5maWxlLm1hZT4nLCAnLW9tYWUnLCAnPG91dGZpbGUubWFlPic=

> <r_lp_tautomer_probability>
1

> <r_epik_Ionization_Penalty>
0.424123

> <r_epik_Ionization_Penalty_Charging>
0

> <r_epik_Ionization_Penalty_Neutral>
0.424123

> <r_epik_State_Penalty>
0.421495

> <r_epik_Charging_Adjusted_Penalty>
0.421495

> <i_epik_Tot_Q>
0

> <i_epik_Tot_abs_Q>
0

> <r_epik_Metal_State_Penalty>
0.421223

> <b_epik_Metal_Only>
0

> <s_lp_Force_Field>
OPLS_2005

> <r_lp_Energy>
59.2369

> <b_lp_Chiralities_Consistent>
1

> <s_lp_Variant>
AV-unprocessed.smi:153-11

> <Gold.Version>
5.8.1

> <Gold.Id.Protein>
6NUR|6NUR_protein|mol2

> <Gold.PLP.Fitness>
47.2364

> <Gold.PLP.PLP>
-43.2747

> <Gold.PLP.part.hbond>
-3.0000

> <Gold.PLP.part.metal>
0.0000

> <Gold.PLP.part.buried>
-8.6933

> <Gold.PLP.part.nonpolar>
-33.0538

> <Gold.PLP.part.repulsive>
0.0648

> <Gold.PLP.ligand.clash>
0.0000

> <Gold.PLP.ligand.torsion>
2.5647

> <Gold.PLP.Chemscore.Hbond>
2.8596

> <Gold.PLP.Chemscore.CHOScore>
0.0000

> <Gold.PLP.Chemscore.Metal>
0.0000

> <Gold.Chemscore.Hbonds>
donor molecule, donor type, donor heavy atom, donor atom, acceptor molecule, acceptor atom, score
      P1  H  6896  6907       L1    20  0.36
      P1  H  7997  8010       L1    28  1.00
      P1  H 10752 10765       L1    26  0.81

> <Gold.PLP.Chemscore.Internal.Correction>
0.5125

> <Gold.Rescore>
     Score         DG    S(hbond)    S(metal)    S(lipo)     H(rot)  DE(clash)    DE(int)     intcor
      9.90     -14.18       1.72        0.00     102.30       3.52       1.67       2.61       ----

> <Gold.Chemscore.Fitness>
9.9009

> <Gold.Chemscore.DG>
-14.1791

> <Gold.Chemscore.ZeroCoef>
-5.4800

> <Gold.Chemscore.Hbond>
1.7166

> <Gold.Chemscore.Metal>
0.0000

> <Gold.Chemscore.Lipo>
102.3017

> <Gold.Chemscore.Internal_Hbond>
0.0000

> <Gold.Chemscore.DEClash>
1.6686

> <Gold.Chemscore.DEInternal>
2.6095

> <Gold.Chemscore.Rot>
3.5170

> <Gold.Chemscore.Internal.Correction>
   9.000000E+99

> <Gold.Chemscore.Hbonds>
donor molecule, donor type, donor heavy atom, donor atom, acceptor molecule, acceptor atom, score
      P1  H  6896  6907       L1    20  0.02
      P1  H  7997  8010       L1    28  0.49
      P1  H 10752 10765       L1    26  0.46

> <Gold.Chemscore.Hbond.Weighted>
-5.7333

> <Gold.Chemscore.Metal.Weighted>
-0.0000

> <Gold.Chemscore.Lipo.Weighted>
-11.9693

> <Gold.Chemscore.Internal_Hbond.Weighted>
0.0000

> <Gold.Chemscore.DEClash.Weighted>
1.6686

> <Gold.Chemscore.DEInternal.Weighted>
2.6095

> <Gold.Chemscore.Rot.Weighted>
9.0036

> <Gold.Chemscore.Internal.Correction.Weighted>
   9.000000E+99

> <Gold.Protein.RotatedTorsions>
[ 6907 6896 6895 6894 ] final  -69.48 input  -60.11 | X-H torsion
[ 7974 7965 7964 7962 ] final   -1.89 input  175.53 | X-H torsion
[ 8008 7997 7996 7995 ] final   59.86 input   59.86 | X-H torsion
[ 10167 10162 10161 10158 ] final -175.58 input  -65.29 | X-H torsion
[ 10718 10713 10712 10709 ] final -127.04 input   66.30 | X-H torsion
[ 10763 10752 10751 10750 ] final -171.84 input  -60.55 | X-H torsion
[ 11005 11000 10999 10996 ] final  -74.15 input  -57.11 | X-H torsion

> <Gold.Protein.ActiveResidues>
 VAL166  LYS551  ARG553  GLY616  TRP617  ASP618  TYR619  PRO620  LYS621  CYS622 
 ASP623  PHE694  ASN695  SER759  ASP760  ASP761  ALA762  ILE779  LEU786  VAL792 
 PHE793  MET794  SER795  GLU796  ALA797  LYS798  CYS799  TRP800  GLU811  SER814 

> <Gold.Protein.RotatedAtoms>
  150.7303  134.5590  159.5832 H   0  0  0  0  0  0  0  0  0  0  0  0  # atno 6907 bound_to 6896
  152.3058  134.7553  160.0356 H   0  0  0  0  0  0  0  0  0  0  0  0  # atno 6908 bound_to 6896
  151.8118  133.3347  159.3594 H   0  0  0  0  0  0  0  0  0  0  0  0  # atno 6909 bound_to 6896
  146.2411  140.1489  142.8334 H   0  0  0  0  0  0  0  0  0  0  0  0  # atno 7974 bound_to 7965
  155.5730  140.3490  155.4520 H   0  0  0  0  0  0  0  0  0  0  0  0  # atno 8008 bound_to 7997
  156.0430  140.1300  157.0160 H   0  0  0  0  0  0  0  0  0  0  0  0  # atno 8009 bound_to 7997
  154.4400  140.1020  156.6250 H   0  0  0  0  0  0  0  0  0  0  0  0  # atno 8010 bound_to 7997
  139.5573  144.1956  152.1181 H   0  0  0  0  0  0  0  0  0  0  0  0  # atno 10167 bound_to 10162
  156.1820  130.6738  151.0316 H   0  0  0  0  0  0  0  0  0  0  0  0  # atno 10718 bound_to 10713
  154.6260  135.2881  155.0271 H   0  0  0  0  0  0  0  0  0  0  0  0  # atno 10763 bound_to 10752
  154.1449  135.6513  153.4954 H   0  0  0  0  0  0  0  0  0  0  0  0  # atno 10764 bound_to 10752
  153.0257  135.5341  154.7069 H   0  0  0  0  0  0  0  0  0  0  0  0  # atno 10765 bound_to 10752
  141.1631  133.6902  156.7320 H   0  0  0  0  0  0  0  0  0  0  0  0  # atno 11005 bound_to 11000
  145.0184  140.8773  143.5181 LP  0  0  0  0  0  0  0  0  0  0  0  0  # atno 17320 bound_to 7965
  145.1533  139.2501  143.5429 LP  0  0  0  0  0  0  0  0  0  0  0  0  # atno 17321 bound_to 7965
  140.1463  144.5156  150.6714 LP  0  0  0  0  0  0  0  0  0  0  0  0  # atno 17342 bound_to 10162
  140.6848  143.2344  151.5288 LP  0  0  0  0  0  0  0  0  0  0  0  0  # atno 17343 bound_to 10162
  157.6874  131.0820  150.7204 LP  0  0  0  0  0  0  0  0  0  0  0  0  # atno 17370 bound_to 10713
  156.7261  130.4695  149.5511 LP  0  0  0  0  0  0  0  0  0  0  0  0  # atno 17371 bound_to 10713
  140.2738  134.8371  157.3871 LP  0  0  0  0  0  0  0  0  0  0  0  0  # atno 17394 bound_to 11000
  140.1497  134.4866  155.7970 LP  0  0  0  0  0  0  0  0  0  0  0  0  # atno 17395 bound_to 11000

$$$$
