AV-unprocessed.smi:549|AV-procd|sdf|2893|dock3
  -GOLD-   2262023383D 1   1.00000     0.00000
 Structure written by MMmdl.
 44 45  0  0  0  0  0  0  0  0  2 V2000
  143.6345  132.7625  158.5418 C   0  0  0  0  0  0  0  0  0  0  0  0
  143.9335  132.7182  157.1206 N   0  0  0  0  0  0  0  0  0  0  0  0
  144.9226  133.5469  156.5756 C   0  0  0  0  0  0  0  0  0  0  0  0
  145.6962  134.4645  157.3246 C   0  0  0  0  0  0  0  0  0  0  0  0
  146.6678  135.2480  156.6681 C   0  0  0  0  0  0  0  0  0  0  0  0
  146.8534  135.1165  155.2752 C   0  0  0  0  0  0  0  0  0  0  0  0
  147.8551  135.9186  154.6629 N   0  0  0  0  0  0  0  0  0  0  0  0
  148.5768  136.9170  155.2013 C   0  0  0  0  0  0  0  0  0  0  0  0
  148.5110  137.2920  156.3715 O   0  0  0  0  0  0  0  0  0  0  0  0
  149.4089  137.4565  154.2991 N   0  0  0  0  0  0  0  0  0  0  0  0
  150.3315  138.5577  154.5613 C   0  0  0  0  0  0  0  0  0  0  0  0
  151.4558  138.0863  155.4951 C   0  0  0  0  0  0  0  0  0  0  0  0
  152.4189  139.2366  155.8385 C   0  0  0  0  0  0  0  0  0  0  0  0
  151.7004  140.4048  156.3862 N   0  0  0  0  0  0  0  0  0  0  0  0
  151.6979  140.6983  158.1017 S   0  0  0  0  0  0  0  0  0  0  0  0
  151.5693  142.5277  158.2441 C   0  0  0  0  0  0  0  0  0  0  0  0
  150.4705  140.1079  158.6572 O   0  0  0  0  0  0  0  0  0  0  0  0
  153.0079  140.2880  158.6301 O   0  0  0  0  0  0  0  0  0  0  0  0
  150.5780  140.8837  155.5544 C   0  0  0  0  0  0  0  0  0  0  0  0
  149.6007  139.7469  155.2077 C   0  0  0  0  0  0  0  0  0  0  0  0
  146.0562  134.1752  154.5791 C   0  0  0  0  0  0  0  0  0  0  0  0
  145.1378  133.4430  155.2461 N   0  3  0  0  0  0  0  0  0  0  0  0
  142.8479  132.0455  158.7773 H   0  0  0  0  0  0  0  0  0  0  0  0
  143.2895  133.7547  158.8341 H   0  0  0  0  0  0  0  0  0  0  0  0
  144.5150  132.5066  159.1319 H   0  0  0  0  0  0  0  0  0  0  0  0
  143.4014  132.0998  156.5254 H   0  0  0  0  0  0  0  0  0  0  0  0
  145.5608  134.5772  158.3899 H   0  0  0  0  0  0  0  0  0  0  0  0
  147.2634  135.9487  157.2352 H   0  0  0  0  0  0  0  0  0  0  0  0
  148.0749  135.6813  153.7065 H   0  0  0  0  0  0  0  0  0  0  0  0
  149.4024  137.0843  153.3607 H   0  0  0  0  0  0  0  0  0  0  0  0
  150.7796  138.8809  153.6195 H   0  0  0  0  0  0  0  0  0  0  0  0
  151.0312  137.6726  156.4093 H   0  0  0  0  0  0  0  0  0  0  0  0
  152.0140  137.2756  155.0253 H   0  0  0  0  0  0  0  0  0  0  0  0
  153.1816  138.8966  156.5386 H   0  0  0  0  0  0  0  0  0  0  0  0
  152.9475  139.5502  154.9375 H   0  0  0  0  0  0  0  0  0  0  0  0
  151.5656  142.8019  159.2988 H   0  0  0  0  0  0  0  0  0  0  0  0
  150.6432  142.8717  157.7872 H   0  0  0  0  0  0  0  0  0  0  0  0
  152.4231  142.9989  157.7606 H   0  0  0  0  0  0  0  0  0  0  0  0
  150.0527  141.6963  156.0555 H   0  0  0  0  0  0  0  0  0  0  0  0
  150.9868  141.3040  154.6347 H   0  0  0  0  0  0  0  0  0  0  0  0
  148.8329  140.1279  154.5334 H   0  0  0  0  0  0  0  0  0  0  0  0
  149.0784  139.4180  156.1055 H   0  0  0  0  0  0  0  0  0  0  0  0
  146.1179  133.9643  153.5223 H   0  0  0  0  0  0  0  0  0  0  0  0
  144.5798  132.7743  154.7145 H   0  0  0  0  0  0  0  0  0  0  0  0
  1  2  1  0  0  0  0
  1 23  1  0  0  0  0
  1 24  1  0  0  0  0
  1 25  1  0  0  0  0
  2  3  1  0  0  0  0
  2 26  1  0  0  0  0
  3 22  1  0  0  0  0
  3  4  2  0  0  0  0
  4  5  1  0  0  0  0
  4 27  1  0  0  0  0
  5  6  2  0  0  0  0
  5 28  1  0  0  0  0
  6  7  1  0  0  0  0
  6 21  1  0  0  0  0
  7  8  1  0  0  0  0
  7 29  1  0  0  0  0
  8  9  2  0  0  0  0
  8 10  1  0  0  0  0
 10 11  1  0  0  0  0
 10 30  1  0  0  0  0
 11 20  1  0  0  0  0
 11 12  1  0  0  0  0
 11 31  1  0  0  0  0
 12 13  1  0  0  0  0
 12 32  1  0  0  0  0
 12 33  1  0  0  0  0
 13 14  1  0  0  0  0
 13 34  1  0  0  0  0
 13 35  1  0  0  0  0
 14 15  1  0  0  0  0
 14 19  1  0  0  0  0
 15 16  1  0  0  0  0
 15 17  2  0  0  0  0
 15 18  2  0  0  0  0
 16 36  1  0  0  0  0
 16 37  1  0  0  0  0
 16 38  1  0  0  0  0
 19 20  1  0  0  0  0
 19 39  1  0  0  0  0
 19 40  1  0  0  0  0
 20 41  1  0  0  0  0
 20 42  1  0  0  0  0
 21 22  2  0  0  0  0
 21 43  1  0  0  0  0
 22 44  1  0  0  0  0
M  CHG  1  22   1
M  END
> <s_m_source_file>
AV-unprocessed.smi

> <i_m_source_file_index>
549

> <i_lp_mmshare_version>
43012

> <i_f3d_flags>
0

> <s_epik_input>
W0NIM11bTkhdYzFbY0hdW2NIXWMoW2NIXW4xKVtOSF1DKD1PKVtOSF1bQ0hdMltDSDJdW0NIMl1OKFMoPU8pKD1PKVtDSDNdKVtDSDJdW0NIMl0y

> <s_epik_cmdline>
J2VwaWtfcHl0aG9uJywgJy1waCcsICc3LjAnLCAnLXRuJywgJzgnLCAnLW1hJywgJzIwMCcsICctbWV0YWxfYmluZGluZycsICctaW1hZScsICc8aW5maWxlLm1hZT4nLCAnLW9tYWUnLCAnPG91dGZpbGUubWFlPic=

> <r_lp_tautomer_probability>
0.999994

> <r_epik_Ionization_Penalty>
0.450019

> <r_epik_Ionization_Penalty_Charging>
0.449999

> <r_epik_Ionization_Penalty_Neutral>
1.96337e-05

> <r_epik_State_Penalty>
0.452724

> <r_epik_Charging_Adjusted_Penalty>
0.902724

> <i_epik_Tot_Q>
1

> <i_epik_Tot_abs_Q>
1

> <r_epik_Metal_State_Penalty>
0.680753

> <b_epik_Metal_Only>
0

> <s_lp_Force_Field>
OPLS_2005

> <r_lp_Energy>
8.99887

> <b_lp_Chiralities_Consistent>
1

> <s_lp_Variant>
AV-unprocessed.smi:549-2

> <Gold.Version>
5.8.1

> <Gold.Id.Protein>
6NUR|6NUR_protein|mol2

> <Gold.PLP.Fitness>
45.2525

> <Gold.PLP.PLP>
-26.1158

> <Gold.PLP.part.hbond>
-5.0000

> <Gold.PLP.part.metal>
0.0000

> <Gold.PLP.part.buried>
-2.1648

> <Gold.PLP.part.nonpolar>
-18.8585

> <Gold.PLP.part.repulsive>
0.0234

> <Gold.PLP.ligand.clash>
0.0000

> <Gold.PLP.ligand.torsion>
1.2131

> <Gold.PLP.Chemscore.Hbond>
6.5034

> <Gold.PLP.Chemscore.CHOScore>
0.0000

> <Gold.PLP.Chemscore.Metal>
0.0000

> <Gold.Chemscore.Hbonds>
donor molecule, donor type, donor heavy atom, donor atom, acceptor molecule, acceptor atom, score
      L1  H     2    26       P1 10957  1.98
      L1  H     7    29       P1  7948  0.81
      L1  H    10    30       P1  7948  1.00
      L1  H    22    44       P1 10957  1.14
      P1  H  7997  8009       L1    18  0.30

> <Gold.PLP.Chemscore.Internal.Correction>
2.0528

> <Gold.Rescore>
     Score         DG    S(hbond)    S(metal)    S(lipo)     H(rot)  DE(clash)    DE(int)     intcor
     19.20     -23.18       4.37        0.00      48.54       1.00       0.14       3.85       ----

> <Gold.Chemscore.Fitness>
19.1951

> <Gold.Chemscore.DG>
-23.1791

> <Gold.Chemscore.ZeroCoef>
-5.4800

> <Gold.Chemscore.Hbond>
4.3653

> <Gold.Chemscore.Metal>
0.0000

> <Gold.Chemscore.Lipo>
48.5383

> <Gold.Chemscore.Internal_Hbond>
0.0000

> <Gold.Chemscore.DEClash>
0.1376

> <Gold.Chemscore.DEInternal>
3.8464

> <Gold.Chemscore.Rot>
1.0000

> <Gold.Chemscore.Internal.Correction>
   9.000000E+99

> <Gold.Chemscore.Hbonds>
donor molecule, donor type, donor heavy atom, donor atom, acceptor molecule, acceptor atom, score
      L1  H     2    26       P1 10957  0.93
      L1  H     7    29       P1  7948  0.75
      L1  H    10    30       P1  7948  0.93
      L1  H    22    44       P1 10957  0.55
      P1  H  7997  8009       L1    18  0.20

> <Gold.Chemscore.Hbond.Weighted>
-14.5801

> <Gold.Chemscore.Metal.Weighted>
-0.0000

> <Gold.Chemscore.Lipo.Weighted>
-5.6790

> <Gold.Chemscore.Internal_Hbond.Weighted>
0.0000

> <Gold.Chemscore.DEClash.Weighted>
0.1376

> <Gold.Chemscore.DEInternal.Weighted>
3.8464

> <Gold.Chemscore.Rot.Weighted>
2.5600

> <Gold.Chemscore.Internal.Correction.Weighted>
   9.000000E+99

> <Gold.Protein.RotatedTorsions>
[ 6907 6896 6895 6894 ] final  101.17 input  -60.11 | X-H torsion
[ 7974 7965 7964 7962 ] final -124.91 input  175.53 | X-H torsion
[ 8008 7997 7996 7995 ] final  165.19 input   59.86 | X-H torsion
[ 10167 10162 10161 10158 ] final   83.91 input  -65.29 | X-H torsion
[ 10718 10713 10712 10709 ] final  -16.05 input   66.30 | X-H torsion
[ 10763 10752 10751 10750 ] final -104.19 input  -60.55 | X-H torsion
[ 11005 11000 10999 10996 ] final  152.57 input  -57.11 | X-H torsion

> <Gold.Protein.ActiveResidues>
 VAL166  LYS551  ARG553  GLY616  TRP617  ASP618  TYR619  PRO620  LYS621  CYS622 
 ASP623  PHE694  ASN695  SER759  ASP760  ASP761  ALA762  ILE779  LEU786  VAL792 
 PHE793  MET794  SER795  GLU796  ALA797  LYS798  CYS799  TRP800  GLU811  SER814 

> <Gold.Protein.RotatedAtoms>
  152.5355  134.0166  159.7962 H   0  0  0  0  0  0  0  0  0  0  0  0  # atno 6907 bound_to 6896
  151.0359  133.5741  159.2663 H   0  0  0  0  0  0  0  0  0  0  0  0  # atno 6908 bound_to 6896
  151.2728  135.0697  159.9194 H   0  0  0  0  0  0  0  0  0  0  0  0  # atno 6909 bound_to 6896
  145.0031  140.7838  143.4484 H   0  0  0  0  0  0  0  0  0  0  0  0  # atno 7974 bound_to 7965
  156.1820  140.1676  156.8256 H   0  0  0  0  0  0  0  0  0  0  0  0  # atno 8008 bound_to 7997
  154.5371  140.0744  156.8479 H   0  0  0  0  0  0  0  0  0  0  0  0  # atno 8009 bound_to 7997
  155.3289  140.3378  155.4242 H   0  0  0  0  0  0  0  0  0  0  0  0  # atno 8010 bound_to 7997
  139.9135  144.6257  150.8513 H   0  0  0  0  0  0  0  0  0  0  0  0  # atno 10167 bound_to 10162
  156.5931  130.4804  149.6271 H   0  0  0  0  0  0  0  0  0  0  0  0  # atno 10718 bound_to 10713
  154.7861  135.4795  153.9949 H   0  0  0  0  0  0  0  0  0  0  0  0  # atno 10763 bound_to 10752
  153.1562  135.6800  153.8816 H   0  0  0  0  0  0  0  0  0  0  0  0  # atno 10764 bound_to 10752
  153.8444  135.3175  155.3406 H   0  0  0  0  0  0  0  0  0  0  0  0  # atno 10765 bound_to 10752
  140.1320  134.8796  157.2216 H   0  0  0  0  0  0  0  0  0  0  0  0  # atno 11005 bound_to 11000
  145.2126  139.2197  143.5135 LP  0  0  0  0  0  0  0  0  0  0  0  0  # atno 17320 bound_to 7965
  146.3456  140.1967  142.8589 LP  0  0  0  0  0  0  0  0  0  0  0  0  # atno 17321 bound_to 7965
  140.7679  143.3348  151.2332 LP  0  0  0  0  0  0  0  0  0  0  0  0  # atno 17342 bound_to 10162
  139.6922  143.9673  152.2865 LP  0  0  0  0  0  0  0  0  0  0  0  0  # atno 17343 bound_to 10162
  156.2533  130.6920  151.1665 LP  0  0  0  0  0  0  0  0  0  0  0  0  # atno 17370 bound_to 10713
  157.7299  131.0621  150.5754 LP  0  0  0  0  0  0  0  0  0  0  0  0  # atno 17371 bound_to 10713
  140.2830  134.3328  155.7337 LP  0  0  0  0  0  0  0  0  0  0  0  0  # atno 17394 bound_to 11000
  141.2172  133.7490  156.9392 LP  0  0  0  0  0  0  0  0  0  0  0  0  # atno 17395 bound_to 11000

$$$$
