#       Name:                AV-unprocessed.smi:1033
#       Creating user name   scv26
#       Creation time:       Fri Mar 27 02:49:21 2020


#       File generated by GOLD software.
#

@<TRIPOS>MOLECULE
AV-unprocessed.smi:1033
    62    64     1
SMALL
NO_CHARGES


@<TRIPOS>ATOM
      1 ****        -1.2089   4.1436   2.0182 C.3            1 S1                 0.0000
      2 ****        -1.5457   3.0623   1.0055 C.ar           1 S1                 0.0000
      3 ****        -2.3221   1.9604   1.4286 C.ar           1 S1                 0.0000
      4 ****        -2.6028   0.9819   0.4829 C.ar           1 S1                 0.0000
      5 ****        -3.3213  -0.2102   0.5889 N.pl3          1 S1                 1.0000
      6 ****        -3.3163  -0.8527  -0.6113 C.2            1 S1                 0.0000
      7 ****        -2.5966  -0.0928  -1.4818 N.pl3          1 S1                 0.0000
      8 ****        -2.2830  -0.3441  -2.8968 C.3            1 S1                 0.0000
      9 ****        -1.1685  -1.3955  -3.0969 C.3            1 S1                 0.0000
     10 ****        -1.1244  -1.7077  -4.4727 O.3            1 S1                 0.0000
     11 ****         0.2493  -0.9436  -2.6745 C.3            1 S1                 0.0000
     12 ****         0.4042  -0.7707  -1.2088 N.4            1 S1                 1.0000
     13 ****         1.5491   0.1008  -0.8466 C.3            1 S1                 0.0000
     14 ****         1.5506   0.3528   0.6736 C.3            1 S1                 0.0000
     15 ****         1.6332  -0.8770   1.4625 N.3            1 S1                 0.0000
     16 ****         2.9608  -1.5069   1.3847 C.3            1 S1                 0.0000
     17 ****         3.4077  -2.3449   2.6040 C.3            1 S1                 0.0000
     18 ****         2.5786  -3.5944   2.9300 C.3            1 S1                 0.0000
     19 ****         3.4938  -1.5146   3.7429 O.3            1 S1                 0.0000
     20 ****         0.5153  -1.7449   1.0716 C.3            1 S1                 0.0000
     21 ****         0.4555  -2.0419  -0.4421 C.3            1 S1                 0.0000
     22 ****        -2.1465   1.0726  -0.8471 C.ar           1 S1                 0.0000
     23 ****        -1.3904   2.1589  -1.2829 C.ar           1 S1                 0.0000
     24 ****        -1.0863   3.1601  -0.3332 C.ar           1 S1                 0.0000
     25 ****        -0.2469   4.3464  -0.7758 C.3            1 S1                 0.0000
     26 ****        -1.6135   3.9083   3.0030 H              1 S1                 0.0000
     27 ****        -1.6251   5.1023   1.7077 H              1 S1                 0.0000
     28 ****        -0.1287   4.2507   2.1196 H              1 S1                 0.0000
     29 ****        -2.6767   1.8807   2.4463 H              1 S1                 0.0000
     30 ****        -3.7922  -1.7981  -0.8311 H              1 S1                 0.0000
     31 ****        -3.2074  -0.6989  -3.3555 H              1 S1                 0.0000
     32 ****        -2.0413   0.5927  -3.3978 H              1 S1                 0.0000
     33 ****        -1.4436  -2.3190  -2.5887 H              1 S1                 0.0000
     34 ****        -0.9269  -0.9223  -4.9602 H              1 S1                 0.0000
     35 ****         0.9978  -1.6582  -3.0209 H              1 S1                 0.0000
     36 ****         0.4727  -0.0006  -3.1759 H              1 S1                 0.0000
     37 ****         2.4858  -0.3556  -1.1706 H              1 S1                 0.0000
     38 ****         1.4644   1.0556  -1.3669 H              1 S1                 0.0000
     39 ****         2.3706   1.0213   0.9389 H              1 S1                 0.0000
     40 ****         0.6393   0.8876   0.9439 H              1 S1                 0.0000
     41 ****         3.0456  -2.1092   0.4811 H              1 S1                 0.0000
     42 ****         3.7123  -0.7243   1.2678 H              1 S1                 0.0000
     43 ****         4.4237  -2.6826   2.3968 H              1 S1                 0.0000
     44 ****         2.4238  -4.2091   2.0431 H              1 S1                 0.0000
     45 ****         1.6062  -3.3392   3.3502 H              1 S1                 0.0000
     46 ****         3.0901  -4.2103   3.6703 H              1 S1                 0.0000
     47 ****         2.6292  -1.1914   3.9456 H              1 S1                 0.0000
     48 ****         0.5362  -2.6831   1.6182 H              1 S1                 0.0000
     49 ****        -0.4184  -1.2632   1.3652 H              1 S1                 0.0000
     50 ****        -0.4332  -2.6384  -0.6427 H              1 S1                 0.0000
     51 ****         1.3089  -2.6396  -0.7631 H              1 S1                 0.0000
     52 ****        -1.0339   2.2384  -2.2990 H              1 S1                 0.0000
     53 ****         0.0010   4.2878  -1.8359 H              1 S1                 0.0000
     54 ****         0.6883   4.3825  -0.2165 H              1 S1                 0.0000
     55 ****        -0.7852   5.2803  -0.6121 H              1 S1                 0.0000
     56 ****        -0.4225  -0.2811  -0.8983 H              1 S1                 0.0000
     57 ****        -3.7869  -0.5597   1.4173 H              1 S1                 0.0000
     58 ****        -2.0105  -2.0688  -4.7632 LP             1 S1                 0.0000
     59 ****        -0.4149  -2.3926  -4.6386 LP             1 S1                 0.0000
     60 ****         1.5374  -0.6740   2.4369 LP             1 S1                 0.0000
     61 ****         4.1053  -0.7462   3.5543 LP             1 S1                 0.0000
     62 ****         3.8474  -2.0398   4.5169 LP             1 S1                 0.0000
@<TRIPOS>BOND
    1    1    2 1     
    2    1   26 1     
    3    1   27 1     
    4    1   28 1     
    5    2   24 ar    
    6    2    3 ar    
    7    3    4 ar    
    8    3   29 1     
    9    4   22 ar    
   10    4    5 1     
   11    5    6 2     
   12    5   57 1     
   13    6    7 1     
   14    6   30 1     
   15    7    8 1     
   16    7   22 1     
   17    8    9 1     
   18    8   31 1     
   19    8   32 1     
   20    9   10 1     
   21    9   11 1     
   22    9   33 1     
   23   10   34 1     
   24   11   12 1     
   25   11   35 1     
   26   11   36 1     
   27   12   21 1     
   28   12   13 1     
   29   12   56 1     
   30   13   14 1     
   31   13   37 1     
   32   13   38 1     
   33   14   15 1     
   34   14   39 1     
   35   14   40 1     
   36   15   16 1     
   37   15   20 1     
   38   16   17 1     
   39   16   41 1     
   40   16   42 1     
   41   17   18 1     
   42   17   19 1     
   43   17   43 1     
   44   18   44 1     
   45   18   45 1     
   46   18   46 1     
   47   19   47 1     
   48   20   21 1     
   49   20   48 1     
   50   20   49 1     
   51   21   50 1     
   52   21   51 1     
   53   22   23 ar    
   54   23   24 ar    
   55   23   52 1     
   56   24   25 1     
   57   25   53 1     
   58   25   54 1     
   59   25   55 1     
   60   10   58 1     
   61   10   59 1     
   62   15   60 1     
   63   19   61 1     
   64   19   62 1     
@<TRIPOS>SUBSTRUCTURE
      1 S1             1
@<TRIPOS>SET
LONE_PAIRS      STATIC     ATOMS    <user>   **** ""
5 58 59 60 61 62
DONOR_HYDROGENS      STATIC     ATOMS    <user>   **** ""
4 57 34 56 47
ATOM$BLUE        STATIC     ATOMS    COLORGROUP SYSTEM
5 58 59 60 61 62
ATOM$RED        STATIC     ATOMS    COLORGROUP SYSTEM
4 57 34 56 47
