AV-unprocessed.smi:1605|AV-procd|sdf|6451|dock3
  -GOLD-   22720 7103D 1   1.00000     0.00000
 Structure written by MMmdl.
 51 53  0  0  0  0  0  0  0  0  2 V2000
  147.0756  133.0779  152.0992 C   0  0  0  0  0  0  0  0  0  0  0  0
  146.9433  132.8080  153.4866 O   0  0  0  0  0  0  0  0  0  0  0  0
  147.6999  133.6701  154.3258 C   0  0  2  0  0  0  0  0  0  0  0  0
  147.1804  135.1177  154.2559 C   0  0  0  0  0  0  0  0  0  0  0  0
  148.0943  136.0702  155.0440 C   0  0  0  0  0  0  0  0  0  0  0  0
  149.4978  135.9993  154.5558 N   0  3  1  0  0  0  0  0  0  0  0  0
  150.3917  136.9884  155.2099 C   0  0  0  0  0  0  0  0  0  0  0  0
  149.9801  138.4461  154.9054 C   0  0  2  0  0  0  0  0  0  0  0  0
  149.5699  138.5308  153.5556 O   0  0  0  0  0  0  0  0  0  0  0  0
  151.1167  139.4642  155.1196 C   0  0  0  0  0  0  0  0  0  0  0  0
  151.5396  139.5364  156.5063 N   0  0  0  0  0  0  0  0  0  0  0  0
  151.9301  138.5097  157.2858 C   0  0  0  0  0  0  0  0  0  0  0  0
  152.2899  138.7955  158.5334 N   0  0  0  0  0  0  0  0  0  0  0  0
  152.1037  140.1667  158.5712 C   0  0  0  0  0  0  0  0  0  0  0  0
  152.3068  141.0910  159.6190 C   0  0  0  0  0  0  0  0  0  0  0  0
  152.0520  142.4681  159.4303 C   0  0  0  0  0  0  0  0  0  0  0  0
  152.2805  143.4261  160.5862 C   0  0  0  0  0  0  0  0  0  0  0  0
  151.5892  142.9397  158.1755 C   0  0  0  0  0  0  0  0  0  0  0  0
  151.3114  144.4153  157.9494 C   0  0  0  0  0  0  0  0  0  0  0  0
  151.3798  142.0297  157.1181 C   0  0  0  0  0  0  0  0  0  0  0  0
  151.6343  140.6613  157.3191 C   0  0  0  0  0  0  0  0  0  0  0  0
  150.0327  134.6157  154.6371 C   0  0  0  0  0  0  0  0  0  0  0  0
  149.1568  133.6336  153.8416 C   0  0  0  0  0  0  0  0  0  0  0  0
  146.4346  132.3997  151.5361 H   0  0  0  0  0  0  0  0  0  0  0  0
  148.0975  132.9295  151.7510 H   0  0  0  0  0  0  0  0  0  0  0  0
  146.7690  134.0976  151.8639 H   0  0  0  0  0  0  0  0  0  0  0  0
  147.6677  133.3103  155.3561 H   0  0  0  0  0  0  0  0  0  0  0  0
  147.1265  135.4408  153.2153 H   0  0  0  0  0  0  0  0  0  0  0  0
  146.1680  135.1836  154.6537 H   0  0  0  0  0  0  0  0  0  0  0  0
  147.7090  137.0850  154.9517 H   0  0  0  0  0  0  0  0  0  0  0  0
  148.0648  135.8200  156.1057 H   0  0  0  0  0  0  0  0  0  0  0  0
  150.3940  136.7914  156.2822 H   0  0  0  0  0  0  0  0  0  0  0  0
  151.4211  136.8439  154.8775 H   0  0  0  0  0  0  0  0  0  0  0  0
  149.1358  138.7424  155.5273 H   0  0  0  0  0  0  0  0  0  0  0  0
  149.2908  137.6745  153.2677 H   0  0  0  0  0  0  0  0  0  0  0  0
  151.9802  139.2131  154.5024 H   0  0  0  0  0  0  0  0  0  0  0  0
  150.7946  140.4606  154.8128 H   0  0  0  0  0  0  0  0  0  0  0  0
  151.9571  137.4956  156.9144 H   0  0  0  0  0  0  0  0  0  0  0  0
  152.6608  140.7318  160.5742 H   0  0  0  0  0  0  0  0  0  0  0  0
  151.3688  143.9798  160.8114 H   0  0  0  0  0  0  0  0  0  0  0  0
  153.0686  144.1388  160.3418 H   0  0  0  0  0  0  0  0  0  0  0  0
  152.5780  142.8943  161.4905 H   0  0  0  0  0  0  0  0  0  0  0  0
  151.0080  144.6103  156.9207 H   0  0  0  0  0  0  0  0  0  0  0  0
  152.2027  145.0092  158.1525 H   0  0  0  0  0  0  0  0  0  0  0  0
  150.5106  144.7571  158.6052 H   0  0  0  0  0  0  0  0  0  0  0  0
  151.0263  142.3767  156.1586 H   0  0  0  0  0  0  0  0  0  0  0  0
  151.0477  134.5892  154.2388 H   0  0  0  0  0  0  0  0  0  0  0  0
  150.0928  134.3078  155.6823 H   0  0  0  0  0  0  0  0  0  0  0  0
  149.5548  132.6227  153.9358 H   0  0  0  0  0  0  0  0  0  0  0  0
  149.1996  133.8849  152.7806 H   0  0  0  0  0  0  0  0  0  0  0  0
  149.4838  136.2385  153.5740 H   0  0  0  0  0  0  0  0  0  0  0  0
  1  2  1  0  0  0  0
  1 24  1  0  0  0  0
  1 25  1  0  0  0  0
  1 26  1  0  0  0  0
  2  3  1  0  0  0  0
  3 23  1  0  0  0  0
  3  4  1  0  0  0  0
  3 27  1  0  0  0  0
  4  5  1  0  0  0  0
  4 28  1  0  0  0  0
  4 29  1  0  0  0  0
  5  6  1  0  0  0  0
  5 30  1  0  0  0  0
  5 31  1  0  0  0  0
  6  7  1  0  0  0  0
  6 22  1  0  0  0  0
  6 51  1  0  0  0  0
  7  8  1  0  0  0  0
  7 32  1  0  0  0  0
  7 33  1  0  0  0  0
  8  9  1  0  0  0  0
  8 10  1  0  0  0  0
  8 34  1  0  0  0  0
  9 35  1  0  0  0  0
 10 11  1  0  0  0  0
 10 36  1  0  0  0  0
 10 37  1  0  0  0  0
 11 21  1  0  0  0  0
 11 12  1  0  0  0  0
 12 13  2  0  0  0  0
 12 38  1  0  0  0  0
 13 14  1  0  0  0  0
 14 21  2  0  0  0  0
 14 15  1  0  0  0  0
 15 16  2  0  0  0  0
 15 39  1  0  0  0  0
 16 17  1  0  0  0  0
 16 18  1  0  0  0  0
 17 40  1  0  0  0  0
 17 41  1  0  0  0  0
 17 42  1  0  0  0  0
 18 19  1  0  0  0  0
 18 20  2  0  0  0  0
 19 43  1  0  0  0  0
 19 44  1  0  0  0  0
 19 45  1  0  0  0  0
 20 21  1  0  0  0  0
 20 46  1  0  0  0  0
 22 23  1  0  0  0  0
 22 47  1  0  0  0  0
 22 48  1  0  0  0  0
 23 49  1  0  0  0  0
 23 50  1  0  0  0  0
M  CHG  1   6   1
M  END
> <s_m_source_file>
AV-unprocessed.smi

> <i_m_source_file_index>
1605

> <i_lp_mmshare_version>
43012

> <i_f3d_flags>
0

> <s_epik_input>
W0NIM11PW0NIXTFbQ0gyXVtDSDJdTihbQ0gyXVtDSDJdMSlbQ0gyXVtDQEhdKFtPSF0pW0NIMl1uKFtjSF1uMiljKGMyMylbY0hdYyhbQ0gzXSljKFtjSF0zKVtDSDNd

> <s_epik_cmdline>
J2VwaWtfcHl0aG9uJywgJy1waCcsICc3LjAnLCAnLXRuJywgJzgnLCAnLW1hJywgJzIwMCcsICctbWV0YWxfYmluZGluZycsICctaW1hZScsICc8aW5maWxlLm1hZT4nLCAnLW9tYWUnLCAnPG91dGZpbGUubWFlPic=

> <r_epik_Ionization_Penalty>
0.110943

> <r_epik_Ionization_Penalty_Charging>
0.0229283

> <r_epik_Ionization_Penalty_Neutral>
0.0880146

> <r_epik_State_Penalty>
0.0947554

> <r_epik_Charging_Adjusted_Penalty>
0.117684

> <i_epik_Tot_Q>
1

> <i_epik_Tot_abs_Q>
1

> <r_epik_Metal_State_Penalty>
0.0192456

> <b_epik_Metal_Only>
0

> <s_lp_Force_Field>
OPLS_2005

> <r_lp_Energy>
22.9289

> <b_lp_Chiralities_Consistent>
1

> <s_lp_Variant>
AV-unprocessed.smi:1605-1

> <Gold.Version>
5.8.1

> <Gold.Id.Protein>
6NUR|6NUR_protein|mol2

> <Gold.PLP.Fitness>
50.0206

> <Gold.PLP.PLP>
-41.5278

> <Gold.PLP.part.hbond>
-3.0000

> <Gold.PLP.part.metal>
0.0000

> <Gold.PLP.part.buried>
-3.8295

> <Gold.PLP.part.nonpolar>
-34.6194

> <Gold.PLP.part.repulsive>
0.1255

> <Gold.PLP.ligand.clash>
0.0519

> <Gold.PLP.ligand.torsion>
0.3025

> <Gold.PLP.Chemscore.Hbond>
3.0000

> <Gold.PLP.Chemscore.CHOScore>
0.0000

> <Gold.PLP.Chemscore.Metal>
0.0000

> <Gold.Chemscore.Hbonds>
donor molecule, donor type, donor heavy atom, donor atom, acceptor molecule, acceptor atom, score
      L1  H     6    51       P1  7948  2.00
      L1  H     9    35       P1  7948  1.00

> <Gold.PLP.Chemscore.Internal.Correction>
0.1497

> <Gold.Rescore>
     Score         DG    S(hbond)    S(metal)    S(lipo)     H(rot)  DE(clash)    DE(int)     intcor
     18.25     -19.40       1.91        0.00     113.05       2.22       0.10       1.05       ----

> <Gold.Chemscore.Fitness>
18.2473

> <Gold.Chemscore.DG>
-19.3965

> <Gold.Chemscore.ZeroCoef>
-5.4800

> <Gold.Chemscore.Hbond>
1.9058

> <Gold.Chemscore.Metal>
0.0000

> <Gold.Chemscore.Lipo>
113.0469

> <Gold.Chemscore.Internal_Hbond>
0.0000

> <Gold.Chemscore.DEClash>
0.0954

> <Gold.Chemscore.DEInternal>
1.0539

> <Gold.Chemscore.Rot>
2.2169

> <Gold.Chemscore.Internal.Correction>
   9.000000E+99

> <Gold.Chemscore.Hbonds>
donor molecule, donor type, donor heavy atom, donor atom, acceptor molecule, acceptor atom, score
      L1  H     6    51       P1  7948  0.60
      L1  H     9    35       P1  7948  0.90

> <Gold.Chemscore.Hbond.Weighted>
-6.3654

> <Gold.Chemscore.Metal.Weighted>
-0.0000

> <Gold.Chemscore.Lipo.Weighted>
-13.2265

> <Gold.Chemscore.Internal_Hbond.Weighted>
0.0000

> <Gold.Chemscore.DEClash.Weighted>
0.0954

> <Gold.Chemscore.DEInternal.Weighted>
1.0539

> <Gold.Chemscore.Rot.Weighted>
5.6753

> <Gold.Chemscore.Internal.Correction.Weighted>
   9.000000E+99

> <Gold.Protein.RotatedTorsions>
[ 6907 6896 6895 6894 ] final  -35.05 input  -60.11 | X-H torsion
[ 7974 7965 7964 7962 ] final -179.72 input  175.53 | X-H torsion
[ 8008 7997 7996 7995 ] final  104.33 input   59.86 | X-H torsion
[ 10167 10162 10161 10158 ] final   29.42 input  -65.29 | X-H torsion
[ 10718 10713 10712 10709 ] final  -34.08 input   66.30 | X-H torsion
[ 10763 10752 10751 10750 ] final  122.09 input  -60.55 | X-H torsion
[ 11005 11000 10999 10996 ] final  -89.51 input  -57.11 | X-H torsion

> <Gold.Protein.ActiveResidues>
 VAL166  LYS551  ARG553  GLY616  TRP617  ASP618  TYR619  PRO620  LYS621  CYS622 
 ASP623  PHE694  ASN695  SER759  ASP760  ASP761  ALA762  ILE779  LEU786  VAL792 
 PHE793  MET794  SER795  GLU796  ALA797  LYS798  CYS799  TRP800  GLU811  SER814 

> <Gold.Protein.RotatedAtoms>
  151.0447  134.9632  159.8180 H   0  0  0  0  0  0  0  0  0  0  0  0  # atno 6907 bound_to 6896
  152.5370  134.2613  159.8946 H   0  0  0  0  0  0  0  0  0  0  0  0  # atno 6908 bound_to 6896
  151.2626  133.4252  159.2651 H   0  0  0  0  0  0  0  0  0  0  0  0  # atno 6909 bound_to 6896
  144.7138  140.0675  143.6430 H   0  0  0  0  0  0  0  0  0  0  0  0  # atno 7974 bound_to 7965
  156.1564  140.3149  155.8732 H   0  0  0  0  0  0  0  0  0  0  0  0  # atno 8008 bound_to 7997
  155.3870  140.0491  157.3059 H   0  0  0  0  0  0  0  0  0  0  0  0  # atno 8009 bound_to 7997
  154.5105  140.2163  155.9177 H   0  0  0  0  0  0  0  0  0  0  0  0  # atno 8010 bound_to 7997
  140.4767  144.0679  150.6253 H   0  0  0  0  0  0  0  0  0  0  0  0  # atno 10167 bound_to 10162
  156.3549  130.4314  149.7673 H   0  0  0  0  0  0  0  0  0  0  0  0  # atno 10718 bound_to 10713
  153.6243  135.3407  155.3021 H   0  0  0  0  0  0  0  0  0  0  0  0  # atno 10763 bound_to 10752
  154.8593  135.4280  154.2174 H   0  0  0  0  0  0  0  0  0  0  0  0  # atno 10764 bound_to 10752
  153.3054  135.7027  153.7237 H   0  0  0  0  0  0  0  0  0  0  0  0  # atno 10765 bound_to 10752
  141.1583  133.7634  156.9604 H   0  0  0  0  0  0  0  0  0  0  0  0  # atno 11005 bound_to 11000
  145.9811  139.2942  143.1041 LP  0  0  0  0  0  0  0  0  0  0  0  0  # atno 17320 bound_to 7965
  145.9009  140.9243  143.0503 LP  0  0  0  0  0  0  0  0  0  0  0  0  # atno 17321 bound_to 7965
  140.3909  143.2753  152.0061 LP  0  0  0  0  0  0  0  0  0  0  0  0  # atno 17342 bound_to 10162
  139.4827  144.6078  151.7490 LP  0  0  0  0  0  0  0  0  0  0  0  0  # atno 17343 bound_to 10162
  156.4859  130.8063  151.3075 LP  0  0  0  0  0  0  0  0  0  0  0  0  # atno 17370 bound_to 10713
  157.7466  130.9991  150.2876 LP  0  0  0  0  0  0  0  0  0  0  0  0  # atno 17371 bound_to 10713
  140.1196  134.9425  157.2185 LP  0  0  0  0  0  0  0  0  0  0  0  0  # atno 17394 bound_to 11000
  140.3088  134.3047  155.7271 LP  0  0  0  0  0  0  0  0  0  0  0  0  # atno 17395 bound_to 11000

$$$$
