AV-unprocessed.smi:2214|AV-procd|sdf|8958|dock8
  -GOLD-   2272012173D 1   1.00000     0.00000
 Structure written by MMmdl.
 41 42  0  0  0  0  0  0  0  0  1 V2000
  150.4908  145.0405  159.9170 C   0  0  0  0  0  0  0  0  0  0  0  0
  151.4623  143.8805  159.9909 C   0  0  0  0  0  0  0  0  0  0  0  0
  152.3744  143.7840  161.0600 C   0  0  0  0  0  0  0  0  0  0  0  0
  153.2735  142.7039  161.1200 C   0  0  0  0  0  0  0  0  0  0  0  0
  153.2645  141.7183  160.1140 C   0  0  0  0  0  0  0  0  0  0  0  0
  154.3803  140.4029  160.2108 Cl  0  0  0  0  0  0  0  0  0  0  0  0
  152.3568  141.8014  159.0349 C   0  0  0  0  0  0  0  0  0  0  0  0
  152.4070  140.7999  158.0887 O   0  0  0  0  0  0  0  0  0  0  0  0
  151.4238  140.7834  157.0612 C   0  0  0  0  0  0  0  0  0  0  0  0
  151.6651  139.5834  156.1296 C   0  0  2  0  0  0  0  0  0  0  0  0
  152.8820  139.8056  155.4456 O   0  0  0  0  0  0  0  0  0  0  0  0
  150.5132  139.3590  155.1242 C   0  0  0  0  0  0  0  0  0  0  0  0
  149.1989  139.6912  155.6985 N   0  0  0  0  0  0  0  0  0  0  0  0
  148.9113  139.1364  156.9560 C   0  0  0  0  0  0  0  0  0  0  0  0
  147.7880  139.3599  157.5559 N   0  0  0  0  0  0  0  0  0  0  0  0
  146.8235  140.1706  156.9505 C   0  0  0  0  0  0  0  0  0  0  0  0
  145.5397  140.3631  157.7384 C   0  0  0  0  0  0  0  0  0  0  0  0
  147.0417  140.7412  155.7343 C   0  0  0  0  0  0  0  0  0  0  0  0
  146.0282  141.6312  155.0259 C   0  0  0  0  0  0  0  0  0  0  0  0
  148.3197  140.5035  155.0437 C   0  0  0  0  0  0  0  0  0  0  0  0
  148.5911  141.0012  153.9493 O   0  0  0  0  0  0  0  0  0  0  0  0
  151.4549  142.8947  158.9830 C   0  0  0  0  0  0  0  0  0  0  0  0
  150.4644  145.5969  160.8545 H   0  0  0  0  0  0  0  0  0  0  0  0
  149.4828  144.6803  159.7087 H   0  0  0  0  0  0  0  0  0  0  0  0
  150.7822  145.7254  159.1204 H   0  0  0  0  0  0  0  0  0  0  0  0
  152.3889  144.5353  161.8360 H   0  0  0  0  0  0  0  0  0  0  0  0
  153.9720  142.6320  161.9405 H   0  0  0  0  0  0  0  0  0  0  0  0
  150.4158  140.7477  157.4784 H   0  0  0  0  0  0  0  0  0  0  0  0
  151.5080  141.7007  156.4761 H   0  0  0  0  0  0  0  0  0  0  0  0
  151.8018  138.7005  156.7553 H   0  0  0  0  0  0  0  0  0  0  0  0
  152.7658  139.5672  154.5387 H   0  0  0  0  0  0  0  0  0  0  0  0
  150.6733  139.9895  154.2475 H   0  0  0  0  0  0  0  0  0  0  0  0
  150.5440  138.3411  154.7290 H   0  0  0  0  0  0  0  0  0  0  0  0
  149.6977  138.5139  157.3864 H   0  0  0  0  0  0  0  0  0  0  0  0
  144.6863  139.9808  157.1779 H   0  0  0  0  0  0  0  0  0  0  0  0
  145.3749  141.4202  157.9479 H   0  0  0  0  0  0  0  0  0  0  0  0
  145.5762  139.8358  158.6925 H   0  0  0  0  0  0  0  0  0  0  0  0
  146.4404  142.6305  154.8823 H   0  0  0  0  0  0  0  0  0  0  0  0
  145.0928  141.7365  155.5724 H   0  0  0  0  0  0  0  0  0  0  0  0
  145.7880  141.2202  154.0450 H   0  0  0  0  0  0  0  0  0  0  0  0
  150.7450  142.9984  158.1767 H   0  0  0  0  0  0  0  0  0  0  0  0
  1  2  1  0  0  0  0
  1 23  1  0  0  0  0
  1 24  1  0  0  0  0
  1 25  1  0  0  0  0
  2 22  1  0  0  0  0
  2  3  2  0  0  0  0
  3  4  1  0  0  0  0
  3 26  1  0  0  0  0
  4  5  2  0  0  0  0
  4 27  1  0  0  0  0
  5  6  1  0  0  0  0
  5  7  1  0  0  0  0
  7  8  1  0  0  0  0
  7 22  2  0  0  0  0
  8  9  1  0  0  0  0
  9 10  1  0  0  0  0
  9 28  1  0  0  0  0
  9 29  1  0  0  0  0
 10 11  1  0  0  0  0
 10 12  1  0  0  0  0
 10 30  1  0  0  0  0
 11 31  1  0  0  0  0
 12 13  1  0  0  0  0
 12 32  1  0  0  0  0
 12 33  1  0  0  0  0
 13 20  1  0  0  0  0
 13 14  1  0  0  0  0
 14 15  2  0  0  0  0
 14 34  1  0  0  0  0
 15 16  1  0  0  0  0
 16 17  1  0  0  0  0
 16 18  2  0  0  0  0
 17 35  1  0  0  0  0
 17 36  1  0  0  0  0
 17 37  1  0  0  0  0
 18 19  1  0  0  0  0
 18 20  1  0  0  0  0
 19 38  1  0  0  0  0
 19 39  1  0  0  0  0
 19 40  1  0  0  0  0
 20 21  2  0  0  0  0
 22 41  1  0  0  0  0
M  END
> <s_m_source_file>
AV-unprocessed.smi

> <i_m_source_file_index>
2214

> <i_lp_mmshare_version>
43012

> <i_f3d_flags>
0

> <s_epik_input>
W0NIM11jMVtjSF1bY0hdYyhDbCljKFtjSF0xKU9bQ0gyXVtDQEhdKFtPSF0pW0NIMl1uMltjSF1uYyhbQ0gzXSljKFtDSDNdKWMyPU8=

> <s_epik_cmdline>
J2VwaWtfcHl0aG9uJywgJy1waCcsICc3LjAnLCAnLXRuJywgJzgnLCAnLW1hJywgJzIwMCcsICctbWV0YWxfYmluZGluZycsICctaW1hZScsICc8aW5maWxlLm1hZT4nLCAnLW9tYWUnLCAnPG91dGZpbGUubWFlPic=

> <r_lp_tautomer_probability>
1

> <r_epik_Ionization_Penalty>
3.50205e-05

> <r_epik_Ionization_Penalty_Charging>
7.87908e-08

> <r_epik_Ionization_Penalty_Neutral>
3.49418e-05

> <r_epik_State_Penalty>
-0

> <r_epik_Charging_Adjusted_Penalty>
7.87908e-08

> <i_epik_Tot_Q>
0

> <i_epik_Tot_abs_Q>
0

> <r_epik_Metal_State_Penalty>
-0

> <b_epik_Metal_Only>
0

> <s_lp_Force_Field>
OPLS_2005

> <r_lp_Energy>
24.1684

> <b_lp_Chiralities_Consistent>
1

> <s_lp_Variant>
AV-unprocessed.smi:2214-1

> <Gold.Version>
5.8.1

> <Gold.Id.Protein>
6NUR|6NUR_protein|mol2

> <Gold.PLP.Fitness>
49.9059

> <Gold.PLP.PLP>
-44.9036

> <Gold.PLP.part.hbond>
-2.9078

> <Gold.PLP.part.metal>
0.0000

> <Gold.PLP.part.buried>
-5.6678

> <Gold.PLP.part.nonpolar>
-38.5594

> <Gold.PLP.part.repulsive>
2.9350

> <Gold.PLP.ligand.clash>
0.0000

> <Gold.PLP.ligand.torsion>
0.4412

> <Gold.PLP.Chemscore.Hbond>
1.9571

> <Gold.PLP.Chemscore.CHOScore>
0.0000

> <Gold.PLP.Chemscore.Metal>
0.0000

> <Gold.Chemscore.Hbonds>
donor molecule, donor type, donor heavy atom, donor atom, acceptor molecule, acceptor atom, score
      P1  H  7997  8009       L1    11  1.00

> <Gold.PLP.Chemscore.Internal.Correction>
0.0132

> <Gold.Rescore>
     Score         DG    S(hbond)    S(metal)    S(lipo)     H(rot)  DE(clash)    DE(int)     intcor
     18.48     -20.14       2.13        0.00     115.92       2.35       1.43       0.24       ----

> <Gold.Chemscore.Fitness>
18.4755

> <Gold.Chemscore.DG>
-20.1446

> <Gold.Chemscore.ZeroCoef>
-5.4800

> <Gold.Chemscore.Hbond>
2.1303

> <Gold.Chemscore.Metal>
0.0000

> <Gold.Chemscore.Lipo>
115.9234

> <Gold.Chemscore.Internal_Hbond>
0.0000

> <Gold.Chemscore.DEClash>
1.4272

> <Gold.Chemscore.DEInternal>
0.2419

> <Gold.Chemscore.Rot>
2.3490

> <Gold.Chemscore.Internal.Correction>
   9.000000E+99

> <Gold.Chemscore.Hbonds>
donor molecule, donor type, donor heavy atom, donor atom, acceptor molecule, acceptor atom, score
      P1  H  7997  8009       L1    11  0.98
      P1  H  8011  8017       L1    21  0.03

> <Gold.Chemscore.Hbond.Weighted>
-7.1151

> <Gold.Chemscore.Metal.Weighted>
-0.0000

> <Gold.Chemscore.Lipo.Weighted>
-13.5630

> <Gold.Chemscore.Internal_Hbond.Weighted>
0.0000

> <Gold.Chemscore.DEClash.Weighted>
1.4272

> <Gold.Chemscore.DEInternal.Weighted>
0.2419

> <Gold.Chemscore.Rot.Weighted>
6.0136

> <Gold.Chemscore.Internal.Correction.Weighted>
   9.000000E+99

> <Gold.Protein.RotatedTorsions>
[ 6907 6896 6895 6894 ] final   75.80 input  -60.11 | X-H torsion
[ 7974 7965 7964 7962 ] final -136.57 input  175.53 | X-H torsion
[ 8008 7997 7996 7995 ] final -144.26 input   59.86 | X-H torsion
[ 10167 10162 10161 10158 ] final  166.47 input  -65.29 | X-H torsion
[ 10718 10713 10712 10709 ] final   53.50 input   66.30 | X-H torsion
[ 10763 10752 10751 10750 ] final   49.59 input  -60.55 | X-H torsion
[ 11005 11000 10999 10996 ] final   91.63 input  -57.11 | X-H torsion

> <Gold.Protein.ActiveResidues>
 VAL166  LYS551  ARG553  GLY616  TRP617  ASP618  TYR619  PRO620  LYS621  CYS622 
 ASP623  PHE694  ASN695  SER759  ASP760  ASP761  ALA762  ILE779  LEU786  VAL792 
 PHE793  MET794  SER795  GLU796  ALA797  LYS798  CYS799  TRP800  GLU811  SER814 

> <Gold.Protein.RotatedAtoms>
  152.5043  134.4066  159.9434 H   0  0  0  0  0  0  0  0  0  0  0  0  # atno 6907 bound_to 6896
  151.4032  133.3744  159.2742 H   0  0  0  0  0  0  0  0  0  0  0  0  # atno 6908 bound_to 6896
  150.9346  134.8780  159.7632 H   0  0  0  0  0  0  0  0  0  0  0  0  # atno 6909 bound_to 6896
  144.8915  140.6649  143.5142 H   0  0  0  0  0  0  0  0  0  0  0  0  # atno 7974 bound_to 7965
  155.5241  140.0594  157.2901 H   0  0  0  0  0  0  0  0  0  0  0  0  # atno 8008 bound_to 7997
  154.4507  140.1947  156.0473 H   0  0  0  0  0  0  0  0  0  0  0  0  # atno 8009 bound_to 7997
  156.0698  140.3261  155.7566 H   0  0  0  0  0  0  0  0  0  0  0  0  # atno 8010 bound_to 7997
  139.4925  144.4024  151.9394 H   0  0  0  0  0  0  0  0  0  0  0  0  # atno 10167 bound_to 10162
  157.5173  130.8541  149.8512 H   0  0  0  0  0  0  0  0  0  0  0  0  # atno 10718 bound_to 10713
  152.9786  135.5907  154.4113 H   0  0  0  0  0  0  0  0  0  0  0  0  # atno 10763 bound_to 10752
  154.3748  135.2767  155.2247 H   0  0  0  0  0  0  0  0  0  0  0  0  # atno 10764 bound_to 10752
  154.4187  135.6064  153.6051 H   0  0  0  0  0  0  0  0  0  0  0  0  # atno 10765 bound_to 10752
  139.8836  134.8685  156.3456 H   0  0  0  0  0  0  0  0  0  0  0  0  # atno 11005 bound_to 11000
  145.3774  139.1644  143.4299 LP  0  0  0  0  0  0  0  0  0  0  0  0  # atno 17320 bound_to 7965
  146.3056  140.3852  142.8688 LP  0  0  0  0  0  0  0  0  0  0  0  0  # atno 17321 bound_to 7965
  140.3464  144.3142  150.5957 LP  0  0  0  0  0  0  0  0  0  0  0  0  # atno 17342 bound_to 10162
  140.5523  143.2204  151.7907 LP  0  0  0  0  0  0  0  0  0  0  0  0  # atno 17343 bound_to 10162
  156.0329  130.3759  150.1639 LP  0  0  0  0  0  0  0  0  0  0  0  0  # atno 17370 bound_to 10713
  156.9828  130.9869  151.3433 LP  0  0  0  0  0  0  0  0  0  0  0  0  # atno 17371 bound_to 10713
  140.9629  133.7377  156.0426 LP  0  0  0  0  0  0  0  0  0  0  0  0  # atno 17394 bound_to 11000
  140.7967  134.3556  157.5450 LP  0  0  0  0  0  0  0  0  0  0  0  0  # atno 17395 bound_to 11000

$$$$
