#       Name:                AV-unprocessed.smi:425
#       Creating user name   scv26
#       Creation time:       Thu Mar 26 22:50:15 2020


#       File generated by GOLD software.
#

@<TRIPOS>MOLECULE
AV-unprocessed.smi:425
    35    35     1
SMALL
NO_CHARGES


@<TRIPOS>ATOM
      1 ****        -4.0466  -2.5338   2.3935 O.co2          1 S1                 0.0000
      2 ****        -3.5341  -3.2594   1.5138 C.2            1 S1                 0.0000
      3 ****        -3.3368  -4.4908   1.6073 O.co2          1 S1                -1.0000
      4 ****        -3.0998  -2.5844   0.2152 C.3            1 S1                 0.0000
      5 ****        -1.6711  -2.2957   0.2618 N.am           1 S1                 0.0000
      6 ****        -1.1090  -1.0853   0.1298 C.2            1 S1                 0.0000
      7 ****        -1.7528  -0.0569  -0.0845 O.2            1 S1                 0.0000
      8 ****         0.4221  -1.0492   0.2448 C.3            1 S1                 0.0000
      9 ****         0.9789   0.3142   0.2581 N.am           1 S1                 0.0000
     10 ****         1.3840   0.8474  -0.9802 C.2            1 S1                 0.0000
     11 ****         1.9123   2.0783  -1.1096 C.2            1 S1                 0.0000
     12 ****         2.2823   2.6486  -2.4698 C.3            1 S1                 0.0000
     13 ****         2.2217   3.9803  -2.4666 F              1 S1                 0.0000
     14 ****         3.5251   2.2897  -2.7882 F              1 S1                 0.0000
     15 ****         1.4638   2.1940  -3.4194 F              1 S1                 0.0000
     16 ****         2.0207   2.8633   0.1037 C.2            1 S1                 0.0000
     17 ****         1.6268   2.3792   1.2989 C.2            1 S1                 0.0000
     18 ****         1.7803   3.3584   2.7140 Cl             1 S1                 0.0000
     19 ****         1.0689   1.0261   1.4215 C.2            1 S1                 0.0000
     20 ****         0.7035   0.5578   2.5007 O.2            1 S1                 0.0000
     21 ****        -3.2970  -3.2527  -0.6235 H              1 S1                 0.0000
     22 ****        -3.7001  -1.6878   0.0508 H              1 S1                 0.0000
     23 ****        -1.0649  -3.0824   0.4431 H              1 S1                 0.0000
     24 ****         0.7238  -1.5942   1.1414 H              1 S1                 0.0000
     25 ****         0.8409  -1.6186  -0.5862 H              1 S1                 0.0000
     26 ****         1.2257   0.1917  -1.8243 H              1 S1                 0.0000
     27 ****         2.4301   3.8616   0.0527 H              1 S1                 0.0000
     28 ****        -4.3384  -2.9325   3.2630 LP             1 S1                 0.0000
     29 ****        -4.1647  -1.5547   2.2278 LP             1 S1                 0.0000
     30 ****        -3.5969  -4.9769   2.4416 LP             1 S1                 0.0000
     31 ****        -2.9189  -4.9893   0.8478 LP             1 S1                 0.0000
     32 ****        -2.7483  -0.0987  -0.1688 LP             1 S1                 0.0000
     33 ****        -1.2797   0.8196  -0.1740 LP             1 S1                 0.0000
     34 ****         0.3283  -0.3682   2.5426 LP             1 S1                 0.0000
     35 ****         0.7822   1.1037   3.3349 LP             1 S1                 0.0000
@<TRIPOS>BOND
    1    1    2 ar    
    2    2    3 ar    
    3    2    4 1     
    4    4    5 1     
    5    4   21 1     
    6    4   22 1     
    7    5    6 am    
    8    5   23 1     
    9    6    7 2     
   10    6    8 1     
   11    8    9 1     
   12    8   24 1     
   13    8   25 1     
   14    9   19 am    
   15    9   10 1     
   16   10   11 2     
   17   10   26 1     
   18   11   12 1     
   19   11   16 1     
   20   12   13 1     
   21   12   14 1     
   22   12   15 1     
   23   16   17 2     
   24   16   27 1     
   25   17   18 1     
   26   17   19 1     
   27   19   20 2     
   28    1   28 1     
   29    1   29 1     
   30    3   30 1     
   31    3   31 1     
   32    7   32 1     
   33    7   33 1     
   34   20   34 1     
   35   20   35 1     
@<TRIPOS>SUBSTRUCTURE
      1 S1             1
@<TRIPOS>SET
LONE_PAIRS      STATIC     ATOMS    <user>   **** ""
8 28 29 30 31 32 33 34 35
DONOR_HYDROGENS      STATIC     ATOMS    <user>   **** ""
1 23
ATOM$BLUE        STATIC     ATOMS    COLORGROUP SYSTEM
8 28 29 30 31 32 33 34 35
ATOM$RED        STATIC     ATOMS    COLORGROUP SYSTEM
1 23
