AV-unprocessed.smi:290|AV-procd|sdf|2231|dock4
  -GOLD-   2262022 93D 1   1.00000     0.00000
 Structure written by MMmdl.
 59 62  0  0  0  0  0  0  0  0  2 V2000
  152.4995  144.9826  157.4473 C   0  0  0  0  0  0  0  0  0  0  0  0
  152.1354  144.0669  158.6220 C   0  0  2  0  0  0  0  0  0  0  0  0
  153.3377  143.5764  159.2019 O   0  0  0  0  0  0  0  0  0  0  0  0
  153.0070  142.4342  159.9669 C   0  0  0  0  0  0  0  0  0  0  0  0
  152.0682  141.6921  159.0287 C   0  0  0  0  0  0  0  0  0  0  0  0
  151.2668  142.8021  158.3420 C   0  0  1  0  0  0  0  0  0  0  0  0
  150.0548  142.9485  159.0602 O   0  0  0  0  0  0  0  0  0  0  0  0
  150.9685  142.4097  156.8635 C   0  0  0  0  0  0  0  0  0  0  0  0
  150.3099  141.1244  156.6595 N   0  0  0  0  0  0  0  0  0  0  0  0
  149.0545  140.7605  157.0884 C   0  0  0  0  0  0  0  0  0  0  0  0
  148.6813  139.5549  156.7603 N   0  0  0  0  0  0  0  0  0  0  0  0
  149.7365  139.0555  156.0046 C   0  0  0  0  0  0  0  0  0  0  0  0
  149.9960  137.8259  155.3245 C   0  0  0  0  0  0  0  0  0  0  0  0
  149.1554  136.7580  155.2654 N   0  0  0  0  0  0  0  0  0  0  0  0
  147.7333  136.9360  155.5098 C   0  0  0  0  0  0  0  0  0  0  0  0
  147.0480  135.9506  154.5729 C   0  0  0  0  0  0  0  0  0  0  0  0
  148.0562  134.7988  154.4331 C   0  0  1  0  0  0  0  0  0  0  0  0
  147.8280  134.0122  153.1822 N   0  3  1  0  0  0  0  0  0  0  0  0
  148.4894  132.6845  153.1550 C   0  0  0  0  0  0  0  0  0  0  0  0
  146.3891  133.9061  152.8161 C   0  0  0  0  0  0  0  0  0  0  0  0
  146.2002  133.4123  151.3724 C   0  0  0  0  0  0  0  0  0  0  0  0
  145.6695  134.4506  150.5757 O   0  0  0  0  0  0  0  0  0  0  0  0
  149.4201  135.5344  154.5133 C   0  0  2  0  0  0  0  0  0  0  0  0
  150.5200  134.7074  155.2149 C   0  0  0  0  0  0  0  0  0  0  0  0
  151.1836  137.7172  154.6729 N   0  0  0  0  0  0  0  0  0  0  0  0
  152.0547  138.7288  154.6700 C   0  0  0  0  0  0  0  0  0  0  0  0
  151.9452  139.9223  155.2524 N   0  0  0  0  0  0  0  0  0  0  0  0
  150.7648  140.0404  155.9249 C   0  0  0  0  0  0  0  0  0  0  0  0
  147.9554  134.1390  155.2970 H   0  0  0  0  0  0  0  0  0  0  0  0
  149.7259  135.8154  153.5062 H   0  0  0  0  0  0  0  0  0  0  0  0
  151.6164  145.4830  157.0541 H   0  0  0  0  0  0  0  0  0  0  0  0
  152.9899  144.4386  156.6406 H   0  0  0  0  0  0  0  0  0  0  0  0
  153.1853  145.7645  157.7741 H   0  0  0  0  0  0  0  0  0  0  0  0
  151.6588  144.6826  159.3876 H   0  0  0  0  0  0  0  0  0  0  0  0
  153.8904  141.8522  160.2298 H   0  0  0  0  0  0  0  0  0  0  0  0
  152.4973  142.7312  160.8848 H   0  0  0  0  0  0  0  0  0  0  0  0
  152.6717  141.1550  158.2955 H   0  0  0  0  0  0  0  0  0  0  0  0
  151.4515  140.9533  159.5427 H   0  0  0  0  0  0  0  0  0  0  0  0
  149.3435  142.6500  158.5138 H   0  0  0  0  0  0  0  0  0  0  0  0
  150.3862  143.1873  156.3686 H   0  0  0  0  0  0  0  0  0  0  0  0
  151.9099  142.3638  156.3139 H   0  0  0  0  0  0  0  0  0  0  0  0
  148.4165  141.4188  157.6594 H   0  0  0  0  0  0  0  0  0  0  0  0
  147.5226  136.6927  156.5517 H   0  0  0  0  0  0  0  0  0  0  0  0
  147.3944  137.9552  155.3199 H   0  0  0  0  0  0  0  0  0  0  0  0
  146.0765  135.6410  154.9575 H   0  0  0  0  0  0  0  0  0  0  0  0
  146.8884  136.4277  153.6045 H   0  0  0  0  0  0  0  0  0  0  0  0
  148.1554  132.0655  153.9884 H   0  0  0  0  0  0  0  0  0  0  0  0
  149.5739  132.7776  153.1968 H   0  0  0  0  0  0  0  0  0  0  0  0
  148.2633  132.1493  152.2333 H   0  0  0  0  0  0  0  0  0  0  0  0
  145.8855  133.2350  153.5133 H   0  0  0  0  0  0  0  0  0  0  0  0
  145.8762  134.8618  152.9162 H   0  0  0  0  0  0  0  0  0  0  0  0
  147.1322  133.0543  150.9358 H   0  0  0  0  0  0  0  0  0  0  0  0
  145.5001  132.5766  151.3561 H   0  0  0  0  0  0  0  0  0  0  0  0
  145.9953  134.3511  149.6934 H   0  0  0  0  0  0  0  0  0  0  0  0
  150.7690  133.7976  154.6734 H   0  0  0  0  0  0  0  0  0  0  0  0
  150.2088  134.4152  156.2182 H   0  0  0  0  0  0  0  0  0  0  0  0
  151.4456  135.2724  155.3199 H   0  0  0  0  0  0  0  0  0  0  0  0
  152.9692  138.5573  154.1215 H   0  0  0  0  0  0  0  0  0  0  0  0
  148.2573  134.5549  152.4459 H   0  0  0  0  0  0  0  0  0  0  0  0
  1  2  1  0  0  0  0
  1 31  1  0  0  0  0
  1 32  1  0  0  0  0
  1 33  1  0  0  0  0
  2  6  1  0  0  0  0
  2  3  1  0  0  0  0
  2 34  1  0  0  0  0
  3  4  1  0  0  0  0
  4  5  1  0  0  0  0
  4 35  1  0  0  0  0
  4 36  1  0  0  0  0
  5  6  1  0  0  0  0
  5 37  1  0  0  0  0
  5 38  1  0  0  0  0
  6  7  1  0  0  0  0
  6  8  1  0  0  0  0
  7 39  1  0  0  0  0
  8  9  1  0  0  0  0
  8 40  1  0  0  0  0
  8 41  1  0  0  0  0
  9 28  1  0  0  0  0
  9 10  1  0  0  0  0
 10 11  2  0  0  0  0
 10 42  1  0  0  0  0
 11 12  1  0  0  0  0
 12 28  2  0  0  0  0
 12 13  1  0  0  0  0
 13 14  1  0  0  0  0
 13 25  2  0  0  0  0
 14 23  1  0  0  0  0
 14 15  1  0  0  0  0
 15 16  1  0  0  0  0
 15 43  1  0  0  0  0
 15 44  1  0  0  0  0
 16 17  1  0  0  0  0
 16 45  1  0  0  0  0
 16 46  1  0  0  0  0
 17 29  1  0  0  0  0
 17 18  1  0  0  0  0
 17 23  1  0  0  0  0
 18 19  1  0  0  0  0
 18 20  1  0  0  0  0
 18 59  1  0  0  0  0
 19 47  1  0  0  0  0
 19 48  1  0  0  0  0
 19 49  1  0  0  0  0
 20 21  1  0  0  0  0
 20 50  1  0  0  0  0
 20 51  1  0  0  0  0
 21 22  1  0  0  0  0
 21 52  1  0  0  0  0
 21 53  1  0  0  0  0
 22 54  1  0  0  0  0
 23 30  1  0  0  0  0
 23 24  1  0  0  0  0
 24 55  1  0  0  0  0
 24 56  1  0  0  0  0
 24 57  1  0  0  0  0
 25 26  1  0  0  0  0
 26 27  2  0  0  0  0
 26 58  1  0  0  0  0
 27 28  1  0  0  0  0
M  CHG  1  18   1
M  END
> <s_m_source_file>
AV-unprocessed.smi

> <i_m_source_file_index>
290

> <i_lp_mmshare_version>
43012

> <i_f3d_flags>
0

> <s_epik_input>
W0NIMl0xW0NIMl1PW0NAQEhdKFtDSDNdKVtDQEBdMShbT0hdKVtDSDJdbihbY0hdbjIpYyhjMjMpbltjSF1uYzNONFtDSDJdW0NIMl1bQ0BIXShbQ0BIXTRbQ0gzXSlOKFtDSDNdKVtDSDJdW0NIMl1bT0hd

> <s_epik_cmdline>
J2VwaWtfcHl0aG9uJywgJy1waCcsICc3LjAnLCAnLXRuJywgJzgnLCAnLW1hJywgJzIwMCcsICctbWV0YWxfYmluZGluZycsICctaW1hZScsICc8aW5maWxlLm1hZT4nLCAnLW9tYWUnLCAnPG91dGZpbGUubWFlPic=

> <r_lp_tautomer_probability>
1

> <r_epik_Ionization_Penalty>
0.0036983

> <r_epik_Ionization_Penalty_Charging>
0.0032725

> <r_epik_Ionization_Penalty_Neutral>
0.000425798

> <r_epik_State_Penalty>
-0

> <r_epik_Charging_Adjusted_Penalty>
0.0032725

> <i_epik_Tot_Q>
1

> <i_epik_Tot_abs_Q>
1

> <r_epik_Metal_State_Penalty>
-0

> <b_epik_Metal_Only>
0

> <s_lp_Force_Field>
OPLS_2005

> <r_lp_Energy>
63.0436

> <b_lp_Chiralities_Consistent>
1

> <s_lp_Variant>
AV-unprocessed.smi:290-17

> <Gold.Version>
5.8.1

> <Gold.Id.Protein>
6NUR|6NUR_protein|mol2

> <Gold.PLP.Fitness>
51.5705

> <Gold.PLP.PLP>
-42.5104

> <Gold.PLP.part.hbond>
-3.4994

> <Gold.PLP.part.metal>
0.0000

> <Gold.PLP.part.buried>
-4.5972

> <Gold.PLP.part.nonpolar>
-34.5773

> <Gold.PLP.part.repulsive>
0.1653

> <Gold.PLP.ligand.clash>
0.0000

> <Gold.PLP.ligand.torsion>
1.0191

> <Gold.PLP.Chemscore.Hbond>
3.5809

> <Gold.PLP.Chemscore.CHOScore>
0.0000

> <Gold.PLP.Chemscore.Metal>
0.0000

> <Gold.Chemscore.Hbonds>
donor molecule, donor type, donor heavy atom, donor atom, acceptor molecule, acceptor atom, score
      L1  H    18    59       P1  7948  1.90
      L1  H    22    54       P1  7921  0.81
      P1  H  7989  7998       L1    27  0.57

> <Gold.PLP.Chemscore.Internal.Correction>
0.3554

> <Gold.Rescore>
     Score         DG    S(hbond)    S(metal)    S(lipo)     H(rot)  DE(clash)    DE(int)     intcor
     11.04     -14.38       1.86        0.00      96.19       3.35       1.49       1.85       ----

> <Gold.Chemscore.Fitness>
11.0366

> <Gold.Chemscore.DG>
-14.3799

> <Gold.Chemscore.ZeroCoef>
-5.4800

> <Gold.Chemscore.Hbond>
1.8640

> <Gold.Chemscore.Metal>
0.0000

> <Gold.Chemscore.Lipo>
96.1948

> <Gold.Chemscore.Internal_Hbond>
0.0000

> <Gold.Chemscore.DEClash>
1.4948

> <Gold.Chemscore.DEInternal>
1.8486

> <Gold.Chemscore.Rot>
3.3518

> <Gold.Chemscore.Internal.Correction>
   9.000000E+99

> <Gold.Chemscore.Hbonds>
donor molecule, donor type, donor heavy atom, donor atom, acceptor molecule, acceptor atom, score
      L1  H    18    59       P1  7948  0.20
      L1  H    22    54       P1  7921  0.31
      P1  H  7989  7998       L1    27  0.03

> <Gold.Chemscore.Hbond.Weighted>
-6.2257

> <Gold.Chemscore.Metal.Weighted>
-0.0000

> <Gold.Chemscore.Lipo.Weighted>
-11.2548

> <Gold.Chemscore.Internal_Hbond.Weighted>
0.0000

> <Gold.Chemscore.DEClash.Weighted>
1.4948

> <Gold.Chemscore.DEInternal.Weighted>
1.8486

> <Gold.Chemscore.Rot.Weighted>
8.5806

> <Gold.Chemscore.Internal.Correction.Weighted>
   9.000000E+99

> <Gold.Protein.RotatedTorsions>
[ 6907 6896 6895 6894 ] final  -45.78 input  -60.11 | X-H torsion
[ 7974 7965 7964 7962 ] final  -72.92 input  175.53 | X-H torsion
[ 8008 7997 7996 7995 ] final  128.06 input   59.86 | X-H torsion
[ 10167 10162 10161 10158 ] final  132.99 input  -65.29 | X-H torsion
[ 10718 10713 10712 10709 ] final  -20.07 input   66.30 | X-H torsion
[ 10763 10752 10751 10750 ] final  146.59 input  -60.55 | X-H torsion
[ 11005 11000 10999 10996 ] final   50.30 input  -57.11 | X-H torsion

> <Gold.Protein.ActiveResidues>
 VAL166  LYS551  ARG553  GLY616  TRP617  ASP618  TYR619  PRO620  LYS621  CYS622 
 ASP623  PHE694  ASN695  SER759  ASP760  ASP761  ALA762  ILE779  LEU786  VAL792 
 PHE793  MET794  SER795  GLU796  ALA797  LYS798  CYS799  TRP800  GLU811  SER814 

> <Gold.Protein.RotatedAtoms>
  150.9183  134.8600  159.7471 H   0  0  0  0  0  0  0  0  0  0  0  0  # atno 6907 bound_to 6896
  152.4979  134.4257  159.9505 H   0  0  0  0  0  0  0  0  0  0  0  0  # atno 6908 bound_to 6896
  151.4293  133.3635  159.2801 H   0  0  0  0  0  0  0  0  0  0  0  0  # atno 6909 bound_to 6896
  145.6589  140.9259  143.0944 H   0  0  0  0  0  0  0  0  0  0  0  0  # atno 7974 bound_to 7965
  156.2906  140.2654  156.2375 H   0  0  0  0  0  0  0  0  0  0  0  0  # atno 8008 bound_to 7997
  155.0011  140.0388  157.2378 H   0  0  0  0  0  0  0  0  0  0  0  0  # atno 8009 bound_to 7997
  154.7601  140.2759  155.6226 H   0  0  0  0  0  0  0  0  0  0  0  0  # atno 8010 bound_to 7997
  139.5316  144.6636  151.4932 H   0  0  0  0  0  0  0  0  0  0  0  0  # atno 10167 bound_to 10162
  156.5369  130.4669  149.6518 H   0  0  0  0  0  0  0  0  0  0  0  0  # atno 10718 bound_to 10713
  154.0245  135.2903  155.3377 H   0  0  0  0  0  0  0  0  0  0  0  0  # atno 10763 bound_to 10752
  154.7026  135.5182  153.8552 H   0  0  0  0  0  0  0  0  0  0  0  0  # atno 10764 bound_to 10752
  153.0667  135.6633  154.0463 H   0  0  0  0  0  0  0  0  0  0  0  0  # atno 10765 bound_to 10752
  140.1029  134.5057  155.8746 H   0  0  0  0  0  0  0  0  0  0  0  0  # atno 11005 bound_to 11000
  144.7096  139.8423  143.7419 LP  0  0  0  0  0  0  0  0  0  0  0  0  # atno 17320 bound_to 7965
  146.1142  139.4150  143.0269 LP  0  0  0  0  0  0  0  0  0  0  0  0  # atno 17321 bound_to 7965
  140.6497  143.8722  150.6773 LP  0  0  0  0  0  0  0  0  0  0  0  0  # atno 17342 bound_to 10162
  140.2082  143.3904  152.1738 LP  0  0  0  0  0  0  0  0  0  0  0  0  # atno 17343 bound_to 10162
  156.3007  130.7175  151.2046 LP  0  0  0  0  0  0  0  0  0  0  0  0  # atno 17370 bound_to 10713
  157.7412  131.0507  150.5113 LP  0  0  0  0  0  0  0  0  0  0  0  0  # atno 17371 bound_to 10713
  141.2110  133.6702  156.6554 LP  0  0  0  0  0  0  0  0  0  0  0  0  # atno 17394 bound_to 11000
  140.3195  134.8019  157.4241 LP  0  0  0  0  0  0  0  0  0  0  0  0  # atno 17395 bound_to 11000

$$$$
