#       Name:                AV-unprocessed.smi:2580
#       Creating user name   scv26
#       Creation time:       Fri Mar 27 14:14:43 2020


#       File generated by GOLD software.
#

@<TRIPOS>MOLECULE
AV-unprocessed.smi:2580
    34    35     1
SMALL
NO_CHARGES


@<TRIPOS>ATOM
      1 ****        -1.9219  -1.1577   1.7948 C.3            1 S1                 0.0000
      2 ****        -2.4387   0.1126   1.0948 C.3            1 S1                 0.0000
      3 ****        -2.5675   1.3215   1.9992 C.3            1 S1                 0.0000
      4 ****        -2.7162   2.4391   0.9738 C.3            1 S1                 0.0000
      5 ****        -1.8872   2.0605  -0.1216 O.3            1 S1                 0.0000
      6 ****        -1.6109   0.6590  -0.0896 C.3            1 S1                 0.0000
      7 ****        -0.0871   0.4904   0.0308 C.2            1 S1                 0.0000
      8 ****         0.5095   0.9626   0.9996 O.2            1 S1                 0.0000
      9 ****         0.5040  -0.1685  -0.9830 N.am           1 S1                 0.0000
     10 ****         1.8777  -0.4963  -1.1482 C.ar           1 S1                 0.0000
     11 ****         2.8253  -0.1974  -0.2238 N.ar           1 S1                 0.0000
     12 ****         4.1087  -0.5447  -0.4534 C.ar           1 S1                 0.0000
     13 ****         4.5280  -1.2125  -1.6177 C.ar           1 S1                 0.0000
     14 ****         3.5575  -1.5304  -2.5838 C.ar           1 S1                 0.0000
     15 ****         2.2152  -1.1705  -2.3497 C.ar           1 S1                 0.0000
     16 ****         1.0190  -1.5617  -3.5371 Cl             1 S1                 0.0000
     17 ****        -0.9675  -0.9926   2.2953 H              1 S1                 0.0000
     18 ****        -1.7914  -1.9713   1.0811 H              1 S1                 0.0000
     19 ****        -2.6300  -1.4941   2.5524 H              1 S1                 0.0000
     20 ****        -3.4334  -0.1174   0.7087 H              1 S1                 0.0000
     21 ****        -3.4150   1.2583   2.6822 H              1 S1                 0.0000
     22 ****        -1.6620   1.4655   2.5899 H              1 S1                 0.0000
     23 ****        -3.7483   2.5003   0.6259 H              1 S1                 0.0000
     24 ****        -2.4333   3.4142   1.3706 H              1 S1                 0.0000
     25 ****        -1.9555   0.2068  -1.0212 H              1 S1                 0.0000
     26 ****        -0.1048  -0.4769  -1.7271 H              1 S1                 0.0000
     27 ****         4.8214  -0.2817   0.3142 H              1 S1                 0.0000
     28 ****         5.5657  -1.4731  -1.7651 H              1 S1                 0.0000
     29 ****         3.8388  -2.0428  -3.4920 H              1 S1                 0.0000
     30 ****        -1.0256   2.5655  -0.0704 LP             1 S1                 0.0000
     31 ****        -2.3536   2.2830  -0.9777 LP             1 S1                 0.0000
     32 ****         0.0029   1.4552   1.7072 LP             1 S1                 0.0000
     33 ****         1.5004   0.8532   1.0784 LP             1 S1                 0.0000
     34 ****         2.5744   0.2762   0.6204 LP             1 S1                 0.0000
@<TRIPOS>BOND
    1    1    2 1     
    2    1   17 1     
    3    1   18 1     
    4    1   19 1     
    5    2    6 1     
    6    2    3 1     
    7    2   20 1     
    8    3    4 1     
    9    3   21 1     
   10    3   22 1     
   11    4    5 1     
   12    4   23 1     
   13    4   24 1     
   14    5    6 1     
   15    6    7 1     
   16    6   25 1     
   17    7    8 2     
   18    7    9 am    
   19    9   10 1     
   20    9   26 1     
   21   10   15 ar    
   22   10   11 ar    
   23   11   12 ar    
   24   12   13 ar    
   25   12   27 1     
   26   13   14 ar    
   27   13   28 1     
   28   14   15 ar    
   29   14   29 1     
   30   15   16 1     
   31    5   30 1     
   32    5   31 1     
   33    8   32 1     
   34    8   33 1     
   35   11   34 1     
@<TRIPOS>SUBSTRUCTURE
      1 S1             1
@<TRIPOS>SET
LONE_PAIRS      STATIC     ATOMS    <user>   **** ""
5 30 31 32 33 34
DONOR_HYDROGENS      STATIC     ATOMS    <user>   **** ""
1 26
ATOM$BLUE        STATIC     ATOMS    COLORGROUP SYSTEM
5 30 31 32 33 34
ATOM$RED        STATIC     ATOMS    COLORGROUP SYSTEM
1 26
