AV-unprocessed.smi:2886|AV-procd|sdf|11096|dock7
  -GOLD-   2272015563D 1   1.00000     0.00000
 Structure written by MMmdl.
 27 29  0  0  0  0  0  0  0  0  2 V2000
  152.2077  137.3007  155.3931 O   0  0  0  0  0  0  0  0  0  0  0  0
  152.3554  137.8966  156.4588 C   0  0  0  0  0  0  0  0  0  0  0  0
  153.0750  137.3679  157.4947 N   0  5  0  0  0  0  0  0  0  0  0  0
  153.2117  138.1021  158.7330 N   0  0  0  0  0  0  0  0  0  0  0  0
  152.6778  139.2500  158.8785 C   0  0  0  0  0  0  0  0  0  0  0  0
  151.8947  139.9046  157.8016 C   0  0  0  0  0  0  0  0  0  0  0  0
  151.3117  141.1554  157.9601 N   0  0  0  0  0  0  0  0  0  0  0  0
  151.3378  142.0305  159.1242 C   0  0  1  0  0  0  0  0  0  0  0  0
  152.7513  142.2909  159.6472 C   0  0  0  0  0  0  0  0  0  0  0  0
  152.7957  143.8257  159.6667 C   0  0  1  0  0  0  0  0  0  0  0  0
  152.9379  144.4025  158.2524 C   0  0  0  0  0  0  0  0  0  0  0  0
  151.5483  144.1476  157.6715 C   0  0  0  0  0  0  0  0  0  0  0  0
  150.8339  143.4571  158.8456 C   0  0  2  0  0  0  0  0  0  0  0  0
  151.4375  144.1358  159.9346 O   0  0  0  0  0  0  0  0  0  0  0  0
  151.7471  139.2204  156.6389 C   0  0  0  0  0  0  0  0  0  0  0  0
  150.8378  139.8958  155.3262 Cl  0  0  0  0  0  0  0  0  0  0  0  0
  152.7717  139.8023  159.8163 H   0  0  0  0  0  0  0  0  0  0  0  0
  150.9282  141.5763  157.1261 H   0  0  0  0  0  0  0  0  0  0  0  0
  150.7554  141.5933  159.9351 H   0  0  0  0  0  0  0  0  0  0  0  0
  152.8637  141.8835  160.6524 H   0  0  0  0  0  0  0  0  0  0  0  0
  153.5373  141.8671  159.0202 H   0  0  0  0  0  0  0  0  0  0  0  0
  153.5034  144.2392  160.3858 H   0  0  0  0  0  0  0  0  0  0  0  0
  153.1467  145.4722  158.2877 H   0  0  0  0  0  0  0  0  0  0  0  0
  153.7313  143.9174  157.6827 H   0  0  0  0  0  0  0  0  0  0  0  0
  151.0606  145.0926  157.4298 H   0  0  0  0  0  0  0  0  0  0  0  0
  151.5690  143.5403  156.7663 H   0  0  0  0  0  0  0  0  0  0  0  0
  149.7472  143.5406  158.8119 H   0  0  0  0  0  0  0  0  0  0  0  0
  1  2  2  0  0  0  0
  2 15  1  0  0  0  0
  2  3  1  0  0  0  0
  3  4  1  0  0  0  0
  4  5  2  0  0  0  0
  5  6  1  0  0  0  0
  5 17  1  0  0  0  0
  6  7  1  0  0  0  0
  6 15  2  0  0  0  0
  7  8  1  0  0  0  0
  7 18  1  0  0  0  0
  8 13  1  0  0  0  0
  8  9  1  0  0  0  0
  8 19  1  0  0  0  0
  9 10  1  0  0  0  0
  9 20  1  0  0  0  0
  9 21  1  0  0  0  0
 10 14  1  0  0  0  0
 10 11  1  0  0  0  0
 10 22  1  0  0  0  0
 11 12  1  0  0  0  0
 11 23  1  0  0  0  0
 11 24  1  0  0  0  0
 12 13  1  0  0  0  0
 12 25  1  0  0  0  0
 12 26  1  0  0  0  0
 13 14  1  0  0  0  0
 13 27  1  0  0  0  0
 15 16  1  0  0  0  0
M  CHG  1   3  -1
M  END
> <s_m_source_file>
AV-unprocessed.smi

> <i_m_source_file_index>
2886

> <i_lp_mmshare_version>
43012

> <i_f3d_flags>
0

> <s_epik_input>
Tz1jMVtuSF1uW2NIXWMoYzFDbClbTkhdW0NASF0oW0NIMl1bQ0BASF0yMylbQ0BASF0oTzMpW0NIMl1bQ0gyXTI=

> <s_epik_cmdline>
J2VwaWtfcHl0aG9uJywgJy1waCcsICc3LjAnLCAnLXRuJywgJzgnLCAnLW1hJywgJzIwMCcsICctbWV0YWxfYmluZGluZycsICctaW1hZScsICc8aW5maWxlLm1hZT4nLCAnLW9tYWUnLCAnPG91dGZpbGUubWFlPic=

> <r_lp_tautomer_probability>
0.986175

> <r_epik_Ionization_Penalty>
3.84253

> <r_epik_Ionization_Penalty_Charging>
0.0129711

> <r_epik_Ionization_Penalty_Neutral>
3.82956

> <r_epik_State_Penalty>
3.8249

> <r_epik_Charging_Adjusted_Penalty>
3.83787

> <i_epik_Tot_Q>
-1

> <i_epik_Tot_abs_Q>
1

> <r_epik_Metal_State_Penalty>
0.57612

> <b_epik_Metal_Only>
1

> <s_lp_Force_Field>
OPLS_2005

> <r_lp_Energy>
60.9826

> <b_lp_Chiralities_Consistent>
1

> <s_lp_Variant>
AV-unprocessed.smi:2886-10

> <Gold.Version>
5.8.1

> <Gold.Id.Protein>
6NUR|6NUR_protein|mol2

> <Gold.PLP.Fitness>
31.7145

> <Gold.PLP.PLP>
-29.6075

> <Gold.PLP.part.hbond>
-1.0000

> <Gold.PLP.part.metal>
0.0000

> <Gold.PLP.part.buried>
-3.2265

> <Gold.PLP.part.nonpolar>
-26.7073

> <Gold.PLP.part.repulsive>
0.1894

> <Gold.PLP.ligand.clash>
0.0000

> <Gold.PLP.ligand.torsion>
0.0930

> <Gold.PLP.Chemscore.Hbond>
0.7613

> <Gold.PLP.Chemscore.CHOScore>
0.0000

> <Gold.PLP.Chemscore.Metal>
0.0000

> <Gold.Chemscore.Hbonds>
donor molecule, donor type, donor heavy atom, donor atom, acceptor molecule, acceptor atom, score
      P1  H 10752 10764       L1     1  0.80

> <Gold.PLP.Chemscore.Internal.Correction>
0.0091

> <Gold.Rescore>
     Score         DG    S(hbond)    S(metal)    S(lipo)     H(rot)  DE(clash)    DE(int)     intcor
     16.31     -16.39       0.85        0.00      90.90       1.00       0.04       0.05       ----

> <Gold.Chemscore.Fitness>
16.3082

> <Gold.Chemscore.DG>
-16.3945

> <Gold.Chemscore.ZeroCoef>
-5.4800

> <Gold.Chemscore.Hbond>
0.8500

> <Gold.Chemscore.Metal>
0.0000

> <Gold.Chemscore.Lipo>
90.9008

> <Gold.Chemscore.Internal_Hbond>
0.0000

> <Gold.Chemscore.DEClash>
0.0408

> <Gold.Chemscore.DEInternal>
0.0455

> <Gold.Chemscore.Rot>
1.0000

> <Gold.Chemscore.Internal.Correction>
   9.000000E+99

> <Gold.Chemscore.Hbonds>
donor molecule, donor type, donor heavy atom, donor atom, acceptor molecule, acceptor atom, score
      P1  H 10752 10764       L1     1  0.76

> <Gold.Chemscore.Hbond.Weighted>
-2.8391

> <Gold.Chemscore.Metal.Weighted>
-0.0000

> <Gold.Chemscore.Lipo.Weighted>
-10.6354

> <Gold.Chemscore.Internal_Hbond.Weighted>
0.0000

> <Gold.Chemscore.DEClash.Weighted>
0.0408

> <Gold.Chemscore.DEInternal.Weighted>
0.0455

> <Gold.Chemscore.Rot.Weighted>
2.5600

> <Gold.Chemscore.Internal.Correction.Weighted>
   9.000000E+99

> <Gold.Protein.RotatedTorsions>
[ 6907 6896 6895 6894 ] final   41.68 input  -60.11 | X-H torsion
[ 7974 7965 7964 7962 ] final   69.89 input  175.53 | X-H torsion
[ 8008 7997 7996 7995 ] final  158.01 input   59.86 | X-H torsion
[ 10167 10162 10161 10158 ] final  -79.56 input  -65.29 | X-H torsion
[ 10718 10713 10712 10709 ] final  -47.78 input   66.30 | X-H torsion
[ 10763 10752 10751 10750 ] final  -55.28 input  -60.55 | X-H torsion
[ 11005 11000 10999 10996 ] final    2.12 input  -57.11 | X-H torsion

> <Gold.Protein.ActiveResidues>
 VAL166  LYS551  ARG553  GLY616  TRP617  ASP618  TYR619  PRO620  LYS621  CYS622 
 ASP623  PHE694  ASN695  SER759  ASP760  ASP761  ALA762  ILE779  LEU786  VAL792 
 PHE793  MET794  SER795  GLU796  ALA797  LYS798  CYS799  TRP800  GLU811  SER814 

> <Gold.Protein.RotatedAtoms>
  152.1983  134.8611  160.0510 H   0  0  0  0  0  0  0  0  0  0  0  0  # atno 6907 bound_to 6896
  151.9474  133.3650  159.3995 H   0  0  0  0  0  0  0  0  0  0  0  0  # atno 6908 bound_to 6896
  150.6949  134.4300  159.5288 H   0  0  0  0  0  0  0  0  0  0  0  0  # atno 6909 bound_to 6896
  145.7849  139.2905  143.1244 H   0  0  0  0  0  0  0  0  0  0  0  0  # atno 7974 bound_to 7965
  156.2329  140.1870  156.7196 H   0  0  0  0  0  0  0  0  0  0  0  0  # atno 8008 bound_to 7997
  154.6054  140.0630  156.9451 H   0  0  0  0  0  0  0  0  0  0  0  0  # atno 8009 bound_to 7997
  155.2104  140.3299  155.4332 H   0  0  0  0  0  0  0  0  0  0  0  0  # atno 8010 bound_to 7997
  140.4582  143.2461  151.8388 H   0  0  0  0  0  0  0  0  0  0  0  0  # atno 10167 bound_to 10162
  156.2051  130.4158  149.9188 H   0  0  0  0  0  0  0  0  0  0  0  0  # atno 10718 bound_to 10713
  154.1882  135.6432  153.5053 H   0  0  0  0  0  0  0  0  0  0  0  0  # atno 10763 bound_to 10752
  153.0042  135.5422  154.6443 H   0  0  0  0  0  0  0  0  0  0  0  0  # atno 10764 bound_to 10752
  154.5825  135.2926  155.0691 H   0  0  0  0  0  0  0  0  0  0  0  0  # atno 10765 bound_to 10752
  140.6078  133.9776  155.8162 H   0  0  0  0  0  0  0  0  0  0  0  0  # atno 11005 bound_to 11000
  146.0036  140.8498  143.0006 LP  0  0  0  0  0  0  0  0  0  0  0  0  # atno 17320 bound_to 7965
  144.6790  140.2388  143.7346 LP  0  0  0  0  0  0  0  0  0  0  0  0  # atno 17321 bound_to 7965
  139.4803  144.5039  151.9023 LP  0  0  0  0  0  0  0  0  0  0  0  0  # atno 17342 bound_to 10162
  140.4125  144.2350  150.5888 LP  0  0  0  0  0  0  0  0  0  0  0  0  # atno 17343 bound_to 10162
  156.6885  130.8886  151.3585 LP  0  0  0  0  0  0  0  0  0  0  0  0  # atno 17370 bound_to 10713
  157.7008  130.9331  150.0779 LP  0  0  0  0  0  0  0  0  0  0  0  0  # atno 17371 bound_to 10713
  141.0829  134.0035  157.3359 LP  0  0  0  0  0  0  0  0  0  0  0  0  # atno 17394 bound_to 11000
  139.9205  135.0200  156.8045 LP  0  0  0  0  0  0  0  0  0  0  0  0  # atno 17395 bound_to 11000

$$$$
