AV-unprocessed.smi:1985|AV-procd|sdf|8045|dock10
  -GOLD-   2272010243D 1   1.00000     0.00000
 Structure written by MMmdl.
 51 52  0  0  0  0  0  0  0  0  2 V2000
  147.3295  138.4865  153.3147 C   0  0  0  0  0  0  0  0  0  0  0  0
  147.0074  137.6591  154.5719 C   0  0  0  0  0  0  0  0  0  0  0  0
  148.2313  136.9906  155.2697 C   0  0  2  0  0  0  0  0  0  0  0  0
  147.8823  136.8361  156.7741 C   0  0  0  0  0  0  0  0  0  0  0  0
  149.4690  137.9254  155.1272 C   0  0  0  0  0  0  0  0  0  0  0  0
  149.2757  139.2277  155.7584 N   0  0  0  0  0  0  0  0  0  0  0  0
  150.1270  140.2571  155.6503 C   0  0  0  0  0  0  0  0  0  0  0  0
  151.1491  140.2137  154.9643 O   0  0  0  0  0  0  0  0  0  0  0  0
  149.7512  141.5246  156.4309 C   0  0  0  0  0  0  0  0  0  0  0  0
  150.6895  141.8419  157.5158 N   0  0  0  0  0  0  0  0  0  0  0  0
  151.4871  140.8432  158.0440 C   0  0  0  0  0  0  0  0  0  0  0  0
  152.3665  141.0454  159.0492 C   0  0  0  0  0  0  0  0  0  0  0  0
  152.5286  142.3649  159.6467 C   0  0  0  0  0  0  0  0  0  0  0  0
  153.3011  142.5935  160.5784 O   0  0  0  0  0  0  0  0  0  0  0  0
  151.7131  143.3717  159.0792 N   0  0  0  0  0  0  0  0  0  0  0  0
  151.8068  144.7009  159.6469 C   0  0  0  0  0  0  0  0  0  0  0  0
  150.7826  143.1510  158.0376 C   0  0  0  0  0  0  0  0  0  0  0  0
  150.0652  144.0512  157.5942 O   0  0  0  0  0  0  0  0  0  0  0  0
  148.5078  135.6411  154.6533 N   0  3  0  0  0  0  0  0  0  0  0  0
  149.6432  134.8768  155.2443 C   0  0  0  0  0  0  0  0  0  0  0  0
  149.9476  133.6264  154.4041 C   0  0  0  0  0  0  0  0  0  0  0  0
  148.7871  132.8109  154.3317 O   0  0  0  0  0  0  0  0  0  0  0  0
  147.7115  133.4846  153.6941 C   0  0  0  0  0  0  0  0  0  0  0  0
  147.3302  134.7401  154.4970 C   0  0  0  0  0  0  0  0  0  0  0  0
  146.4177  138.9160  152.8989 H   0  0  0  0  0  0  0  0  0  0  0  0
  147.7833  137.8772  152.5336 H   0  0  0  0  0  0  0  0  0  0  0  0
  148.0051  139.3134  153.5336 H   0  0  0  0  0  0  0  0  0  0  0  0
  146.4622  138.2869  155.2762 H   0  0  0  0  0  0  0  0  0  0  0  0
  146.2872  136.8924  154.2839 H   0  0  0  0  0  0  0  0  0  0  0  0
  147.4516  137.7493  157.1862 H   0  0  0  0  0  0  0  0  0  0  0  0
  148.7635  136.6152  157.3771 H   0  0  0  0  0  0  0  0  0  0  0  0
  147.1592  136.0376  156.9425 H   0  0  0  0  0  0  0  0  0  0  0  0
  150.3527  137.4717  155.5759 H   0  0  0  0  0  0  0  0  0  0  0  0
  149.7013  138.0910  154.0746 H   0  0  0  0  0  0  0  0  0  0  0  0
  148.4553  139.3450  156.3356 H   0  0  0  0  0  0  0  0  0  0  0  0
  149.6999  142.3562  155.7268 H   0  0  0  0  0  0  0  0  0  0  0  0
  148.7429  141.4181  156.8347 H   0  0  0  0  0  0  0  0  0  0  0  0
  151.4014  139.8459  157.6376 H   0  0  0  0  0  0  0  0  0  0  0  0
  152.9560  140.2190  159.4184 H   0  0  0  0  0  0  0  0  0  0  0  0
  151.4841  145.4459  158.9191 H   0  0  0  0  0  0  0  0  0  0  0  0
  152.8486  144.9057  159.8991 H   0  0  0  0  0  0  0  0  0  0  0  0
  151.1706  144.7113  160.5330 H   0  0  0  0  0  0  0  0  0  0  0  0
  150.5485  135.4786  155.2940 H   0  0  0  0  0  0  0  0  0  0  0  0
  149.4039  134.5685  156.2622 H   0  0  0  0  0  0  0  0  0  0  0  0
  150.2831  133.8996  153.4022 H   0  0  0  0  0  0  0  0  0  0  0  0
  150.7524  133.0523  154.8637 H   0  0  0  0  0  0  0  0  0  0  0  0
  147.9846  133.7455  152.6703 H   0  0  0  0  0  0  0  0  0  0  0  0
  146.8597  132.8070  153.6315 H   0  0  0  0  0  0  0  0  0  0  0  0
  146.9474  134.4447  155.4741 H   0  0  0  0  0  0  0  0  0  0  0  0
  146.5157  135.2300  153.9667 H   0  0  0  0  0  0  0  0  0  0  0  0
  148.7966  135.8531  153.7089 H   0  0  0  0  0  0  0  0  0  0  0  0
  1  2  1  0  0  0  0
  1 25  1  0  0  0  0
  1 26  1  0  0  0  0
  1 27  1  0  0  0  0
  2  3  1  0  0  0  0
  2 28  1  0  0  0  0
  2 29  1  0  0  0  0
  3  4  1  0  0  0  0
  3  5  1  0  0  0  0
  3 19  1  0  0  0  0
  4 30  1  0  0  0  0
  4 31  1  0  0  0  0
  4 32  1  0  0  0  0
  5  6  1  0  0  0  0
  5 33  1  0  0  0  0
  5 34  1  0  0  0  0
  6  7  1  0  0  0  0
  6 35  1  0  0  0  0
  7  8  2  0  0  0  0
  7  9  1  0  0  0  0
  9 10  1  0  0  0  0
  9 36  1  0  0  0  0
  9 37  1  0  0  0  0
 10 17  1  0  0  0  0
 10 11  1  0  0  0  0
 11 12  2  0  0  0  0
 11 38  1  0  0  0  0
 12 13  1  0  0  0  0
 12 39  1  0  0  0  0
 13 14  2  0  0  0  0
 13 15  1  0  0  0  0
 15 16  1  0  0  0  0
 15 17  1  0  0  0  0
 16 40  1  0  0  0  0
 16 41  1  0  0  0  0
 16 42  1  0  0  0  0
 17 18  2  0  0  0  0
 19 24  1  0  0  0  0
 19 20  1  0  0  0  0
 19 51  1  0  0  0  0
 20 21  1  0  0  0  0
 20 43  1  0  0  0  0
 20 44  1  0  0  0  0
 21 22  1  0  0  0  0
 21 45  1  0  0  0  0
 21 46  1  0  0  0  0
 22 23  1  0  0  0  0
 23 24  1  0  0  0  0
 23 47  1  0  0  0  0
 23 48  1  0  0  0  0
 24 49  1  0  0  0  0
 24 50  1  0  0  0  0
M  CHG  1  19   1
M  END
> <s_m_source_file>
AV-unprocessed.smi

> <i_m_source_file_index>
1985

> <i_lp_mmshare_version>
43012

> <i_f3d_flags>
0

> <s_epik_input>
W0NIMl0xW0NIMl1PW0NIMl1bQ0gyXU4xW0NAQF0oW0NIM10pKFtDSDJdW0NIM10pW0NIMl1bTkhdQyg9TylbQ0gyXW4yW2NIXVtjSF1jKD1PKW4oW0NIM10pYzI9Tw==

> <s_epik_cmdline>
J2VwaWtfcHl0aG9uJywgJy1waCcsICc3LjAnLCAnLXRuJywgJzgnLCAnLW1hJywgJzIwMCcsICctbWV0YWxfYmluZGluZycsICctaW1hZScsICc8aW5maWxlLm1hZT4nLCAnLW9tYWUnLCAnPG91dGZpbGUubWFlPic=

> <r_lp_tautomer_probability>
1

> <r_epik_Ionization_Penalty>
0.519658

> <r_epik_Ionization_Penalty_Charging>
0.519658

> <r_epik_Ionization_Penalty_Neutral>
8.70177e-08

> <r_epik_State_Penalty>
0.527569

> <r_epik_Charging_Adjusted_Penalty>
1.04723

> <i_epik_Tot_Q>
1

> <i_epik_Tot_abs_Q>
1

> <r_epik_Metal_State_Penalty>
0.527613

> <b_epik_Metal_Only>
0

> <s_lp_Force_Field>
OPLS_2005

> <r_lp_Energy>
37.4979

> <b_lp_Chiralities_Consistent>
1

> <s_lp_Variant>
AV-unprocessed.smi:1985-4

> <Gold.Version>
5.8.1

> <Gold.Id.Protein>
6NUR|6NUR_protein|mol2

> <Gold.PLP.Fitness>
43.3880

> <Gold.PLP.PLP>
-36.0129

> <Gold.PLP.part.hbond>
-2.0000

> <Gold.PLP.part.metal>
0.0000

> <Gold.PLP.part.buried>
-6.4716

> <Gold.PLP.part.nonpolar>
-28.4972

> <Gold.PLP.part.repulsive>
0.4377

> <Gold.PLP.ligand.clash>
0.0000

> <Gold.PLP.ligand.torsion>
0.9360

> <Gold.PLP.Chemscore.Hbond>
3.0000

> <Gold.PLP.Chemscore.CHOScore>
0.0000

> <Gold.PLP.Chemscore.Metal>
0.0000

> <Gold.Chemscore.Hbonds>
donor molecule, donor type, donor heavy atom, donor atom, acceptor molecule, acceptor atom, score
      L1  H    19    51       P1  7948  2.00
      P1  H  7989  7998       L1     8  1.00

> <Gold.PLP.Chemscore.Internal.Correction>
0.2470

> <Gold.Rescore>
     Score         DG    S(hbond)    S(metal)    S(lipo)     H(rot)  DE(clash)    DE(int)     intcor
     12.83     -13.47       2.00        0.00      61.00       2.27       0.04       0.60       ----

> <Gold.Chemscore.Fitness>
12.8342

> <Gold.Chemscore.DG>
-13.4710

> <Gold.Chemscore.ZeroCoef>
-5.4800

> <Gold.Chemscore.Hbond>
1.9974

> <Gold.Chemscore.Metal>
0.0000

> <Gold.Chemscore.Lipo>
61.0017

> <Gold.Chemscore.Internal_Hbond>
0.0000

> <Gold.Chemscore.DEClash>
0.0388

> <Gold.Chemscore.DEInternal>
0.5980

> <Gold.Chemscore.Rot>
2.2724

> <Gold.Chemscore.Internal.Correction>
   9.000000E+99

> <Gold.Chemscore.Hbonds>
donor molecule, donor type, donor heavy atom, donor atom, acceptor molecule, acceptor atom, score
      L1  H    19    51       P1  7948  0.98
      P1  H  7989  7998       L1     8  0.99

> <Gold.Chemscore.Hbond.Weighted>
-6.6712

> <Gold.Chemscore.Metal.Weighted>
-0.0000

> <Gold.Chemscore.Lipo.Weighted>
-7.1372

> <Gold.Chemscore.Internal_Hbond.Weighted>
0.0000

> <Gold.Chemscore.DEClash.Weighted>
0.0388

> <Gold.Chemscore.DEInternal.Weighted>
0.5980

> <Gold.Chemscore.Rot.Weighted>
5.8174

> <Gold.Chemscore.Internal.Correction.Weighted>
   9.000000E+99

> <Gold.Protein.RotatedTorsions>
[ 6907 6896 6895 6894 ] final -147.66 input  -60.11 | X-H torsion
[ 7974 7965 7964 7962 ] final  165.18 input  175.53 | X-H torsion
[ 8008 7997 7996 7995 ] final  -49.58 input   59.86 | X-H torsion
[ 10167 10162 10161 10158 ] final -158.46 input  -65.29 | X-H torsion
[ 10718 10713 10712 10709 ] final   88.46 input   66.30 | X-H torsion
[ 10763 10752 10751 10750 ] final -178.92 input  -60.55 | X-H torsion
[ 11005 11000 10999 10996 ] final   38.62 input  -57.11 | X-H torsion

> <Gold.Protein.ActiveResidues>
 VAL166  LYS551  ARG553  GLY616  TRP617  ASP618  TYR619  PRO620  LYS621  CYS622 
 ASP623  PHE694  ASN695  SER759  ASP760  ASP761  ALA762  ILE779  LEU786  VAL792 
 PHE793  MET794  SER795  GLU796  ALA797  LYS798  CYS799  TRP800  GLU811  SER814 

> <Gold.Protein.RotatedAtoms>
  151.1588  133.4858  159.2594 H   0  0  0  0  0  0  0  0  0  0  0  0  # atno 6907 bound_to 6896
  151.1476  135.0211  159.8664 H   0  0  0  0  0  0  0  0  0  0  0  0  # atno 6908 bound_to 6896
  152.5463  134.1476  159.8558 H   0  0  0  0  0  0  0  0  0  0  0  0  # atno 6909 bound_to 6896
  144.7513  139.8432  143.6365 H   0  0  0  0  0  0  0  0  0  0  0  0  # atno 7974 bound_to 7965
  154.4046  140.1293  156.4526 H   0  0  0  0  0  0  0  0  0  0  0  0  # atno 8008 bound_to 7997
  155.7351  140.3491  155.5058 H   0  0  0  0  0  0  0  0  0  0  0  0  # atno 8009 bound_to 7997
  155.9091  140.1032  157.1283 H   0  0  0  0  0  0  0  0  0  0  0  0  # atno 8010 bound_to 7997
  139.6690  143.9778  152.2272 H   0  0  0  0  0  0  0  0  0  0  0  0  # atno 10167 bound_to 10162
  157.6949  131.0295  150.3278 H   0  0  0  0  0  0  0  0  0  0  0  0  # atno 10718 bound_to 10713
  154.5417  135.2806  155.1090 H   0  0  0  0  0  0  0  0  0  0  0  0  # atno 10763 bound_to 10752
  154.2570  135.6329  153.5264 H   0  0  0  0  0  0  0  0  0  0  0  0  # atno 10764 bound_to 10752
  152.9980  135.5596  154.5958 H   0  0  0  0  0  0  0  0  0  0  0  0  # atno 10765 bound_to 10752
  140.2109  134.3757  155.8050 H   0  0  0  0  0  0  0  0  0  0  0  0  # atno 11005 bound_to 11000
  146.1468  139.4539  143.0074 LP  0  0  0  0  0  0  0  0  0  0  0  0  # atno 17320 bound_to 7965
  145.6933  141.0158  143.1543 LP  0  0  0  0  0  0  0  0  0  0  0  0  # atno 17321 bound_to 7965
  139.9537  144.6603  150.8146 LP  0  0  0  0  0  0  0  0  0  0  0  0  # atno 17342 bound_to 10162
  140.7611  143.3165  151.2720 LP  0  0  0  0  0  0  0  0  0  0  0  0  # atno 17343 bound_to 10162
  156.3756  130.3871  149.7141 LP  0  0  0  0  0  0  0  0  0  0  0  0  # atno 17370 bound_to 10713
  156.4541  130.7921  151.2942 LP  0  0  0  0  0  0  0  0  0  0  0  0  # atno 17371 bound_to 10713
  141.2226  133.7142  156.8415 LP  0  0  0  0  0  0  0  0  0  0  0  0  # atno 17394 bound_to 11000
  140.1952  134.8937  157.3106 LP  0  0  0  0  0  0  0  0  0  0  0  0  # atno 17395 bound_to 11000

$$$$
