AV-unprocessed.smi:1064|AV-procd|sdf|4664|dock4
  -GOLD-   22720 3173D 1   1.00000     0.00000
 Structure written by MMmdl.
 35 36  0  0  0  0  0  0  0  0  1 V2000
  150.4427  142.9926  158.9412 O   0  0  0  0  0  0  0  0  0  0  0  0
  151.5067  142.3716  158.9647 C   0  0  0  0  0  0  0  0  0  0  0  0
  151.6929  141.2483  158.2507 N   0  0  0  0  0  0  0  0  0  0  0  0
  150.6864  140.6141  157.4078 C   0  0  0  0  0  0  0  0  0  0  0  0
  150.9850  140.8328  155.9159 C   0  0  0  0  0  0  0  0  0  0  0  0
  151.6384  139.6443  155.2831 C   0  0  0  0  0  0  0  0  0  0  0  0
  152.9545  139.5198  155.1409 N   0  0  0  0  0  0  0  0  0  0  0  0
  153.1272  138.3076  154.4829 C   0  0  0  0  0  0  0  0  0  0  0  0
  151.8993  137.7411  154.2421 C   0  0  0  0  0  0  0  0  0  0  0  0
  150.9474  138.6083  154.7666 N   0  0  0  0  0  0  0  0  0  0  0  0
  149.5046  138.4314  154.7244 C   0  0  0  0  0  0  0  0  0  0  0  0
  149.0248  138.3136  155.9620 F   0  0  0  0  0  0  0  0  0  0  0  0
  148.9226  139.4652  154.1155 F   0  0  0  0  0  0  0  0  0  0  0  0
  152.5870  142.7762  159.6799 N   0  0  0  0  0  0  0  0  0  0  0  0
  153.8377  142.0190  159.8528 C   0  0  0  0  0  0  0  0  0  0  0  0
  153.7664  141.2240  161.1673 C   0  0  0  0  0  0  0  0  0  0  0  0
  153.6256  142.3414  162.5972 S   0  0  0  0  0  0  0  0  0  0  0  0
  152.2579  143.3996  162.0285 C   0  0  0  0  0  0  0  0  0  0  0  0
  152.5135  143.9157  160.6021 C   0  0  0  0  0  0  0  0  0  0  0  0
  152.5956  140.7989  158.3014 H   0  0  0  0  0  0  0  0  0  0  0  0
  150.6270  139.5490  157.6371 H   0  0  0  0  0  0  0  0  0  0  0  0
  149.7139  141.0386  157.6584 H   0  0  0  0  0  0  0  0  0  0  0  0
  150.0559  141.0386  155.3827 H   0  0  0  0  0  0  0  0  0  0  0  0
  151.6110  141.7130  155.7746 H   0  0  0  0  0  0  0  0  0  0  0  0
  154.1118  137.9430  154.2296 H   0  0  0  0  0  0  0  0  0  0  0  0
  151.6331  136.8167  153.7511 H   0  0  0  0  0  0  0  0  0  0  0  0
  149.2434  137.5350  154.1627 H   0  0  0  0  0  0  0  0  0  0  0  0
  154.0492  141.3453  159.0224 H   0  0  0  0  0  0  0  0  0  0  0  0
  154.6855  142.7047  159.8794 H   0  0  0  0  0  0  0  0  0  0  0  0
  152.9120  140.5464  161.1573 H   0  0  0  0  0  0  0  0  0  0  0  0
  154.6594  140.6111  161.2908 H   0  0  0  0  0  0  0  0  0  0  0  0
  151.3277  142.8312  162.0671 H   0  0  0  0  0  0  0  0  0  0  0  0
  152.1507  144.2345  162.7211 H   0  0  0  0  0  0  0  0  0  0  0  0
  153.4422  144.4872  160.5691 H   0  0  0  0  0  0  0  0  0  0  0  0
  151.7314  144.6196  160.3142 H   0  0  0  0  0  0  0  0  0  0  0  0
  1  2  2  0  0  0  0
  2  3  1  0  0  0  0
  2 14  1  0  0  0  0
  3  4  1  0  0  0  0
  3 20  1  0  0  0  0
  4  5  1  0  0  0  0
  4 21  1  0  0  0  0
  4 22  1  0  0  0  0
  5  6  1  0  0  0  0
  5 23  1  0  0  0  0
  5 24  1  0  0  0  0
  6 10  1  0  0  0  0
  6  7  2  0  0  0  0
  7  8  1  0  0  0  0
  8  9  2  0  0  0  0
  8 25  1  0  0  0  0
  9 10  1  0  0  0  0
  9 26  1  0  0  0  0
 10 11  1  0  0  0  0
 11 12  1  0  0  0  0
 11 13  1  0  0  0  0
 11 27  1  0  0  0  0
 14 19  1  0  0  0  0
 14 15  1  0  0  0  0
 15 16  1  0  0  0  0
 15 28  1  0  0  0  0
 15 29  1  0  0  0  0
 16 17  1  0  0  0  0
 16 30  1  0  0  0  0
 16 31  1  0  0  0  0
 17 18  1  0  0  0  0
 18 19  1  0  0  0  0
 18 32  1  0  0  0  0
 18 33  1  0  0  0  0
 19 34  1  0  0  0  0
 19 35  1  0  0  0  0
M  END
> <s_m_source_file>
AV-unprocessed.smi

> <i_m_source_file_index>
1064

> <i_lp_mmshare_version>
43012

> <i_f3d_flags>
0

> <s_epik_input>
W0NIMl0xW0NIMl1TW0NIMl1bQ0gyXU4xQyg9TylbTkhdW0NIMl1bQ0gyXWMybltjSF1bY0hdbjJbQ0hdKEYpRg==

> <s_epik_cmdline>
J2VwaWtfcHl0aG9uJywgJy1waCcsICc3LjAnLCAnLXRuJywgJzgnLCAnLW1hJywgJzIwMCcsICctbWV0YWxfYmluZGluZycsICctaW1hZScsICc8aW5maWxlLm1hZT4nLCAnLW9tYWUnLCAnPG91dGZpbGUubWFlPic=

> <r_lp_tautomer_probability>
1

> <r_epik_Ionization_Penalty>
0.100551

> <r_epik_Ionization_Penalty_Charging>
0.100507

> <r_epik_Ionization_Penalty_Neutral>
4.37624e-05

> <r_epik_State_Penalty>
0.0905262

> <r_epik_Charging_Adjusted_Penalty>
0.191033

> <i_epik_Tot_Q>
0

> <i_epik_Tot_abs_Q>
0

> <r_epik_Metal_State_Penalty>
0.077291

> <b_epik_Metal_Only>
0

> <s_lp_Force_Field>
OPLS_2005

> <r_lp_Energy>
25.4045

> <b_lp_Chiralities_Consistent>
1

> <s_lp_Variant>
AV-unprocessed.smi:1064-1

> <Gold.Version>
5.8.1

> <Gold.Id.Protein>
6NUR|6NUR_protein|mol2

> <Gold.PLP.Fitness>
50.2005

> <Gold.PLP.PLP>
-45.6627

> <Gold.PLP.part.hbond>
-1.9098

> <Gold.PLP.part.metal>
0.0000

> <Gold.PLP.part.buried>
-1.2104

> <Gold.PLP.part.nonpolar>
-40.9969

> <Gold.PLP.part.repulsive>
0.1850

> <Gold.PLP.ligand.clash>
0.0000

> <Gold.PLP.ligand.torsion>
0.7649

> <Gold.PLP.Chemscore.Hbond>
1.0000

> <Gold.PLP.Chemscore.CHOScore>
1.0000

> <Gold.PLP.Chemscore.Metal>
0.0000

> <Gold.Chemscore.Hbonds>
donor molecule, donor type, donor heavy atom, donor atom, acceptor molecule, acceptor atom, score
      P1  H  7997  8010       L1     7  1.00
      L1  C     9    26       P1  7949  1.00

> <Gold.PLP.Chemscore.Internal.Correction>
0.0675

> <Gold.Rescore>
     Score         DG    S(hbond)    S(metal)    S(lipo)     H(rot)  DE(clash)    DE(int)     intcor
     14.48     -15.28       0.98        0.00      91.02       1.61       0.05       0.74       ----

> <Gold.Chemscore.Fitness>
14.4776

> <Gold.Chemscore.DG>
-15.2763

> <Gold.Chemscore.ZeroCoef>
-5.4800

> <Gold.Chemscore.Hbond>
0.9786

> <Gold.Chemscore.Metal>
0.0000

> <Gold.Chemscore.Lipo>
91.0204

> <Gold.Chemscore.Internal_Hbond>
0.0000

> <Gold.Chemscore.DEClash>
0.0538

> <Gold.Chemscore.DEInternal>
0.7449

> <Gold.Chemscore.Rot>
1.6100

> <Gold.Chemscore.Internal.Correction>
   9.000000E+99

> <Gold.Chemscore.Hbonds>
donor molecule, donor type, donor heavy atom, donor atom, acceptor molecule, acceptor atom, score
      P1  H  7997  8010       L1     7  0.76

> <Gold.Chemscore.Hbond.Weighted>
-3.2685

> <Gold.Chemscore.Metal.Weighted>
-0.0000

> <Gold.Chemscore.Lipo.Weighted>
-10.6494

> <Gold.Chemscore.Internal_Hbond.Weighted>
0.0000

> <Gold.Chemscore.DEClash.Weighted>
0.0538

> <Gold.Chemscore.DEInternal.Weighted>
0.7449

> <Gold.Chemscore.Rot.Weighted>
4.1216

> <Gold.Chemscore.Internal.Correction.Weighted>
   9.000000E+99

> <Gold.Protein.RotatedTorsions>
[ 6907 6896 6895 6894 ] final   31.79 input  -60.11 | X-H torsion
[ 7974 7965 7964 7962 ] final -118.13 input  175.53 | X-H torsion
[ 8008 7997 7996 7995 ] final  119.34 input   59.86 | X-H torsion
[ 10167 10162 10161 10158 ] final   12.05 input  -65.29 | X-H torsion
[ 10718 10713 10712 10709 ] final  163.87 input   66.30 | X-H torsion
[ 10763 10752 10751 10750 ] final   92.70 input  -60.55 | X-H torsion
[ 11005 11000 10999 10996 ] final -172.87 input  -57.11 | X-H torsion

> <Gold.Protein.ActiveResidues>
 VAL166  LYS551  ARG553  GLY616  TRP617  ASP618  TYR619  PRO620  LYS621  CYS622 
 ASP623  PHE694  ASN695  SER759  ASP760  ASP761  ALA762  ILE779  LEU786  VAL792 
 PHE793  MET794  SER795  GLU796  ALA797  LYS798  CYS799  TRP800  GLU811  SER814 

> <Gold.Protein.RotatedAtoms>
  152.0652  134.9569  160.0574 H   0  0  0  0  0  0  0  0  0  0  0  0  # atno 6907 bound_to 6896
  152.0916  133.4198  159.4555 H   0  0  0  0  0  0  0  0  0  0  0  0  # atno 6908 bound_to 6896
  150.6837  134.2784  159.4660 H   0  0  0  0  0  0  0  0  0  0  0  0  # atno 6909 bound_to 6896
  145.0773  140.8401  143.4060 H   0  0  0  0  0  0  0  0  0  0  0  0  # atno 7974 bound_to 7965
  156.2591  140.2855  156.0976 H   0  0  0  0  0  0  0  0  0  0  0  0  # atno 8008 bound_to 7997
  155.1395  140.0395  157.2812 H   0  0  0  0  0  0  0  0  0  0  0  0  # atno 8009 bound_to 7997
  154.6540  140.2551  155.7188 H   0  0  0  0  0  0  0  0  0  0  0  0  # atno 8010 bound_to 7997
  140.6093  143.8442  150.7047 H   0  0  0  0  0  0  0  0  0  0  0  0  # atno 10167 bound_to 10162
  157.1024  131.0446  151.2492 H   0  0  0  0  0  0  0  0  0  0  0  0  # atno 10718 bound_to 10713
  153.2221  135.4352  155.0500 H   0  0  0  0  0  0  0  0  0  0  0  0  # atno 10763 bound_to 10752
  154.8255  135.3359  154.6912 H   0  0  0  0  0  0  0  0  0  0  0  0  # atno 10764 bound_to 10752
  153.7344  135.7009  153.5038 H   0  0  0  0  0  0  0  0  0  0  0  0  # atno 10765 bound_to 10752
  140.4922  134.5974  157.4958 H   0  0  0  0  0  0  0  0  0  0  0  0  # atno 11005 bound_to 11000
  145.1220  139.2687  143.5583 LP  0  0  0  0  0  0  0  0  0  0  0  0  # atno 17320 bound_to 7965
  146.3530  140.0846  142.8616 LP  0  0  0  0  0  0  0  0  0  0  0  0  # atno 17321 bound_to 7965
  140.2007  143.3962  152.1794 LP  0  0  0  0  0  0  0  0  0  0  0  0  # atno 17342 bound_to 10162
  139.5348  144.7198  151.4929 LP  0  0  0  0  0  0  0  0  0  0  0  0  # atno 17343 bound_to 10162
  157.4630  130.7664  149.7253 LP  0  0  0  0  0  0  0  0  0  0  0  0  # atno 17370 bound_to 10713
  155.9870  130.3970  150.3184 LP  0  0  0  0  0  0  0  0  0  0  0  0  # atno 17371 bound_to 10713
  139.9763  134.7211  155.9944 LP  0  0  0  0  0  0  0  0  0  0  0  0  # atno 17394 bound_to 11000
  141.1478  133.6553  156.3921 LP  0  0  0  0  0  0  0  0  0  0  0  0  # atno 17395 bound_to 11000

$$$$
