AV-unprocessed.smi:1897|AV-procd|sdf|7694|dock2
  -GOLD-   22720 9433D 1   1.00000     0.00000
 Structure written by MMmdl.
 38 40  0  0  0  0  0  0  0  0  3 V2000
  146.4809  136.0742  162.2248 C   0  0  0  0  0  0  0  0  0  0  0  0
  147.3674  135.7342  161.0761 C   0  0  0  0  0  0  0  0  0  0  0  0
  148.0826  136.6510  160.4200 N   0  0  0  0  0  0  0  0  0  0  0  0
  148.8334  136.0935  159.3955 N   0  0  0  0  0  0  0  0  0  0  0  0
  148.6662  134.7683  159.2820 C   0  0  0  0  0  0  0  0  0  0  0  0
  149.3010  134.0375  158.3464 N   0  5  0  0  0  0  0  0  0  0  0  0
  149.4487  134.4585  157.0635 C   0  0  0  0  0  0  0  0  0  0  0  0
  149.6125  133.6937  156.1140 O   0  0  0  0  0  0  0  0  0  0  0  0
  149.4122  135.7838  156.8309 N   0  0  0  0  0  0  0  0  0  0  0  0
  149.5469  136.4266  155.5298 C   0  0  2  0  0  0  0  0  0  0  0  0
  150.7107  137.4326  155.4480 C   0  0  0  0  0  0  0  0  0  0  0  0
  150.1730  138.6100  154.6112 C   0  0  0  0  0  0  0  0  0  0  0  0
  148.8325  138.1875  154.1627 N   0  3  2  0  0  0  0  0  0  0  0  0
  147.8697  139.2532  153.8096 C   0  0  0  0  0  0  0  0  0  0  0  0
  146.5667  138.6095  153.2937 C   0  0  0  0  0  0  0  0  0  0  0  0
  146.0031  137.5770  154.2921 C   0  0  0  0  0  0  0  0  0  0  0  0
  147.0780  136.5494  154.6966 C   0  0  0  0  0  0  0  0  0  0  0  0
  148.3268  137.2859  155.2077 C   0  0  1  0  0  0  0  0  0  0  0  0
  147.5513  134.0962  160.4715 S   0  0  0  0  0  0  0  0  0  0  0  0
  145.5260  136.4519  161.8593 H   0  0  0  0  0  0  0  0  0  0  0  0
  146.9464  136.8379  162.8487 H   0  0  0  0  0  0  0  0  0  0  0  0
  146.2984  135.1903  162.8361 H   0  0  0  0  0  0  0  0  0  0  0  0
  149.2816  136.3889  157.6283 H   0  0  0  0  0  0  0  0  0  0  0  0
  149.6653  135.6720  154.7494 H   0  0  0  0  0  0  0  0  0  0  0  0
  151.0045  137.7851  156.4379 H   0  0  0  0  0  0  0  0  0  0  0  0
  151.5884  136.9758  154.9897 H   0  0  0  0  0  0  0  0  0  0  0  0
  150.0954  139.5041  155.2317 H   0  0  0  0  0  0  0  0  0  0  0  0
  150.8126  138.8425  153.7595 H   0  0  0  0  0  0  0  0  0  0  0  0
  147.6687  139.8768  154.6821 H   0  0  0  0  0  0  0  0  0  0  0  0
  148.3013  139.8975  153.0432 H   0  0  0  0  0  0  0  0  0  0  0  0
  145.8224  139.3806  153.0928 H   0  0  0  0  0  0  0  0  0  0  0  0
  146.7624  138.1165  152.3405 H   0  0  0  0  0  0  0  0  0  0  0  0
  145.6428  138.0941  155.1825 H   0  0  0  0  0  0  0  0  0  0  0  0
  145.1410  137.0684  153.8597 H   0  0  0  0  0  0  0  0  0  0  0  0
  146.6903  135.8826  155.4676 H   0  0  0  0  0  0  0  0  0  0  0  0
  147.3340  135.9240  153.8402 H   0  0  0  0  0  0  0  0  0  0  0  0
  148.0645  137.8827  156.0850 H   0  0  0  0  0  0  0  0  0  0  0  0
  148.9710  137.6188  153.3396 H   0  0  0  0  0  0  0  0  0  0  0  0
  1  2  1  0  0  0  0
  1 20  1  0  0  0  0
  1 21  1  0  0  0  0
  1 22  1  0  0  0  0
  2 19  1  0  0  0  0
  2  3  2  0  0  0  0
  3  4  1  0  0  0  0
  4  5  2  0  0  0  0
  5  6  1  0  0  0  0
  5 19  1  0  0  0  0
  6  7  1  0  0  0  0
  7  8  2  0  0  0  0
  7  9  1  0  0  0  0
  9 10  1  0  0  0  0
  9 23  1  0  0  0  0
 10 18  1  0  0  0  0
 10 11  1  0  0  0  0
 10 24  1  0  0  0  0
 11 12  1  0  0  0  0
 11 25  1  0  0  0  0
 11 26  1  0  0  0  0
 12 13  1  0  0  0  0
 12 27  1  0  0  0  0
 12 28  1  0  0  0  0
 13 18  1  0  0  0  0
 13 14  1  0  0  0  0
 13 38  1  0  0  0  0
 14 15  1  0  0  0  0
 14 29  1  0  0  0  0
 14 30  1  0  0  0  0
 15 16  1  0  0  0  0
 15 31  1  0  0  0  0
 15 32  1  0  0  0  0
 16 17  1  0  0  0  0
 16 33  1  0  0  0  0
 16 34  1  0  0  0  0
 17 18  1  0  0  0  0
 17 35  1  0  0  0  0
 17 36  1  0  0  0  0
 18 37  1  0  0  0  0
M  CHG  1   6  -1
M  CHG  1  13   1
M  END
> <s_m_source_file>
AV-unprocessed.smi

> <i_m_source_file_index>
1897

> <i_lp_mmshare_version>
43012

> <i_f3d_flags>
0

> <s_epik_input>
W0NIM11jMW5uYyhzMSlbTkhdQyg9TylbTkhdW0NASF0oW0NIMl1bQ0gyXTIpW0NAQEhdKE4yMylbQ0gyXVtDSDJdW0NIMl1bQ0gyXTM=

> <s_epik_cmdline>
J2VwaWtfcHl0aG9uJywgJy1waCcsICc3LjAnLCAnLXRuJywgJzgnLCAnLW1hJywgJzIwMCcsICctbWV0YWxfYmluZGluZycsICctaW1hZScsICc8aW5maWxlLm1hZT4nLCAnLW9tYWUnLCAnPG91dGZpbGUubWFlPic=

> <r_lp_tautomer_probability>
1

> <r_epik_Ionization_Penalty>
3.77712

> <r_epik_Ionization_Penalty_Charging>
3.67739

> <r_epik_Ionization_Penalty_Neutral>
0.0997294

> <r_epik_State_Penalty>
3.67514

> <r_epik_Charging_Adjusted_Penalty>
7.35254

> <i_epik_Tot_Q>
0

> <i_epik_Tot_abs_Q>
2

> <r_epik_Metal_State_Penalty>
0.540795

> <b_epik_Metal_Only>
1

> <s_lp_Force_Field>
OPLS_2005

> <r_lp_Energy>
28.3617

> <b_lp_Chiralities_Consistent>
1

> <s_lp_Variant>
AV-unprocessed.smi:1897-11

> <Gold.Version>
5.8.1

> <Gold.Id.Protein>
6NUR|6NUR_protein|mol2

> <Gold.PLP.Fitness>
36.4594

> <Gold.PLP.PLP>
-21.1165

> <Gold.PLP.part.hbond>
-4.0000

> <Gold.PLP.part.metal>
0.0000

> <Gold.PLP.part.buried>
-2.0432

> <Gold.PLP.part.nonpolar>
-15.6603

> <Gold.PLP.part.repulsive>
0.0572

> <Gold.PLP.ligand.clash>
0.0000

> <Gold.PLP.ligand.torsion>
0.4649

> <Gold.PLP.Chemscore.Hbond>
5.4178

> <Gold.PLP.Chemscore.CHOScore>
0.0000

> <Gold.PLP.Chemscore.Metal>
0.0000

> <Gold.Chemscore.Hbonds>
donor molecule, donor type, donor heavy atom, donor atom, acceptor molecule, acceptor atom, score
      L1  H    13    38       P1  7948  2.00
      P1  H  6896  6907       L1     6  0.90
      P1  H  6931  6943       L1     3  0.12

> <Gold.PLP.Chemscore.Internal.Correction>
0.0191

> <Gold.Rescore>
     Score         DG    S(hbond)    S(metal)    S(lipo)     H(rot)  DE(clash)    DE(int)     intcor
     17.00     -17.65       2.65        0.00      50.25       1.00       0.06       0.59       ----

> <Gold.Chemscore.Fitness>
16.9983

> <Gold.Chemscore.DG>
-17.6482

> <Gold.Chemscore.ZeroCoef>
-5.4800

> <Gold.Chemscore.Hbond>
2.6493

> <Gold.Chemscore.Metal>
0.0000

> <Gold.Chemscore.Lipo>
50.2530

> <Gold.Chemscore.Internal_Hbond>
0.0000

> <Gold.Chemscore.DEClash>
0.0575

> <Gold.Chemscore.DEInternal>
0.5924

> <Gold.Chemscore.Rot>
1.0000

> <Gold.Chemscore.Internal.Correction>
   9.000000E+99

> <Gold.Chemscore.Hbonds>
donor molecule, donor type, donor heavy atom, donor atom, acceptor molecule, acceptor atom, score
      L1  H    13    38       P1  7948  0.95
      P1  H  6896  6907       L1     6  0.02
      P1  H  6931  6943       L1     3  0.11

> <Gold.Chemscore.Hbond.Weighted>
-8.8486

> <Gold.Chemscore.Metal.Weighted>
-0.0000

> <Gold.Chemscore.Lipo.Weighted>
-5.8796

> <Gold.Chemscore.Internal_Hbond.Weighted>
0.0000

> <Gold.Chemscore.DEClash.Weighted>
0.0575

> <Gold.Chemscore.DEInternal.Weighted>
0.5924

> <Gold.Chemscore.Rot.Weighted>
2.5600

> <Gold.Chemscore.Internal.Correction.Weighted>
   9.000000E+99

> <Gold.Protein.RotatedTorsions>
[ 6907 6896 6895 6894 ] final -104.94 input  -60.11 | X-H torsion
[ 7974 7965 7964 7962 ] final   -1.59 input  175.53 | X-H torsion
[ 8008 7997 7996 7995 ] final   -5.61 input   59.86 | X-H torsion
[ 10167 10162 10161 10158 ] final  -93.51 input  -65.29 | X-H torsion
[ 10718 10713 10712 10709 ] final   23.20 input   66.30 | X-H torsion
[ 10763 10752 10751 10750 ] final   99.02 input  -60.55 | X-H torsion
[ 11005 11000 10999 10996 ] final -135.24 input  -57.11 | X-H torsion

> <Gold.Protein.ActiveResidues>
 VAL166  LYS551  ARG553  GLY616  TRP617  ASP618  TYR619  PRO620  LYS621  CYS622 
 ASP623  PHE694  ASN695  SER759  ASP760  ASP761  ALA762  ILE779  LEU786  VAL792 
 PHE793  MET794  SER795  GLU796  ALA797  LYS798  CYS799  TRP800  GLU811  SER814 

> <Gold.Protein.RotatedAtoms>
  150.7312  134.0201  159.3698 H   0  0  0  0  0  0  0  0  0  0  0  0  # atno 6907 bound_to 6896
  151.8165  135.0662  160.0429 H   0  0  0  0  0  0  0  0  0  0  0  0  # atno 6908 bound_to 6896
  152.3034  133.5643  159.5670 H   0  0  0  0  0  0  0  0  0  0  0  0  # atno 6909 bound_to 6896
  146.2415  140.1443  142.8335 H   0  0  0  0  0  0  0  0  0  0  0  0  # atno 7974 bound_to 7965
  154.6022  140.2454  155.7778 H   0  0  0  0  0  0  0  0  0  0  0  0  # atno 8008 bound_to 7997
  156.2318  140.2964  156.0160 H   0  0  0  0  0  0  0  0  0  0  0  0  # atno 8009 bound_to 7997
  155.2192  140.0400  157.2936 H   0  0  0  0  0  0  0  0  0  0  0  0  # atno 8010 bound_to 7997
  140.3239  143.3033  152.0016 H   0  0  0  0  0  0  0  0  0  0  0  0  # atno 10167 bound_to 10162
  157.1628  130.6724  149.6050 H   0  0  0  0  0  0  0  0  0  0  0  0  # atno 10718 bound_to 10713
  153.2962  135.4128  155.1211 H   0  0  0  0  0  0  0  0  0  0  0  0  # atno 10763 bound_to 10752
  154.8535  135.3530  154.5914 H   0  0  0  0  0  0  0  0  0  0  0  0  # atno 10764 bound_to 10752
  153.6338  135.7059  153.5324 H   0  0  0  0  0  0  0  0  0  0  0  0  # atno 10765 bound_to 10752
  140.8916  134.1804  157.4523 H   0  0  0  0  0  0  0  0  0  0  0  0  # atno 11005 bound_to 11000
  145.0221  140.8802  143.5160 LP  0  0  0  0  0  0  0  0  0  0  0  0  # atno 17320 bound_to 7965
  145.1493  139.2524  143.5449 LP  0  0  0  0  0  0  0  0  0  0  0  0  # atno 17321 bound_to 7965
  139.4869  144.6289  151.7109 LP  0  0  0  0  0  0  0  0  0  0  0  0  # atno 17342 bound_to 10162
  140.5459  144.0504  150.6107 LP  0  0  0  0  0  0  0  0  0  0  0  0  # atno 17343 bound_to 10162
  155.9751  130.4706  150.6435 LP  0  0  0  0  0  0  0  0  0  0  0  0  # atno 17370 bound_to 10713
  157.4117  131.0824  151.1215 LP  0  0  0  0  0  0  0  0  0  0  0  0  # atno 17371 bound_to 10713
  139.8730  134.9861  156.5309 LP  0  0  0  0  0  0  0  0  0  0  0  0  # atno 17394 bound_to 11000
  140.8340  133.8257  155.9011 LP  0  0  0  0  0  0  0  0  0  0  0  0  # atno 17395 bound_to 11000

$$$$
