#       Name:                AV-unprocessed.smi:2226
#       Creating user name   scv26
#       Creation time:       Fri Mar 27 12:21:14 2020


#       File generated by GOLD software.
#

@<TRIPOS>MOLECULE
AV-unprocessed.smi:2226
    45    47     1
SMALL
NO_CHARGES


@<TRIPOS>ATOM
      1 ****        -1.6927  -3.2430   0.0008 C.3            1 S1                 0.0000
      2 ****        -2.3573  -1.9179   0.0003 N.4            1 S1                 1.0000
      3 ****        -2.1221  -1.1020  -1.2157 C.3            1 S1                 0.0000
      4 ****        -3.1908   0.0144  -1.2829 C.3            1 S1                 0.0000
      5 ****        -3.2860   0.8669  -0.0006 C.3            1 S1                 0.0000
      6 ****        -3.1909   0.0153   1.2823 C.3            1 S1                 0.0000
      7 ****        -2.1222  -1.1012   1.2159 C.3            1 S1                 0.0000
      8 ****        -0.6565  -0.6036   1.2855 C.3            1 S1                 0.0000
      9 ****        -0.1507   0.0904  -0.0002 C.3            1 S1                 0.0000
     10 ****         1.3121   0.1043  -0.0002 N.am           1 S1                 0.0000
     11 ****         2.0898   1.1984  -0.0001 C.2            1 S1                 0.0000
     12 ****         1.6507   2.3485   0.0000 O.2            1 S1                 0.0000
     13 ****         3.3933   0.8705   0.0000 N.am           1 S1                 0.0000
     14 ****         4.5049   1.7514   0.0000 C.2            1 S1                 0.0000
     15 ****         4.4629   3.0847   0.0000 N.2            1 S1                 0.0000
     16 ****         5.7938   3.4770   0.0000 C.2            1 S1                 0.0000
     17 ****         6.5721   2.3479   0.0000 C.2            1 S1                 0.0000
     18 ****         5.7650   1.2418   0.0000 O.3            1 S1                 0.0000
     19 ****        -0.6564  -0.6044  -1.2856 C.3            1 S1                 0.0000
     20 ****        -0.6061  -3.1617   0.0007 H              1 S1                 0.0000
     21 ****        -1.9886  -3.8161  -0.8784 H              1 S1                 0.0000
     22 ****        -1.9885  -3.8154   0.8804 H              1 S1                 0.0000
     23 ****        -2.2892  -1.7416  -2.0836 H              1 S1                 0.0000
     24 ****        -3.0177   0.6568  -2.1470 H              1 S1                 0.0000
     25 ****        -4.1614  -0.4546  -1.4513 H              1 S1                 0.0000
     26 ****        -2.5224   1.6402  -0.0009 H              1 S1                 0.0000
     27 ****        -4.2276   1.4172  -0.0008 H              1 S1                 0.0000
     28 ****        -3.0177   0.6583   2.1459 H              1 S1                 0.0000
     29 ****        -4.1614  -0.4535   1.4510 H              1 S1                 0.0000
     30 ****        -2.2894  -1.7402   2.0841 H              1 S1                 0.0000
     31 ****        -0.5296   0.0642   2.1386 H              1 S1                 0.0000
     32 ****        -0.0192  -1.4630   1.4980 H              1 S1                 0.0000
     33 ****        -0.5114   1.1152  -0.0006 H              1 S1                 0.0000
     34 ****         1.7708  -0.7952  -0.0003 H              1 S1                 0.0000
     35 ****         3.6175  -0.1135  -0.0001 H              1 S1                 0.0000
     36 ****         6.0807   4.5184   0.0000 H              1 S1                 0.0000
     37 ****         7.6377   2.1719   0.0000 H              1 S1                 0.0000
     38 ****        -0.0191  -1.4639  -1.4975 H              1 S1                 0.0000
     39 ****        -0.5296   0.0629  -2.1390 H              1 S1                 0.0000
     40 ****        -3.3455  -2.1277   0.0004 H              1 S1                 0.0000
     41 ****         0.6633   2.5068   0.0000 LP             1 S1                 0.0000
     42 ****         2.2814   3.1246   0.0001 LP             1 S1                 0.0000
     43 ****         3.6527   3.6709   0.0000 LP             1 S1                 0.0000
     44 ****         5.9234   0.6867  -0.8165 LP             1 S1                 0.0000
     45 ****         5.9234   0.6867   0.8165 LP             1 S1                 0.0000
@<TRIPOS>BOND
    1    1    2 1     
    2    1   20 1     
    3    1   21 1     
    4    1   22 1     
    5    2    7 1     
    6    2    3 1     
    7    2   40 1     
    8    3   19 1     
    9    3    4 1     
   10    3   23 1     
   11    4    5 1     
   12    4   24 1     
   13    4   25 1     
   14    5    6 1     
   15    5   26 1     
   16    5   27 1     
   17    6    7 1     
   18    6   28 1     
   19    6   29 1     
   20    7    8 1     
   21    7   30 1     
   22    8    9 1     
   23    8   31 1     
   24    8   32 1     
   25    9   10 1     
   26    9   19 1     
   27    9   33 1     
   28   10   11 am    
   29   10   34 1     
   30   11   12 2     
   31   11   13 am    
   32   13   14 1     
   33   13   35 1     
   34   14   18 1     
   35   14   15 2     
   36   15   16 1     
   37   16   17 2     
   38   16   36 1     
   39   17   18 1     
   40   17   37 1     
   41   19   38 1     
   42   19   39 1     
   43   12   41 1     
   44   12   42 1     
   45   15   43 1     
   46   18   44 1     
   47   18   45 1     
@<TRIPOS>SUBSTRUCTURE
      1 S1             1
@<TRIPOS>SET
LONE_PAIRS      STATIC     ATOMS    <user>   **** ""
5 41 42 43 44 45
DONOR_HYDROGENS      STATIC     ATOMS    <user>   **** ""
3 40 34 35
ATOM$BLUE        STATIC     ATOMS    COLORGROUP SYSTEM
5 41 42 43 44 45
ATOM$RED        STATIC     ATOMS    COLORGROUP SYSTEM
3 40 34 35
