#       Name:                AV-unprocessed.smi:1907
#       Creating user name   scv26
#       Creation time:       Fri Mar 27 09:47:21 2020


#       File generated by GOLD software.
#

@<TRIPOS>MOLECULE
AV-unprocessed.smi:1907
    37    38     1
SMALL
NO_CHARGES


@<TRIPOS>ATOM
      1 ****        -1.4318   4.8242  -0.8895 N.am           1 S1                 0.0000
      2 ****        -1.9495   4.4734   0.2912 C.2            1 S1                 0.0000
      3 ****        -2.2523   5.3014   1.1480 O.2            1 S1                 0.0000
      4 ****        -2.1700   2.9799   0.5426 C.3            1 S1                 0.0000
      5 ****        -0.8588   2.2822   0.7620 C.2            1 S1                 0.0000
      6 ****        -0.2042   2.1106   1.9543 C.2            1 S1                 0.0000
      7 ****         1.2917   1.2452   1.7487 S.3            1 S1                 0.0000
      8 ****         0.9674   1.1158   0.0189 C.2            1 S1                 0.0000
      9 ****         1.7803   0.5275  -0.8756 N.pl3          1 S1                -1.0000
     10 ****         1.7148  -0.7896  -1.2179 C.2            1 S1                 0.0000
     11 ****         2.4946  -1.3570  -1.9822 O.2            1 S1                 0.0000
     12 ****         0.5685  -1.6201  -0.5751 C.3            1 S1                 0.0000
     13 ****         0.9728  -2.1789   0.8102 C.3            1 S1                 0.0000
     14 ****         0.9224  -3.7096   0.7162 C.3            1 S1                 0.0000
     15 ****         0.9541  -4.0251  -0.7763 C.3            1 S1                 0.0000
     16 ****         0.1873  -2.8640  -1.4054 C.3            1 S1                 0.0000
     17 ****        -0.1783   1.7173  -0.3206 N.2            1 S1                 0.0000
     18 ****        -1.2493   5.7964  -1.0905 H              1 S1                 0.0000
     19 ****        -1.2051   4.1114  -1.5686 H              1 S1                 0.0000
     20 ****        -2.8194   2.8530   1.4097 H              1 S1                 0.0000
     21 ****        -2.7037   2.5480  -0.3053 H              1 S1                 0.0000
     22 ****        -0.5061   2.4451   2.9352 H              1 S1                 0.0000
     23 ****        -0.3356  -1.0168  -0.4908 H              1 S1                 0.0000
     24 ****         1.9786  -1.8630   1.0925 H              1 S1                 0.0000
     25 ****         0.3022  -1.8177   1.5907 H              1 S1                 0.0000
     26 ****         1.7376  -4.1881   1.2596 H              1 S1                 0.0000
     27 ****        -0.0144  -4.0695   1.1433 H              1 S1                 0.0000
     28 ****         1.9845  -4.0284  -1.1340 H              1 S1                 0.0000
     29 ****         0.5150  -4.9950  -1.0106 H              1 S1                 0.0000
     30 ****        -0.8839  -3.0451  -1.3096 H              1 S1                 0.0000
     31 ****         0.3919  -2.7652  -2.4724 H              1 S1                 0.0000
     32 ****        -2.1134   6.2761   0.9727 LP             1 S1                 0.0000
     33 ****        -2.6376   5.0003   2.0203 LP             1 S1                 0.0000
     34 ****         2.4771   1.0923  -1.3177 LP             1 S1                 0.0000
     35 ****         3.2442  -0.8454  -2.4021 LP             1 S1                 0.0000
     36 ****         2.3786  -2.3296  -2.1834 LP             1 S1                 0.0000
     37 ****        -0.5163   1.7590  -1.2608 LP             1 S1                 0.0000
@<TRIPOS>BOND
    1    1    2 am    
    2    1   18 1     
    3    1   19 1     
    4    2    3 2     
    5    2    4 1     
    6    4    5 1     
    7    4   20 1     
    8    4   21 1     
    9    5   17 1     
   10    5    6 2     
   11    6    7 1     
   12    6   22 1     
   13    7    8 1     
   14    8    9 1     
   15    8   17 2     
   16    9   10 1     
   17   10   11 2     
   18   10   12 1     
   19   12   16 1     
   20   12   13 1     
   21   12   23 1     
   22   13   14 1     
   23   13   24 1     
   24   13   25 1     
   25   14   15 1     
   26   14   26 1     
   27   14   27 1     
   28   15   16 1     
   29   15   28 1     
   30   15   29 1     
   31   16   30 1     
   32   16   31 1     
   33    3   32 1     
   34    3   33 1     
   35    9   34 1     
   36   11   35 1     
   37   11   36 1     
   38   17   37 1     
@<TRIPOS>SUBSTRUCTURE
      1 S1             1
@<TRIPOS>SET
LONE_PAIRS      STATIC     ATOMS    <user>   **** ""
6 32 33 34 35 36 37
DONOR_HYDROGENS      STATIC     ATOMS    <user>   **** ""
2 18 19
ATOM$BLUE        STATIC     ATOMS    COLORGROUP SYSTEM
6 32 33 34 35 36 37
ATOM$RED        STATIC     ATOMS    COLORGROUP SYSTEM
2 18 19
