AV-unprocessed.smi:1973|AV-procd|sdf|7978|dock5
  -GOLD-   2272010153D 1   1.00000     0.00000
 Structure written by MMmdl.
 48 50  0  0  0  0  0  0  0  0  2 V2000
  153.7636  138.1952  158.9315 C   0  0  0  0  0  0  0  0  0  0  0  0
  153.7071  139.0593  157.8107 O   0  0  0  0  0  0  0  0  0  0  0  0
  152.7353  140.0811  157.9586 C   0  0  0  0  0  0  0  0  0  0  0  0
  151.3252  139.4864  157.8116 C   0  0  0  0  0  0  0  0  0  0  0  0
  151.1999  138.6767  156.5942 N   0  0  0  0  0  0  0  0  0  0  0  0
  150.9695  137.3321  156.8361 N   0  0  0  0  0  0  0  0  0  0  0  0
  150.8531  136.5039  155.8487 C   0  0  0  0  0  0  0  0  0  0  0  0
  150.6079  135.0512  156.0678 C   0  0  0  0  0  0  0  0  0  0  0  0
  150.6155  134.5508  157.1934 O   0  0  0  0  0  0  0  0  0  0  0  0
  150.3806  134.3318  154.9553 N   0  0  0  0  0  0  0  0  0  0  0  0
  150.1232  132.8981  154.9341 C   0  0  0  0  0  0  0  0  0  0  0  0
  149.2979  132.5065  153.6977 C   0  0  2  0  0  0  0  0  0  0  0  0
  148.0770  133.3924  153.4583 C   0  0  0  0  0  0  0  0  0  0  0  0
  147.1501  132.5309  152.5917 C   0  0  0  0  0  0  0  0  0  0  0  0
  147.5849  131.1251  152.7654 N   0  3  2  0  0  0  0  0  0  0  0  0
  146.4859  130.1814  153.0607 C   0  0  0  0  0  0  0  0  0  0  0  0
  146.4517  128.9863  152.1384 C   0  0  0  0  0  0  0  0  0  0  0  0
  145.4464  130.1046  151.9682 C   0  0  0  0  0  0  0  0  0  0  0  0
  148.6711  131.1125  153.7666 C   0  0  0  0  0  0  0  0  0  0  0  0
  150.9568  136.9646  154.4748 C   0  0  0  0  0  0  0  0  0  0  0  0
  151.1841  138.2780  154.2544 C   0  0  0  0  0  0  0  0  0  0  0  0
  151.3253  139.2354  155.3523 C   0  0  0  0  0  0  0  0  0  0  0  0
  151.5391  140.4339  155.1737 O   0  0  0  0  0  0  0  0  0  0  0  0
  154.5214  137.4297  158.7648 H   0  0  0  0  0  0  0  0  0  0  0  0
  152.8081  137.6938  159.0913 H   0  0  0  0  0  0  0  0  0  0  0  0
  154.0290  138.7411  159.8377 H   0  0  0  0  0  0  0  0  0  0  0  0
  152.8419  140.5731  158.9269 H   0  0  0  0  0  0  0  0  0  0  0  0
  152.8907  140.8405  157.1911 H   0  0  0  0  0  0  0  0  0  0  0  0
  151.1149  138.8560  158.6773 H   0  0  0  0  0  0  0  0  0  0  0  0
  150.5762  140.2791  157.8482 H   0  0  0  0  0  0  0  0  0  0  0  0
  150.3821  134.8167  154.0694 H   0  0  0  0  0  0  0  0  0  0  0  0
  151.0689  132.3532  154.9420 H   0  0  0  0  0  0  0  0  0  0  0  0
  149.5876  132.6213  155.8433 H   0  0  0  0  0  0  0  0  0  0  0  0
  149.9343  132.5571  152.8121 H   0  0  0  0  0  0  0  0  0  0  0  0
  147.5845  133.6139  154.4064 H   0  0  0  0  0  0  0  0  0  0  0  0
  148.3306  134.3425  152.9872 H   0  0  0  0  0  0  0  0  0  0  0  0
  146.1053  132.6807  152.8686 H   0  0  0  0  0  0  0  0  0  0  0  0
  147.2522  132.7928  151.5383 H   0  0  0  0  0  0  0  0  0  0  0  0
  146.1986  130.0816  154.1060 H   0  0  0  0  0  0  0  0  0  0  0  0
  147.2327  128.8931  151.3860 H   0  0  0  0  0  0  0  0  0  0  0  0
  146.0858  128.0466  152.5471 H   0  0  0  0  0  0  0  0  0  0  0  0
  144.4199  129.9002  152.2653 H   0  0  0  0  0  0  0  0  0  0  0  0
  145.5589  130.7549  151.1023 H   0  0  0  0  0  0  0  0  0  0  0  0
  149.3890  130.3170  153.5635 H   0  0  0  0  0  0  0  0  0  0  0  0
  148.2526  130.9419  154.7604 H   0  0  0  0  0  0  0  0  0  0  0  0
  150.8568  136.2805  153.6445 H   0  0  0  0  0  0  0  0  0  0  0  0
  151.2643  138.6343  153.2377 H   0  0  0  0  0  0  0  0  0  0  0  0
  147.9977  130.8464  151.8869 H   0  0  0  0  0  0  0  0  0  0  0  0
  1  2  1  0  0  0  0
  1 24  1  0  0  0  0
  1 25  1  0  0  0  0
  1 26  1  0  0  0  0
  2  3  1  0  0  0  0
  3  4  1  0  0  0  0
  3 27  1  0  0  0  0
  3 28  1  0  0  0  0
  4  5  1  0  0  0  0
  4 29  1  0  0  0  0
  4 30  1  0  0  0  0
  5 22  1  0  0  0  0
  5  6  1  0  0  0  0
  6  7  2  0  0  0  0
  7  8  1  0  0  0  0
  7 20  1  0  0  0  0
  8  9  2  0  0  0  0
  8 10  1  0  0  0  0
 10 11  1  0  0  0  0
 10 31  1  0  0  0  0
 11 12  1  0  0  0  0
 11 32  1  0  0  0  0
 11 33  1  0  0  0  0
 12 19  1  0  0  0  0
 12 13  1  0  0  0  0
 12 34  1  0  0  0  0
 13 14  1  0  0  0  0
 13 35  1  0  0  0  0
 13 36  1  0  0  0  0
 14 15  1  0  0  0  0
 14 37  1  0  0  0  0
 14 38  1  0  0  0  0
 15 16  1  0  0  0  0
 15 19  1  0  0  0  0
 15 48  1  0  0  0  0
 16 18  1  0  0  0  0
 16 17  1  0  0  0  0
 16 39  1  0  0  0  0
 17 18  1  0  0  0  0
 17 40  1  0  0  0  0
 17 41  1  0  0  0  0
 18 42  1  0  0  0  0
 18 43  1  0  0  0  0
 19 44  1  0  0  0  0
 19 45  1  0  0  0  0
 20 21  2  0  0  0  0
 20 46  1  0  0  0  0
 21 22  1  0  0  0  0
 21 47  1  0  0  0  0
 22 23  2  0  0  0  0
M  CHG  1  15   1
M  END
> <s_m_source_file>
AV-unprocessed.smi

> <i_m_source_file_index>
1973

> <i_lp_mmshare_version>
43012

> <i_f3d_flags>
0

> <s_epik_input>
W0NIM11PW0NIMl1bQ0gyXW4xbmMoW2NIXVtjSF1jMT1PKUMoPU8pW05IXVtDSDJdW0NAQEhdMltDSDJdW0NIMl1OKFtDSDJdMilbQ0hdM1tDSDJdW0NIMl0z

> <s_epik_cmdline>
J2VwaWtfcHl0aG9uJywgJy1waCcsICc3LjAnLCAnLXRuJywgJzgnLCAnLW1hJywgJzIwMCcsICctbWV0YWxfYmluZGluZycsICctaW1hZScsICc8aW5maWxlLm1hZT4nLCAnLW9tYWUnLCAnPG91dGZpbGUubWFlPic=

> <r_lp_tautomer_probability>
1

> <r_epik_Ionization_Penalty>
0.000225706

> <r_epik_Ionization_Penalty_Charging>
0.000223776

> <r_epik_Ionization_Penalty_Neutral>
1.93004e-06

> <r_epik_State_Penalty>
-0

> <r_epik_Charging_Adjusted_Penalty>
0.000223776

> <i_epik_Tot_Q>
1

> <i_epik_Tot_abs_Q>
1

> <r_epik_Metal_State_Penalty>
-0

> <b_epik_Metal_Only>
0

> <s_lp_Force_Field>
OPLS_2005

> <r_lp_Energy>
60.0274

> <b_lp_Chiralities_Consistent>
1

> <s_lp_Variant>
AV-unprocessed.smi:1973-3

> <Gold.Version>
5.8.1

> <Gold.Id.Protein>
6NUR|6NUR_protein|mol2

> <Gold.PLP.Fitness>
48.0736

> <Gold.PLP.PLP>
-39.8357

> <Gold.PLP.part.hbond>
-4.0000

> <Gold.PLP.part.metal>
0.0000

> <Gold.PLP.part.buried>
-6.0189

> <Gold.PLP.part.nonpolar>
-30.6912

> <Gold.PLP.part.repulsive>
0.0932

> <Gold.PLP.ligand.clash>
0.4513

> <Gold.PLP.ligand.torsion>
1.0803

> <Gold.PLP.Chemscore.Hbond>
3.1664

> <Gold.PLP.Chemscore.CHOScore>
0.0000

> <Gold.PLP.Chemscore.Metal>
0.0000

> <Gold.Chemscore.Hbonds>
donor molecule, donor type, donor heavy atom, donor atom, acceptor molecule, acceptor atom, score
      L1  H    15    48       P1 10747  1.00
      P1  H  6896  6909       L1     9  0.18
      P1  H  7989  7998       L1    23  0.88
      P1  H  7997  8008       L1     2  0.60

> <Gold.PLP.Chemscore.Internal.Correction>
1.3507

> <Gold.Rescore>
     Score         DG    S(hbond)    S(metal)    S(lipo)     H(rot)  DE(clash)    DE(int)     intcor
     18.62     -19.77       2.78        0.00      85.93       1.97       0.04       1.11       ----

> <Gold.Chemscore.Fitness>
18.6174

> <Gold.Chemscore.DG>
-19.7674

> <Gold.Chemscore.ZeroCoef>
-5.4800

> <Gold.Chemscore.Hbond>
2.7783

> <Gold.Chemscore.Metal>
0.0000

> <Gold.Chemscore.Lipo>
85.9308

> <Gold.Chemscore.Internal_Hbond>
0.0000

> <Gold.Chemscore.DEClash>
0.0417

> <Gold.Chemscore.DEInternal>
1.1083

> <Gold.Chemscore.Rot>
1.9711

> <Gold.Chemscore.Internal.Correction>
   9.000000E+99

> <Gold.Chemscore.Hbonds>
donor molecule, donor type, donor heavy atom, donor atom, acceptor molecule, acceptor atom, score
      L1  H    15    48       P1 10747  1.00
      P1  H  6896  6909       L1     9  0.18
      P1  H  7989  7998       L1    23  0.76
      P1  H  7997  8008       L1     2  0.04

> <Gold.Chemscore.Hbond.Weighted>
-9.2795

> <Gold.Chemscore.Metal.Weighted>
-0.0000

> <Gold.Chemscore.Lipo.Weighted>
-10.0539

> <Gold.Chemscore.Internal_Hbond.Weighted>
0.0000

> <Gold.Chemscore.DEClash.Weighted>
0.0417

> <Gold.Chemscore.DEInternal.Weighted>
1.1083

> <Gold.Chemscore.Rot.Weighted>
5.0460

> <Gold.Chemscore.Internal.Correction.Weighted>
   9.000000E+99

> <Gold.Protein.RotatedTorsions>
[ 6907 6896 6895 6894 ] final  -15.87 input  -60.11 | X-H torsion
[ 7974 7965 7964 7962 ] final  -15.23 input  175.53 | X-H torsion
[ 8008 7997 7996 7995 ] final  -90.78 input   59.86 | X-H torsion
[ 10167 10162 10161 10158 ] final -134.04 input  -65.29 | X-H torsion
[ 10718 10713 10712 10709 ] final  111.22 input   66.30 | X-H torsion
[ 10763 10752 10751 10750 ] final   10.72 input  -60.55 | X-H torsion
[ 11005 11000 10999 10996 ] final  -93.08 input  -57.11 | X-H torsion

> <Gold.Protein.ActiveResidues>
 VAL166  LYS551  ARG553  GLY616  TRP617  ASP618  TYR619  PRO620  LYS621  CYS622 
 ASP623  PHE694  ASN695  SER759  ASP760  ASP761  ALA762  ILE779  LEU786  VAL792 
 PHE793  MET794  SER795  GLU796  ALA797  LYS798  CYS799  TRP800  GLU811  SER814 

> <Gold.Protein.RotatedAtoms>
  151.3172  135.0809  159.9292 H   0  0  0  0  0  0  0  0  0  0  0  0  # atno 6907 bound_to 6896
  152.5265  133.9675  159.7757 H   0  0  0  0  0  0  0  0  0  0  0  0  # atno 6908 bound_to 6896
  150.9990  133.6023  159.2728 H   0  0  0  0  0  0  0  0  0  0  0  0  # atno 6909 bound_to 6896
  146.2041  140.3463  142.8413 H   0  0  0  0  0  0  0  0  0  0  0  0  # atno 7974 bound_to 7965
  154.7027  140.0526  157.0473 H   0  0  0  0  0  0  0  0  0  0  0  0  # atno 8008 bound_to 7997
  155.0663  140.3195  155.4625 H   0  0  0  0  0  0  0  0  0  0  0  0  # atno 8009 bound_to 7997
  156.2765  140.2090  156.5790 H   0  0  0  0  0  0  0  0  0  0  0  0  # atno 8010 bound_to 7997
  139.8921  143.6709  152.2610 H   0  0  0  0  0  0  0  0  0  0  0  0  # atno 10167 bound_to 10162
  157.6456  131.0947  150.6716 H   0  0  0  0  0  0  0  0  0  0  0  0  # atno 10718 bound_to 10713
  153.2002  135.6855  153.8241 H   0  0  0  0  0  0  0  0  0  0  0  0  # atno 10763 bound_to 10752
  153.7510  135.3224  155.3322 H   0  0  0  0  0  0  0  0  0  0  0  0  # atno 10764 bound_to 10752
  154.8167  135.4681  154.0764 H   0  0  0  0  0  0  0  0  0  0  0  0  # atno 10765 bound_to 10752
  141.1506  133.7864  157.0110 H   0  0  0  0  0  0  0  0  0  0  0  0  # atno 11005 bound_to 11000
  144.8750  140.7324  143.6023 LP  0  0  0  0  0  0  0  0  0  0  0  0  # atno 17320 bound_to 7965
  145.3383  139.1739  143.4499 LP  0  0  0  0  0  0  0  0  0  0  0  0  # atno 17321 bound_to 7965
  139.7100  144.7622  151.1128 LP  0  0  0  0  0  0  0  0  0  0  0  0  # atno 17342 bound_to 10162
  140.7724  143.5343  150.9386 LP  0  0  0  0  0  0  0  0  0  0  0  0  # atno 17343 bound_to 10162
  156.7034  130.4630  149.5566 LP  0  0  0  0  0  0  0  0  0  0  0  0  # atno 17370 bound_to 10713
  156.1779  130.6480  151.0917 LP  0  0  0  0  0  0  0  0  0  0  0  0  # atno 17371 bound_to 10713
  140.0878  134.9610  157.1727 LP  0  0  0  0  0  0  0  0  0  0  0  0  # atno 17394 bound_to 11000
  140.3488  134.2622  155.7201 LP  0  0  0  0  0  0  0  0  0  0  0  0  # atno 17395 bound_to 11000

$$$$
