AV-unprocessed.smi:3|AV-procd|sdf|28|dock1
  -GOLD-   2262015143D 1   1.00000     0.00000
 Structure written by MMmdl.
 33 35  0  0  0  0  0  0  0  0  1 V2000
  149.5618  141.8930  157.2250 C   0  0  0  0  0  0  0  0  0  0  0  0
  150.8998  141.3318  157.1081 N   0  0  0  0  0  0  0  0  0  0  0  0
  151.8808  141.6928  158.1339 C   0  0  0  0  0  0  0  0  0  0  0  0
  151.5076  142.9829  158.8636 C   0  0  1  0  0  0  0  0  0  0  0  0
  152.4916  143.6247  159.8537 C   0  0  0  0  0  0  0  0  0  0  0  0
  152.0825  145.0065  159.3359 C   0  0  2  0  0  0  0  0  0  0  0  0
  151.1716  145.7430  160.1233 O   0  0  0  0  0  0  0  0  0  0  0  0
  151.5214  144.3098  158.0922 C   0  0  0  0  0  0  0  0  0  0  0  0
  151.1360  140.2427  156.2317 C   0  0  0  0  0  0  0  0  0  0  0  0
  152.3499  139.6350  156.3018 N   0  0  0  0  0  0  0  0  0  0  0  0
  152.6412  138.6026  155.5086 C   0  0  0  0  0  0  0  0  0  0  0  0
  151.8781  138.0246  154.5817 N   0  0  0  0  0  0  0  0  0  0  0  0
  150.6616  138.6306  154.4967 C   0  0  0  0  0  0  0  0  0  0  0  0
  149.6355  138.2907  153.6414 N   0  0  0  0  0  0  0  0  0  0  0  0
  148.5521  139.1254  153.8367 C   0  0  0  0  0  0  0  0  0  0  0  0
  148.8564  140.0257  154.8250 C   0  0  0  0  0  0  0  0  0  0  0  0
  150.2010  139.7384  155.2716 C   0  0  0  0  0  0  0  0  0  0  0  0
  150.5341  142.8911  159.3494 H   0  0  0  0  0  0  0  0  0  0  0  0
  152.9434  145.6340  159.1033 H   0  0  0  0  0  0  0  0  0  0  0  0
  149.6488  137.5442  152.9615 H   0  0  0  0  0  0  0  0  0  0  0  0
  149.2389  142.3150  156.2733 H   0  0  0  0  0  0  0  0  0  0  0  0
  149.5380  142.6957  157.9626 H   0  0  0  0  0  0  0  0  0  0  0  0
  148.8502  141.1314  157.5449 H   0  0  0  0  0  0  0  0  0  0  0  0
  152.0427  140.8796  158.8412 H   0  0  0  0  0  0  0  0  0  0  0  0
  152.8442  141.8221  157.6399 H   0  0  0  0  0  0  0  0  0  0  0  0
  152.2556  143.4348  160.9013 H   0  0  0  0  0  0  0  0  0  0  0  0
  153.5349  143.3949  159.6334 H   0  0  0  0  0  0  0  0  0  0  0  0
  150.4332  145.9497  159.5707 H   0  0  0  0  0  0  0  0  0  0  0  0
  152.2265  144.3120  157.2592 H   0  0  0  0  0  0  0  0  0  0  0  0
  150.5353  144.6542  157.7787 H   0  0  0  0  0  0  0  0  0  0  0  0
  153.6268  138.1792  155.6345 H   0  0  0  0  0  0  0  0  0  0  0  0
  147.6494  139.0109  153.2547 H   0  0  0  0  0  0  0  0  0  0  0  0
  148.2013  140.8002  155.1916 H   0  0  0  0  0  0  0  0  0  0  0  0
  1  2  1  0  0  0  0
  1 21  1  0  0  0  0
  1 22  1  0  0  0  0
  1 23  1  0  0  0  0
  2  3  1  0  0  0  0
  2  9  1  0  0  0  0
  3  4  1  0  0  0  0
  3 24  1  0  0  0  0
  3 25  1  0  0  0  0
  4 18  1  0  0  0  0
  4  8  1  0  0  0  0
  4  5  1  0  0  0  0
  5  6  1  0  0  0  0
  5 26  1  0  0  0  0
  5 27  1  0  0  0  0
  6 19  1  0  0  0  0
  6  7  1  0  0  0  0
  6  8  1  0  0  0  0
  7 28  1  0  0  0  0
  8 29  1  0  0  0  0
  8 30  1  0  0  0  0
  9 17  1  0  0  0  0
  9 10  2  0  0  0  0
 10 11  1  0  0  0  0
 11 12  2  0  0  0  0
 11 31  1  0  0  0  0
 12 13  1  0  0  0  0
 13 17  2  0  0  0  0
 13 14  1  0  0  0  0
 14 20  1  0  0  0  0
 14 15  1  0  0  0  0
 15 16  2  0  0  0  0
 15 32  1  0  0  0  0
 16 17  1  0  0  0  0
 16 33  1  0  0  0  0
M  END
> <s_m_source_file>
AV-unprocessed.smi

> <i_m_source_file_index>
3

> <i_lp_mmshare_version>
43012

> <i_f3d_flags>
0

> <s_epik_input>
W25IXTFbY0hdW2NIXWMoYzEyKWMobltjSF1uMilOKFtDSDNdKVtDSDJdW0NASF0zW0NIMl1bQ0BASF0oW09IXSlbQ0gyXTM=

> <s_epik_cmdline>
J2VwaWtfcHl0aG9uJywgJy1waCcsICc3LjAnLCAnLXRuJywgJzgnLCAnLW1hJywgJzIwMCcsICctbWV0YWxfYmluZGluZycsICctaW1hZScsICc8aW5maWxlLm1hZT4nLCAnLW9tYWUnLCAnPG91dGZpbGUubWFlPic=

> <r_lp_tautomer_probability>
0.999998

> <r_epik_Ionization_Penalty>
0.0134605

> <r_epik_Ionization_Penalty_Charging>
0

> <r_epik_Ionization_Penalty_Neutral>
0.0134605

> <r_epik_State_Penalty>
0.00982199

> <r_epik_Charging_Adjusted_Penalty>
0.00982199

> <i_epik_Tot_Q>
0

> <i_epik_Tot_abs_Q>
0

> <r_epik_Metal_State_Penalty>
0.00963912

> <b_epik_Metal_Only>
0

> <s_lp_Force_Field>
OPLS_2005

> <r_lp_Energy>
12.0979

> <b_lp_Chiralities_Consistent>
1

> <s_lp_Variant>
AV-unprocessed.smi:3-2

> <Gold.Version>
5.8.1

> <Gold.Id.Protein>
6NUR|6NUR_protein|mol2

> <Gold.PLP.Fitness>
45.5480

> <Gold.PLP.PLP>
-40.6696

> <Gold.PLP.part.hbond>
-4.5954

> <Gold.PLP.part.metal>
0.0000

> <Gold.PLP.part.buried>
-3.2397

> <Gold.PLP.part.nonpolar>
-33.2533

> <Gold.PLP.part.repulsive>
0.2101

> <Gold.PLP.ligand.clash>
0.0000

> <Gold.PLP.ligand.torsion>
0.2246

> <Gold.PLP.Chemscore.Hbond>
1.7000

> <Gold.PLP.Chemscore.CHOScore>
0.0000

> <Gold.PLP.Chemscore.Metal>
0.0000

> <Gold.Chemscore.Hbonds>
donor molecule, donor type, donor heavy atom, donor atom, acceptor molecule, acceptor atom, score
      L1  H    14    20       P1  7948  1.00
      P1  H  7997  8010       L1    10  0.53

> <Gold.PLP.Chemscore.Internal.Correction>
0.2278

> <Gold.Rescore>
     Score         DG    S(hbond)    S(metal)    S(lipo)     H(rot)  DE(clash)    DE(int)     intcor
     14.11     -14.38       1.24        0.00      80.92       1.84       0.12       0.15       ----

> <Gold.Chemscore.Fitness>
14.1100

> <Gold.Chemscore.DG>
-14.3819

> <Gold.Chemscore.ZeroCoef>
-5.4800

> <Gold.Chemscore.Hbond>
1.2407

> <Gold.Chemscore.Metal>
0.0000

> <Gold.Chemscore.Lipo>
80.9185

> <Gold.Chemscore.Internal_Hbond>
0.0000

> <Gold.Chemscore.DEClash>
0.1223

> <Gold.Chemscore.DEInternal>
0.1496

> <Gold.Chemscore.Rot>
1.8396

> <Gold.Chemscore.Internal.Correction>
   9.000000E+99

> <Gold.Chemscore.Hbonds>
donor molecule, donor type, donor heavy atom, donor atom, acceptor molecule, acceptor atom, score
      L1  H    14    20       P1  7948  0.65
      P1  H  7997  8010       L1    10  0.04

> <Gold.Chemscore.Hbond.Weighted>
-4.1439

> <Gold.Chemscore.Metal.Weighted>
-0.0000

> <Gold.Chemscore.Lipo.Weighted>
-9.4675

> <Gold.Chemscore.Internal_Hbond.Weighted>
0.0000

> <Gold.Chemscore.DEClash.Weighted>
0.1223

> <Gold.Chemscore.DEInternal.Weighted>
0.1496

> <Gold.Chemscore.Rot.Weighted>
4.7095

> <Gold.Chemscore.Internal.Correction.Weighted>
   9.000000E+99

> <Gold.Protein.RotatedTorsions>
[ 6907 6896 6895 6894 ] final   64.26 input  -60.11 | X-H torsion
[ 7974 7965 7964 7962 ] final   -6.14 input  175.53 | X-H torsion
[ 8008 7997 7996 7995 ] final   63.00 input   59.86 | X-H torsion
[ 10167 10162 10161 10158 ] final  -22.27 input  -65.29 | X-H torsion
[ 10718 10713 10712 10709 ] final -103.92 input   66.30 | X-H torsion
[ 10763 10752 10751 10750 ] final   46.64 input  -60.55 | X-H torsion
[ 11005 11000 10999 10996 ] final  132.37 input  -57.11 | X-H torsion

> <Gold.Protein.ActiveResidues>
 VAL166  LYS551  ARG553  GLY616  TRP617  ASP618  TYR619  PRO620  LYS621  CYS622 
 ASP623  PHE694  ASN695  SER759  ASP760  ASP761  ALA762  ILE779  LEU786  VAL792 
 PHE793  MET794  SER795  GLU796  ALA797  LYS798  CYS799  TRP800  GLU811  SER814 

> <Gold.Protein.RotatedAtoms>
  152.4318  134.5764  159.9935 H   0  0  0  0  0  0  0  0  0  0  0  0  # atno 6907 bound_to 6896
  151.5885  133.3363  159.3031 H   0  0  0  0  0  0  0  0  0  0  0  0  # atno 6908 bound_to 6896
  150.8211  134.7455  159.6838 H   0  0  0  0  0  0  0  0  0  0  0  0  # atno 6909 bound_to 6896
  146.2337  140.2126  142.8335 H   0  0  0  0  0  0  0  0  0  0  0  0  # atno 7974 bound_to 7965
  155.6233  140.3496  155.4659 H   0  0  0  0  0  0  0  0  0  0  0  0  # atno 8008 bound_to 7997
  156.0061  140.1223  157.0523 H   0  0  0  0  0  0  0  0  0  0  0  0  # atno 8009 bound_to 7997
  154.4265  140.1091  156.5751 H   0  0  0  0  0  0  0  0  0  0  0  0  # atno 8010 bound_to 7997
  140.7285  143.4550  151.0462 H   0  0  0  0  0  0  0  0  0  0  0  0  # atno 10167 bound_to 10162
  156.0284  130.5490  150.7322 H   0  0  0  0  0  0  0  0  0  0  0  0  # atno 10718 bound_to 10713
  152.9808  135.6001  154.3633 H   0  0  0  0  0  0  0  0  0  0  0  0  # atno 10763 bound_to 10752
  154.3313  135.2768  155.2472 H   0  0  0  0  0  0  0  0  0  0  0  0  # atno 10764 bound_to 10752
  154.4595  135.5969  153.6301 H   0  0  0  0  0  0  0  0  0  0  0  0  # atno 10765 bound_to 10752
  139.9786  134.9555  156.9572 H   0  0  0  0  0  0  0  0  0  0  0  0  # atno 11005 bound_to 11000
  144.9695  140.8354  143.5464 LP  0  0  0  0  0  0  0  0  0  0  0  0  # atno 17320 bound_to 7965
  145.2106  139.2207  143.5145 LP  0  0  0  0  0  0  0  0  0  0  0  0  # atno 17321 bound_to 7965
  139.8229  143.7795  152.3177 LP  0  0  0  0  0  0  0  0  0  0  0  0  # atno 17342 bound_to 10162
  139.7884  144.7419  150.9990 LP  0  0  0  0  0  0  0  0  0  0  0  0  # atno 17343 bound_to 10162
  157.4911  131.0911  151.0425 LP  0  0  0  0  0  0  0  0  0  0  0  0  # atno 17370 bound_to 10713
  157.0832  130.5911  149.5424 LP  0  0  0  0  0  0  0  0  0  0  0  0  # atno 17371 bound_to 10713
  140.5143  134.0970  155.7277 LP  0  0  0  0  0  0  0  0  0  0  0  0  # atno 17394 bound_to 11000
  141.1460  133.9054  157.2213 LP  0  0  0  0  0  0  0  0  0  0  0  0  # atno 17395 bound_to 11000

$$$$
