#       Name:                AV-unprocessed.smi:3330
#       Creating user name   scv26
#       Creation time:       Fri Mar 27 19:16:28 2020


#       File generated by GOLD software.
#

@<TRIPOS>MOLECULE
AV-unprocessed.smi:3330
    44    45     1
SMALL
NO_CHARGES


@<TRIPOS>ATOM
      1 ****        -1.5783  -1.2117   0.9750 C.3            1 S1                 0.0000
      2 ****        -1.0490  -0.5217  -0.3007 C.3            1 S1                 0.0000
      3 ****         0.4324  -0.5174  -0.3062 N.4            1 S1                 1.0000
      4 ****         1.0719   0.4672   0.5906 C.3            1 S1                 0.0000
      5 ****         2.5987   0.4431   0.4214 C.3            1 S1                 0.0000
      6 ****         3.2515   1.4069   1.3113 N.am           1 S1                 0.0000
      7 ****         3.6458   1.1303   2.5609 C.2            1 S1                 0.0000
      8 ****         3.5341   0.0616   3.1604 O.2            1 S1                 0.0000
      9 ****         4.2637   2.3768   3.1559 C.3            1 S1                 0.0000
     10 ****         4.0956   3.2785   2.0364 N.am           1 S1                 0.0000
     11 ****         3.5057   2.6882   0.9888 C.2            1 S1                 0.0000
     12 ****         3.2411   3.2374  -0.0795 O.2            1 S1                 0.0000
     13 ****        -1.5714  -1.1840  -1.6041 C.3            1 S1                 0.0000
     14 ****        -1.1644  -0.4029  -2.8691 C.3            1 S1                 0.0000
     15 ****        -3.0153  -1.3839  -1.5839 N.pl3          1 S1                 0.0000
     16 ****        -3.7135  -2.5736  -1.6222 C.2            1 S1                 0.0000
     17 ****        -5.0436  -2.2688  -1.5803 C.2            1 S1                 0.0000
     18 ****        -5.0631  -0.8477  -1.5187 C.2            1 S1                 0.0000
     19 ****        -3.8492  -0.3210  -1.5198 N.2            1 S1                 0.0000
     20 ****        -2.6661  -1.1745   1.0345 H              1 S1                 0.0000
     21 ****        -1.2067  -0.7331   1.8805 H              1 S1                 0.0000
     22 ****        -1.2815  -2.2604   1.0088 H              1 S1                 0.0000
     23 ****        -1.3900   0.5150  -0.2929 H              1 S1                 0.0000
     24 ****         0.7639  -1.4435  -0.0772 H              1 S1                 0.0000
     25 ****         0.6883   1.4630   0.3641 H              1 S1                 0.0000
     26 ****         0.8129   0.2482   1.6264 H              1 S1                 0.0000
     27 ****         2.9797  -0.5604   0.6201 H              1 S1                 0.0000
     28 ****         2.8628   0.6582  -0.6158 H              1 S1                 0.0000
     29 ****         3.7170   2.7188   4.0351 H              1 S1                 0.0000
     30 ****         5.3164   2.2286   3.3986 H              1 S1                 0.0000
     31 ****         4.3923   4.2437   2.0585 H              1 S1                 0.0000
     32 ****        -1.1241  -2.1769  -1.6756 H              1 S1                 0.0000
     33 ****        -0.0813  -0.3474  -2.9773 H              1 S1                 0.0000
     34 ****        -1.5471   0.6181  -2.8507 H              1 S1                 0.0000
     35 ****        -1.5531  -0.8853  -3.7665 H              1 S1                 0.0000
     36 ****        -3.2119  -3.5288  -1.6745 H              1 S1                 0.0000
     37 ****        -5.8763  -2.9563  -1.5931 H              1 S1                 0.0000
     38 ****        -5.9171  -0.1880  -1.4729 H              1 S1                 0.0000
     39 ****         0.7288  -0.2963  -1.2462 H              1 S1                 0.0000
     40 ****         3.1077  -0.7225   2.7094 LP             1 S1                 0.0000
     41 ****         3.8698  -0.0229   4.0986 LP             1 S1                 0.0000
     42 ****         2.7933   2.7213  -0.8096 LP             1 S1                 0.0000
     43 ****         3.4738   4.2000  -0.2179 LP             1 S1                 0.0000
     44 ****        -3.6031   0.6475  -1.4817 LP             1 S1                 0.0000
@<TRIPOS>BOND
    1    1    2 1     
    2    1   20 1     
    3    1   21 1     
    4    1   22 1     
    5    2    3 1     
    6    2   13 1     
    7    2   23 1     
    8    3    4 1     
    9    3   24 1     
   10    3   39 1     
   11    4    5 1     
   12    4   25 1     
   13    4   26 1     
   14    5    6 1     
   15    5   27 1     
   16    5   28 1     
   17    6   11 am    
   18    6    7 am    
   19    7    8 2     
   20    7    9 1     
   21    9   10 1     
   22    9   29 1     
   23    9   30 1     
   24   10   11 am    
   25   10   31 1     
   26   11   12 2     
   27   13   14 1     
   28   13   15 1     
   29   13   32 1     
   30   14   33 1     
   31   14   34 1     
   32   14   35 1     
   33   15   19 1     
   34   15   16 1     
   35   16   17 2     
   36   16   36 1     
   37   17   18 1     
   38   17   37 1     
   39   18   19 2     
   40   18   38 1     
   41    8   40 1     
   42    8   41 1     
   43   12   42 1     
   44   12   43 1     
   45   19   44 1     
@<TRIPOS>SUBSTRUCTURE
      1 S1             1
@<TRIPOS>SET
LONE_PAIRS      STATIC     ATOMS    <user>   **** ""
5 40 41 42 43 44
DONOR_HYDROGENS      STATIC     ATOMS    <user>   **** ""
3 24 39 31
ATOM$BLUE        STATIC     ATOMS    COLORGROUP SYSTEM
5 40 41 42 43 44
ATOM$RED        STATIC     ATOMS    COLORGROUP SYSTEM
3 24 39 31
