AV-unprocessed.smi:3336|AV-procd|sdf|12860|dock5
  -GOLD-   2272019253D 1   1.00000     0.00000
 Structure written by MMmdl.
 41 42  0  0  0  0  0  0  0  0  1 V2000
  146.2457  135.1858  153.5321 C   0  0  0  0  0  0  0  0  0  0  0  0
  147.2240  134.0420  153.2200 C   0  0  1  0  0  0  0  0  0  0  0  0
  147.2198  133.6478  151.7205 C   0  0  0  0  0  0  0  0  0  0  0  0
  145.9898  133.0113  151.2763 N   0  0  0  0  0  0  0  0  0  0  0  0
  145.8232  131.7591  150.7219 C   0  0  0  0  0  0  0  0  0  0  0  0
  144.4924  131.6035  150.4589 C   0  0  0  0  0  0  0  0  0  0  0  0
  143.9175  132.8324  150.8876 C   0  0  0  0  0  0  0  0  0  0  0  0
  144.8162  133.6743  151.3707 N   0  0  0  0  0  0  0  0  0  0  0  0
  148.5438  134.4619  153.7014 N   0  0  0  0  0  0  0  0  0  0  0  0
  148.6225  134.9624  155.0903 C   0  0  1  0  0  0  0  0  0  0  0  0
  148.1540  133.8581  156.0511 C   0  0  0  0  0  0  0  0  0  0  0  0
  150.0293  135.4580  155.5005 C   0  0  0  0  0  0  0  0  0  0  0  0
  150.9170  134.6161  155.6513 O   0  0  0  0  0  0  0  0  0  0  0  0
  150.2628  136.7813  155.6920 N   0  0  0  0  0  0  0  0  0  0  0  0
  151.5607  137.4254  155.9311 C   0  0  0  0  0  0  0  0  0  0  0  0
  151.8672  138.3635  154.7492 C   0  0  0  0  0  0  0  0  0  0  0  0
  150.8217  139.3203  154.6043 O   0  0  0  0  0  0  0  0  0  0  0  0
  149.5479  138.7203  154.3883 C   0  0  0  0  0  0  0  0  0  0  0  0
  149.2099  137.7961  155.5706 C   0  0  0  0  0  0  0  0  0  0  0  0
  145.2395  134.9433  153.1895 H   0  0  0  0  0  0  0  0  0  0  0  0
  146.5440  136.1189  153.0528 H   0  0  0  0  0  0  0  0  0  0  0  0
  146.1886  135.3714  154.6052 H   0  0  0  0  0  0  0  0  0  0  0  0
  146.8862  133.1789  153.7927 H   0  0  0  0  0  0  0  0  0  0  0  0
  147.4281  134.5054  151.0804 H   0  0  0  0  0  0  0  0  0  0  0  0
  148.0368  132.9495  151.5351 H   0  0  0  0  0  0  0  0  0  0  0  0
  146.6568  131.0902  150.5655 H   0  0  0  0  0  0  0  0  0  0  0  0
  144.0041  130.7432  150.0259 H   0  0  0  0  0  0  0  0  0  0  0  0
  142.8815  133.1365  150.8598 H   0  0  0  0  0  0  0  0  0  0  0  0
  148.9363  135.1307  153.0542 H   0  0  0  0  0  0  0  0  0  0  0  0
  147.9120  135.7806  155.1600 H   0  0  0  0  0  0  0  0  0  0  0  0
  148.1488  134.2004  157.0862 H   0  0  0  0  0  0  0  0  0  0  0  0
  148.7984  132.9797  155.9956 H   0  0  0  0  0  0  0  0  0  0  0  0
  147.1390  133.5394  155.8116 H   0  0  0  0  0  0  0  0  0  0  0  0
  151.5133  137.9941  156.8609 H   0  0  0  0  0  0  0  0  0  0  0  0
  152.3942  136.7375  156.0437 H   0  0  0  0  0  0  0  0  0  0  0  0
  152.8057  138.8907  154.9200 H   0  0  0  0  0  0  0  0  0  0  0  0
  151.9831  137.7963  153.8242 H   0  0  0  0  0  0  0  0  0  0  0  0
  148.7988  139.5068  154.2969 H   0  0  0  0  0  0  0  0  0  0  0  0
  149.5483  138.1663  153.4482 H   0  0  0  0  0  0  0  0  0  0  0  0
  148.2160  137.3699  155.4299 H   0  0  0  0  0  0  0  0  0  0  0  0
  149.1586  138.3738  156.4950 H   0  0  0  0  0  0  0  0  0  0  0  0
  1  2  1  0  0  0  0
  1 20  1  0  0  0  0
  1 21  1  0  0  0  0
  1 22  1  0  0  0  0
  2  3  1  0  0  0  0
  2  9  1  0  0  0  0
  2 23  1  0  0  0  0
  3  4  1  0  0  0  0
  3 24  1  0  0  0  0
  3 25  1  0  0  0  0
  4  8  1  0  0  0  0
  4  5  1  0  0  0  0
  5  6  2  0  0  0  0
  5 26  1  0  0  0  0
  6  7  1  0  0  0  0
  6 27  1  0  0  0  0
  7  8  2  0  0  0  0
  7 28  1  0  0  0  0
  9 10  1  0  0  0  0
  9 29  1  0  0  0  0
 10 11  1  0  0  0  0
 10 12  1  0  0  0  0
 10 30  1  0  0  0  0
 11 31  1  0  0  0  0
 11 32  1  0  0  0  0
 11 33  1  0  0  0  0
 12 13  2  0  0  0  0
 12 14  1  0  0  0  0
 14 19  1  0  0  0  0
 14 15  1  0  0  0  0
 15 16  1  0  0  0  0
 15 34  1  0  0  0  0
 15 35  1  0  0  0  0
 16 17  1  0  0  0  0
 16 36  1  0  0  0  0
 16 37  1  0  0  0  0
 17 18  1  0  0  0  0
 18 19  1  0  0  0  0
 18 38  1  0  0  0  0
 18 39  1  0  0  0  0
 19 40  1  0  0  0  0
 19 41  1  0  0  0  0
M  END
> <s_m_source_file>
AV-unprocessed.smi

> <i_m_source_file_index>
3336

> <i_lp_mmshare_version>
43012

> <i_f3d_flags>
0

> <s_epik_input>
bjFbY0hdW2NIXVtjSF1uMVtDSDJdW0NAQEhdKFtDSDNdKVtOSF1bQ0BIXShbQ0gzXSlDKD1PKU4yW0NIMl1bQ0gyXU9bQ0gyXVtDSDJdMg==

> <s_epik_cmdline>
J2VwaWtfcHl0aG9uJywgJy1waCcsICc3LjAnLCAnLXRuJywgJzgnLCAnLW1hJywgJzIwMCcsICctbWV0YWxfYmluZGluZycsICctaW1hZScsICc8aW5maWxlLm1hZT4nLCAnLW9tYWUnLCAnPG91dGZpbGUubWFlPic=

> <r_lp_tautomer_probability>
1

> <r_epik_Ionization_Penalty>
0.739958

> <r_epik_Ionization_Penalty_Charging>
0

> <r_epik_Ionization_Penalty_Neutral>
0.739958

> <r_epik_State_Penalty>
0.765967

> <r_epik_Charging_Adjusted_Penalty>
0.765967

> <i_epik_Tot_Q>
0

> <i_epik_Tot_abs_Q>
0

> <r_epik_Metal_State_Penalty>
0.765947

> <b_epik_Metal_Only>
0

> <s_lp_Force_Field>
OPLS_2005

> <r_lp_Energy>
28.3858

> <b_lp_Chiralities_Consistent>
1

> <s_lp_Variant>
AV-unprocessed.smi:3336-8

> <Gold.Version>
5.8.1

> <Gold.Id.Protein>
6NUR|6NUR_protein|mol2

> <Gold.PLP.Fitness>
40.1130

> <Gold.PLP.PLP>
-28.5596

> <Gold.PLP.part.hbond>
-2.0010

> <Gold.PLP.part.metal>
0.0000

> <Gold.PLP.part.buried>
-2.8611

> <Gold.PLP.part.nonpolar>
-22.9560

> <Gold.PLP.part.repulsive>
0.3081

> <Gold.PLP.ligand.clash>
0.0000

> <Gold.PLP.ligand.torsion>
0.2496

> <Gold.PLP.Chemscore.Hbond>
2.0000

> <Gold.PLP.Chemscore.CHOScore>
2.0000

> <Gold.PLP.Chemscore.Metal>
0.0000

> <Gold.Chemscore.Hbonds>
donor molecule, donor type, donor heavy atom, donor atom, acceptor molecule, acceptor atom, score
      L1  H     9    29       P1  7948  1.00
      P1  H  7989  7998       L1    17  0.91
      L1  C     5    26       P1 10747  1.00
      L1  C     7    28       P1 10186  0.78

> <Gold.PLP.Chemscore.Internal.Correction>
0.0525

> <Gold.Rescore>
     Score         DG    S(hbond)    S(metal)    S(lipo)     H(rot)  DE(clash)    DE(int)     intcor
     13.98     -14.30       1.80        0.00      63.07       1.79       0.01       0.31       ----

> <Gold.Chemscore.Fitness>
13.9763

> <Gold.Chemscore.DG>
-14.2954

> <Gold.Chemscore.ZeroCoef>
-5.4800

> <Gold.Chemscore.Hbond>
1.8046

> <Gold.Chemscore.Metal>
0.0000

> <Gold.Chemscore.Lipo>
63.0715

> <Gold.Chemscore.Internal_Hbond>
0.0000

> <Gold.Chemscore.DEClash>
0.0073

> <Gold.Chemscore.DEInternal>
0.3117

> <Gold.Chemscore.Rot>
1.7935

> <Gold.Chemscore.Internal.Correction>
   9.000000E+99

> <Gold.Chemscore.Hbonds>
donor molecule, donor type, donor heavy atom, donor atom, acceptor molecule, acceptor atom, score
      L1  H     9    29       P1  7948  0.25
      P1  H  7989  7998       L1    17  0.44

> <Gold.Chemscore.Hbond.Weighted>
-6.0272

> <Gold.Chemscore.Metal.Weighted>
-0.0000

> <Gold.Chemscore.Lipo.Weighted>
-7.3794

> <Gold.Chemscore.Internal_Hbond.Weighted>
0.0000

> <Gold.Chemscore.DEClash.Weighted>
0.0073

> <Gold.Chemscore.DEInternal.Weighted>
0.3117

> <Gold.Chemscore.Rot.Weighted>
4.5912

> <Gold.Chemscore.Internal.Correction.Weighted>
   9.000000E+99

> <Gold.Protein.RotatedTorsions>
[ 6907 6896 6895 6894 ] final   68.12 input  -60.11 | X-H torsion
[ 7974 7965 7964 7962 ] final  170.16 input  175.53 | X-H torsion
[ 8008 7997 7996 7995 ] final  -64.75 input   59.86 | X-H torsion
[ 10167 10162 10161 10158 ] final   -6.91 input  -65.29 | X-H torsion
[ 10718 10713 10712 10709 ] final  -64.88 input   66.30 | X-H torsion
[ 10763 10752 10751 10750 ] final   12.56 input  -60.55 | X-H torsion
[ 11005 11000 10999 10996 ] final   77.82 input  -57.11 | X-H torsion

> <Gold.Protein.ActiveResidues>
 VAL166  LYS551  ARG553  GLY616  TRP617  ASP618  TYR619  PRO620  LYS621  CYS622 
 ASP623  PHE694  ASN695  SER759  ASP760  ASP761  ALA762  ILE779  LEU786  VAL792 
 PHE793  MET794  SER795  GLU796  ALA797  LYS798  CYS799  TRP800  GLU811  SER814 

> <Gold.Protein.RotatedAtoms>
  152.4599  134.5208  159.9781 H   0  0  0  0  0  0  0  0  0  0  0  0  # atno 6907 bound_to 6896
  151.5259  133.3452  159.2917 H   0  0  0  0  0  0  0  0  0  0  0  0  # atno 6908 bound_to 6896
  150.8557  134.7925  159.7106 H   0  0  0  0  0  0  0  0  0  0  0  0  # atno 6909 bound_to 6896
  144.7332  139.9160  143.6417 H   0  0  0  0  0  0  0  0  0  0  0  0  # atno 7974 bound_to 7965
  154.4630  140.0947  156.6945 H   0  0  0  0  0  0  0  0  0  0  0  0  # atno 8008 bound_to 7997
  155.4939  140.3471  155.4341 H   0  0  0  0  0  0  0  0  0  0  0  0  # atno 8009 bound_to 7997
  156.0905  140.1396  156.9586 H   0  0  0  0  0  0  0  0  0  0  0  0  # atno 8010 bound_to 7997
  140.7012  143.6141  150.8676 H   0  0  0  0  0  0  0  0  0  0  0  0  # atno 10167 bound_to 10162
  156.0702  130.4239  150.1484 H   0  0  0  0  0  0  0  0  0  0  0  0  # atno 10718 bound_to 10713
  153.1810  135.6827  153.8479 H   0  0  0  0  0  0  0  0  0  0  0  0  # atno 10763 bound_to 10752
  153.7811  135.3182  155.3367 H   0  0  0  0  0  0  0  0  0  0  0  0  # atno 10764 bound_to 10752
  154.8059  135.4748  154.0486 H   0  0  0  0  0  0  0  0  0  0  0  0  # atno 10765 bound_to 10752
  139.9238  134.7713  156.1570 H   0  0  0  0  0  0  0  0  0  0  0  0  # atno 11005 bound_to 11000
  146.0965  139.3958  143.0373 LP  0  0  0  0  0  0  0  0  0  0  0  0  # atno 17320 bound_to 7965
  145.7638  140.9924  143.1185 LP  0  0  0  0  0  0  0  0  0  0  0  0  # atno 17321 bound_to 7965
  139.9863  143.5896  152.2926 LP  0  0  0  0  0  0  0  0  0  0  0  0  # atno 17342 bound_to 10162
  139.6535  144.7661  151.2101 LP  0  0  0  0  0  0  0  0  0  0  0  0  # atno 17343 bound_to 10162
  156.9536  130.9782  151.3493 LP  0  0  0  0  0  0  0  0  0  0  0  0  # atno 17370 bound_to 10713
  157.5769  130.8349  149.8468 LP  0  0  0  0  0  0  0  0  0  0  0  0  # atno 17371 bound_to 10713
  141.0781  133.6766  156.2278 LP  0  0  0  0  0  0  0  0  0  0  0  0  # atno 17394 bound_to 11000
  140.6395  134.5181  157.5568 LP  0  0  0  0  0  0  0  0  0  0  0  0  # atno 17395 bound_to 11000

$$$$
