AV-unprocessed.smi:156|AV-procd|sdf|1290|dock8
  -GOLD-   2262018573D 1   1.00000     0.00000
 Structure written by MMmdl.
 51 53  0  0  0  0  0  0  0  0  1 V2000
  146.7086  138.1818  157.9182 C   0  0  0  0  0  0  0  0  0  0  0  0
  146.6444  136.6819  157.5723 C   0  0  1  0  0  0  0  0  0  0  0  0
  146.4980  135.7312  158.7962 C   0  0  1  0  0  0  0  0  0  0  0  0
  146.5366  134.2544  158.3555 C   0  0  0  0  0  0  0  0  0  0  0  0
  147.8185  136.0490  160.0703 S   0  0  0  0  0  0  0  0  0  0  0  0
  147.5407  134.7310  161.3273 C   0  0  0  0  0  0  0  0  0  0  0  0
  149.1324  135.8184  159.4506 O   0  0  0  0  0  0  0  0  0  0  0  0
  147.5402  137.3379  160.7221 O   0  0  0  0  0  0  0  0  0  0  0  0
  145.5935  136.4516  156.5699 N   0  0  0  0  0  0  0  0  0  0  0  0
  144.4201  137.3183  156.5142 C   0  0  0  0  0  0  0  0  0  0  0  0
  145.8984  135.7056  155.4751 C   0  0  0  0  0  0  0  0  0  0  0  0
  146.7974  134.6971  155.6225 N   0  0  0  0  0  0  0  0  0  0  0  0
  147.1287  133.9244  154.5850 C   0  0  0  0  0  0  0  0  0  0  0  0
  146.6903  133.9855  153.3273 N   0  0  0  0  0  0  0  0  0  0  0  0
  145.7913  134.9981  153.1658 C   0  0  0  0  0  0  0  0  0  0  0  0
  145.3356  135.8930  154.1768 C   0  0  0  0  0  0  0  0  0  0  0  0
  144.4188  136.7837  153.6286 N   0  0  0  0  0  0  0  0  0  0  0  0
  144.3347  136.4331  152.3751 C   0  0  0  0  0  0  0  0  0  0  0  0
  145.1414  135.3815  152.0046 N   0  0  0  0  0  0  0  0  0  0  0  0
  145.2563  134.7880  150.6792 C   0  0  0  0  0  0  0  0  0  0  0  0
  144.6777  133.3592  150.5480 C   0  0  0  0  0  0  0  0  0  0  0  0
  143.3758  133.3518  151.3684 C   0  0  0  0  0  0  0  0  0  0  0  0
  142.3460  132.5977  150.7608 O   0  0  0  0  0  0  0  0  0  0  0  0
  144.6140  132.7863  149.1211 C   0  0  0  0  0  0  0  0  0  0  0  0
  145.7925  131.9795  149.3382 O   0  0  0  0  0  0  0  0  0  0  0  0
  145.6532  132.1868  150.7611 C   0  0  0  0  0  0  0  0  0  0  0  0
  147.6198  138.4352  158.4583 H   0  0  0  0  0  0  0  0  0  0  0  0
  145.8564  138.4914  158.5238 H   0  0  0  0  0  0  0  0  0  0  0  0
  146.7102  138.7889  157.0121 H   0  0  0  0  0  0  0  0  0  0  0  0
  147.6142  136.4535  157.1304 H   0  0  0  0  0  0  0  0  0  0  0  0
  145.5499  135.9202  159.2984 H   0  0  0  0  0  0  0  0  0  0  0  0
  145.7867  134.0416  157.5938 H   0  0  0  0  0  0  0  0  0  0  0  0
  146.3273  133.5783  159.1827 H   0  0  0  0  0  0  0  0  0  0  0  0
  147.5102  133.9916  157.9412 H   0  0  0  0  0  0  0  0  0  0  0  0
  148.1739  134.9255  162.1929 H   0  0  0  0  0  0  0  0  0  0  0  0
  147.8032  133.7580  160.9142 H   0  0  0  0  0  0  0  0  0  0  0  0
  146.4964  134.7337  161.6383 H   0  0  0  0  0  0  0  0  0  0  0  0
  143.6075  136.8398  155.9666 H   0  0  0  0  0  0  0  0  0  0  0  0
  144.6622  138.2612  156.0235 H   0  0  0  0  0  0  0  0  0  0  0  0
  144.0479  137.5462  157.5118 H   0  0  0  0  0  0  0  0  0  0  0  0
  147.8496  133.1477  154.7926 H   0  0  0  0  0  0  0  0  0  0  0  0
  143.6792  136.9404  151.6828 H   0  0  0  0  0  0  0  0  0  0  0  0
  144.7700  135.4635  149.9741 H   0  0  0  0  0  0  0  0  0  0  0  0
  146.3129  134.7917  150.4081 H   0  0  0  0  0  0  0  0  0  0  0  0
  143.5483  132.9386  152.3630 H   0  0  0  0  0  0  0  0  0  0  0  0
  143.0037  134.3669  151.5113 H   0  0  0  0  0  0  0  0  0  0  0  0
  141.8552  133.1650  150.1858 H   0  0  0  0  0  0  0  0  0  0  0  0
  143.7386  132.1682  148.9177 H   0  0  0  0  0  0  0  0  0  0  0  0
  144.7436  133.5231  148.3300 H   0  0  0  0  0  0  0  0  0  0  0  0
  146.5924  132.4493  151.2445 H   0  0  0  0  0  0  0  0  0  0  0  0
  145.2130  131.3165  151.2494 H   0  0  0  0  0  0  0  0  0  0  0  0
  1  2  1  0  0  0  0
  1 27  1  0  0  0  0
  1 28  1  0  0  0  0
  1 29  1  0  0  0  0
  2  3  1  0  0  0  0
  2  9  1  0  0  0  0
  2 30  1  0  0  0  0
  3  4  1  0  0  0  0
  3  5  1  0  0  0  0
  3 31  1  0  0  0  0
  4 32  1  0  0  0  0
  4 33  1  0  0  0  0
  4 34  1  0  0  0  0
  5  6  1  0  0  0  0
  5  7  2  0  0  0  0
  5  8  2  0  0  0  0
  6 35  1  0  0  0  0
  6 36  1  0  0  0  0
  6 37  1  0  0  0  0
  9 10  1  0  0  0  0
  9 11  1  0  0  0  0
 10 38  1  0  0  0  0
 10 39  1  0  0  0  0
 10 40  1  0  0  0  0
 11 16  1  0  0  0  0
 11 12  2  0  0  0  0
 12 13  1  0  0  0  0
 13 14  2  0  0  0  0
 13 41  1  0  0  0  0
 14 15  1  0  0  0  0
 15 19  1  0  0  0  0
 15 16  2  0  0  0  0
 16 17  1  0  0  0  0
 17 18  2  0  0  0  0
 18 19  1  0  0  0  0
 18 42  1  0  0  0  0
 19 20  1  0  0  0  0
 20 21  1  0  0  0  0
 20 43  1  0  0  0  0
 20 44  1  0  0  0  0
 21 26  1  0  0  0  0
 21 22  1  0  0  0  0
 21 24  1  0  0  0  0
 22 23  1  0  0  0  0
 22 45  1  0  0  0  0
 22 46  1  0  0  0  0
 23 47  1  0  0  0  0
 24 25  1  0  0  0  0
 24 48  1  0  0  0  0
 24 49  1  0  0  0  0
 25 26  1  0  0  0  0
 26 50  1  0  0  0  0
 26 51  1  0  0  0  0
M  END
> <s_m_source_file>
AV-unprocessed.smi

> <i_m_source_file_index>
156

> <i_lp_mmshare_version>
43012

> <i_f3d_flags>
0

> <s_epik_input>
W0NIM11TKD1PKSg9TylbQ0BASF0oW0NIM10pW0NAQEhdKFtDSDNdKU4oW0NIM10pYyhuW2NIXW4xKWMoYzEyKW5bY0hdbjJbQ0gyXUMzKFtDSDJdW09IXSlbQ0gyXU9bQ0gyXTM=

> <s_epik_cmdline>
J2VwaWtfcHl0aG9uJywgJy1waCcsICc3LjAnLCAnLXRuJywgJzgnLCAnLW1hJywgJzIwMCcsICctbWV0YWxfYmluZGluZycsICctaW1hZScsICc8aW5maWxlLm1hZT4nLCAnLW9tYWUnLCAnPG91dGZpbGUubWFlPic=

> <r_lp_tautomer_probability>
1

> <r_epik_Ionization_Penalty>
0.00107697

> <r_epik_Ionization_Penalty_Charging>
0

> <r_epik_Ionization_Penalty_Neutral>
0.00107697

> <r_epik_State_Penalty>
0.000614712

> <r_epik_Charging_Adjusted_Penalty>
0.000614712

> <i_epik_Tot_Q>
0

> <i_epik_Tot_abs_Q>
0

> <r_epik_Metal_State_Penalty>
-0

> <b_epik_Metal_Only>
0

> <s_lp_Force_Field>
OPLS_2005

> <r_lp_Energy>
27.5373

> <b_lp_Chiralities_Consistent>
1

> <s_lp_Variant>
AV-unprocessed.smi:156-4

> <Gold.Version>
5.8.1

> <Gold.Id.Protein>
6NUR|6NUR_protein|mol2

> <Gold.PLP.Fitness>
38.9854

> <Gold.PLP.PLP>
-27.8985

> <Gold.PLP.part.hbond>
-4.8444

> <Gold.PLP.part.metal>
0.0000

> <Gold.PLP.part.buried>
-2.8493

> <Gold.PLP.part.nonpolar>
-19.4791

> <Gold.PLP.part.repulsive>
0.3827

> <Gold.PLP.ligand.clash>
0.0000

> <Gold.PLP.ligand.torsion>
2.1676

> <Gold.PLP.Chemscore.Hbond>
3.7392

> <Gold.PLP.Chemscore.CHOScore>
0.9995

> <Gold.PLP.Chemscore.Metal>
0.0000

> <Gold.Chemscore.Hbonds>
donor molecule, donor type, donor heavy atom, donor atom, acceptor molecule, acceptor atom, score
      L1  H    23    47       P1 10186  1.00
      P1  H  6896  6907       L1     7  1.00
      P1  H  6931  6943       L1     8  0.60
      P1  H  6934  6947       L1     8  0.99
      L1  C    18    42       P1 10171  1.00

> <Gold.PLP.Chemscore.Internal.Correction>
1.2059

> <Gold.Rescore>
     Score         DG    S(hbond)    S(metal)    S(lipo)     H(rot)  DE(clash)    DE(int)     intcor
     11.39     -15.62       3.67        0.00      52.26       3.21       0.04       4.19       ----

> <Gold.Chemscore.Fitness>
11.3881

> <Gold.Chemscore.DG>
-15.6213

> <Gold.Chemscore.ZeroCoef>
-5.4800

> <Gold.Chemscore.Hbond>
3.6671

> <Gold.Chemscore.Metal>
0.0000

> <Gold.Chemscore.Lipo>
52.2622

> <Gold.Chemscore.Internal_Hbond>
0.0000

> <Gold.Chemscore.DEClash>
0.0391

> <Gold.Chemscore.DEInternal>
4.1941

> <Gold.Chemscore.Rot>
3.2115

> <Gold.Chemscore.Internal.Correction>
   9.000000E+99

> <Gold.Chemscore.Hbonds>
donor molecule, donor type, donor heavy atom, donor atom, acceptor molecule, acceptor atom, score
      L1  H    23    47       P1 10186  0.99
      P1  H  6896  6907       L1     7  0.92
      P1  H  6931  6943       L1     8  0.58
      P1  H  6934  6947       L1     8  0.94

> <Gold.Chemscore.Hbond.Weighted>
-12.2481

> <Gold.Chemscore.Metal.Weighted>
-0.0000

> <Gold.Chemscore.Lipo.Weighted>
-6.1147

> <Gold.Chemscore.Internal_Hbond.Weighted>
0.0000

> <Gold.Chemscore.DEClash.Weighted>
0.0391

> <Gold.Chemscore.DEInternal.Weighted>
4.1941

> <Gold.Chemscore.Rot.Weighted>
8.2215

> <Gold.Chemscore.Internal.Correction.Weighted>
   9.000000E+99

> <Gold.Protein.RotatedTorsions>
[ 6907 6896 6895 6894 ] final  -75.63 input  -60.11 | X-H torsion
[ 7974 7965 7964 7962 ] final  -28.45 input  175.53 | X-H torsion
[ 8008 7997 7996 7995 ] final   -3.75 input   59.86 | X-H torsion
[ 10167 10162 10161 10158 ] final  -64.16 input  -65.29 | X-H torsion
[ 10718 10713 10712 10709 ] final -177.45 input   66.30 | X-H torsion
[ 10763 10752 10751 10750 ] final   -4.89 input  -60.55 | X-H torsion
[ 11005 11000 10999 10996 ] final  -95.36 input  -57.11 | X-H torsion

> <Gold.Protein.ActiveResidues>
 VAL166  LYS551  ARG553  GLY616  TRP617  ASP618  TYR619  PRO620  LYS621  CYS622 
 ASP623  PHE694  ASN695  SER759  ASP760  ASP761  ALA762  ILE779  LEU786  VAL792 
 PHE793  MET794  SER795  GLU796  ALA797  LYS798  CYS799  TRP800  GLU811  SER814 

> <Gold.Protein.RotatedAtoms>
  150.7053  134.4693  159.5417 H   0  0  0  0  0  0  0  0  0  0  0  0  # atno 6907 bound_to 6896
  152.2352  134.8280  160.0477 H   0  0  0  0  0  0  0  0  0  0  0  0  # atno 6908 bound_to 6896
  151.9081  133.3519  159.3891 H   0  0  0  0  0  0  0  0  0  0  0  0  # atno 6909 bound_to 6896
  146.1287  140.5284  142.8703 H   0  0  0  0  0  0  0  0  0  0  0  0  # atno 7974 bound_to 7965
  154.6216  140.2501  155.7543 H   0  0  0  0  0  0  0  0  0  0  0  0  # atno 8008 bound_to 7997
  156.2430  140.2925  156.0445 H   0  0  0  0  0  0  0  0  0  0  0  0  # atno 8009 bound_to 7997
  155.1888  140.0391  157.2887 H   0  0  0  0  0  0  0  0  0  0  0  0  # atno 8010 bound_to 7997
  140.5820  143.2328  151.6322 H   0  0  0  0  0  0  0  0  0  0  0  0  # atno 10167 bound_to 10162
  156.8297  130.9649  151.3107 H   0  0  0  0  0  0  0  0  0  0  0  0  # atno 10718 bound_to 10713
  153.3910  135.7002  153.6495 H   0  0  0  0  0  0  0  0  0  0  0  0  # atno 10763 bound_to 10752
  153.5067  135.3640  155.2567 H   0  0  0  0  0  0  0  0  0  0  0  0  # atno 10764 bound_to 10752
  154.8702  135.4125  154.3227 H   0  0  0  0  0  0  0  0  0  0  0  0  # atno 10765 bound_to 10752
  141.1444  133.8021  157.0425 H   0  0  0  0  0  0  0  0  0  0  0  0  # atno 11005 bound_to 11000
  144.7669  140.5550  143.6697 LP  0  0  0  0  0  0  0  0  0  0  0  0  # atno 17320 bound_to 7965
  145.5308  139.1475  143.3501 LP  0  0  0  0  0  0  0  0  0  0  0  0  # atno 17321 bound_to 7965
  139.5175  144.3312  152.0824 LP  0  0  0  0  0  0  0  0  0  0  0  0  # atno 17342 bound_to 10162
  140.2464  144.4216  150.6239 LP  0  0  0  0  0  0  0  0  0  0  0  0  # atno 17343 bound_to 10162
  157.6413  130.8808  149.9454 LP  0  0  0  0  0  0  0  0  0  0  0  0  # atno 17370 bound_to 10713
  156.0941  130.3661  150.0339 LP  0  0  0  0  0  0  0  0  0  0  0  0  # atno 17371 bound_to 10713
  140.0683  134.9716  157.1424 LP  0  0  0  0  0  0  0  0  0  0  0  0  # atno 17394 bound_to 11000
  140.3747  134.2352  155.7175 LP  0  0  0  0  0  0  0  0  0  0  0  0  # atno 17395 bound_to 11000

$$$$
