#       Name:                AV-unprocessed.smi:1675
#       Creating user name   scv26
#       Creation time:       Fri Mar 27 07:46:16 2020


#       File generated by GOLD software.
#

@<TRIPOS>MOLECULE
AV-unprocessed.smi:1675
    45    47     1
SMALL
NO_CHARGES


@<TRIPOS>ATOM
      1 ****        -6.3918  -1.4661   1.8998 N.am           1 S1                 0.0000
      2 ****        -6.0178  -0.1872   1.8110 C.2            1 S1                 0.0000
      3 ****        -5.9627   0.5477   2.7952 O.2            1 S1                 0.0000
      4 ****        -5.6563   0.3393   0.4187 C.3            1 S1                 0.0000
      5 ****        -4.3549   0.9851   0.4136 N.pl3          1 S1                 0.0000
      6 ****        -3.1080   0.3907   0.3857 C.2            1 S1                 0.0000
      7 ****        -2.2077   1.4181   0.4035 C.2            1 S1                 0.0000
      8 ****        -0.7908   1.3731   0.4052 N.am           1 S1                 0.0000
      9 ****        -0.0051   0.2907   0.2666 C.2            1 S1                 0.0000
     10 ****        -0.4254  -0.8540   0.0999 O.2            1 S1                 0.0000
     11 ****         1.5045   0.5485   0.3354 C.3            1 S1                 0.0000
     12 ****         2.2640   0.0681  -0.9218 C.3            1 S1                 0.0000
     13 ****         2.4075  -1.4633  -1.0796 C.3            1 S1                 0.0000
     14 ****         3.9142  -1.6428  -1.3453 C.3            1 S1                 0.0000
     15 ****         4.6844  -1.4241  -0.0305 C.3            1 S1                 0.0000
     16 ****         4.5742   0.0977   0.1752 C.3            1 S1                 0.0000
     17 ****         3.7301   0.5480  -1.0355 C.3            1 S1                 0.0000
     18 ****         4.2590  -0.3790  -2.1257 C.3            1 S1                 0.0000
     19 ****        -2.9792   2.6083   0.4454 C.2            1 S1                 0.0000
     20 ****        -4.2757   2.3393   0.4443 N.2            1 S1                 0.0000
     21 ****        -6.6404  -1.8521   2.7991 H              1 S1                 0.0000
     22 ****        -6.4274  -2.0425   1.0715 H              1 S1                 0.0000
     23 ****        -5.6416  -0.4732  -0.3095 H              1 S1                 0.0000
     24 ****        -6.4174   1.0497   0.0922 H              1 S1                 0.0000
     25 ****        -2.9848  -0.6820   0.3635 H              1 S1                 0.0000
     26 ****        -0.3222   2.2610   0.5128 H              1 S1                 0.0000
     27 ****         1.6820   1.6158   0.4760 H              1 S1                 0.0000
     28 ****         1.8858   0.0533   1.2285 H              1 S1                 0.0000
     29 ****         1.7336   0.4497  -1.7966 H              1 S1                 0.0000
     30 ****         2.0867  -2.0167  -0.1960 H              1 S1                 0.0000
     31 ****         1.8153  -1.8175  -1.9241 H              1 S1                 0.0000
     32 ****         4.1621  -2.5787  -1.8469 H              1 S1                 0.0000
     33 ****         4.2569  -1.9888   0.7989 H              1 S1                 0.0000
     34 ****         5.7282  -1.7221  -0.1354 H              1 S1                 0.0000
     35 ****         4.1327   0.3629   1.1352 H              1 S1                 0.0000
     36 ****         5.5642   0.5539   0.1386 H              1 S1                 0.0000
     37 ****         3.8234   1.6110  -1.2599 H              1 S1                 0.0000
     38 ****         5.3281  -0.2639  -2.3127 H              1 S1                 0.0000
     39 ****         3.7201  -0.2936  -3.0712 H              1 S1                 0.0000
     40 ****        -2.6494   3.6364   0.4746 H              1 S1                 0.0000
     41 ****        -6.2023   0.1922   3.6987 LP             1 S1                 0.0000
     42 ****        -5.6782   1.5008   2.6922 LP             1 S1                 0.0000
     43 ****        -1.4100  -1.0243   0.0603 LP             1 S1                 0.0000
     44 ****         0.2177  -1.6138   0.0041 LP             1 S1                 0.0000
     45 ****        -5.0325   2.9926   0.4622 LP             1 S1                 0.0000
@<TRIPOS>BOND
    1    1    2 am    
    2    1   21 1     
    3    1   22 1     
    4    2    3 2     
    5    2    4 1     
    6    4    5 1     
    7    4   23 1     
    8    4   24 1     
    9    5   20 1     
   10    5    6 1     
   11    6    7 2     
   12    6   25 1     
   13    7    8 1     
   14    7   19 1     
   15    8    9 am    
   16    8   26 1     
   17    9   10 2     
   18    9   11 1     
   19   11   12 1     
   20   11   27 1     
   21   11   28 1     
   22   12   17 1     
   23   12   13 1     
   24   12   29 1     
   25   13   14 1     
   26   13   30 1     
   27   13   31 1     
   28   14   18 1     
   29   14   15 1     
   30   14   32 1     
   31   15   16 1     
   32   15   33 1     
   33   15   34 1     
   34   16   17 1     
   35   16   35 1     
   36   16   36 1     
   37   17   18 1     
   38   17   37 1     
   39   18   38 1     
   40   18   39 1     
   41   19   20 2     
   42   19   40 1     
   43    3   41 1     
   44    3   42 1     
   45   10   43 1     
   46   10   44 1     
   47   20   45 1     
@<TRIPOS>SUBSTRUCTURE
      1 S1             1
@<TRIPOS>SET
LONE_PAIRS      STATIC     ATOMS    <user>   **** ""
5 41 42 43 44 45
DONOR_HYDROGENS      STATIC     ATOMS    <user>   **** ""
3 21 22 26
ATOM$BLUE        STATIC     ATOMS    COLORGROUP SYSTEM
5 41 42 43 44 45
ATOM$RED        STATIC     ATOMS    COLORGROUP SYSTEM
3 21 22 26
