AV-unprocessed.smi:953|AV-procd|sdf|4257|dock4
  -GOLD-   22720 2163D 1   1.00000     0.00000
 Structure written by MMmdl.
 24 25  0  0  0  0  0  0  0  0  2 V2000
  148.0500  138.4486  152.6727 N   0  3  0  0  0  0  0  0  0  0  0  0
  148.0039  138.9155  154.0685 C   0  0  0  0  0  0  0  0  0  0  0  0
  149.2371  139.7598  154.4169 C   0  0  0  0  0  0  0  0  0  0  0  0
  150.4391  138.9186  154.7153 C   0  0  0  0  0  0  0  0  0  0  0  0
  150.5863  137.6666  154.2670 N   0  0  0  0  0  0  0  0  0  0  0  0
  151.7803  137.2204  154.7959 N   0  0  0  0  0  0  0  0  0  0  0  0
  152.2319  138.2460  155.5165 C   0  0  0  0  0  0  0  0  0  0  0  0
  151.4547  139.3412  155.4972 N   0  0  0  0  0  0  0  0  0  0  0  0
  151.6288  140.5982  156.2062 C   0  0  0  0  0  0  0  0  0  0  0  0
  151.7768  140.4503  157.7031 C   0  0  0  0  0  0  0  0  0  0  0  0
  150.4881  140.9868  157.1210 C   0  0  0  0  0  0  0  0  0  0  0  0
  147.1228  138.4884  152.2737 H   0  0  0  0  0  0  0  0  0  0  0  0
  148.3846  137.4957  152.6469 H   0  0  0  0  0  0  0  0  0  0  0  0
  147.0928  139.4968  154.2144 H   0  0  0  0  0  0  0  0  0  0  0  0
  147.9408  138.0467  154.7246 H   0  0  0  0  0  0  0  0  0  0  0  0
  149.4809  140.4210  153.5841 H   0  0  0  0  0  0  0  0  0  0  0  0
  149.0227  140.4082  155.2661 H   0  0  0  0  0  0  0  0  0  0  0  0
  153.1537  138.1934  156.0772 H   0  0  0  0  0  0  0  0  0  0  0  0
  152.1941  141.3460  155.6534 H   0  0  0  0  0  0  0  0  0  0  0  0
  151.7547  139.4477  158.1267 H   0  0  0  0  0  0  0  0  0  0  0  0
  152.4275  141.1566  158.2144 H   0  0  0  0  0  0  0  0  0  0  0  0
  150.2881  142.0489  157.2478 H   0  0  0  0  0  0  0  0  0  0  0  0
  149.6134  140.3414  157.1754 H   0  0  0  0  0  0  0  0  0  0  0  0
  148.6715  139.0381  152.1379 H   0  0  0  0  0  0  0  0  0  0  0  0
  1  2  1  0  0  0  0
  1 12  1  0  0  0  0
  1 13  1  0  0  0  0
  1 24  1  0  0  0  0
  2  3  1  0  0  0  0
  2 14  1  0  0  0  0
  2 15  1  0  0  0  0
  3  4  1  0  0  0  0
  3 16  1  0  0  0  0
  3 17  1  0  0  0  0
  4  8  1  0  0  0  0
  4  5  2  0  0  0  0
  5  6  1  0  0  0  0
  6  7  2  0  0  0  0
  7  8  1  0  0  0  0
  7 18  1  0  0  0  0
  8  9  1  0  0  0  0
  9 11  1  0  0  0  0
  9 10  1  0  0  0  0
  9 19  1  0  0  0  0
 10 11  1  0  0  0  0
 10 20  1  0  0  0  0
 10 21  1  0  0  0  0
 11 22  1  0  0  0  0
 11 23  1  0  0  0  0
M  CHG  1   1   1
M  END
> <s_m_source_file>
AV-unprocessed.smi

> <i_m_source_file_index>
953

> <i_lp_mmshare_version>
43012

> <i_f3d_flags>
0

> <s_epik_input>
W05IMl1bQ0gyXVtDSDJdYzFubltjSF1uMVtDSF0yW0NIMl1bQ0gyXTI=

> <s_epik_cmdline>
J2VwaWtfcHl0aG9uJywgJy1waCcsICc3LjAnLCAnLXRuJywgJzgnLCAnLW1hJywgJzIwMCcsICctbWV0YWxfYmluZGluZycsICctaW1hZScsICc8aW5maWxlLm1hZT4nLCAnLW9tYWUnLCAnPG91dGZpbGUubWFlPic=

> <r_lp_tautomer_probability>
1

> <r_epik_Ionization_Penalty>
0.00465942

> <r_epik_Ionization_Penalty_Charging>
0.00465044

> <r_epik_Ionization_Penalty_Neutral>
8.98889e-06

> <r_epik_State_Penalty>
-0

> <r_epik_Charging_Adjusted_Penalty>
0.00465044

> <i_epik_Tot_Q>
1

> <i_epik_Tot_abs_Q>
1

> <r_epik_Metal_State_Penalty>
-0

> <b_epik_Metal_Only>
0

> <s_lp_Force_Field>
OPLS_2005

> <r_lp_Energy>
17.0631

> <b_lp_Chiralities_Consistent>
1

> <s_lp_Variant>
AV-unprocessed.smi:953-1

> <Gold.Version>
5.8.1

> <Gold.Id.Protein>
6NUR|6NUR_protein|mol2

> <Gold.PLP.Fitness>
33.2700

> <Gold.PLP.PLP>
-22.4652

> <Gold.PLP.part.hbond>
-3.0000

> <Gold.PLP.part.metal>
0.0000

> <Gold.PLP.part.buried>
-4.4048

> <Gold.PLP.part.nonpolar>
-16.3874

> <Gold.PLP.part.repulsive>
0.4543

> <Gold.PLP.ligand.clash>
0.0000

> <Gold.PLP.ligand.torsion>
0.4686

> <Gold.PLP.Chemscore.Hbond>
3.8897

> <Gold.PLP.Chemscore.CHOScore>
0.0000

> <Gold.PLP.Chemscore.Metal>
0.0000

> <Gold.Chemscore.Hbonds>
donor molecule, donor type, donor heavy atom, donor atom, acceptor molecule, acceptor atom, score
      L1  H     1    13       P1  7948  2.00
      L1  H     1    24       P1  7957  1.00
      P1  H 10752 10765       L1     6  1.00

> <Gold.PLP.Chemscore.Internal.Correction>
0.0727

> <Gold.Rescore>
     Score         DG    S(hbond)    S(metal)    S(lipo)     H(rot)  DE(clash)    DE(int)     intcor
     13.44     -13.96       2.90        0.00      28.81       1.79       0.00       0.51       ----

> <Gold.Chemscore.Fitness>
13.4437

> <Gold.Chemscore.DG>
-13.9576

> <Gold.Chemscore.ZeroCoef>
-5.4800

> <Gold.Chemscore.Hbond>
2.9028

> <Gold.Chemscore.Metal>
0.0000

> <Gold.Chemscore.Lipo>
28.8149

> <Gold.Chemscore.Internal_Hbond>
0.0000

> <Gold.Chemscore.DEClash>
0.0015

> <Gold.Chemscore.DEInternal>
0.5124

> <Gold.Chemscore.Rot>
1.7926

> <Gold.Chemscore.Internal.Correction>
   9.000000E+99

> <Gold.Chemscore.Hbonds>
donor molecule, donor type, donor heavy atom, donor atom, acceptor molecule, acceptor atom, score
      L1  H     1    13       P1  7948  0.92
      L1  H     1    24       P1  7957  0.98
      P1  H 10752 10765       L1     6  0.91

> <Gold.Chemscore.Hbond.Weighted>
-9.6954

> <Gold.Chemscore.Metal.Weighted>
-0.0000

> <Gold.Chemscore.Lipo.Weighted>
-3.3713

> <Gold.Chemscore.Internal_Hbond.Weighted>
0.0000

> <Gold.Chemscore.DEClash.Weighted>
0.0015

> <Gold.Chemscore.DEInternal.Weighted>
0.5124

> <Gold.Chemscore.Rot.Weighted>
4.5892

> <Gold.Chemscore.Internal.Correction.Weighted>
   9.000000E+99

> <Gold.Protein.RotatedTorsions>
[ 6907 6896 6895 6894 ] final -115.70 input  -60.11 | X-H torsion
[ 7974 7965 7964 7962 ] final  149.55 input  175.53 | X-H torsion
[ 8008 7997 7996 7995 ] final -149.23 input   59.86 | X-H torsion
[ 10167 10162 10161 10158 ] final  144.50 input  -65.29 | X-H torsion
[ 10718 10713 10712 10709 ] final   83.84 input   66.30 | X-H torsion
[ 10763 10752 10751 10750 ] final  165.67 input  -60.55 | X-H torsion
[ 11005 11000 10999 10996 ] final   97.64 input  -57.11 | X-H torsion

> <Gold.Protein.ActiveResidues>
 VAL166  LYS551  ARG553  GLY616  TRP617  ASP618  TYR619  PRO620  LYS621  CYS622 
 ASP623  PHE694  ASN695  SER759  ASP760  ASP761  ALA762  ILE779  LEU786  VAL792 
 PHE793  MET794  SER795  GLU796  ALA797  LYS798  CYS799  TRP800  GLU811  SER814 

> <Gold.Protein.RotatedAtoms>
  150.7998  133.8621  159.3234 H   0  0  0  0  0  0  0  0  0  0  0  0  # atno 6907 bound_to 6896
  151.6436  135.1008  160.0156 H   0  0  0  0  0  0  0  0  0  0  0  0  # atno 6908 bound_to 6896
  152.4084  133.6885  159.6411 H   0  0  0  0  0  0  0  0  0  0  0  0  # atno 6909 bound_to 6896
  144.8429  139.6295  143.6008 H   0  0  0  0  0  0  0  0  0  0  0  0  # atno 7974 bound_to 7965
  155.6043  140.0665  157.2724 H   0  0  0  0  0  0  0  0  0  0  0  0  # atno 8008 bound_to 7997
  154.4270  140.1813  156.1253 H   0  0  0  0  0  0  0  0  0  0  0  0  # atno 8009 bound_to 7997
  156.0135  140.3324  155.6968 H   0  0  0  0  0  0  0  0  0  0  0  0  # atno 8010 bound_to 7997
  139.4946  144.5968  151.6567 H   0  0  0  0  0  0  0  0  0  0  0  0  # atno 10167 bound_to 10162
  157.6887  131.0108  150.2584 H   0  0  0  0  0  0  0  0  0  0  0  0  # atno 10718 bound_to 10713
  154.3275  135.2755  155.2489 H   0  0  0  0  0  0  0  0  0  0  0  0  # atno 10763 bound_to 10752
  154.4815  135.5857  153.6396 H   0  0  0  0  0  0  0  0  0  0  0  0  # atno 10764 bound_to 10752
  152.9870  135.6112  154.3465 H   0  0  0  0  0  0  0  0  0  0  0  0  # atno 10765 bound_to 10752
  139.8775  134.9010  156.4337 H   0  0  0  0  0  0  0  0  0  0  0  0  # atno 11005 bound_to 11000
  146.2719  139.6656  142.9290 LP  0  0  0  0  0  0  0  0  0  0  0  0  # atno 17320 bound_to 7965
  145.4656  141.0434  143.2727 LP  0  0  0  0  0  0  0  0  0  0  0  0  # atno 17321 bound_to 7965
  140.5607  144.0273  150.6168 LP  0  0  0  0  0  0  0  0  0  0  0  0  # atno 17342 bound_to 10162
  140.3358  143.3050  152.0640 LP  0  0  0  0  0  0  0  0  0  0  0  0  # atno 17343 bound_to 10162
  156.3168  130.3780  149.7611 LP  0  0  0  0  0  0  0  0  0  0  0  0  # atno 17370 bound_to 10713
  156.5194  130.8208  151.3198 LP  0  0  0  0  0  0  0  0  0  0  0  0  # atno 17371 bound_to 10713
  140.9048  133.7753  155.9723 LP  0  0  0  0  0  0  0  0  0  0  0  0  # atno 17394 bound_to 11000
  140.8611  134.2840  157.5234 LP  0  0  0  0  0  0  0  0  0  0  0  0  # atno 17395 bound_to 11000

$$$$
