AV-unprocessed.smi:1920|AV-procd|sdf|7784|dock1
  -GOLD-   22720 9523D 1   1.00000     0.00000
 Structure written by MMmdl.
 36 37  0  0  0  0  0  0  0  0  1 V2000
  147.6742  140.4532  156.2730 C   0  0  0  0  0  0  0  0  0  0  0  0
  149.2055  140.4902  156.1786 C   0  0  1  0  0  0  0  0  0  0  0  0
  149.6917  140.1271  154.7607 C   0  0  0  0  0  0  0  0  0  0  0  0
  150.8470  139.2477  154.7717 N   0  0  0  0  0  0  0  0  0  0  0  0
  152.0652  139.4696  155.4004 C   0  0  0  0  0  0  0  0  0  0  0  0
  152.8485  138.3682  155.1397 C   0  0  0  0  0  0  0  0  0  0  0  0
  152.1345  137.4575  154.3643 N   0  0  0  0  0  0  0  0  0  0  0  0
  150.9589  138.0465  154.1879 C   0  0  0  0  0  0  0  0  0  0  0  0
  149.6754  141.8227  156.5556 N   0  0  0  0  0  0  0  0  0  0  0  0
  150.6216  142.0938  157.4687 C   0  0  0  0  0  0  0  0  0  0  0  0
  151.1911  141.2286  158.1344 O   0  0  0  0  0  0  0  0  0  0  0  0
  150.9828  143.5730  157.6487 C   0  0  0  0  0  0  0  0  0  0  0  0
  152.1039  143.8276  158.6815 C   0  0  1  0  0  0  0  0  0  0  0  0
  152.2406  145.2769  159.0822 C   0  0  0  0  0  0  0  0  0  0  0  0
  152.1456  145.4608  160.3965 C   0  0  0  0  0  0  0  0  0  0  0  0
  151.9266  144.1748  161.1434 C   0  0  0  0  0  0  0  0  0  0  0  0
  151.8603  143.1037  160.0312 C   0  0  0  0  0  0  0  0  0  0  0  0
  147.2903  139.4643  156.0209 H   0  0  0  0  0  0  0  0  0  0  0  0
  147.2153  141.1715  155.5925 H   0  0  0  0  0  0  0  0  0  0  0  0
  147.3371  140.6882  157.2833 H   0  0  0  0  0  0  0  0  0  0  0  0
  149.5878  139.7435  156.8769 H   0  0  0  0  0  0  0  0  0  0  0  0
  148.8965  139.6245  154.2088 H   0  0  0  0  0  0  0  0  0  0  0  0
  149.9398  141.0289  154.1986 H   0  0  0  0  0  0  0  0  0  0  0  0
  152.2700  140.3699  155.9610 H   0  0  0  0  0  0  0  0  0  0  0  0
  153.8623  138.1619  155.4495 H   0  0  0  0  0  0  0  0  0  0  0  0
  150.1616  137.5941  153.6162 H   0  0  0  0  0  0  0  0  0  0  0  0
  149.2639  142.6023  156.0631 H   0  0  0  0  0  0  0  0  0  0  0  0
  151.2780  143.9889  156.6839 H   0  0  0  0  0  0  0  0  0  0  0  0
  150.0802  144.1054  157.9501 H   0  0  0  0  0  0  0  0  0  0  0  0
  153.0625  143.5078  158.2701 H   0  0  0  0  0  0  0  0  0  0  0  0
  152.4148  146.0604  158.3601 H   0  0  0  0  0  0  0  0  0  0  0  0
  152.2240  146.4138  160.8989 H   0  0  0  0  0  0  0  0  0  0  0  0
  152.7544  143.9944  161.8300 H   0  0  0  0  0  0  0  0  0  0  0  0
  151.0005  144.2213  161.7170 H   0  0  0  0  0  0  0  0  0  0  0  0
  150.8878  142.6103  160.0471 H   0  0  0  0  0  0  0  0  0  0  0  0
  152.6099  142.3285  160.1946 H   0  0  0  0  0  0  0  0  0  0  0  0
  1  2  1  0  0  0  0
  1 18  1  0  0  0  0
  1 19  1  0  0  0  0
  1 20  1  0  0  0  0
  2  3  1  0  0  0  0
  2  9  1  0  0  0  0
  2 21  1  0  0  0  0
  3  4  1  0  0  0  0
  3 22  1  0  0  0  0
  3 23  1  0  0  0  0
  4  8  1  0  0  0  0
  4  5  1  0  0  0  0
  5  6  2  0  0  0  0
  5 24  1  0  0  0  0
  6  7  1  0  0  0  0
  6 25  1  0  0  0  0
  7  8  2  0  0  0  0
  8 26  1  0  0  0  0
  9 10  1  0  0  0  0
  9 27  1  0  0  0  0
 10 11  2  0  0  0  0
 10 12  1  0  0  0  0
 12 13  1  0  0  0  0
 12 28  1  0  0  0  0
 12 29  1  0  0  0  0
 13 17  1  0  0  0  0
 13 14  1  0  0  0  0
 13 30  1  0  0  0  0
 14 15  2  0  0  0  0
 14 31  1  0  0  0  0
 15 16  1  0  0  0  0
 15 32  1  0  0  0  0
 16 17  1  0  0  0  0
 16 33  1  0  0  0  0
 16 34  1  0  0  0  0
 17 35  1  0  0  0  0
 17 36  1  0  0  0  0
M  END
> <s_m_source_file>
AV-unprocessed.smi

> <i_m_source_file_index>
1920

> <i_lp_mmshare_version>
43012

> <i_f3d_flags>
0

> <s_epik_input>
W2NIXTFuW2NIXVtjSF1uMVtDSDJdW0NAQEhdKFtDSDNdKVtOSF1DKD1PKVtDSDJdW0NAQEhdMltDSF09W0NIXVtDSDJdW0NIMl0y

> <s_epik_cmdline>
J2VwaWtfcHl0aG9uJywgJy1waCcsICc3LjAnLCAnLXRuJywgJzgnLCAnLW1hJywgJzIwMCcsICctbWV0YWxfYmluZGluZycsICctaW1hZScsICc8aW5maWxlLm1hZT4nLCAnLW9tYWUnLCAnPG91dGZpbGUubWFlPic=

> <r_lp_tautomer_probability>
1

> <r_epik_Ionization_Penalty>
0.635367

> <r_epik_Ionization_Penalty_Charging>
0.635367

> <r_epik_Ionization_Penalty_Neutral>
2.1249e-08

> <r_epik_State_Penalty>
0.65258

> <r_epik_Charging_Adjusted_Penalty>
1.28795

> <i_epik_Tot_Q>
0

> <i_epik_Tot_abs_Q>
0

> <r_epik_Metal_State_Penalty>
0.310403

> <b_epik_Metal_Only>
0

> <s_lp_Force_Field>
OPLS_2005

> <r_lp_Energy>
18.2419

> <b_lp_Chiralities_Consistent>
1

> <s_lp_Variant>
AV-unprocessed.smi:1920-8

> <Gold.Version>
5.8.1

> <Gold.Id.Protein>
6NUR|6NUR_protein|mol2

> <Gold.PLP.Fitness>
47.0540

> <Gold.PLP.PLP>
-40.9468

> <Gold.PLP.part.hbond>
-1.6875

> <Gold.PLP.part.metal>
0.0000

> <Gold.PLP.part.buried>
-2.6597

> <Gold.PLP.part.nonpolar>
-36.8069

> <Gold.PLP.part.repulsive>
0.1934

> <Gold.PLP.ligand.clash>
0.0048

> <Gold.PLP.ligand.torsion>
0.7568

> <Gold.PLP.Chemscore.Hbond>
1.4338

> <Gold.PLP.Chemscore.CHOScore>
1.0621

> <Gold.PLP.Chemscore.Metal>
0.0000

> <Gold.Chemscore.Hbonds>
donor molecule, donor type, donor heavy atom, donor atom, acceptor molecule, acceptor atom, score
      L1  H     9    27       P1  8028  0.60
      P1  H 10752 10764       L1     7  0.83
      L1  C     8    26       P1  7948  1.00
      L1  C     8    26       P1  7949  0.04

> <Gold.PLP.Chemscore.Internal.Correction>
0.1380

> <Gold.Rescore>
     Score         DG    S(hbond)    S(metal)    S(lipo)     H(rot)  DE(clash)    DE(int)     intcor
     15.18     -17.78       1.62        0.00     101.24       1.93       0.39       2.21       ----

> <Gold.Chemscore.Fitness>
15.1763

> <Gold.Chemscore.DG>
-17.7781

> <Gold.Chemscore.ZeroCoef>
-5.4800

> <Gold.Chemscore.Hbond>
1.6155

> <Gold.Chemscore.Metal>
0.0000

> <Gold.Chemscore.Lipo>
101.2359

> <Gold.Chemscore.Internal_Hbond>
0.0000

> <Gold.Chemscore.DEClash>
0.3940

> <Gold.Chemscore.DEInternal>
2.2078

> <Gold.Chemscore.Rot>
1.9306

> <Gold.Chemscore.Internal.Correction>
   9.000000E+99

> <Gold.Chemscore.Hbonds>
donor molecule, donor type, donor heavy atom, donor atom, acceptor molecule, acceptor atom, score
      L1  H     9    27       P1  8028  0.59
      P1  H 10752 10764       L1     7  0.71

> <Gold.Chemscore.Hbond.Weighted>
-5.3959

> <Gold.Chemscore.Metal.Weighted>
-0.0000

> <Gold.Chemscore.Lipo.Weighted>
-11.8446

> <Gold.Chemscore.Internal_Hbond.Weighted>
0.0000

> <Gold.Chemscore.DEClash.Weighted>
0.3940

> <Gold.Chemscore.DEInternal.Weighted>
2.2078

> <Gold.Chemscore.Rot.Weighted>
4.9424

> <Gold.Chemscore.Internal.Correction.Weighted>
   9.000000E+99

> <Gold.Protein.RotatedTorsions>
[ 6907 6896 6895 6894 ] final -135.33 input  -60.11 | X-H torsion
[ 7974 7965 7964 7962 ] final -113.75 input  175.53 | X-H torsion
[ 8008 7997 7996 7995 ] final   85.21 input   59.86 | X-H torsion
[ 10167 10162 10161 10158 ] final  -73.68 input  -65.29 | X-H torsion
[ 10718 10713 10712 10709 ] final  130.89 input   66.30 | X-H torsion
[ 10763 10752 10751 10750 ] final  -78.25 input  -60.55 | X-H torsion
[ 11005 11000 10999 10996 ] final  177.85 input  -57.11 | X-H torsion

> <Gold.Protein.ActiveResidues>
 VAL166  LYS551  ARG553  GLY616  TRP617  ASP618  TYR619  PRO620  LYS621  CYS622 
 ASP623  PHE694  ASN695  SER759  ASP760  ASP761  ALA762  ILE779  LEU786  VAL792 
 PHE793  MET794  SER795  GLU796  ALA797  LYS798  CYS799  TRP800  GLU811  SER814 

> <Gold.Protein.RotatedAtoms>
  150.9966  133.6097  159.2700 H   0  0  0  0  0  0  0  0  0  0  0  0  # atno 6907 bound_to 6896
  151.3298  135.0838  159.9344 H   0  0  0  0  0  0  0  0  0  0  0  0  # atno 6908 bound_to 6896
  152.5262  133.9598  159.7766 H   0  0  0  0  0  0  0  0  0  0  0  0  # atno 6909 bound_to 6896
  145.1283  140.8710  143.3773 H   0  0  0  0  0  0  0  0  0  0  0  0  # atno 7974 bound_to 7965
  155.9470  140.3404  155.6376 H   0  0  0  0  0  0  0  0  0  0  0  0  # atno 8008 bound_to 7997
  155.6968  140.0755  157.2445 H   0  0  0  0  0  0  0  0  0  0  0  0  # atno 8009 bound_to 7997
  154.4114  140.1647  156.2134 H   0  0  0  0  0  0  0  0  0  0  0  0  # atno 8010 bound_to 7997
  140.5090  143.2348  151.7624 H   0  0  0  0  0  0  0  0  0  0  0  0  # atno 10167 bound_to 10162
  157.5019  131.1094  150.9415 H   0  0  0  0  0  0  0  0  0  0  0  0  # atno 10718 bound_to 10713
  154.5234  135.5736  153.6699 H   0  0  0  0  0  0  0  0  0  0  0  0  # atno 10763 bound_to 10752
  152.9922  135.6187  154.2724 H   0  0  0  0  0  0  0  0  0  0  0  0  # atno 10764 bound_to 10752
  154.2646  135.2855  155.2743 H   0  0  0  0  0  0  0  0  0  0  0  0  # atno 10765 bound_to 10752
  140.3886  134.6882  157.4494 H   0  0  0  0  0  0  0  0  0  0  0  0  # atno 11005 bound_to 11000
  145.0663  139.3066  143.5855 LP  0  0  0  0  0  0  0  0  0  0  0  0  # atno 17320 bound_to 7965
  146.3516  140.0122  142.8666 LP  0  0  0  0  0  0  0  0  0  0  0  0  # atno 17321 bound_to 7965
  139.4891  144.4416  151.9757 LP  0  0  0  0  0  0  0  0  0  0  0  0  # atno 17342 bound_to 10162
  140.3508  144.3091  150.5949 LP  0  0  0  0  0  0  0  0  0  0  0  0  # atno 17343 bound_to 10162
  157.0083  130.5627  149.5318 LP  0  0  0  0  0  0  0  0  0  0  0  0  # atno 17370 bound_to 10713
  156.0234  130.5329  150.8340 LP  0  0  0  0  0  0  0  0  0  0  0  0  # atno 17371 bound_to 10713
  140.0423  134.6249  155.8964 LP  0  0  0  0  0  0  0  0  0  0  0  0  # atno 17394 bound_to 11000
  141.1898  133.6566  156.5386 LP  0  0  0  0  0  0  0  0  0  0  0  0  # atno 17395 bound_to 11000

$$$$
