AV-unprocessed.smi:282|AV-procd|sdf|2118|dock5
  -GOLD-   2262021413D 1   1.00000     0.00000
 Structure written by MMmdl.
 65 69  0  0  0  0  0  0  0  0  2 V2000
  153.5944  138.1501  160.4059 C   0  0  0  0  0  0  0  0  0  0  0  0
  153.4166  138.7786  159.0169 C   0  0  0  0  0  0  0  0  0  0  0  0
  152.4981  140.0295  158.9972 C   0  0  1  0  0  0  0  0  0  0  0  0
  153.0649  141.1473  159.9038 C   0  0  0  0  0  0  0  0  0  0  0  0
  152.2470  142.3848  159.8537 N   0  3  1  0  0  0  0  0  0  0  0  0
  152.7720  143.4332  160.7666 C   0  0  0  0  0  0  0  0  0  0  0  0
  151.8602  144.6699  160.7830 C   0  0  0  0  0  0  0  0  0  0  0  0
  151.6711  145.2253  159.3668 C   0  0  0  0  0  0  0  0  0  0  0  0
  151.1426  144.1222  158.4419 C   0  0  0  0  0  0  0  0  0  0  0  0
  152.0597  142.8829  158.4625 C   0  0  2  0  0  0  0  0  0  0  0  0
  151.4881  141.7706  157.5682 C   0  0  0  0  0  0  0  0  0  0  0  0
  152.2943  140.5571  157.6412 N   0  0  0  0  0  0  0  0  0  0  0  0
  151.8973  139.6704  156.7008 C   0  0  0  0  0  0  0  0  0  0  0  0
  152.7131  139.4981  155.6327 N   0  0  0  0  0  0  0  0  0  0  0  0
  152.3791  138.6310  154.6722 C   0  0  0  0  0  0  0  0  0  0  0  0
  151.2969  137.8542  154.5885 N   0  0  0  0  0  0  0  0  0  0  0  0
  150.4722  138.0292  155.6610 C   0  0  0  0  0  0  0  0  0  0  0  0
  150.6906  138.9171  156.7512 C   0  0  0  0  0  0  0  0  0  0  0  0
  149.6302  138.8418  157.6452 N   0  0  0  0  0  0  0  0  0  0  0  0
  148.8312  137.9574  157.1138 C   0  0  0  0  0  0  0  0  0  0  0  0
  149.2681  137.4014  155.9318 N   0  0  0  0  0  0  0  0  0  0  0  0
  148.5766  136.3984  155.1331 C   0  0  0  0  0  0  0  0  0  0  0  0
  148.9371  134.9172  155.4740 C   0  0  0  0  0  0  0  0  0  0  0  0
  148.5527  133.9657  154.3094 C   0  0  0  0  0  0  0  0  0  0  0  0
  148.8622  132.6161  154.5953 O   0  0  0  0  0  0  0  0  0  0  0  0
  150.4554  134.7878  155.7544 C   0  0  0  0  0  0  0  0  0  0  0  0
  150.8740  135.4226  157.0931 C   0  0  0  0  0  0  0  0  0  0  0  0
  150.1258  134.8504  158.1577 O   0  0  0  0  0  0  0  0  0  0  0  0
  148.7287  135.0820  158.0340 C   0  0  0  0  0  0  0  0  0  0  0  0
  148.2013  134.4244  156.7458 C   0  0  0  0  0  0  0  0  0  0  0  0
  154.1658  137.2240  160.3361 H   0  0  0  0  0  0  0  0  0  0  0  0
  152.6308  137.9099  160.8558 H   0  0  0  0  0  0  0  0  0  0  0  0
  154.1327  138.8088  161.0865 H   0  0  0  0  0  0  0  0  0  0  0  0
  154.3935  139.0295  158.6018 H   0  0  0  0  0  0  0  0  0  0  0  0
  153.0100  137.9986  158.3732 H   0  0  0  0  0  0  0  0  0  0  0  0
  151.5224  139.7449  159.3922 H   0  0  0  0  0  0  0  0  0  0  0  0
  153.1062  140.8079  160.9386 H   0  0  0  0  0  0  0  0  0  0  0  0
  154.0878  141.3839  159.6055 H   0  0  0  0  0  0  0  0  0  0  0  0
  152.8541  143.0304  161.7769 H   0  0  0  0  0  0  0  0  0  0  0  0
  153.7792  143.7160  160.4559 H   0  0  0  0  0  0  0  0  0  0  0  0
  150.8907  144.4070  161.2083 H   0  0  0  0  0  0  0  0  0  0  0  0
  152.2849  145.4379  161.4303 H   0  0  0  0  0  0  0  0  0  0  0  0
  150.9805  146.0690  159.3811 H   0  0  0  0  0  0  0  0  0  0  0  0
  152.6209  145.6039  158.9867 H   0  0  0  0  0  0  0  0  0  0  0  0
  150.1347  143.8424  158.7521 H   0  0  0  0  0  0  0  0  0  0  0  0
  151.0560  144.5063  157.4251 H   0  0  0  0  0  0  0  0  0  0  0  0
  153.0391  143.1682  158.0738 H   0  0  0  0  0  0  0  0  0  0  0  0
  150.4665  141.5391  157.8738 H   0  0  0  0  0  0  0  0  0  0  0  0
  151.4383  142.1210  156.5358 H   0  0  0  0  0  0  0  0  0  0  0  0
  153.0797  138.5451  153.8548 H   0  0  0  0  0  0  0  0  0  0  0  0
  147.8952  137.6797  157.5765 H   0  0  0  0  0  0  0  0  0  0  0  0
  147.5055  136.5587  155.2615 H   0  0  0  0  0  0  0  0  0  0  0  0
  148.7723  136.6201  154.0850 H   0  0  0  0  0  0  0  0  0  0  0  0
  147.4829  134.0245  154.1058 H   0  0  0  0  0  0  0  0  0  0  0  0
  149.0515  134.2531  153.3838 H   0  0  0  0  0  0  0  0  0  0  0  0
  148.1491  132.0743  154.2940 H   0  0  0  0  0  0  0  0  0  0  0  0
  150.7333  133.7333  155.7802 H   0  0  0  0  0  0  0  0  0  0  0  0
  151.0337  135.2303  154.9425 H   0  0  0  0  0  0  0  0  0  0  0  0
  151.9325  135.2357  157.2747 H   0  0  0  0  0  0  0  0  0  0  0  0
  150.7478  136.5054  157.0817 H   0  0  0  0  0  0  0  0  0  0  0  0
  148.2274  134.6510  158.9007 H   0  0  0  0  0  0  0  0  0  0  0  0
  148.5234  136.1522  158.0568 H   0  0  0  0  0  0  0  0  0  0  0  0
  147.1255  134.5745  156.6600 H   0  0  0  0  0  0  0  0  0  0  0  0
  148.3365  133.3467  156.8472 H   0  0  0  0  0  0  0  0  0  0  0  0
  151.3294  142.1361  160.1946 H   0  0  0  0  0  0  0  0  0  0  0  0
  1  2  1  0  0  0  0
  1 31  1  0  0  0  0
  1 32  1  0  0  0  0
  1 33  1  0  0  0  0
  2  3  1  0  0  0  0
  2 34  1  0  0  0  0
  2 35  1  0  0  0  0
  3 12  1  0  0  0  0
  3  4  1  0  0  0  0
  3 36  1  0  0  0  0
  4  5  1  0  0  0  0
  4 37  1  0  0  0  0
  4 38  1  0  0  0  0
  5 10  1  0  0  0  0
  5  6  1  0  0  0  0
  5 65  1  0  0  0  0
  6  7  1  0  0  0  0
  6 39  1  0  0  0  0
  6 40  1  0  0  0  0
  7  8  1  0  0  0  0
  7 41  1  0  0  0  0
  7 42  1  0  0  0  0
  8  9  1  0  0  0  0
  8 43  1  0  0  0  0
  8 44  1  0  0  0  0
  9 10  1  0  0  0  0
  9 45  1  0  0  0  0
  9 46  1  0  0  0  0
 10 11  1  0  0  0  0
 10 47  1  0  0  0  0
 11 12  1  0  0  0  0
 11 48  1  0  0  0  0
 11 49  1  0  0  0  0
 12 13  1  0  0  0  0
 13 18  1  0  0  0  0
 13 14  2  0  0  0  0
 14 15  1  0  0  0  0
 15 16  2  0  0  0  0
 15 50  1  0  0  0  0
 16 17  1  0  0  0  0
 17 21  1  0  0  0  0
 17 18  2  0  0  0  0
 18 19  1  0  0  0  0
 19 20  2  0  0  0  0
 20 21  1  0  0  0  0
 20 51  1  0  0  0  0
 21 22  1  0  0  0  0
 22 23  1  0  0  0  0
 22 52  1  0  0  0  0
 22 53  1  0  0  0  0
 23 30  1  0  0  0  0
 23 24  1  0  0  0  0
 23 26  1  0  0  0  0
 24 25  1  0  0  0  0
 24 54  1  0  0  0  0
 24 55  1  0  0  0  0
 25 56  1  0  0  0  0
 26 27  1  0  0  0  0
 26 57  1  0  0  0  0
 26 58  1  0  0  0  0
 27 28  1  0  0  0  0
 27 59  1  0  0  0  0
 27 60  1  0  0  0  0
 28 29  1  0  0  0  0
 29 30  1  0  0  0  0
 29 61  1  0  0  0  0
 29 62  1  0  0  0  0
 30 63  1  0  0  0  0
 30 64  1  0  0  0  0
M  CHG  1   5   1
M  END
> <s_m_source_file>
AV-unprocessed.smi

> <i_m_source_file_index>
282

> <i_lp_mmshare_version>
43012

> <i_f3d_flags>
0

> <s_epik_input>
W0NIMl0xW0NIMl1bQ0gyXVtDSDJdW0NAQEhdKE4xMilbQ0gyXU4oW0NAQEhdKFtDSDJdMilbQ0gyXVtDSDNdKWMobltjSF1uMyljKGMzNCluW2NIXW40W0NIMl1DNShbQ0gyXVtPSF0pW0NIMl1bQ0gyXU9bQ0gyXVtDSDJdNQ==

> <s_epik_cmdline>
J2VwaWtfcHl0aG9uJywgJy1waCcsICc3LjAnLCAnLXRuJywgJzgnLCAnLW1hJywgJzIwMCcsICctbWV0YWxfYmluZGluZycsICctaW1hZScsICc8aW5maWxlLm1hZT4nLCAnLW9tYWUnLCAnPG91dGZpbGUubWFlPic=

> <r_lp_tautomer_probability>
1

> <r_epik_Ionization_Penalty>
0.00308583

> <r_epik_Ionization_Penalty_Charging>
0.00300384

> <r_epik_Ionization_Penalty_Neutral>
8.19894e-05

> <r_epik_State_Penalty>
-0

> <r_epik_Charging_Adjusted_Penalty>
0.00300384

> <i_epik_Tot_Q>
1

> <i_epik_Tot_abs_Q>
1

> <r_epik_Metal_State_Penalty>
-0

> <b_epik_Metal_Only>
0

> <s_lp_Force_Field>
OPLS_2005

> <r_lp_Energy>
55.6254

> <b_lp_Chiralities_Consistent>
1

> <s_lp_Variant>
AV-unprocessed.smi:282-2

> <Gold.Version>
5.8.1

> <Gold.Id.Protein>
6NUR|6NUR_protein|mol2

> <Gold.PLP.Fitness>
48.6423

> <Gold.PLP.PLP>
-44.0589

> <Gold.PLP.part.hbond>
-2.4608

> <Gold.PLP.part.metal>
0.0000

> <Gold.PLP.part.buried>
-6.9477

> <Gold.PLP.part.nonpolar>
-35.1284

> <Gold.PLP.part.repulsive>
0.2513

> <Gold.PLP.ligand.clash>
0.0000

> <Gold.PLP.ligand.torsion>
0.7946

> <Gold.PLP.Chemscore.Hbond>
1.9760

> <Gold.PLP.Chemscore.CHOScore>
0.0000

> <Gold.PLP.Chemscore.Metal>
0.0000

> <Gold.Chemscore.Hbonds>
donor molecule, donor type, donor heavy atom, donor atom, acceptor molecule, acceptor atom, score
      P1  H  6896  6909       L1    28  0.70
      P1  H  7997  8009       L1    14  1.00

> <Gold.PLP.Chemscore.Internal.Correction>
0.2445

> <Gold.Rescore>
     Score         DG    S(hbond)    S(metal)    S(lipo)     H(rot)  DE(clash)    DE(int)     intcor
     15.62     -19.03       1.73        0.00     120.18       2.46       0.06       3.35       ----

> <Gold.Chemscore.Fitness>
15.6222

> <Gold.Chemscore.DG>
-19.0347

> <Gold.Chemscore.ZeroCoef>
-5.4800

> <Gold.Chemscore.Hbond>
1.7320

> <Gold.Chemscore.Metal>
0.0000

> <Gold.Chemscore.Lipo>
120.1833

> <Gold.Chemscore.Internal_Hbond>
0.0000

> <Gold.Chemscore.DEClash>
0.0599

> <Gold.Chemscore.DEInternal>
3.3526

> <Gold.Chemscore.Rot>
2.4576

> <Gold.Chemscore.Internal.Correction>
   9.000000E+99

> <Gold.Chemscore.Hbonds>
donor molecule, donor type, donor heavy atom, donor atom, acceptor molecule, acceptor atom, score
      P1  H  6896  6909       L1    28  0.67
      P1  H  7997  8009       L1    14  0.55

> <Gold.Chemscore.Hbond.Weighted>
-5.7847

> <Gold.Chemscore.Metal.Weighted>
-0.0000

> <Gold.Chemscore.Lipo.Weighted>
-14.0614

> <Gold.Chemscore.Internal_Hbond.Weighted>
0.0000

> <Gold.Chemscore.DEClash.Weighted>
0.0599

> <Gold.Chemscore.DEInternal.Weighted>
3.3526

> <Gold.Chemscore.Rot.Weighted>
6.2915

> <Gold.Chemscore.Internal.Correction.Weighted>
   9.000000E+99

> <Gold.Protein.RotatedTorsions>
[ 6907 6896 6895 6894 ] final   37.36 input  -60.11 | X-H torsion
[ 7974 7965 7964 7962 ] final -108.68 input  175.53 | X-H torsion
[ 8008 7997 7996 7995 ] final -150.90 input   59.86 | X-H torsion
[ 10167 10162 10161 10158 ] final   73.90 input  -65.29 | X-H torsion
[ 10718 10713 10712 10709 ] final   13.87 input   66.30 | X-H torsion
[ 10763 10752 10751 10750 ] final -118.86 input  -60.55 | X-H torsion
[ 11005 11000 10999 10996 ] final -151.95 input  -57.11 | X-H torsion

> <Gold.Protein.ActiveResidues>
 VAL166  LYS551  ARG553  GLY616  TRP617  ASP618  TYR619  PRO620  LYS621  CYS622 
 ASP623  PHE694  ASN695  SER759  ASP760  ASP761  ALA762  ILE779  LEU786  VAL792 
 PHE793  MET794  SER795  GLU796  ALA797  LYS798  CYS799  TRP800  GLU811  SER814 

> <Gold.Protein.RotatedAtoms>
  152.1422  134.9054  160.0552 H   0  0  0  0  0  0  0  0  0  0  0  0  # atno 6907 bound_to 6896
  152.0118  133.3859  159.4231 H   0  0  0  0  0  0  0  0  0  0  0  0  # atno 6908 bound_to 6896
  150.6866  134.3644  159.5008 H   0  0  0  0  0  0  0  0  0  0  0  0  # atno 6909 bound_to 6896
  145.1899  140.9009  143.3431 H   0  0  0  0  0  0  0  0  0  0  0  0  # atno 7974 bound_to 7965
  155.6309  140.0691  157.2649 H   0  0  0  0  0  0  0  0  0  0  0  0  # atno 8008 bound_to 7997
  154.4206  140.1767  156.1520 H   0  0  0  0  0  0  0  0  0  0  0  0  # atno 8009 bound_to 7997
  155.9934  140.3343  155.6778 H   0  0  0  0  0  0  0  0  0  0  0  0  # atno 8010 bound_to 7997
  140.0195  144.5551  150.7593 H   0  0  0  0  0  0  0  0  0  0  0  0  # atno 10167 bound_to 10162
  157.0309  130.6192  149.5735 H   0  0  0  0  0  0  0  0  0  0  0  0  # atno 10718 bound_to 10713
  154.8600  135.4259  154.2207 H   0  0  0  0  0  0  0  0  0  0  0  0  # atno 10763 bound_to 10752
  153.3212  135.6982  153.7034 H   0  0  0  0  0  0  0  0  0  0  0  0  # atno 10764 bound_to 10752
  153.6088  135.3523  155.2945 H   0  0  0  0  0  0  0  0  0  0  0  0  # atno 10765 bound_to 10752
  140.7241  134.3695  157.5178 H   0  0  0  0  0  0  0  0  0  0  0  0  # atno 11005 bound_to 11000
  145.0052  139.3561  143.6147 LP  0  0  0  0  0  0  0  0  0  0  0  0  # atno 17320 bound_to 7965
  146.3438  139.9292  142.8756 LP  0  0  0  0  0  0  0  0  0  0  0  0  # atno 17321 bound_to 7965
  140.7348  143.2733  151.3819 LP  0  0  0  0  0  0  0  0  0  0  0  0  # atno 17342 bound_to 10162
  139.6149  144.1023  152.2336 LP  0  0  0  0  0  0  0  0  0  0  0  0  # atno 17343 bound_to 10162
  156.0070  130.5157  150.7862 LP  0  0  0  0  0  0  0  0  0  0  0  0  # atno 17370 bound_to 10713
  157.5178  131.0929  151.0117 LP  0  0  0  0  0  0  0  0  0  0  0  0  # atno 17371 bound_to 10713
  139.8841  134.8974  156.2723 LP  0  0  0  0  0  0  0  0  0  0  0  0  # atno 17394 bound_to 11000
  140.9978  133.7169  156.0913 LP  0  0  0  0  0  0  0  0  0  0  0  0  # atno 17395 bound_to 11000

$$$$
