AV-unprocessed.smi:1459|AV-procd|sdf|5927|dock2
  -GOLD-   22720 6 13D 1   1.00000     0.00000
 Structure written by MMmdl.
 34 35  0  0  0  0  0  0  0  0  1 V2000
  149.1135  129.7805  153.3382 C   0  0  0  0  0  0  0  0  0  0  0  0
  149.4759  131.1529  153.7918 C   0  0  0  0  0  0  0  0  0  0  0  0
  149.2144  132.3975  153.2917 C   0  0  0  0  0  0  0  0  0  0  0  0
  149.8578  133.2576  154.2212 C   0  0  0  0  0  0  0  0  0  0  0  0
  149.8212  134.6659  154.0558 N   0  0  0  0  0  0  0  0  0  0  0  0
  150.3521  135.5999  154.8631 C   0  0  0  0  0  0  0  0  0  0  0  0
  150.9688  135.3688  155.9034 O   0  0  0  0  0  0  0  0  0  0  0  0
  150.1192  136.8349  154.3940 N   0  0  0  0  0  0  0  0  0  0  0  0
  150.5503  138.0856  155.0178 C   0  0  1  0  0  0  0  0  0  0  0  0
  152.0802  138.1811  154.9261 C   0  0  0  0  0  0  0  0  0  0  0  0
  149.8584  139.2905  154.3468 C   0  0  1  0  0  0  0  0  0  0  0  0
  148.3451  139.3709  154.5615 C   0  0  0  0  0  0  0  0  0  0  0  0
  148.0838  140.8446  154.3549 C   0  0  0  0  0  0  0  0  0  0  0  0
  149.3092  141.4699  155.0133 C   0  0  0  0  0  0  0  0  0  0  0  0
  150.3600  140.5162  154.8764 O   0  0  0  0  0  0  0  0  0  0  0  0
  150.4576  132.5974  155.2000 N   0  0  0  0  0  0  0  0  0  0  0  0
  150.2163  131.2454  154.9297 O   0  0  0  0  0  0  0  0  0  0  0  0
  148.5880  129.8114  152.3836 H   0  0  0  0  0  0  0  0  0  0  0  0
  148.4652  129.2919  154.0658 H   0  0  0  0  0  0  0  0  0  0  0  0
  150.0053  129.1665  153.2125 H   0  0  0  0  0  0  0  0  0  0  0  0
  148.6531  132.6484  152.4040 H   0  0  0  0  0  0  0  0  0  0  0  0
  149.3376  134.9981  153.2349 H   0  0  0  0  0  0  0  0  0  0  0  0
  149.5993  136.9210  153.5332 H   0  0  0  0  0  0  0  0  0  0  0  0
  150.2852  138.0824  156.0765 H   0  0  0  0  0  0  0  0  0  0  0  0
  152.4494  139.0836  155.4140 H   0  0  0  0  0  0  0  0  0  0  0  0
  152.4167  138.2033  153.8889 H   0  0  0  0  0  0  0  0  0  0  0  0
  152.5563  137.3295  155.4135 H   0  0  0  0  0  0  0  0  0  0  0  0
  150.0610  139.2890  153.2743 H   0  0  0  0  0  0  0  0  0  0  0  0
  147.7816  138.7366  153.8766 H   0  0  0  0  0  0  0  0  0  0  0  0
  148.0851  139.0874  155.5826 H   0  0  0  0  0  0  0  0  0  0  0  0
  148.0675  141.0769  153.2892 H   0  0  0  0  0  0  0  0  0  0  0  0
  147.1446  141.1814  154.7944 H   0  0  0  0  0  0  0  0  0  0  0  0
  149.5783  142.4266  154.5651 H   0  0  0  0  0  0  0  0  0  0  0  0
  149.1285  141.6328  156.0764 H   0  0  0  0  0  0  0  0  0  0  0  0
  1  2  1  0  0  0  0
  1 18  1  0  0  0  0
  1 19  1  0  0  0  0
  1 20  1  0  0  0  0
  2 17  1  0  0  0  0
  2  3  2  0  0  0  0
  3  4  1  0  0  0  0
  3 21  1  0  0  0  0
  4  5  1  0  0  0  0
  4 16  2  0  0  0  0
  5  6  1  0  0  0  0
  5 22  1  0  0  0  0
  6  7  2  0  0  0  0
  6  8  1  0  0  0  0
  8  9  1  0  0  0  0
  8 23  1  0  0  0  0
  9 10  1  0  0  0  0
  9 11  1  0  0  0  0
  9 24  1  0  0  0  0
 10 25  1  0  0  0  0
 10 26  1  0  0  0  0
 10 27  1  0  0  0  0
 11 15  1  0  0  0  0
 11 12  1  0  0  0  0
 11 28  1  0  0  0  0
 12 13  1  0  0  0  0
 12 29  1  0  0  0  0
 12 30  1  0  0  0  0
 13 14  1  0  0  0  0
 13 31  1  0  0  0  0
 13 32  1  0  0  0  0
 14 15  1  0  0  0  0
 14 33  1  0  0  0  0
 14 34  1  0  0  0  0
 16 17  1  0  0  0  0
M  END
> <s_m_source_file>
AV-unprocessed.smi

> <i_m_source_file_index>
1459

> <i_lp_mmshare_version>
43012

> <i_f3d_flags>
0

> <s_epik_input>
W0NIM11jMVtjSF1jKG5vMSlbTkhdQyg9TylbTkhdW0NASF0oW0NIM10pW0NAQEhdMltDSDJdW0NIMl1bQ0gyXU8y

> <s_epik_cmdline>
J2VwaWtfcHl0aG9uJywgJy1waCcsICc3LjAnLCAnLXRuJywgJzgnLCAnLW1hJywgJzIwMCcsICctbWV0YWxfYmluZGluZycsICctaW1hZScsICc8aW5maWxlLm1hZT4nLCAnLW9tYWUnLCAnPG91dGZpbGUubWFlPic=

> <r_lp_tautomer_probability>
1

> <r_epik_Ionization_Penalty>
2.20869e-05

> <r_epik_Ionization_Penalty_Charging>
0

> <r_epik_Ionization_Penalty_Neutral>
2.20869e-05

> <r_epik_State_Penalty>
-0

> <r_epik_Charging_Adjusted_Penalty>
0

> <i_epik_Tot_Q>
0

> <i_epik_Tot_abs_Q>
0

> <r_epik_Metal_State_Penalty>
-0

> <b_epik_Metal_Only>
0

> <s_lp_Force_Field>
OPLS_2005

> <r_lp_Energy>
15.566

> <b_lp_Chiralities_Consistent>
1

> <s_lp_Variant>
AV-unprocessed.smi:1459-4

> <Gold.Version>
5.8.1

> <Gold.Id.Protein>
6NUR|6NUR_protein|mol2

> <Gold.PLP.Fitness>
38.8384

> <Gold.PLP.PLP>
-30.7001

> <Gold.PLP.part.hbond>
-3.2558

> <Gold.PLP.part.metal>
0.0000

> <Gold.PLP.part.buried>
-3.3226

> <Gold.PLP.part.nonpolar>
-24.6236

> <Gold.PLP.part.repulsive>
0.2129

> <Gold.PLP.ligand.clash>
0.0000

> <Gold.PLP.ligand.torsion>
0.1355

> <Gold.PLP.Chemscore.Hbond>
2.8000

> <Gold.PLP.Chemscore.CHOScore>
0.0000

> <Gold.PLP.Chemscore.Metal>
0.0000

> <Gold.Chemscore.Hbonds>
donor molecule, donor type, donor heavy atom, donor atom, acceptor molecule, acceptor atom, score
      L1  H     5    22       P1  7948  0.55
      L1  H     8    23       P1  7948  1.00
      P1  H  7989  7998       L1    15  0.88

> <Gold.PLP.Chemscore.Internal.Correction>
0.0093

> <Gold.Rescore>
     Score         DG    S(hbond)    S(metal)    S(lipo)     H(rot)  DE(clash)    DE(int)     intcor
     15.86     -17.46       2.61        0.00      55.85       1.28       0.10       1.50       ----

> <Gold.Chemscore.Fitness>
15.8576

> <Gold.Chemscore.DG>
-17.4564

> <Gold.Chemscore.ZeroCoef>
-5.4800

> <Gold.Chemscore.Hbond>
2.6085

> <Gold.Chemscore.Metal>
0.0000

> <Gold.Chemscore.Lipo>
55.8533

> <Gold.Chemscore.Internal_Hbond>
0.0000

> <Gold.Chemscore.DEClash>
0.0961

> <Gold.Chemscore.DEInternal>
1.5027

> <Gold.Chemscore.Rot>
1.2776

> <Gold.Chemscore.Internal.Correction>
   9.000000E+99

> <Gold.Chemscore.Hbonds>
donor molecule, donor type, donor heavy atom, donor atom, acceptor molecule, acceptor atom, score
      L1  H     5    22       P1  7948  0.03
      L1  H     8    23       P1  7948  0.72
      P1  H  7989  7998       L1    15  0.15
      P1  H 10752 10763       L1     7  0.02

> <Gold.Chemscore.Hbond.Weighted>
-8.7123

> <Gold.Chemscore.Metal.Weighted>
-0.0000

> <Gold.Chemscore.Lipo.Weighted>
-6.5348

> <Gold.Chemscore.Internal_Hbond.Weighted>
0.0000

> <Gold.Chemscore.DEClash.Weighted>
0.0961

> <Gold.Chemscore.DEInternal.Weighted>
1.5027

> <Gold.Chemscore.Rot.Weighted>
3.2707

> <Gold.Chemscore.Internal.Correction.Weighted>
   9.000000E+99

> <Gold.Protein.RotatedTorsions>
[ 6907 6896 6895 6894 ] final  -37.62 input  -60.11 | X-H torsion
[ 7974 7965 7964 7962 ] final  -34.66 input  175.53 | X-H torsion
[ 8008 7997 7996 7995 ] final  -31.63 input   59.86 | X-H torsion
[ 10167 10162 10161 10158 ] final   98.30 input  -65.29 | X-H torsion
[ 10718 10713 10712 10709 ] final  -17.96 input   66.30 | X-H torsion
[ 10763 10752 10751 10750 ] final  104.05 input  -60.55 | X-H torsion
[ 11005 11000 10999 10996 ] final  -96.15 input  -57.11 | X-H torsion

> <Gold.Protein.ActiveResidues>
 VAL166  LYS551  ARG553  GLY616  TRP617  ASP618  TYR619  PRO620  LYS621  CYS622 
 ASP623  PHE694  ASN695  SER759  ASP760  ASP761  ALA762  ILE779  LEU786  VAL792 
 PHE793  MET794  SER795  GLU796  ALA797  LYS798  CYS799  TRP800  GLU811  SER814 

> <Gold.Protein.RotatedAtoms>
  151.0124  134.9407  159.8014 H   0  0  0  0  0  0  0  0  0  0  0  0  # atno 6907 bound_to 6896
  152.5306  134.3011  159.9088 H   0  0  0  0  0  0  0  0  0  0  0  0  # atno 6908 bound_to 6896
  151.3017  133.4078  159.2674 H   0  0  0  0  0  0  0  0  0  0  0  0  # atno 6909 bound_to 6896
  146.0811  140.6066  142.8908 H   0  0  0  0  0  0  0  0  0  0  0  0  # atno 7974 bound_to 7965
  154.4207  140.1759  156.1598 H   0  0  0  0  0  0  0  0  0  0  0  0  # atno 8008 bound_to 7997
  155.9847  140.3374  155.6672 H   0  0  0  0  0  0  0  0  0  0  0  0  # atno 8009 bound_to 7997
  155.6453  140.0684  157.2596 H   0  0  0  0  0  0  0  0  0  0  0  0  # atno 8010 bound_to 7997
  139.7721  144.6919  151.0141 H   0  0  0  0  0  0  0  0  0  0  0  0  # atno 10167 bound_to 10162
  156.5662  130.4738  149.6384 H   0  0  0  0  0  0  0  0  0  0  0  0  # atno 10718 bound_to 10713
  153.3607  135.3956  155.1716 H   0  0  0  0  0  0  0  0  0  0  0  0  # atno 10763 bound_to 10752
  154.8678  135.3679  154.5102 H   0  0  0  0  0  0  0  0  0  0  0  0  # atno 10764 bound_to 10752
  153.5562  135.7082  153.5629 H   0  0  0  0  0  0  0  0  0  0  0  0  # atno 10765 bound_to 10752
  141.1420  133.8077  157.0532 H   0  0  0  0  0  0  0  0  0  0  0  0  # atno 11005 bound_to 11000
  144.7294  140.4624  143.6949 LP  0  0  0  0  0  0  0  0  0  0  0  0  # atno 17320 bound_to 7965
  145.6216  139.1525  143.3019 LP  0  0  0  0  0  0  0  0  0  0  0  0  # atno 17321 bound_to 7965
  140.7814  143.4577  151.0322 LP  0  0  0  0  0  0  0  0  0  0  0  0  # atno 17342 bound_to 10162
  139.8260  143.7755  152.3178 LP  0  0  0  0  0  0  0  0  0  0  0  0  # atno 17343 bound_to 10162
  156.2755  130.7041  151.1850 LP  0  0  0  0  0  0  0  0  0  0  0  0  # atno 17370 bound_to 10713
  157.7358  131.0569  150.5450 LP  0  0  0  0  0  0  0  0  0  0  0  0  # atno 17371 bound_to 10713
  140.0618  134.9750  157.1318 LP  0  0  0  0  0  0  0  0  0  0  0  0  # atno 17394 bound_to 11000
  140.3837  134.2259  155.7169 LP  0  0  0  0  0  0  0  0  0  0  0  0  # atno 17395 bound_to 11000

$$$$
