AV-unprocessed.smi:910|AV-procd|sdf|4125|dock9
  -GOLD-   22720 2 23D 1   1.00000     0.00000
 Structure written by MMmdl.
 46 47  0  0  0  0  0  0  0  0  1 V2000
  144.6479  133.0422  161.2069 C   0  0  0  0  0  0  0  0  0  0  0  0
  145.1989  134.4477  161.1120 C   0  0  0  0  0  0  0  0  0  0  0  0
  146.3220  134.7392  160.3894 N   0  0  0  0  0  0  0  0  0  0  0  0
  146.5653  136.1068  160.4945 C   0  0  0  0  0  0  0  0  0  0  0  0
  147.4947  136.8726  160.0109 N   0  0  0  0  0  0  0  0  0  0  0  0
  148.4640  136.2931  159.2098 C   0  0  0  0  0  0  0  0  0  0  0  0
  148.5021  135.1240  158.8131 O   0  0  0  0  0  0  0  0  0  0  0  0
  149.4531  137.1639  158.9562 N   0  0  0  0  0  0  0  0  0  0  0  0
  150.6932  136.8506  158.2527 C   0  0  0  0  0  0  0  0  0  0  0  0
  150.5816  137.1947  156.7609 C   0  0  0  0  0  0  0  0  0  0  0  0
  150.3290  138.5858  156.6300 O   0  0  0  0  0  0  0  0  0  0  0  0
  151.1686  139.2809  155.7159 C   0  0  1  0  0  0  0  0  0  0  0  0
  150.6279  139.1756  154.2723 C   0  0  0  0  0  0  0  0  0  0  0  0
  149.2519  139.8462  154.1322 C   0  0  0  0  0  0  0  0  0  0  0  0
  149.3056  141.3130  154.5839 C   0  0  0  0  0  0  0  0  0  0  0  0
  149.8483  141.4374  156.0167 C   0  0  0  0  0  0  0  0  0  0  0  0
  151.2272  140.7600  156.1612 C   0  0  1  0  0  0  0  0  0  0  0  0
  151.7914  140.9143  157.5821 C   0  0  0  0  0  0  0  0  0  0  0  0
  145.5694  136.6131  161.2910 O   0  0  0  0  0  0  0  0  0  0  0  0
  144.7553  135.5810  161.6495 C   0  0  0  0  0  0  0  0  0  0  0  0
  143.5633  135.8670  162.5343 C   0  0  0  0  0  0  0  0  0  0  0  0
  143.6247  133.0119  160.8323 H   0  0  0  0  0  0  0  0  0  0  0  0
  144.6463  132.7073  162.2444 H   0  0  0  0  0  0  0  0  0  0  0  0
  145.2490  132.3460  160.6211 H   0  0  0  0  0  0  0  0  0  0  0  0
  146.8534  134.0488  159.8784 H   0  0  0  0  0  0  0  0  0  0  0  0
  149.3609  138.1009  159.3215 H   0  0  0  0  0  0  0  0  0  0  0  0
  151.5437  137.3648  158.7031 H   0  0  0  0  0  0  0  0  0  0  0  0
  150.8830  135.7833  158.3674 H   0  0  0  0  0  0  0  0  0  0  0  0
  151.5118  136.9414  156.2508 H   0  0  0  0  0  0  0  0  0  0  0  0
  149.7887  136.6000  156.3086 H   0  0  0  0  0  0  0  0  0  0  0  0
  152.1754  138.8617  155.7598 H   0  0  0  0  0  0  0  0  0  0  0  0
  151.3305  139.6604  153.5932 H   0  0  0  0  0  0  0  0  0  0  0  0
  150.5724  138.1389  153.9435 H   0  0  0  0  0  0  0  0  0  0  0  0
  148.9134  139.7888  153.0974 H   0  0  0  0  0  0  0  0  0  0  0  0
  148.5165  139.3033  154.7271 H   0  0  0  0  0  0  0  0  0  0  0  0
  149.9410  141.8805  153.9031 H   0  0  0  0  0  0  0  0  0  0  0  0
  148.3129  141.7575  154.5194 H   0  0  0  0  0  0  0  0  0  0  0  0
  149.9197  142.4911  156.2878 H   0  0  0  0  0  0  0  0  0  0  0  0
  149.1407  140.9892  156.7152 H   0  0  0  0  0  0  0  0  0  0  0  0
  151.9159  141.2757  155.4902 H   0  0  0  0  0  0  0  0  0  0  0  0
  151.1424  140.4462  158.3230 H   0  0  0  0  0  0  0  0  0  0  0  0
  151.8943  141.9660  157.8504 H   0  0  0  0  0  0  0  0  0  0  0  0
  152.7769  140.4553  157.6651 H   0  0  0  0  0  0  0  0  0  0  0  0
  142.6592  135.4379  162.1020 H   0  0  0  0  0  0  0  0  0  0  0  0
  143.4173  136.9415  162.6444 H   0  0  0  0  0  0  0  0  0  0  0  0
  143.7147  135.4342  163.5232 H   0  0  0  0  0  0  0  0  0  0  0  0
  1 22  1  0  0  0  0
  1 23  1  0  0  0  0
  1 24  1  0  0  0  0
  1  2  1  0  0  0  0
  2  3  1  0  0  0  0
  2 20  2  0  0  0  0
  3 25  1  0  0  0  0
  3  4  1  0  0  0  0
  4 19  1  0  0  0  0
  4  5  2  0  0  0  0
  5  6  1  0  0  0  0
  6  8  1  0  0  0  0
  6  7  2  0  0  0  0
  8  9  1  0  0  0  0
  8 26  1  0  0  0  0
  9 10  1  0  0  0  0
  9 27  1  0  0  0  0
  9 28  1  0  0  0  0
 10 11  1  0  0  0  0
 10 29  1  0  0  0  0
 10 30  1  0  0  0  0
 11 12  1  0  0  0  0
 12 17  1  0  0  0  0
 12 13  1  0  0  0  0
 12 31  1  0  0  0  0
 13 14  1  0  0  0  0
 13 32  1  0  0  0  0
 13 33  1  0  0  0  0
 14 15  1  0  0  0  0
 14 34  1  0  0  0  0
 14 35  1  0  0  0  0
 15 16  1  0  0  0  0
 15 36  1  0  0  0  0
 15 37  1  0  0  0  0
 16 17  1  0  0  0  0
 16 38  1  0  0  0  0
 16 39  1  0  0  0  0
 17 18  1  0  0  0  0
 17 40  1  0  0  0  0
 18 41  1  0  0  0  0
 18 42  1  0  0  0  0
 18 43  1  0  0  0  0
 19 20  1  0  0  0  0
 20 21  1  0  0  0  0
 21 44  1  0  0  0  0
 21 45  1  0  0  0  0
 21 46  1  0  0  0  0
M  END
> <s_m_source_file>
AV-unprocessed.smi

> <i_m_source_file_index>
910

> <i_lp_mmshare_version>
43012

> <i_f3d_flags>
0

> <s_epik_input>
W0NIM11jMW5jKG9jMVtDSDNdKVtOSF1DKD1PKVtOSF1bQ0gyXVtDSDJdT1tDQEBIXTJbQ0gyXVtDSDJdW0NIMl1bQ0gyXVtDQEhdMltDSDNd

> <s_epik_cmdline>
J2VwaWtfcHl0aG9uJywgJy1waCcsICc3LjAnLCAnLXRuJywgJzgnLCAnLW1hJywgJzIwMCcsICctbWV0YWxfYmluZGluZycsICctaW1hZScsICc8aW5maWxlLm1hZT4nLCAnLW9tYWUnLCAnPG91dGZpbGUubWFlPic=

> <r_lp_tautomer_probability>
0.107061

> <r_epik_Ionization_Penalty>
0.727192

> <r_epik_Ionization_Penalty_Charging>
0.726719

> <r_epik_Ionization_Penalty_Neutral>
0.000473387

> <r_epik_State_Penalty>
2.53712

> <r_epik_Charging_Adjusted_Penalty>
3.26383

> <i_epik_Tot_Q>
0

> <i_epik_Tot_abs_Q>
0

> <r_epik_Metal_State_Penalty>
3.71015

> <b_epik_Metal_Only>
0

> <s_lp_Force_Field>
OPLS_2005

> <r_lp_Energy>
28.9635

> <b_lp_Chiralities_Consistent>
1

> <s_lp_Variant>
AV-unprocessed.smi:910-10

> <Gold.Version>
5.8.1

> <Gold.Id.Protein>
6NUR|6NUR_protein|mol2

> <Gold.PLP.Fitness>
37.9415

> <Gold.PLP.PLP>
-32.9852

> <Gold.PLP.part.hbond>
-3.0000

> <Gold.PLP.part.metal>
0.0000

> <Gold.PLP.part.buried>
-3.9236

> <Gold.PLP.part.nonpolar>
-27.5829

> <Gold.PLP.part.repulsive>
0.4691

> <Gold.PLP.ligand.clash>
0.0000

> <Gold.PLP.ligand.torsion>
0.8208

> <Gold.PLP.Chemscore.Hbond>
2.1889

> <Gold.PLP.Chemscore.CHOScore>
0.0000

> <Gold.PLP.Chemscore.Metal>
0.0000

> <Gold.Chemscore.Hbonds>
donor molecule, donor type, donor heavy atom, donor atom, acceptor molecule, acceptor atom, score
      P1  H  6896  6909       L1     7  0.23
      P1  H  6934  6947       L1     5  0.19

> <Gold.PLP.Chemscore.Internal.Correction>
0.0314

> <Gold.Rescore>
     Score         DG    S(hbond)    S(metal)    S(lipo)     H(rot)  DE(clash)    DE(int)     intcor
     13.55     -16.07       1.67        0.00      79.27       1.66       0.12       2.41       ----

> <Gold.Chemscore.Fitness>
13.5479

> <Gold.Chemscore.DG>
-16.0731

> <Gold.Chemscore.ZeroCoef>
-5.4800

> <Gold.Chemscore.Hbond>
1.6653

> <Gold.Chemscore.Metal>
0.0000

> <Gold.Chemscore.Lipo>
79.2710

> <Gold.Chemscore.Internal_Hbond>
0.0000

> <Gold.Chemscore.DEClash>
0.1151

> <Gold.Chemscore.DEInternal>
2.4101

> <Gold.Chemscore.Rot>
1.6576

> <Gold.Chemscore.Internal.Correction>
   9.000000E+99

> <Gold.Chemscore.Hbonds>
donor molecule, donor type, donor heavy atom, donor atom, acceptor molecule, acceptor atom, score
      P1  H  6896  6909       L1     7  0.07
      P1  H  6934  6947       L1     5  0.13

> <Gold.Chemscore.Hbond.Weighted>
-5.5620

> <Gold.Chemscore.Metal.Weighted>
-0.0000

> <Gold.Chemscore.Lipo.Weighted>
-9.2747

> <Gold.Chemscore.Internal_Hbond.Weighted>
0.0000

> <Gold.Chemscore.DEClash.Weighted>
0.1151

> <Gold.Chemscore.DEInternal.Weighted>
2.4101

> <Gold.Chemscore.Rot.Weighted>
4.2436

> <Gold.Chemscore.Internal.Correction.Weighted>
   9.000000E+99

> <Gold.Protein.RotatedTorsions>
[ 6907 6896 6895 6894 ] final   43.84 input  -60.11 | X-H torsion
[ 7974 7965 7964 7962 ] final  -90.05 input  175.53 | X-H torsion
[ 8008 7997 7996 7995 ] final  124.94 input   59.86 | X-H torsion
[ 10167 10162 10161 10158 ] final  -23.43 input  -65.29 | X-H torsion
[ 10718 10713 10712 10709 ] final  178.92 input   66.30 | X-H torsion
[ 10763 10752 10751 10750 ] final   18.77 input  -60.55 | X-H torsion
[ 11005 11000 10999 10996 ] final  -27.61 input  -57.11 | X-H torsion

> <Gold.Protein.ActiveResidues>
 VAL166  LYS551  ARG553  GLY616  TRP617  ASP618  TYR619  PRO620  LYS621  CYS622 
 ASP623  PHE694  ASN695  SER759  ASP760  ASP761  ALA762  ILE779  LEU786  VAL792 
 PHE793  MET794  SER795  GLU796  ALA797  LYS798  CYS799  TRP800  GLU811  SER814 

> <Gold.Protein.RotatedAtoms>
  152.2252  134.8375  160.0480 H   0  0  0  0  0  0  0  0  0  0  0  0  # atno 6907 bound_to 6896
  151.9143  133.3564  159.3883 H   0  0  0  0  0  0  0  0  0  0  0  0  # atno 6908 bound_to 6896
  150.7010  134.4625  159.5431 H   0  0  0  0  0  0  0  0  0  0  0  0  # atno 6909 bound_to 6896
  145.4317  140.9556  143.2124 H   0  0  0  0  0  0  0  0  0  0  0  0  # atno 7974 bound_to 7965
  156.2818  140.2728  156.1868 H   0  0  0  0  0  0  0  0  0  0  0  0  # atno 8008 bound_to 7997
  155.0499  140.0386  157.2558 H   0  0  0  0  0  0  0  0  0  0  0  0  # atno 8009 bound_to 7997
  154.7204  140.2686  155.6552 H   0  0  0  0  0  0  0  0  0  0  0  0  # atno 8010 bound_to 7997
  140.7288  143.4444  151.0608 H   0  0  0  0  0  0  0  0  0  0  0  0  # atno 10167 bound_to 10162
  156.8835  130.9823  151.3059 H   0  0  0  0  0  0  0  0  0  0  0  0  # atno 10718 bound_to 10713
  153.1220  135.6721  153.9320 H   0  0  0  0  0  0  0  0  0  0  0  0  # atno 10763 bound_to 10752
  153.8832  135.3055  155.3447 H   0  0  0  0  0  0  0  0  0  0  0  0  # atno 10764 bound_to 10752
  154.7630  135.4978  153.9580 H   0  0  0  0  0  0  0  0  0  0  0  0  # atno 10765 bound_to 10752
  140.9135  133.7445  156.0703 H   0  0  0  0  0  0  0  0  0  0  0  0  # atno 11005 bound_to 11000
  144.8179  139.5844  143.7000 LP  0  0  0  0  0  0  0  0  0  0  0  0  # atno 17320 bound_to 7965
  146.2604  139.6396  142.9366 LP  0  0  0  0  0  0  0  0  0  0  0  0  # atno 17321 bound_to 7965
  139.8114  143.7945  152.3171 LP  0  0  0  0  0  0  0  0  0  0  0  0  # atno 17342 bound_to 10162
  139.7996  144.7379  150.9843 LP  0  0  0  0  0  0  0  0  0  0  0  0  # atno 17343 bound_to 10162
  157.6126  130.8594  149.8977 LP  0  0  0  0  0  0  0  0  0  0  0  0  # atno 17370 bound_to 10713
  156.0665  130.3691  150.0867 LP  0  0  0  0  0  0  0  0  0  0  0  0  # atno 17371 bound_to 10713
  140.8080  134.3433  157.5420 LP  0  0  0  0  0  0  0  0  0  0  0  0  # atno 17394 bound_to 11000
  139.8762  134.9237  156.3331 LP  0  0  0  0  0  0  0  0  0  0  0  0  # atno 17395 bound_to 11000

$$$$
