#       Name:                AV-unprocessed.smi:1695
#       Creating user name   scv26
#       Creation time:       Fri Mar 27 07:56:15 2020


#       File generated by GOLD software.
#

@<TRIPOS>MOLECULE
AV-unprocessed.smi:1695
    56    58     1
SMALL
NO_CHARGES


@<TRIPOS>ATOM
      1 ****        -4.1787   3.9860  -3.6379 C.3            1 S1                 0.0000
      2 ****        -3.7309   2.8460  -2.7386 C.ar           1 S1                 0.0000
      3 ****        -3.9125   2.9762  -1.3435 C.ar           1 S1                 0.0000
      4 ****        -3.4927   1.9172  -0.5474 C.ar           1 S1                 0.0000
      5 ****        -3.5395   1.7411   0.8368 N.pl3          1 S1                 1.0000
      6 ****        -3.0105   0.5288   1.1587 C.2            1 S1                 0.0000
      7 ****        -2.6135  -0.0685   0.0013 N.pl3          1 S1                 0.0000
      8 ****        -1.9940  -1.3865  -0.2152 C.3            1 S1                 0.0000
      9 ****        -0.4482  -1.3776  -0.1965 C.3            1 S1                 0.0000
     10 ****         0.0278  -0.6337  -1.3011 O.3            1 S1                 0.0000
     11 ****         0.1449  -0.7781   1.0981 C.3            1 S1                 0.0000
     12 ****         1.6096  -0.9983   1.2166 N.4            1 S1                 1.0000
     13 ****         2.2704   0.0327   2.0580 C.3            1 S1                 0.0000
     14 ****         3.7995  -0.1329   2.0408 C.3            1 S1                 0.0000
     15 ****         4.2138  -1.5442   2.4995 C.3            1 S1                 0.0000
     16 ****         5.7352  -1.7283   2.4197 C.2            1 S1                 0.0000
     17 ****         6.3749  -2.0227   3.5543 N.am           1 S1                 0.0000
     18 ****         6.3260  -1.6064   1.3483 O.2            1 S1                 0.0000
     19 ****         3.4848  -2.5884   1.6328 C.3            1 S1                 0.0000
     20 ****         1.9634  -2.3713   1.6657 C.3            1 S1                 0.0000
     21 ****        -2.9064   0.7577  -1.0915 C.ar           1 S1                 0.0000
     22 ****        -2.7235   0.6128  -2.4651 C.ar           1 S1                 0.0000
     23 ****        -3.1444   1.6787  -3.2922 C.ar           1 S1                 0.0000
     24 ****        -2.9561   1.5484  -4.7941 C.3            1 S1                 0.0000
     25 ****        -4.6283   4.7958  -3.0624 H              1 S1                 0.0000
     26 ****        -4.9204   3.6381  -4.3573 H              1 S1                 0.0000
     27 ****        -3.3303   4.3975  -4.1850 H              1 S1                 0.0000
     28 ****        -4.3607   3.8610  -0.9153 H              1 S1                 0.0000
     29 ****        -2.9222   0.1166   2.1536 H              1 S1                 0.0000
     30 ****        -2.3612  -2.0407   0.5766 H              1 S1                 0.0000
     31 ****        -2.3727  -1.8080  -1.1472 H              1 S1                 0.0000
     32 ****        -0.1168  -2.4069  -0.3274 H              1 S1                 0.0000
     33 ****         0.9581  -0.7747  -1.3897 H              1 S1                 0.0000
     34 ****        -0.0679   0.2920   1.1164 H              1 S1                 0.0000
     35 ****        -0.3495  -1.1987   1.9752 H              1 S1                 0.0000
     36 ****         2.0182   1.0278   1.6892 H              1 S1                 0.0000
     37 ****         1.8939  -0.0322   3.0801 H              1 S1                 0.0000
     38 ****         4.1692   0.0623   1.0326 H              1 S1                 0.0000
     39 ****         4.2549   0.6196   2.6862 H              1 S1                 0.0000
     40 ****         3.9003  -1.6759   3.5368 H              1 S1                 0.0000
     41 ****         7.3762  -2.1527   3.5547 H              1 S1                 0.0000
     42 ****         5.8515  -2.1138   4.4134 H              1 S1                 0.0000
     43 ****         3.8326  -2.5352   0.5995 H              1 S1                 0.0000
     44 ****         3.7169  -3.5947   1.9845 H              1 S1                 0.0000
     45 ****         1.5850  -2.5340   2.6762 H              1 S1                 0.0000
     46 ****         1.4879  -3.1170   1.0296 H              1 S1                 0.0000
     47 ****        -2.2754  -0.2739  -2.8882 H              1 S1                 0.0000
     48 ****        -2.4712   0.6075  -5.0560 H              1 S1                 0.0000
     49 ****        -2.3354   2.3597  -5.1752 H              1 S1                 0.0000
     50 ****        -3.9193   1.5798  -5.3041 H              1 S1                 0.0000
     51 ****         1.9909  -0.8832   0.2885 H              1 S1                 0.0000
     52 ****        -3.9124   2.3957   1.5128 H              1 S1                 0.0000
     53 ****        -0.1511   0.3389  -1.1523 LP             1 S1                 0.0000
     54 ****        -0.4376  -0.9347  -2.1335 LP             1 S1                 0.0000
     55 ****         5.8148  -1.3852   0.5178 LP             1 S1                 0.0000
     56 ****         7.3177  -1.7284   1.3075 LP             1 S1                 0.0000
@<TRIPOS>BOND
    1    1    2 1     
    2    1   25 1     
    3    1   26 1     
    4    1   27 1     
    5    2   23 ar    
    6    2    3 ar    
    7    3    4 ar    
    8    3   28 1     
    9    4   21 ar    
   10    4    5 1     
   11    5    6 2     
   12    5   52 1     
   13    6    7 1     
   14    6   29 1     
   15    7    8 1     
   16    7   21 1     
   17    8    9 1     
   18    8   30 1     
   19    8   31 1     
   20    9   10 1     
   21    9   11 1     
   22    9   32 1     
   23   10   33 1     
   24   11   12 1     
   25   11   34 1     
   26   11   35 1     
   27   12   20 1     
   28   12   13 1     
   29   12   51 1     
   30   13   14 1     
   31   13   36 1     
   32   13   37 1     
   33   14   15 1     
   34   14   38 1     
   35   14   39 1     
   36   15   16 1     
   37   15   19 1     
   38   15   40 1     
   39   16   17 am    
   40   16   18 2     
   41   17   41 1     
   42   17   42 1     
   43   19   20 1     
   44   19   43 1     
   45   19   44 1     
   46   20   45 1     
   47   20   46 1     
   48   21   22 ar    
   49   22   23 ar    
   50   22   47 1     
   51   23   24 1     
   52   24   48 1     
   53   24   49 1     
   54   24   50 1     
   55   10   53 1     
   56   10   54 1     
   57   18   55 1     
   58   18   56 1     
@<TRIPOS>SUBSTRUCTURE
      1 S1             1
@<TRIPOS>SET
LONE_PAIRS      STATIC     ATOMS    <user>   **** ""
4 53 54 55 56
DONOR_HYDROGENS      STATIC     ATOMS    <user>   **** ""
5 52 33 51 41 42
ATOM$BLUE        STATIC     ATOMS    COLORGROUP SYSTEM
4 53 54 55 56
ATOM$RED        STATIC     ATOMS    COLORGROUP SYSTEM
5 52 33 51 41 42
