AV-unprocessed.smi:2531|AV-procd|sdf|9965|dock8
  -GOLD-   2272014 03D 1   1.00000     0.00000
 Structure written by MMmdl.
 47 49  0  0  0  0  0  0  0  0  2 V2000
  153.5438  140.1819  158.7793 O   0  0  0  0  0  0  0  0  0  0  0  0
  152.4106  140.5609  158.4807 C   0  0  0  0  0  0  0  0  0  0  0  0
  151.7577  141.7497  159.2120 C   0  0  0  0  0  0  0  0  0  0  0  0
  150.8817  142.6013  158.2715 C   0  0  0  0  0  0  0  0  0  0  0  0
  151.7366  143.8117  157.9003 C   0  0  0  0  0  0  0  0  0  0  0  0
  152.5284  144.0988  159.1725 C   0  0  0  0  0  0  0  0  0  0  0  0
  152.8126  142.7229  159.7870 C   0  0  0  0  0  0  0  0  0  0  0  0
  151.6398  139.8867  157.5305 N   0  0  0  0  0  0  0  0  0  0  0  0
  150.2235  139.6249  157.7384 C   0  0  0  0  0  0  0  0  0  0  0  0
  150.4373  138.3703  156.8806 C   0  0  0  0  0  0  0  0  0  0  0  0
  149.9477  138.6285  155.1130 S   0  0  0  0  0  0  0  0  0  0  0  0
  148.5683  139.1391  155.0854 O   0  0  0  0  0  0  0  0  0  0  0  0
  151.0099  139.3507  154.3963 O   0  0  0  0  0  0  0  0  0  0  0  0
  149.9226  137.0149  154.4981 N   0  0  0  0  0  0  0  0  0  0  0  0
  149.6505  135.9122  155.4243 C   0  0  0  0  0  0  0  0  0  0  0  0
  150.3719  134.6205  154.9995 C   0  0  0  0  0  0  0  0  0  0  0  0
  149.4444  133.5750  154.4066 C   0  0  0  0  0  0  0  0  0  0  0  0
  149.4216  132.2430  154.8734 C   0  0  0  0  0  0  0  0  0  0  0  0
  148.5610  131.3115  154.2560 C   0  0  0  0  0  0  0  0  0  0  0  0
  147.7420  131.7310  153.1872 C   0  0  0  0  0  0  0  0  0  0  0  0
  147.8046  133.0732  152.7613 C   0  0  0  0  0  0  0  0  0  0  0  0
  148.6426  133.9352  153.3779 N   0  3  0  0  0  0  0  0  0  0  0  0
  151.9423  138.5174  157.1432 C   0  0  0  0  0  0  0  0  0  0  0  0
  151.1246  141.3666  160.0136 H   0  0  0  0  0  0  0  0  0  0  0  0
  150.5332  142.0629  157.3887 H   0  0  0  0  0  0  0  0  0  0  0  0
  149.9931  142.9345  158.8094 H   0  0  0  0  0  0  0  0  0  0  0  0
  152.4189  143.5510  157.0900 H   0  0  0  0  0  0  0  0  0  0  0  0
  151.1398  144.6639  157.5745 H   0  0  0  0  0  0  0  0  0  0  0  0
  153.4383  144.6676  158.9793 H   0  0  0  0  0  0  0  0  0  0  0  0
  151.9130  144.6840  159.8573 H   0  0  0  0  0  0  0  0  0  0  0  0
  152.7635  142.7658  160.8756 H   0  0  0  0  0  0  0  0  0  0  0  0
  153.8275  142.4131  159.5313 H   0  0  0  0  0  0  0  0  0  0  0  0
  149.9720  139.3953  158.7757 H   0  0  0  0  0  0  0  0  0  0  0  0
  149.5652  140.3781  157.3039 H   0  0  0  0  0  0  0  0  0  0  0  0
  149.9812  137.4720  157.2970 H   0  0  0  0  0  0  0  0  0  0  0  0
  149.3333  136.9494  153.6678 H   0  0  0  0  0  0  0  0  0  0  0  0
  149.9398  136.1972  156.4368 H   0  0  0  0  0  0  0  0  0  0  0  0
  148.5741  135.7408  155.4457 H   0  0  0  0  0  0  0  0  0  0  0  0
  151.1396  134.8603  154.2629 H   0  0  0  0  0  0  0  0  0  0  0  0
  150.8979  134.1909  155.8534 H   0  0  0  0  0  0  0  0  0  0  0  0
  150.0624  131.9344  155.6865 H   0  0  0  0  0  0  0  0  0  0  0  0
  148.5326  130.2864  154.5957 H   0  0  0  0  0  0  0  0  0  0  0  0
  147.0777  131.0320  152.7001 H   0  0  0  0  0  0  0  0  0  0  0  0
  147.2174  133.4798  151.9510 H   0  0  0  0  0  0  0  0  0  0  0  0
  152.5815  138.4316  156.2643 H   0  0  0  0  0  0  0  0  0  0  0  0
  152.2906  137.8982  157.9722 H   0  0  0  0  0  0  0  0  0  0  0  0
  148.6780  134.9004  153.0495 H   0  0  0  0  0  0  0  0  0  0  0  0
  1  2  2  0  0  0  0
  2  3  1  0  0  0  0
  2  8  1  0  0  0  0
  3  7  1  0  0  0  0
  3  4  1  0  0  0  0
  3 24  1  0  0  0  0
  4  5  1  0  0  0  0
  4 25  1  0  0  0  0
  4 26  1  0  0  0  0
  5  6  1  0  0  0  0
  5 27  1  0  0  0  0
  5 28  1  0  0  0  0
  6  7  1  0  0  0  0
  6 29  1  0  0  0  0
  6 30  1  0  0  0  0
  7 31  1  0  0  0  0
  7 32  1  0  0  0  0
  8 23  1  0  0  0  0
  8  9  1  0  0  0  0
  9 10  1  0  0  0  0
  9 33  1  0  0  0  0
  9 34  1  0  0  0  0
 10 11  1  0  0  0  0
 10 23  1  0  0  0  0
 10 35  1  0  0  0  0
 11 12  2  0  0  0  0
 11 13  2  0  0  0  0
 11 14  1  0  0  0  0
 14 15  1  0  0  0  0
 14 36  1  0  0  0  0
 15 16  1  0  0  0  0
 15 37  1  0  0  0  0
 15 38  1  0  0  0  0
 16 17  1  0  0  0  0
 16 39  1  0  0  0  0
 16 40  1  0  0  0  0
 17 22  1  0  0  0  0
 17 18  2  0  0  0  0
 18 19  1  0  0  0  0
 18 41  1  0  0  0  0
 19 20  2  0  0  0  0
 19 42  1  0  0  0  0
 20 21  1  0  0  0  0
 20 43  1  0  0  0  0
 21 22  2  0  0  0  0
 21 44  1  0  0  0  0
 22 47  1  0  0  0  0
 23 45  1  0  0  0  0
 23 46  1  0  0  0  0
M  CHG  1  22   1
M  END
> <s_m_source_file>
AV-unprocessed.smi

> <i_m_source_file_index>
2531

> <i_lp_mmshare_version>
43012

> <i_f3d_flags>
0

> <s_epik_input>
W0NIMl0xW0NIMl1bQ0gyXVtDSDJdW0NIXTFDKD1PKU4yW0NIMl1bQ0hdKFtDSDJdMilTKD1PKSg9TylbTkhdW0NIMl1bQ0gyXWMzW2NIXVtjSF1bY0hdW2NIXW4z

> <s_epik_cmdline>
J2VwaWtfcHl0aG9uJywgJy1waCcsICc3LjAnLCAnLXRuJywgJzgnLCAnLW1hJywgJzIwMCcsICctbWV0YWxfYmluZGluZycsICctaW1hZScsICc8aW5maWxlLm1hZT4nLCAnLW9tYWUnLCAnPG91dGZpbGUubWFlPic=

> <r_epik_Ionization_Penalty>
2.00952

> <r_epik_Ionization_Penalty_Charging>
2.00945

> <r_epik_Ionization_Penalty_Neutral>
6.7549e-05

> <r_epik_State_Penalty>
2.13885

> <r_epik_Charging_Adjusted_Penalty>
4.1483

> <i_epik_Tot_Q>
1

> <i_epik_Tot_abs_Q>
1

> <r_epik_Metal_State_Penalty>
2.25125

> <b_epik_Metal_Only>
0

> <s_lp_Force_Field>
OPLS_2005

> <r_lp_Energy>
39.4399

> <b_lp_Chiralities_Consistent>
1

> <s_lp_Variant>
AV-unprocessed.smi:2531-2

> <Gold.Version>
5.8.1

> <Gold.Id.Protein>
6NUR|6NUR_protein|mol2

> <Gold.PLP.Fitness>
52.0354

> <Gold.PLP.PLP>
-41.5714

> <Gold.PLP.part.hbond>
-4.0000

> <Gold.PLP.part.metal>
0.0000

> <Gold.PLP.part.buried>
-3.4890

> <Gold.PLP.part.nonpolar>
-33.8608

> <Gold.PLP.part.repulsive>
0.2117

> <Gold.PLP.ligand.clash>
0.0000

> <Gold.PLP.ligand.torsion>
2.9058

> <Gold.PLP.Chemscore.Hbond>
4.8640

> <Gold.PLP.Chemscore.CHOScore>
0.0000

> <Gold.PLP.Chemscore.Metal>
0.0000

> <Gold.Chemscore.Hbonds>
donor molecule, donor type, donor heavy atom, donor atom, acceptor molecule, acceptor atom, score
      L1  H    14    36       P1  7948  0.99
      L1  H    22    47       P1  7948  2.00
      P1  H  7989  7998       L1    13  1.00
      P1  H  7997  8009       L1     1  0.83

> <Gold.PLP.Chemscore.Internal.Correction>
1.6836

> <Gold.Rescore>
     Score         DG    S(hbond)    S(metal)    S(lipo)     H(rot)  DE(clash)    DE(int)     intcor
     21.17     -23.79       3.58        0.00      97.48       1.97       0.00       2.61       ----

> <Gold.Chemscore.Fitness>
21.1737

> <Gold.Chemscore.DG>
-23.7889

> <Gold.Chemscore.ZeroCoef>
-5.4800

> <Gold.Chemscore.Hbond>
3.5806

> <Gold.Chemscore.Metal>
0.0000

> <Gold.Chemscore.Lipo>
97.4811

> <Gold.Chemscore.Internal_Hbond>
0.0000

> <Gold.Chemscore.DEClash>
0.0048

> <Gold.Chemscore.DEInternal>
2.6104

> <Gold.Chemscore.Rot>
1.9749

> <Gold.Chemscore.Internal.Correction>
   9.000000E+99

> <Gold.Chemscore.Hbonds>
donor molecule, donor type, donor heavy atom, donor atom, acceptor molecule, acceptor atom, score
      L1  H    14    36       P1  7948  0.90
      L1  H    22    47       P1  7948  0.39
      P1  H  7989  7998       L1    13  1.00
      P1  H  7997  8009       L1     1  0.74

> <Gold.Chemscore.Hbond.Weighted>
-11.9593

> <Gold.Chemscore.Metal.Weighted>
-0.0000

> <Gold.Chemscore.Lipo.Weighted>
-11.4053

> <Gold.Chemscore.Internal_Hbond.Weighted>
0.0000

> <Gold.Chemscore.DEClash.Weighted>
0.0048

> <Gold.Chemscore.DEInternal.Weighted>
2.6104

> <Gold.Chemscore.Rot.Weighted>
5.0556

> <Gold.Chemscore.Internal.Correction.Weighted>
   9.000000E+99

> <Gold.Protein.RotatedTorsions>
[ 6907 6896 6895 6894 ] final  153.48 input  -60.11 | X-H torsion
[ 7974 7965 7964 7962 ] final  140.15 input  175.53 | X-H torsion
[ 8008 7997 7996 7995 ] final  130.08 input   59.86 | X-H torsion
[ 10167 10162 10161 10158 ] final  172.21 input  -65.29 | X-H torsion
[ 10718 10713 10712 10709 ] final  -15.98 input   66.30 | X-H torsion
[ 10763 10752 10751 10750 ] final  137.52 input  -60.55 | X-H torsion
[ 11005 11000 10999 10996 ] final -146.99 input  -57.11 | X-H torsion

> <Gold.Protein.ActiveResidues>
 VAL166  LYS551  ARG553  GLY616  TRP617  ASP618  TYR619  PRO620  LYS621  CYS622 
 ASP623  PHE694  ASN695  SER759  ASP760  ASP761  ALA762  ILE779  LEU786  VAL792 
 PHE793  MET794  SER795  GLU796  ALA797  LYS798  CYS799  TRP800  GLU811  SER814 

> <Gold.Protein.RotatedAtoms>
  152.0720  133.4111  159.4463 H   0  0  0  0  0  0  0  0  0  0  0  0  # atno 6907 bound_to 6896
  150.6863  134.3081  159.4744 H   0  0  0  0  0  0  0  0  0  0  0  0  # atno 6908 bound_to 6896
  152.0913  134.9404  160.0622 H   0  0  0  0  0  0  0  0  0  0  0  0  # atno 6909 bound_to 6896
  144.9213  139.5164  143.5662 H   0  0  0  0  0  0  0  0  0  0  0  0  # atno 7974 bound_to 7965
  156.2948  140.2605  156.2704 H   0  0  0  0  0  0  0  0  0  0  0  0  # atno 8008 bound_to 7997
  154.9701  140.0391  157.2249 H   0  0  0  0  0  0  0  0  0  0  0  0  # atno 8009 bound_to 7997
  154.7867  140.2804  155.6027 H   0  0  0  0  0  0  0  0  0  0  0  0  # atno 8010 bound_to 7997
  139.5070  144.3399  152.0028 H   0  0  0  0  0  0  0  0  0  0  0  0  # atno 10167 bound_to 10162
  156.5940  130.4806  149.6267 H   0  0  0  0  0  0  0  0  0  0  0  0  # atno 10718 bound_to 10713
  153.8745  135.3052  155.3443 H   0  0  0  0  0  0  0  0  0  0  0  0  # atno 10763 bound_to 10752
  154.7790  135.4845  153.9808 H   0  0  0  0  0  0  0  0  0  0  0  0  # atno 10764 bound_to 10752
  153.1387  135.6819  153.9158 H   0  0  0  0  0  0  0  0  0  0  0  0  # atno 10765 bound_to 10752
  140.7763  134.3131  157.5059 H   0  0  0  0  0  0  0  0  0  0  0  0  # atno 11005 bound_to 11000
  146.3206  139.8094  142.8949 LP  0  0  0  0  0  0  0  0  0  0  0  0  # atno 17320 bound_to 7965
  145.3292  141.0262  143.3456 LP  0  0  0  0  0  0  0  0  0  0  0  0  # atno 17321 bound_to 7965
  140.2837  144.3831  150.6110 LP  0  0  0  0  0  0  0  0  0  0  0  0  # atno 17342 bound_to 10162
  140.5999  143.2167  151.7093 LP  0  0  0  0  0  0  0  0  0  0  0  0  # atno 17343 bound_to 10162
  156.2525  130.6915  151.1658 LP  0  0  0  0  0  0  0  0  0  0  0  0  # atno 17370 bound_to 10713
  157.7296  131.0622  150.5765 LP  0  0  0  0  0  0  0  0  0  0  0  0  # atno 17371 bound_to 10713
  139.8748  134.9291  156.3468 LP  0  0  0  0  0  0  0  0  0  0  0  0  # atno 17394 bound_to 11000
  140.9526  133.7441  156.0292 LP  0  0  0  0  0  0  0  0  0  0  0  0  # atno 17395 bound_to 11000

$$$$
