AV-unprocessed.smi:3062|AV-procd|sdf|11684|dock5
  -GOLD-   2272017 93D 1   1.00000     0.00000
 Structure written by MMmdl.
 39 40  0  0  0  0  0  0  0  0  1 V2000
  156.2381  138.7010  164.6608 C   0  0  0  0  0  0  0  0  0  0  0  0
  156.3475  138.2073  163.2433 C   0  0  0  0  0  0  0  0  0  0  0  0
  156.9407  138.9877  162.4007 N   0  0  0  0  0  0  0  0  0  0  0  0
  157.0974  138.6303  161.0764 N   0  0  0  0  0  0  0  0  0  0  0  0
  157.7912  139.6386  160.2665 C   0  0  0  0  0  0  0  0  0  0  0  0
  156.8653  140.2753  159.2065 C   0  0  1  0  0  0  0  0  0  0  0  0
  157.2216  139.8347  157.9116 O   0  0  0  0  0  0  0  0  0  0  0  0
  155.3819  139.9341  159.4233 C   0  0  0  0  0  0  0  0  0  0  0  0
  154.7646  140.9510  160.1955 O   0  0  0  0  0  0  0  0  0  0  0  0
  153.3485  140.9115  160.1362 C   0  0  0  0  0  0  0  0  0  0  0  0
  152.8282  142.2385  160.5945 C   0  0  0  0  0  0  0  0  0  0  0  0
  152.1935  143.1788  159.8232 C   0  0  0  0  0  0  0  0  0  0  0  0
  151.8215  144.3483  160.5495 C   0  0  0  0  0  0  0  0  0  0  0  0
  152.1797  144.2900  161.8698 C   0  0  0  0  0  0  0  0  0  0  0  0
  152.9868  142.7932  162.2470 S   0  0  0  0  0  0  0  0  0  0  0  0
  156.6629  137.4582  160.5315 C   0  0  0  0  0  0  0  0  0  0  0  0
  156.8241  137.1806  159.3419 O   0  0  0  0  0  0  0  0  0  0  0  0
  155.9915  136.5785  161.4910 C   0  0  0  0  0  0  0  0  0  0  0  0
  155.5226  135.3380  160.9628 C   0  0  0  0  0  0  0  0  0  0  0  0
  155.1432  134.3400  160.5151 N   0  0  0  0  0  0  0  0  0  0  0  0
  155.8275  136.9199  162.7936 C   0  0  0  0  0  0  0  0  0  0  0  0
  155.1390  136.0415  163.8294 C   0  0  0  0  0  0  0  0  0  0  0  0
  156.6640  137.9785  165.3569 H   0  0  0  0  0  0  0  0  0  0  0  0
  155.1951  138.8614  164.9340 H   0  0  0  0  0  0  0  0  0  0  0  0
  156.7664  139.6450  164.8053 H   0  0  0  0  0  0  0  0  0  0  0  0
  158.2309  140.4111  160.9008 H   0  0  0  0  0  0  0  0  0  0  0  0
  158.6416  139.1653  159.7724 H   0  0  0  0  0  0  0  0  0  0  0  0
  156.9637  141.3612  159.2194 H   0  0  0  0  0  0  0  0  0  0  0  0
  158.1585  139.9160  157.8177 H   0  0  0  0  0  0  0  0  0  0  0  0
  154.8830  139.8745  158.4548 H   0  0  0  0  0  0  0  0  0  0  0  0
  155.2716  138.9593  159.9016 H   0  0  0  0  0  0  0  0  0  0  0  0
  153.0161  140.7134  159.1164 H   0  0  0  0  0  0  0  0  0  0  0  0
  152.9644  140.1156  160.7759 H   0  0  0  0  0  0  0  0  0  0  0  0
  151.9839  143.0678  158.7695 H   0  0  0  0  0  0  0  0  0  0  0  0
  151.3116  145.1795  160.0849 H   0  0  0  0  0  0  0  0  0  0  0  0
  152.0211  145.0307  162.6397 H   0  0  0  0  0  0  0  0  0  0  0  0
  154.6955  135.1506  163.3856 H   0  0  0  0  0  0  0  0  0  0  0  0
  154.3377  136.5874  164.3286 H   0  0  0  0  0  0  0  0  0  0  0  0
  155.8545  135.7134  164.5842 H   0  0  0  0  0  0  0  0  0  0  0  0
  1  2  1  0  0  0  0
  1 23  1  0  0  0  0
  1 24  1  0  0  0  0
  1 25  1  0  0  0  0
  2 21  1  0  0  0  0
  2  3  2  0  0  0  0
  3  4  1  0  0  0  0
  4  5  1  0  0  0  0
  4 16  1  0  0  0  0
  5  6  1  0  0  0  0
  5 26  1  0  0  0  0
  5 27  1  0  0  0  0
  6  7  1  0  0  0  0
  6  8  1  0  0  0  0
  6 28  1  0  0  0  0
  7 29  1  0  0  0  0
  8  9  1  0  0  0  0
  8 30  1  0  0  0  0
  8 31  1  0  0  0  0
  9 10  1  0  0  0  0
 10 11  1  0  0  0  0
 10 32  1  0  0  0  0
 10 33  1  0  0  0  0
 11 15  1  0  0  0  0
 11 12  2  0  0  0  0
 12 13  1  0  0  0  0
 12 34  1  0  0  0  0
 13 14  2  0  0  0  0
 13 35  1  0  0  0  0
 14 15  1  0  0  0  0
 14 36  1  0  0  0  0
 16 17  2  0  0  0  0
 16 18  1  0  0  0  0
 18 19  1  0  0  0  0
 18 21  2  0  0  0  0
 19 20  3  0  0  0  0
 21 22  1  0  0  0  0
 22 37  1  0  0  0  0
 22 38  1  0  0  0  0
 22 39  1  0  0  0  0
M  END
> <s_m_source_file>
AV-unprocessed.smi

> <i_m_source_file_index>
3062

> <i_lp_mmshare_version>
43012

> <i_f3d_flags>
0

> <s_epik_input>
TiNDYyhjMVtDSDNdKWMoPU8pbihuYzFbQ0gzXSlbQ0gyXVtDQEhdKFtPSF0pW0NIMl1PW0NIMl1jMltjSF1bY0hdW2NIXXMy

> <s_epik_cmdline>
J2VwaWtfcHl0aG9uJywgJy1waCcsICc3LjAnLCAnLXRuJywgJzgnLCAnLW1hJywgJzIwMCcsICctbWV0YWxfYmluZGluZycsICctaW1hZScsICc8aW5maWxlLm1hZT4nLCAnLW9tYWUnLCAnPG91dGZpbGUubWFlPic=

> <r_lp_tautomer_probability>
1

> <r_epik_Ionization_Penalty>
6.86395e-08

> <r_epik_Ionization_Penalty_Charging>
2.24757e-10

> <r_epik_Ionization_Penalty_Neutral>
6.84147e-08

> <r_epik_State_Penalty>
-0

> <r_epik_Charging_Adjusted_Penalty>
2.24757e-10

> <i_epik_Tot_Q>
0

> <i_epik_Tot_abs_Q>
0

> <r_epik_Metal_State_Penalty>
-0

> <b_epik_Metal_Only>
0

> <s_lp_Force_Field>
OPLS_2005

> <r_lp_Energy>
25.5383

> <b_lp_Chiralities_Consistent>
1

> <s_lp_Variant>
AV-unprocessed.smi:3062-2

> <Gold.Version>
5.8.1

> <Gold.Id.Protein>
6NUR|6NUR_protein|mol2

> <Gold.PLP.Fitness>
43.0706

> <Gold.PLP.PLP>
-39.8212

> <Gold.PLP.part.hbond>
-3.0000

> <Gold.PLP.part.metal>
0.0000

> <Gold.PLP.part.buried>
-3.7414

> <Gold.PLP.part.nonpolar>
-33.3037

> <Gold.PLP.part.repulsive>
0.0199

> <Gold.PLP.ligand.clash>
0.0043

> <Gold.PLP.ligand.torsion>
1.3964

> <Gold.PLP.Chemscore.Hbond>
1.9913

> <Gold.PLP.Chemscore.CHOScore>
0.0000

> <Gold.PLP.Chemscore.Metal>
0.0000

> <Gold.Chemscore.Hbonds>
donor molecule, donor type, donor heavy atom, donor atom, acceptor molecule, acceptor atom, score
      P1  H  7997  8010       L1     7  0.80

> <Gold.PLP.Chemscore.Internal.Correction>
0.0727

> <Gold.Rescore>
     Score         DG    S(hbond)    S(metal)    S(lipo)     H(rot)  DE(clash)    DE(int)     intcor
     14.57     -17.65       1.62        0.00     112.86       2.51       0.15       2.93       ----

> <Gold.Chemscore.Fitness>
14.5718

> <Gold.Chemscore.DG>
-17.6526

> <Gold.Chemscore.ZeroCoef>
-5.4800

> <Gold.Chemscore.Hbond>
1.6162

> <Gold.Chemscore.Metal>
0.0000

> <Gold.Chemscore.Lipo>
112.8643

> <Gold.Chemscore.Internal_Hbond>
0.0000

> <Gold.Chemscore.DEClash>
0.1523

> <Gold.Chemscore.DEInternal>
2.9286

> <Gold.Chemscore.Rot>
2.5119

> <Gold.Chemscore.Internal.Correction>
   9.000000E+99

> <Gold.Chemscore.Hbonds>
donor molecule, donor type, donor heavy atom, donor atom, acceptor molecule, acceptor atom, score
      P1  H  7997  8010       L1     7  0.39

> <Gold.Chemscore.Hbond.Weighted>
-5.3980

> <Gold.Chemscore.Metal.Weighted>
-0.0000

> <Gold.Chemscore.Lipo.Weighted>
-13.2051

> <Gold.Chemscore.Internal_Hbond.Weighted>
0.0000

> <Gold.Chemscore.DEClash.Weighted>
0.1523

> <Gold.Chemscore.DEInternal.Weighted>
2.9286

> <Gold.Chemscore.Rot.Weighted>
6.4305

> <Gold.Chemscore.Internal.Correction.Weighted>
   9.000000E+99

> <Gold.Protein.RotatedTorsions>
[ 6907 6896 6895 6894 ] final -160.84 input  -60.11 | X-H torsion
[ 7974 7965 7964 7962 ] final  116.41 input  175.53 | X-H torsion
[ 8008 7997 7996 7995 ] final  -57.20 input   59.86 | X-H torsion
[ 10167 10162 10161 10158 ] final  -23.72 input  -65.29 | X-H torsion
[ 10718 10713 10712 10709 ] final -157.69 input   66.30 | X-H torsion
[ 10763 10752 10751 10750 ] final   28.75 input  -60.55 | X-H torsion
[ 11005 11000 10999 10996 ] final   11.56 input  -57.11 | X-H torsion

> <Gold.Protein.ActiveResidues>
 VAL166  LYS551  ARG553  GLY616  TRP617  ASP618  TYR619  PRO620  LYS621  CYS622 
 ASP623  PHE694  ASN695  SER759  ASP760  ASP761  ALA762  ILE779  LEU786  VAL792 
 PHE793  MET794  SER795  GLU796  ALA797  LYS798  CYS799  TRP800  GLU811  SER814 

> <Gold.Protein.RotatedAtoms>
  151.3553  133.3910  159.2684 H   0  0  0  0  0  0  0  0  0  0  0  0  # atno 6907 bound_to 6896
  150.9768  134.9132  159.7831 H   0  0  0  0  0  0  0  0  0  0  0  0  # atno 6908 bound_to 6896
  152.5204  134.3516  159.9305 H   0  0  0  0  0  0  0  0  0  0  0  0  # atno 6909 bound_to 6896
  145.1799  139.3055  143.4423 H   0  0  0  0  0  0  0  0  0  0  0  0  # atno 7974 bound_to 7965
  154.4259  140.1112  156.5759 H   0  0  0  0  0  0  0  0  0  0  0  0  # atno 8008 bound_to 7997
  155.6163  140.3494  155.4619 H   0  0  0  0  0  0  0  0  0  0  0  0  # atno 8009 bound_to 7997
  156.0059  140.1209  157.0491 H   0  0  0  0  0  0  0  0  0  0  0  0  # atno 8010 bound_to 7997
  140.7288  143.4418  151.0646 H   0  0  0  0  0  0  0  0  0  0  0  0  # atno 10167 bound_to 10162
  156.5437  130.8575  151.2757 H   0  0  0  0  0  0  0  0  0  0  0  0  # atno 10718 bound_to 10713
  153.0473  135.6506  154.0785 H   0  0  0  0  0  0  0  0  0  0  0  0  # atno 10763 bound_to 10752
  154.0480  135.2898  155.3346 H   0  0  0  0  0  0  0  0  0  0  0  0  # atno 10764 bound_to 10752
  154.6738  135.5346  153.8239 H   0  0  0  0  0  0  0  0  0  0  0  0  # atno 10765 bound_to 10752
  140.5019  134.0738  155.7796 H   0  0  0  0  0  0  0  0  0  0  0  0  # atno 11005 bound_to 11000
  146.3455  140.1975  142.8589 LP  0  0  0  0  0  0  0  0  0  0  0  0  # atno 17320 bound_to 7965
  145.0146  140.8743  143.5203 LP  0  0  0  0  0  0  0  0  0  0  0  0  # atno 17321 bound_to 7965
  139.8085  143.7984  152.3169 LP  0  0  0  0  0  0  0  0  0  0  0  0  # atno 17342 bound_to 10162
  139.8025  144.7368  150.9806 LP  0  0  0  0  0  0  0  0  0  0  0  0  # atno 17343 bound_to 10162
  157.7400  130.9843  150.2352 LP  0  0  0  0  0  0  0  0  0  0  0  0  # atno 17370 bound_to 10713
  156.2948  130.3750  149.7807 LP  0  0  0  0  0  0  0  0  0  0  0  0  # atno 17371 bound_to 10713
  141.1431  133.9103  157.2279 LP  0  0  0  0  0  0  0  0  0  0  0  0  # atno 17394 bound_to 11000
  139.9708  135.0128  156.9508 LP  0  0  0  0  0  0  0  0  0  0  0  0  # atno 17395 bound_to 11000

$$$$
