#       Name:                AV-unprocessed.smi:2888
#       Creating user name   scv26
#       Creation time:       Fri Mar 27 15:57:15 2020


#       File generated by GOLD software.
#

@<TRIPOS>MOLECULE
AV-unprocessed.smi:2888
    37    39     1
SMALL
NO_CHARGES


@<TRIPOS>ATOM
      1 ****        -3.4417  -1.9947  -0.1657 C.3            1 S1                 0.0000
      2 ****        -2.7129  -0.6757  -0.3112 C.ar           1 S1                 0.0000
      3 ****        -3.3913   0.5539  -0.2538 C.ar           1 S1                 0.0000
      4 ****        -2.6086   1.7152  -0.4028 C.ar           1 S1                 0.0000
      5 ****        -3.2115   3.1030  -0.3579 C.3            1 S1                 0.0000
      6 ****        -1.2686   1.6132  -0.5895 N.pl3          1 S1                 1.0000
      7 ****        -0.6868   0.4047  -0.6313 C.ar           1 S1                 0.0000
      8 ****         0.6828   0.3623  -0.8187 N.pl3          1 S1                 0.0000
      9 ****         1.5237   1.5436  -0.9721 C.3            1 S1                 0.0000
     10 ****         3.0184   1.2186  -1.0303 C.3            1 S1                 0.0000
     11 ****         3.4412   1.9168  -2.3309 C.3            1 S1                 0.0000
     12 ****         2.9660   1.1409  -3.5662 C.3            1 S1                 0.0000
     13 ****         1.4644   1.4207  -3.5498 C.3            1 S1                 0.0000
     14 ****         1.3180   2.3028  -2.2977 C.3            1 S1                 0.0000
     15 ****         2.5430   3.0140  -2.3541 O.3            1 S1                 0.0000
     16 ****        -1.3791  -0.7360  -0.4970 N.ar           1 S1                 0.0000
     17 ****        -4.5202  -1.8448  -0.1118 H              1 S1                 0.0000
     18 ****        -3.1227  -2.5061   0.7428 H              1 S1                 0.0000
     19 ****        -3.2310  -2.6425  -1.0170 H              1 S1                 0.0000
     20 ****        -4.4600   0.6060  -0.1031 H              1 S1                 0.0000
     21 ****        -4.3009   3.0575  -0.3433 H              1 S1                 0.0000
     22 ****        -2.9075   3.6801  -1.2317 H              1 S1                 0.0000
     23 ****        -2.8797   3.6305   0.5368 H              1 S1                 0.0000
     24 ****         1.0940  -0.5370  -1.0218 H              1 S1                 0.0000
     25 ****         1.3446   2.2196  -0.1348 H              1 S1                 0.0000
     26 ****         3.5319   1.6513  -0.1711 H              1 S1                 0.0000
     27 ****         3.2375   0.1501  -1.0512 H              1 S1                 0.0000
     28 ****         4.4949   2.1955  -2.3627 H              1 S1                 0.0000
     29 ****         3.4192   1.5399  -4.4746 H              1 S1                 0.0000
     30 ****         3.2008   0.0775  -3.5055 H              1 S1                 0.0000
     31 ****         1.1744   1.9755  -4.4430 H              1 S1                 0.0000
     32 ****         0.8612   0.5134  -3.5097 H              1 S1                 0.0000
     33 ****         0.4340   2.9410  -2.3103 H              1 S1                 0.0000
     34 ****        -0.7133   2.4626  -0.6938 H              1 S1                 0.0000
     35 ****         2.6270   3.5491  -3.1947 LP             1 S1                 0.0000
     36 ****         2.6643   3.6141  -1.5634 LP             1 S1                 0.0000
     37 ****        -0.9121  -1.6195  -0.5342 LP             1 S1                 0.0000
@<TRIPOS>BOND
    1    1    2 1     
    2    1   17 1     
    3    1   18 1     
    4    1   19 1     
    5    2   16 ar    
    6    2    3 ar    
    7    3    4 ar    
    8    3   20 1     
    9    4    5 1     
   10    4    6 ar    
   11    5   21 1     
   12    5   22 1     
   13    5   23 1     
   14    6    7 ar    
   15    6   34 1     
   16    7    8 1     
   17    7   16 ar    
   18    8    9 1     
   19    8   24 1     
   20    9   14 1     
   21    9   10 1     
   22    9   25 1     
   23   10   11 1     
   24   10   26 1     
   25   10   27 1     
   26   11   15 1     
   27   11   12 1     
   28   11   28 1     
   29   12   13 1     
   30   12   29 1     
   31   12   30 1     
   32   13   14 1     
   33   13   31 1     
   34   13   32 1     
   35   14   15 1     
   36   14   33 1     
   37   15   35 1     
   38   15   36 1     
   39   16   37 1     
@<TRIPOS>SUBSTRUCTURE
      1 S1             1
@<TRIPOS>SET
LONE_PAIRS      STATIC     ATOMS    <user>   **** ""
3 35 36 37
DONOR_HYDROGENS      STATIC     ATOMS    <user>   **** ""
2 34 24
ATOM$BLUE        STATIC     ATOMS    COLORGROUP SYSTEM
3 35 36 37
ATOM$RED        STATIC     ATOMS    COLORGROUP SYSTEM
2 34 24
