AV-unprocessed.smi:1909|AV-procd|sdf|7735|dock2
  -GOLD-   22720 9473D 1   1.00000     0.00000
 Structure written by MMmdl.
 40 41  0  0  0  0  0  0  0  0  1 V2000
  148.2630  136.5785  155.0830 C   0  0  0  0  0  0  0  0  0  0  0  0
  147.8514  137.9023  154.5366 C   0  0  0  0  0  0  0  0  0  0  0  0
  148.4815  139.0457  154.8174 N   0  0  0  0  0  0  0  0  0  0  0  0
  147.9005  140.1513  154.1871 C   0  0  0  0  0  0  0  0  0  0  0  0
  148.4707  141.5254  154.3989 C   0  0  0  0  0  0  0  0  0  0  0  0
  149.8024  141.4537  155.1514 C   0  0  0  0  0  0  0  0  0  0  0  0
  150.5529  140.4933  154.9797 O   0  0  0  0  0  0  0  0  0  0  0  0
  150.0878  142.4801  155.9702 N   0  0  0  0  0  0  0  0  0  0  0  0
  151.2803  142.6072  156.8046 C   0  0  0  0  0  0  0  0  0  0  0  0
  151.2452  141.4651  157.8483 C   0  0  0  0  0  0  0  0  0  0  0  0
  152.5399  141.2801  158.6656 C   0  0  0  0  0  0  0  0  0  0  0  0
  152.5070  141.8422  160.1002 C   0  0  0  0  0  0  0  0  0  0  0  0
  151.8669  143.2290  160.2921 C   0  0  0  0  0  0  0  0  0  0  0  0
  152.5882  144.4158  159.6282 C   0  0  0  0  0  0  0  0  0  0  0  0
  152.6523  144.4196  158.0885 C   0  0  0  0  0  0  0  0  0  0  0  0
  151.3399  144.0488  157.3682 C   0  0  0  0  0  0  0  0  0  0  0  0
  146.8191  139.8205  153.4076 C   0  0  0  0  0  0  0  0  0  0  0  0
  146.4834  138.1119  153.4508 S   0  0  0  0  0  0  0  0  0  0  0  0
  148.9575  136.7056  155.9139 H   0  0  0  0  0  0  0  0  0  0  0  0
  148.7501  135.9904  154.3052 H   0  0  0  0  0  0  0  0  0  0  0  0
  147.3889  136.0337  155.4399 H   0  0  0  0  0  0  0  0  0  0  0  0
  148.6207  142.0291  153.4429 H   0  0  0  0  0  0  0  0  0  0  0  0
  147.7788  142.1470  154.9683 H   0  0  0  0  0  0  0  0  0  0  0  0
  149.4091  143.2242  156.0404 H   0  0  0  0  0  0  0  0  0  0  0  0
  152.1589  142.4485  156.1765 H   0  0  0  0  0  0  0  0  0  0  0  0
  150.3777  141.5558  158.5022 H   0  0  0  0  0  0  0  0  0  0  0  0
  151.0832  140.5343  157.3017 H   0  0  0  0  0  0  0  0  0  0  0  0
  152.7379  140.2107  158.7496 H   0  0  0  0  0  0  0  0  0  0  0  0
  153.3983  141.6640  158.1174 H   0  0  0  0  0  0  0  0  0  0  0  0
  151.9510  141.1389  160.7212 H   0  0  0  0  0  0  0  0  0  0  0  0
  153.5201  141.8489  160.5035 H   0  0  0  0  0  0  0  0  0  0  0  0
  150.8190  143.2086  159.9970 H   0  0  0  0  0  0  0  0  0  0  0  0
  151.8412  143.4266  161.3643 H   0  0  0  0  0  0  0  0  0  0  0  0
  152.0764  145.3259  159.9434 H   0  0  0  0  0  0  0  0  0  0  0  0
  153.5997  144.4971  160.0273 H   0  0  0  0  0  0  0  0  0  0  0  0
  152.9318  145.4297  157.7863 H   0  0  0  0  0  0  0  0  0  0  0  0
  153.4744  143.8014  157.7324 H   0  0  0  0  0  0  0  0  0  0  0  0
  151.2426  144.7328  156.5238 H   0  0  0  0  0  0  0  0  0  0  0  0
  150.4747  144.2607  157.9968 H   0  0  0  0  0  0  0  0  0  0  0  0
  146.1985  140.4776  152.8167 H   0  0  0  0  0  0  0  0  0  0  0  0
  1  2  1  0  0  0  0
  1 19  1  0  0  0  0
  1 20  1  0  0  0  0
  1 21  1  0  0  0  0
  2 18  1  0  0  0  0
  2  3  2  0  0  0  0
  3  4  1  0  0  0  0
  4  5  1  0  0  0  0
  4 17  2  0  0  0  0
  5  6  1  0  0  0  0
  5 22  1  0  0  0  0
  5 23  1  0  0  0  0
  6  7  2  0  0  0  0
  6  8  1  0  0  0  0
  8  9  1  0  0  0  0
  8 24  1  0  0  0  0
  9 16  1  0  0  0  0
  9 10  1  0  0  0  0
  9 25  1  0  0  0  0
 10 11  1  0  0  0  0
 10 26  1  0  0  0  0
 10 27  1  0  0  0  0
 11 12  1  0  0  0  0
 11 28  1  0  0  0  0
 11 29  1  0  0  0  0
 12 13  1  0  0  0  0
 12 30  1  0  0  0  0
 12 31  1  0  0  0  0
 13 14  1  0  0  0  0
 13 32  1  0  0  0  0
 13 33  1  0  0  0  0
 14 15  1  0  0  0  0
 14 34  1  0  0  0  0
 14 35  1  0  0  0  0
 15 16  1  0  0  0  0
 15 36  1  0  0  0  0
 15 37  1  0  0  0  0
 16 38  1  0  0  0  0
 16 39  1  0  0  0  0
 17 18  1  0  0  0  0
 17 40  1  0  0  0  0
M  END
> <s_m_source_file>
AV-unprocessed.smi

> <i_m_source_file_index>
1909

> <i_lp_mmshare_version>
43012

> <i_f3d_flags>
0

> <s_epik_input>
W0NIM11jMW5jKFtjSF1zMSlbQ0gyXUMoPU8pW05IXVtDSF0yW0NIMl1bQ0gyXVtDSDJdW0NIMl1bQ0gyXVtDSDJdW0NIMl0y

> <s_epik_cmdline>
J2VwaWtfcHl0aG9uJywgJy1waCcsICc3LjAnLCAnLXRuJywgJzgnLCAnLW1hJywgJzIwMCcsICctbWV0YWxfYmluZGluZycsICctaW1hZScsICc8aW5maWxlLm1hZT4nLCAnLW9tYWUnLCAnPG91dGZpbGUubWFlPic=

> <r_lp_tautomer_probability>
1

> <r_epik_Ionization_Penalty>
6.3061e-05

> <r_epik_Ionization_Penalty_Charging>
0

> <r_epik_Ionization_Penalty_Neutral>
6.3061e-05

> <r_epik_State_Penalty>
-0

> <r_epik_Charging_Adjusted_Penalty>
0

> <i_epik_Tot_Q>
0

> <i_epik_Tot_abs_Q>
0

> <r_epik_Metal_State_Penalty>
-0

> <b_epik_Metal_Only>
0

> <s_lp_Force_Field>
OPLS_2005

> <r_lp_Energy>
17.5912

> <b_lp_Chiralities_Consistent>
1

> <s_lp_Variant>
AV-unprocessed.smi:1909-1

> <Gold.Version>
5.8.1

> <Gold.Id.Protein>
6NUR|6NUR_protein|mol2

> <Gold.PLP.Fitness>
44.2444

> <Gold.PLP.PLP>
-36.2361

> <Gold.PLP.part.hbond>
-2.0000

> <Gold.PLP.part.metal>
0.0000

> <Gold.PLP.part.buried>
-3.7579

> <Gold.PLP.part.nonpolar>
-31.6104

> <Gold.PLP.part.repulsive>
0.3123

> <Gold.PLP.ligand.clash>
0.0000

> <Gold.PLP.ligand.torsion>
0.5079

> <Gold.PLP.Chemscore.Hbond>
2.0000

> <Gold.PLP.Chemscore.CHOScore>
0.9995

> <Gold.PLP.Chemscore.Metal>
0.0000

> <Gold.Chemscore.Hbonds>
donor molecule, donor type, donor heavy atom, donor atom, acceptor molecule, acceptor atom, score
      L1  H     8    24       P1  8028  1.00
      P1  H  7989  7998       L1     7  1.00
      L1  C    17    40       P1 10175  1.00

> <Gold.PLP.Chemscore.Internal.Correction>
0.0255

> <Gold.Rescore>
     Score         DG    S(hbond)    S(metal)    S(lipo)     H(rot)  DE(clash)    DE(int)     intcor
     18.80     -21.29       1.70        0.00     113.96       1.25       0.26       2.23       ----

> <Gold.Chemscore.Fitness>
18.8002

> <Gold.Chemscore.DG>
-21.2914

> <Gold.Chemscore.ZeroCoef>
-5.4800

> <Gold.Chemscore.Hbond>
1.7006

> <Gold.Chemscore.Metal>
0.0000

> <Gold.Chemscore.Lipo>
113.9620

> <Gold.Chemscore.Internal_Hbond>
0.0000

> <Gold.Chemscore.DEClash>
0.2612

> <Gold.Chemscore.DEInternal>
2.2300

> <Gold.Chemscore.Rot>
1.2508

> <Gold.Chemscore.Internal.Correction>
   9.000000E+99

> <Gold.Chemscore.Hbonds>
donor molecule, donor type, donor heavy atom, donor atom, acceptor molecule, acceptor atom, score
      L1  H     8    24       P1  8028  0.95
      P1  H  7989  7998       L1     7  0.58

> <Gold.Chemscore.Hbond.Weighted>
-5.6800

> <Gold.Chemscore.Metal.Weighted>
-0.0000

> <Gold.Chemscore.Lipo.Weighted>
-13.3335

> <Gold.Chemscore.Internal_Hbond.Weighted>
0.0000

> <Gold.Chemscore.DEClash.Weighted>
0.2612

> <Gold.Chemscore.DEInternal.Weighted>
2.2300

> <Gold.Chemscore.Rot.Weighted>
3.2022

> <Gold.Chemscore.Internal.Correction.Weighted>
   9.000000E+99

> <Gold.Protein.RotatedTorsions>
[ 6907 6896 6895 6894 ] final  153.87 input  -60.11 | X-H torsion
[ 7974 7965 7964 7962 ] final   49.69 input  175.53 | X-H torsion
[ 8008 7997 7996 7995 ] final  -86.70 input   59.86 | X-H torsion
[ 10167 10162 10161 10158 ] final   21.53 input  -65.29 | X-H torsion
[ 10718 10713 10712 10709 ] final   11.97 input   66.30 | X-H torsion
[ 10763 10752 10751 10750 ] final   85.20 input  -60.55 | X-H torsion
[ 11005 11000 10999 10996 ] final -175.47 input  -57.11 | X-H torsion

> <Gold.Protein.ActiveResidues>
 VAL166  LYS551  ARG553  GLY616  TRP617  ASP618  TYR619  PRO620  LYS621  CYS622 
 ASP623  PHE694  ASN695  SER759  ASP760  ASP761  ALA762  ILE779  LEU786  VAL792 
 PHE793  MET794  SER795  GLU796  ALA797  LYS798  CYS799  TRP800  GLU811  SER814 

> <Gold.Protein.RotatedAtoms>
  152.0665  133.4086  159.4440 H   0  0  0  0  0  0  0  0  0  0  0  0  # atno 6907 bound_to 6896
  150.6864  134.3140  159.4768 H   0  0  0  0  0  0  0  0  0  0  0  0  # atno 6908 bound_to 6896
  152.0967  134.9369  160.0621 H   0  0  0  0  0  0  0  0  0  0  0  0  # atno 6909 bound_to 6896
  146.0084  139.4516  142.9971 H   0  0  0  0  0  0  0  0  0  0  0  0  # atno 7974 bound_to 7965
  154.6548  140.0575  156.9996 H   0  0  0  0  0  0  0  0  0  0  0  0  # atno 8008 bound_to 7997
  155.1316  140.3257  155.4454 H   0  0  0  0  0  0  0  0  0  0  0  0  # atno 8009 bound_to 7997
  156.2592  140.1979  156.6435 H   0  0  0  0  0  0  0  0  0  0  0  0  # atno 8010 bound_to 7997
  140.5419  143.9661  150.6524 H   0  0  0  0  0  0  0  0  0  0  0  0  # atno 10167 bound_to 10162
  157.0034  130.6088  149.5699 H   0  0  0  0  0  0  0  0  0  0  0  0  # atno 10718 bound_to 10713
  153.1453  135.4626  154.9556 H   0  0  0  0  0  0  0  0  0  0  0  0  # atno 10763 bound_to 10752
  154.7780  135.3179  154.8052 H   0  0  0  0  0  0  0  0  0  0  0  0  # atno 10764 bound_to 10752
  153.8567  135.6916  153.4841 H   0  0  0  0  0  0  0  0  0  0  0  0  # atno 10765 bound_to 10752
  140.4630  134.6237  157.4850 H   0  0  0  0  0  0  0  0  0  0  0  0  # atno 11005 bound_to 11000
  145.7380  141.0018  143.1316 LP  0  0  0  0  0  0  0  0  0  0  0  0  # atno 17320 bound_to 7965
  144.6944  139.9064  143.7461 LP  0  0  0  0  0  0  0  0  0  0  0  0  # atno 17321 bound_to 7965
  140.3064  143.3226  152.0921 LP  0  0  0  0  0  0  0  0  0  0  0  0  # atno 17342 bound_to 10162
  139.4992  144.6664  151.6346 LP  0  0  0  0  0  0  0  0  0  0  0  0  # atno 17343 bound_to 10162
  156.0162  130.5257  150.8143 LP  0  0  0  0  0  0  0  0  0  0  0  0  # atno 17370 bound_to 10713
  157.5373  131.0939  150.9874 LP  0  0  0  0  0  0  0  0  0  0  0  0  # atno 17371 bound_to 10713
  139.9933  134.6950  155.9652 LP  0  0  0  0  0  0  0  0  0  0  0  0  # atno 17394 bound_to 11000
  141.1612  133.6539  156.4327 LP  0  0  0  0  0  0  0  0  0  0  0  0  # atno 17395 bound_to 11000

$$$$
