AV-unprocessed.smi:861|AV-procd|sdf|3973|dock1
  -GOLD-   22720 1443D 1   1.00000     0.00000
 Structure written by MMmdl.
 45 46  0  0  0  0  0  0  0  0  3 V2000
  144.5730  134.5057  150.9718 C   0  0  0  0  0  0  0  0  0  0  0  0
  144.6905  133.0277  150.5625 C   0  0  0  0  0  0  0  0  0  0  0  0
  143.3440  132.3131  150.7535 C   0  0  0  0  0  0  0  0  0  0  0  0
  145.8114  132.2861  151.3201 C   0  0  0  0  0  0  0  0  0  0  0  0
  147.1325  133.0736  151.4143 C   0  0  0  0  0  0  0  0  0  0  0  0
  148.2454  132.2430  151.9478 N   0  3  2  0  0  0  0  0  0  0  0  0
  147.8064  131.2055  152.9127 C   0  0  0  0  0  0  0  0  0  0  0  0
  147.5301  131.8156  154.2981 C   0  0  0  0  0  0  0  0  0  0  0  0
  148.6955  132.4901  154.7571 O   0  0  0  0  0  0  0  0  0  0  0  0
  149.0696  133.5733  153.9114 C   0  0  1  0  0  0  0  0  0  0  0  0
  150.2951  134.2669  154.5329 C   0  0  0  0  0  0  0  0  0  0  0  0
  150.5823  135.5561  153.9170 N   0  0  0  0  0  0  0  0  0  0  0  0
  151.7720  136.2524  154.1761 C   0  0  0  0  0  0  0  0  0  0  0  0
  152.1067  137.5050  153.6094 C   0  0  0  0  0  0  0  0  0  0  0  0
  153.3346  138.0902  153.9625 C   0  0  0  0  0  0  0  0  0  0  0  0
  154.1573  137.3873  154.8603 C   0  0  0  0  0  0  0  0  0  0  0  0
  153.8205  136.1904  155.3900 N   0  0  0  0  0  0  0  0  0  0  0  0
  152.6391  135.6566  155.0327 N   0  3  0  0  0  0  0  0  0  0  0  0
  149.3861  133.0159  152.5052 C   0  0  0  0  0  0  0  0  0  0  0  0
  144.3924  134.6080  152.0422 H   0  0  0  0  0  0  0  0  0  0  0  0
  143.7470  134.9901  150.4500 H   0  0  0  0  0  0  0  0  0  0  0  0
  145.4744  135.0671  150.7282 H   0  0  0  0  0  0  0  0  0  0  0  0
  144.9234  132.9945  149.4972 H   0  0  0  0  0  0  0  0  0  0  0  0
  143.0445  132.3057  151.8022 H   0  0  0  0  0  0  0  0  0  0  0  0
  143.3928  131.2780  150.4142 H   0  0  0  0  0  0  0  0  0  0  0  0
  142.5532  132.8046  150.1859 H   0  0  0  0  0  0  0  0  0  0  0  0
  145.4680  132.0282  152.3229 H   0  0  0  0  0  0  0  0  0  0  0  0
  145.9903  131.3385  150.8132 H   0  0  0  0  0  0  0  0  0  0  0  0
  147.3961  133.4993  150.4465 H   0  0  0  0  0  0  0  0  0  0  0  0
  146.9780  133.9183  152.0853 H   0  0  0  0  0  0  0  0  0  0  0  0
  146.9309  130.6727  152.5393 H   0  0  0  0  0  0  0  0  0  0  0  0
  148.5997  130.4618  153.0004 H   0  0  0  0  0  0  0  0  0  0  0  0
  146.6815  132.5007  154.2683 H   0  0  0  0  0  0  0  0  0  0  0  0
  147.2773  131.0290  155.0093 H   0  0  0  0  0  0  0  0  0  0  0  0
  148.2473  134.2869  153.8503 H   0  0  0  0  0  0  0  0  0  0  0  0
  150.1256  134.4277  155.5980 H   0  0  0  0  0  0  0  0  0  0  0  0
  151.1751  133.6273  154.4633 H   0  0  0  0  0  0  0  0  0  0  0  0
  149.9723  135.8780  153.1786 H   0  0  0  0  0  0  0  0  0  0  0  0
  151.4513  138.0175  152.9215 H   0  0  0  0  0  0  0  0  0  0  0  0
  153.6384  139.0447  153.5585 H   0  0  0  0  0  0  0  0  0  0  0  0
  155.1112  137.7943  155.1624 H   0  0  0  0  0  0  0  0  0  0  0  0
  150.2448  132.3459  152.5680 H   0  0  0  0  0  0  0  0  0  0  0  0
  149.6806  133.8201  151.8320 H   0  0  0  0  0  0  0  0  0  0  0  0
  148.5999  131.7378  151.1477 H   0  0  0  0  0  0  0  0  0  0  0  0
  152.3800  134.7526  155.4285 H   0  0  0  0  0  0  0  0  0  0  0  0
  1  2  1  0  0  0  0
  1 20  1  0  0  0  0
  1 21  1  0  0  0  0
  1 22  1  0  0  0  0
  2  3  1  0  0  0  0
  2  4  1  0  0  0  0
  2 23  1  0  0  0  0
  3 24  1  0  0  0  0
  3 25  1  0  0  0  0
  3 26  1  0  0  0  0
  4  5  1  0  0  0  0
  4 27  1  0  0  0  0
  4 28  1  0  0  0  0
  5  6  1  0  0  0  0
  5 29  1  0  0  0  0
  5 30  1  0  0  0  0
  6 19  1  0  0  0  0
  6  7  1  0  0  0  0
  6 44  1  0  0  0  0
  7  8  1  0  0  0  0
  7 31  1  0  0  0  0
  7 32  1  0  0  0  0
  8  9  1  0  0  0  0
  8 33  1  0  0  0  0
  8 34  1  0  0  0  0
  9 10  1  0  0  0  0
 10 11  1  0  0  0  0
 10 19  1  0  0  0  0
 10 35  1  0  0  0  0
 11 12  1  0  0  0  0
 11 36  1  0  0  0  0
 11 37  1  0  0  0  0
 12 13  1  0  0  0  0
 12 38  1  0  0  0  0
 13 18  1  0  0  0  0
 13 14  2  0  0  0  0
 14 15  1  0  0  0  0
 14 39  1  0  0  0  0
 15 16  2  0  0  0  0
 15 40  1  0  0  0  0
 16 17  1  0  0  0  0
 16 41  1  0  0  0  0
 17 18  2  0  0  0  0
 18 45  1  0  0  0  0
 19 42  1  0  0  0  0
 19 43  1  0  0  0  0
M  CHG  1   6   1
M  CHG  1  18   1
M  END
> <s_m_source_file>
AV-unprocessed.smi

> <i_m_source_file_index>
861

> <i_lp_mmshare_version>
43012

> <i_f3d_flags>
0

> <s_epik_input>
W0NIM11bQ0hdKFtDSDNdKVtDSDJdW0NIMl1OMVtDSDJdW0NIMl1PW0NASF0oW0NIMl0xKVtDSDJdW05IXWMyW2NIXVtjSF1bY0hdbm4y

> <s_epik_cmdline>
J2VwaWtfcHl0aG9uJywgJy1waCcsICc3LjAnLCAnLXRuJywgJzgnLCAnLW1hJywgJzIwMCcsICctbWV0YWxfYmluZGluZycsICctaW1hZScsICc8aW5maWxlLm1hZT4nLCAnLW9tYWUnLCAnPG91dGZpbGUubWFlPic=

> <r_lp_tautomer_probability>
0.966961

> <r_epik_Ionization_Penalty>
2.478

> <r_epik_Ionization_Penalty_Charging>
2.47799

> <r_epik_Ionization_Penalty_Neutral>
3.15286e-06

> <r_epik_State_Penalty>
2.10794

> <r_epik_Charging_Adjusted_Penalty>
4.58594

> <i_epik_Tot_Q>
2

> <i_epik_Tot_abs_Q>
2

> <r_epik_Metal_State_Penalty>
2.11378

> <b_epik_Metal_Only>
0

> <s_lp_Force_Field>
OPLS_2005

> <r_lp_Energy>
36.5784

> <b_lp_Chiralities_Consistent>
1

> <s_lp_Variant>
AV-unprocessed.smi:861-8

> <Gold.Version>
5.8.1

> <Gold.Id.Protein>
6NUR|6NUR_protein|mol2

> <Gold.PLP.Fitness>
42.9429

> <Gold.PLP.PLP>
-34.8611

> <Gold.PLP.part.hbond>
-3.2125

> <Gold.PLP.part.metal>
0.0000

> <Gold.PLP.part.buried>
-3.7898

> <Gold.PLP.part.nonpolar>
-29.0875

> <Gold.PLP.part.repulsive>
1.1135

> <Gold.PLP.ligand.clash>
0.0000

> <Gold.PLP.ligand.torsion>
0.5190

> <Gold.PLP.Chemscore.Hbond>
3.0000

> <Gold.PLP.Chemscore.CHOScore>
0.0000

> <Gold.PLP.Chemscore.Metal>
0.0000

> <Gold.Chemscore.Hbonds>
donor molecule, donor type, donor heavy atom, donor atom, acceptor molecule, acceptor atom, score
      L1  H     6    44       P1 10747  0.39
      L1  H    12    38       P1  7948  0.40

> <Gold.PLP.Chemscore.Internal.Correction>
0.1199

> <Gold.Rescore>
     Score         DG    S(hbond)    S(metal)    S(lipo)     H(rot)  DE(clash)    DE(int)     intcor
     17.20     -17.75       1.91        0.00      89.33       1.78       0.12       0.43       ----

> <Gold.Chemscore.Fitness>
17.2038

> <Gold.Chemscore.DG>
-17.7488

> <Gold.Chemscore.ZeroCoef>
-5.4800

> <Gold.Chemscore.Hbond>
1.9052

> <Gold.Chemscore.Metal>
0.0000

> <Gold.Chemscore.Lipo>
89.3291

> <Gold.Chemscore.Internal_Hbond>
0.0000

> <Gold.Chemscore.DEClash>
0.1172

> <Gold.Chemscore.DEInternal>
0.4278

> <Gold.Chemscore.Rot>
1.7759

> <Gold.Chemscore.Internal.Correction>
   9.000000E+99

> <Gold.Chemscore.Hbonds>
donor molecule, donor type, donor heavy atom, donor atom, acceptor molecule, acceptor atom, score
      L1  H     6    44       P1 10747  0.39

> <Gold.Chemscore.Hbond.Weighted>
-6.3634

> <Gold.Chemscore.Metal.Weighted>
-0.0000

> <Gold.Chemscore.Lipo.Weighted>
-10.4515

> <Gold.Chemscore.Internal_Hbond.Weighted>
0.0000

> <Gold.Chemscore.DEClash.Weighted>
0.1172

> <Gold.Chemscore.DEInternal.Weighted>
0.4278

> <Gold.Chemscore.Rot.Weighted>
4.5462

> <Gold.Chemscore.Internal.Correction.Weighted>
   9.000000E+99

> <Gold.Protein.RotatedTorsions>
[ 6907 6896 6895 6894 ] final  -78.12 input  -60.11 | X-H torsion
[ 7974 7965 7964 7962 ] final  135.58 input  175.53 | X-H torsion
[ 8008 7997 7996 7995 ] final   57.73 input   59.86 | X-H torsion
[ 10167 10162 10161 10158 ] final   31.57 input  -65.29 | X-H torsion
[ 10718 10713 10712 10709 ] final  -22.59 input   66.30 | X-H torsion
[ 10763 10752 10751 10750 ] final    9.40 input  -60.55 | X-H torsion
[ 11005 11000 10999 10996 ] final   41.67 input  -57.11 | X-H torsion

> <Gold.Protein.ActiveResidues>
 VAL166  LYS551  ARG553  GLY616  TRP617  ASP618  TYR619  PRO620  LYS621  CYS622 
 ASP623  PHE694  ASN695  SER759  ASP760  ASP761  ALA762  ILE779  LEU786  VAL792 
 PHE793  MET794  SER795  GLU796  ALA797  LYS798  CYS799  TRP800  GLU811  SER814 

> <Gold.Protein.RotatedAtoms>
  150.6981  134.4320  159.5252 H   0  0  0  0  0  0  0  0  0  0  0  0  # atno 6907 bound_to 6896
  152.2045  134.8555  160.0513 H   0  0  0  0  0  0  0  0  0  0  0  0  # atno 6908 bound_to 6896
  151.9462  133.3617  159.4020 H   0  0  0  0  0  0  0  0  0  0  0  0  # atno 6909 bound_to 6896
  144.9649  139.4669  143.5461 H   0  0  0  0  0  0  0  0  0  0  0  0  # atno 7974 bound_to 7965
  155.5386  140.3484  155.4442 H   0  0  0  0  0  0  0  0  0  0  0  0  # atno 8008 bound_to 7997
  156.0667  140.1353  156.9903 H   0  0  0  0  0  0  0  0  0  0  0  0  # atno 8009 bound_to 7997
  154.4507  140.0974  156.6583 H   0  0  0  0  0  0  0  0  0  0  0  0  # atno 8010 bound_to 7997
  140.4577  144.0954  150.6205 H   0  0  0  0  0  0  0  0  0  0  0  0  # atno 10167 bound_to 10162
  156.5025  130.4591  149.6693 H   0  0  0  0  0  0  0  0  0  0  0  0  # atno 10718 bound_to 10713
  153.2145  135.6873  153.8074 H   0  0  0  0  0  0  0  0  0  0  0  0  # atno 10763 bound_to 10752
  153.7295  135.3255  155.3284 H   0  0  0  0  0  0  0  0  0  0  0  0  # atno 10764 bound_to 10752
  154.8239  135.4632  154.0966 H   0  0  0  0  0  0  0  0  0  0  0  0  # atno 10765 bound_to 10752
  140.1812  134.4102  155.8199 H   0  0  0  0  0  0  0  0  0  0  0  0  # atno 11005 bound_to 11000
  146.3365  139.8823  142.8822 LP  0  0  0  0  0  0  0  0  0  0  0  0  # atno 17320 bound_to 7965
  145.2644  141.0088  143.3808 LP  0  0  0  0  0  0  0  0  0  0  0  0  # atno 17321 bound_to 7965
  140.4131  143.2647  151.9808 LP  0  0  0  0  0  0  0  0  0  0  0  0  # atno 17342 bound_to 10162
  139.4803  144.5897  151.7792 LP  0  0  0  0  0  0  0  0  0  0  0  0  # atno 17343 bound_to 10162
  156.3319  130.7336  151.2267 LP  0  0  0  0  0  0  0  0  0  0  0  0  # atno 17370 bound_to 10713
  157.7461  131.0427  150.4709 LP  0  0  0  0  0  0  0  0  0  0  0  0  # atno 17371 bound_to 10713
  141.2223  133.7001  156.7933 LP  0  0  0  0  0  0  0  0  0  0  0  0  # atno 17394 bound_to 11000
  140.2265  134.8717  157.3432 LP  0  0  0  0  0  0  0  0  0  0  0  0  # atno 17395 bound_to 11000

$$$$
