AV-unprocessed.smi:3165|AV-procd|sdf|12089|dock8
  -GOLD-   2272017523D 1   1.00000     0.00000
 Structure written by MMmdl.
 37 38  0  0  0  0  0  0  0  0  1 V2000
  147.9423  141.9968  154.1085 C   0  0  0  0  0  0  0  0  0  0  0  0
  149.1503  141.5058  154.9220 C   0  0  2  0  0  0  0  0  0  0  0  0
  149.2062  139.9598  155.0193 C   0  0  0  0  0  0  0  0  0  0  0  0
  150.5511  139.4105  154.9467 N   0  0  0  0  0  0  0  0  0  0  0  0
  150.9340  138.0980  154.7635 C   0  0  0  0  0  0  0  0  0  0  0  0
  152.2990  138.0684  154.7577 C   0  0  0  0  0  0  0  0  0  0  0  0
  152.6669  139.4303  154.9416 C   0  0  0  0  0  0  0  0  0  0  0  0
  151.6196  140.2310  155.0481 N   0  0  0  0  0  0  0  0  0  0  0  0
  149.1550  142.1679  156.2315 N   0  0  0  0  0  0  0  0  0  0  0  0
  150.1552  141.6862  157.1834 C   0  0  0  0  0  0  0  0  0  0  0  0
  151.0773  142.8262  157.6377 C   0  0  2  0  0  0  0  0  0  0  0  0
  152.1957  142.3138  158.5660 C   0  0  0  0  0  0  0  0  0  0  0  0
  153.0457  143.4794  159.0842 C   0  0  0  0  0  0  0  0  0  0  0  0
  152.1388  144.5372  159.7218 C   0  0  0  0  0  0  0  0  0  0  0  0
  151.0161  144.9335  158.7501 C   0  0  0  0  0  0  0  0  0  0  0  0
  150.2887  143.7752  158.3540 O   0  0  0  0  0  0  0  0  0  0  0  0
  147.9112  141.5222  153.1274 H   0  0  0  0  0  0  0  0  0  0  0  0
  147.9905  143.0743  153.9492 H   0  0  0  0  0  0  0  0  0  0  0  0
  147.0002  141.7816  154.6134 H   0  0  0  0  0  0  0  0  0  0  0  0
  150.0420  141.8224  154.3797 H   0  0  0  0  0  0  0  0  0  0  0  0
  148.7733  139.6467  155.9700 H   0  0  0  0  0  0  0  0  0  0  0  0
  148.5891  139.4878  154.2546 H   0  0  0  0  0  0  0  0  0  0  0  0
  150.2102  137.3035  154.6566 H   0  0  0  0  0  0  0  0  0  0  0  0
  152.9374  137.2057  154.6398 H   0  0  0  0  0  0  0  0  0  0  0  0
  153.6569  139.8585  154.9974 H   0  0  0  0  0  0  0  0  0  0  0  0
  149.2552  143.1703  156.1087 H   0  0  0  0  0  0  0  0  0  0  0  0
  149.6852  141.2335  158.0560 H   0  0  0  0  0  0  0  0  0  0  0  0
  150.7554  140.9088  156.7093 H   0  0  0  0  0  0  0  0  0  0  0  0
  151.5240  143.3022  156.7625 H   0  0  0  0  0  0  0  0  0  0  0  0
  151.7561  141.7806  159.4102 H   0  0  0  0  0  0  0  0  0  0  0  0
  152.8277  141.5981  158.0395 H   0  0  0  0  0  0  0  0  0  0  0  0
  153.7811  143.1237  159.8063 H   0  0  0  0  0  0  0  0  0  0  0  0
  153.6039  143.9227  158.2584 H   0  0  0  0  0  0  0  0  0  0  0  0
  151.7020  144.1409  160.6391 H   0  0  0  0  0  0  0  0  0  0  0  0
  152.7214  145.4140  160.0052 H   0  0  0  0  0  0  0  0  0  0  0  0
  150.3314  145.6304  159.2335 H   0  0  0  0  0  0  0  0  0  0  0  0
  151.4195  145.4410  157.8726 H   0  0  0  0  0  0  0  0  0  0  0  0
  1  2  1  0  0  0  0
  1 17  1  0  0  0  0
  1 18  1  0  0  0  0
  1 19  1  0  0  0  0
  2  3  1  0  0  0  0
  2  9  1  0  0  0  0
  2 20  1  0  0  0  0
  3  4  1  0  0  0  0
  3 21  1  0  0  0  0
  3 22  1  0  0  0  0
  4  8  1  0  0  0  0
  4  5  1  0  0  0  0
  5  6  2  0  0  0  0
  5 23  1  0  0  0  0
  6  7  1  0  0  0  0
  6 24  1  0  0  0  0
  7  8  2  0  0  0  0
  7 25  1  0  0  0  0
  9 10  1  0  0  0  0
  9 26  1  0  0  0  0
 10 11  1  0  0  0  0
 10 27  1  0  0  0  0
 10 28  1  0  0  0  0
 11 16  1  0  0  0  0
 11 12  1  0  0  0  0
 11 29  1  0  0  0  0
 12 13  1  0  0  0  0
 12 30  1  0  0  0  0
 12 31  1  0  0  0  0
 13 14  1  0  0  0  0
 13 32  1  0  0  0  0
 13 33  1  0  0  0  0
 14 15  1  0  0  0  0
 14 34  1  0  0  0  0
 14 35  1  0  0  0  0
 15 16  1  0  0  0  0
 15 36  1  0  0  0  0
 15 37  1  0  0  0  0
M  END
> <s_m_source_file>
AV-unprocessed.smi

> <i_m_source_file_index>
3165

> <i_lp_mmshare_version>
43012

> <i_f3d_flags>
0

> <s_epik_input>
bjFbY0hdW2NIXVtjSF1uMVtDSDJdW0NAQEhdKFtDSDNdKVtOSF1bQ0gyXVtDQEBIXTJbQ0gyXVtDSDJdW0NIMl1bQ0gyXU8y

> <s_epik_cmdline>
J2VwaWtfcHl0aG9uJywgJy1waCcsICc3LjAnLCAnLXRuJywgJzgnLCAnLW1hJywgJzIwMCcsICctbWV0YWxfYmluZGluZycsICctaW1hZScsICc8aW5maWxlLm1hZT4nLCAnLW9tYWUnLCAnPG91dGZpbGUubWFlPic=

> <r_lp_tautomer_probability>
1

> <r_epik_Ionization_Penalty>
2.51982

> <r_epik_Ionization_Penalty_Charging>
0

> <r_epik_Ionization_Penalty_Neutral>
2.51982

> <r_epik_State_Penalty>
2.68614

> <r_epik_Charging_Adjusted_Penalty>
2.68614

> <i_epik_Tot_Q>
0

> <i_epik_Tot_abs_Q>
0

> <r_epik_Metal_State_Penalty>
2.6861

> <b_epik_Metal_Only>
0

> <s_lp_Force_Field>
OPLS_2005

> <r_lp_Energy>
14.3424

> <b_lp_Chiralities_Consistent>
1

> <s_lp_Variant>
AV-unprocessed.smi:3165-5

> <Gold.Version>
5.8.1

> <Gold.Id.Protein>
6NUR|6NUR_protein|mol2

> <Gold.PLP.Fitness>
42.8542

> <Gold.PLP.PLP>
-38.9433

> <Gold.PLP.part.hbond>
-2.0000

> <Gold.PLP.part.metal>
0.0000

> <Gold.PLP.part.buried>
-2.7672

> <Gold.PLP.part.nonpolar>
-35.1447

> <Gold.PLP.part.repulsive>
0.2859

> <Gold.PLP.ligand.clash>
0.0000

> <Gold.PLP.ligand.torsion>
1.0570

> <Gold.PLP.Chemscore.Hbond>
2.0000

> <Gold.PLP.Chemscore.CHOScore>
0.0000

> <Gold.PLP.Chemscore.Metal>
0.0000

> <Gold.Chemscore.Hbonds>
donor molecule, donor type, donor heavy atom, donor atom, acceptor molecule, acceptor atom, score
      L1  H     9    26       P1  8028  1.00
      P1  H  7989  7998       L1     8  0.86

> <Gold.PLP.Chemscore.Internal.Correction>
0.0249

> <Gold.Rescore>
     Score         DG    S(hbond)    S(metal)    S(lipo)     H(rot)  DE(clash)    DE(int)     intcor
     18.45     -19.57       1.87        0.00     101.34       1.57       0.05       1.07       ----

> <Gold.Chemscore.Fitness>
18.4496

> <Gold.Chemscore.DG>
-19.5718

> <Gold.Chemscore.ZeroCoef>
-5.4800

> <Gold.Chemscore.Hbond>
1.8748

> <Gold.Chemscore.Metal>
0.0000

> <Gold.Chemscore.Lipo>
101.3425

> <Gold.Chemscore.Internal_Hbond>
0.0000

> <Gold.Chemscore.DEClash>
0.0529

> <Gold.Chemscore.DEInternal>
1.0693

> <Gold.Chemscore.Rot>
1.5731

> <Gold.Chemscore.Internal.Correction>
   9.000000E+99

> <Gold.Chemscore.Hbonds>
donor molecule, donor type, donor heavy atom, donor atom, acceptor molecule, acceptor atom, score
      L1  H     9    26       P1  8028  0.99
      P1  H  7989  7998       L1     8  0.05

> <Gold.Chemscore.Hbond.Weighted>
-6.2619

> <Gold.Chemscore.Metal.Weighted>
-0.0000

> <Gold.Chemscore.Lipo.Weighted>
-11.8571

> <Gold.Chemscore.Internal_Hbond.Weighted>
0.0000

> <Gold.Chemscore.DEClash.Weighted>
0.0529

> <Gold.Chemscore.DEInternal.Weighted>
1.0693

> <Gold.Chemscore.Rot.Weighted>
4.0273

> <Gold.Chemscore.Internal.Correction.Weighted>
   9.000000E+99

> <Gold.Protein.RotatedTorsions>
[ 6907 6896 6895 6894 ] final  -11.47 input  -60.11 | X-H torsion
[ 7974 7965 7964 7962 ] final  -11.17 input  175.53 | X-H torsion
[ 8008 7997 7996 7995 ] final  171.04 input   59.86 | X-H torsion
[ 10167 10162 10161 10158 ] final   73.65 input  -65.29 | X-H torsion
[ 10718 10713 10712 10709 ] final   28.93 input   66.30 | X-H torsion
[ 10763 10752 10751 10750 ] final    8.70 input  -60.55 | X-H torsion
[ 11005 11000 10999 10996 ] final  -94.83 input  -57.11 | X-H torsion

> <Gold.Protein.ActiveResidues>
 VAL166  LYS551  ARG553  GLY616  TRP617  ASP618  TYR619  PRO620  LYS621  CYS622 
 ASP623  PHE694  ASN695  SER759  ASP760  ASP761  ALA762  ILE779  LEU786  VAL792 
 PHE793  MET794  SER795  GLU796  ALA797  LYS798  CYS799  TRP800  GLU811  SER814 

> <Gold.Protein.RotatedAtoms>
  151.3857  135.0947  159.9509 H   0  0  0  0  0  0  0  0  0  0  0  0  # atno 6907 bound_to 6896
  152.5095  133.9029  159.7460 H   0  0  0  0  0  0  0  0  0  0  0  0  # atno 6908 bound_to 6896
  150.9471  133.6535  159.2808 H   0  0  0  0  0  0  0  0  0  0  0  0  # atno 6909 bound_to 6896
  146.2196  140.2872  142.8366 H   0  0  0  0  0  0  0  0  0  0  0  0  # atno 7974 bound_to 7965
  156.1309  140.1522  156.9067 H   0  0  0  0  0  0  0  0  0  0  0  0  # atno 8008 bound_to 7997
  154.4908  140.0852  156.7630 H   0  0  0  0  0  0  0  0  0  0  0  0  # atno 8009 bound_to 7997
  155.4257  140.3425  155.4277 H   0  0  0  0  0  0  0  0  0  0  0  0  # atno 8010 bound_to 7997
  140.0221  144.5532  150.7573 H   0  0  0  0  0  0  0  0  0  0  0  0  # atno 10167 bound_to 10162
  157.2399  130.7064  149.6353 H   0  0  0  0  0  0  0  0  0  0  0  0  # atno 10718 bound_to 10713
  153.2221  135.6882  153.7987 H   0  0  0  0  0  0  0  0  0  0  0  0  # atno 10763 bound_to 10752
  153.7182  135.3271  155.3262 H   0  0  0  0  0  0  0  0  0  0  0  0  # atno 10764 bound_to 10752
  154.8274  135.4607  154.1073 H   0  0  0  0  0  0  0  0  0  0  0  0  # atno 10765 bound_to 10752
  141.1459  133.7983  157.0352 H   0  0  0  0  0  0  0  0  0  0  0  0  # atno 11005 bound_to 11000
  144.9153  140.7805  143.5782 LP  0  0  0  0  0  0  0  0  0  0  0  0  # atno 17320 bound_to 7965
  145.2805  139.1920  143.4793 LP  0  0  0  0  0  0  0  0  0  0  0  0  # atno 17321 bound_to 7965
  140.7338  143.2721  151.3856 LP  0  0  0  0  0  0  0  0  0  0  0  0  # atno 17342 bound_to 10162
  139.6132  144.1055  152.2320 LP  0  0  0  0  0  0  0  0  0  0  0  0  # atno 17343 bound_to 10162
  155.9670  130.4461  150.5529 LP  0  0  0  0  0  0  0  0  0  0  0  0  # atno 17370 bound_to 10713
  157.3389  131.0713  151.1803 LP  0  0  0  0  0  0  0  0  0  0  0  0  # atno 17371 bound_to 10713
  140.0728  134.9692  157.1496 LP  0  0  0  0  0  0  0  0  0  0  0  0  # atno 17394 bound_to 11000
  140.3686  134.2415  155.7180 LP  0  0  0  0  0  0  0  0  0  0  0  0  # atno 17395 bound_to 11000

$$$$
