AV-unprocessed.smi:1410|AV-procd|sdf|5732|dock10
  -GOLD-   22720 5363D 1   1.00000     0.00000
 Structure written by MMmdl.
 40 41  0  0  0  0  0  0  0  0  2 V2000
  142.1527  132.1366  148.0814 N   0  0  0  0  0  0  0  0  0  0  0  0
  143.3299  132.6776  148.4048 C   0  0  0  0  0  0  0  0  0  0  0  0
  143.9703  133.3744  147.6202 O   0  0  0  0  0  0  0  0  0  0  0  0
  143.8641  132.4025  149.8157 C   0  0  0  0  0  0  0  0  0  0  0  0
  144.7702  133.4479  150.3442 N   0  0  0  0  0  0  0  0  0  0  0  0
  145.3067  133.0111  151.6373 C   0  0  0  0  0  0  0  0  0  0  0  0
  146.3563  134.0101  152.1541 C   0  0  0  0  0  0  0  0  0  0  0  0
  145.7568  135.4155  152.2984 C   0  0  0  0  0  0  0  0  0  0  0  0
  146.7988  136.3632  152.6824 N   0  0  0  0  0  0  0  0  0  0  0  0
  146.5889  137.6384  153.0391 C   0  0  0  0  0  0  0  0  0  0  0  0
  145.4743  138.1594  153.0727 O   0  0  0  0  0  0  0  0  0  0  0  0
  147.7458  138.2594  153.3282 N   0  0  0  0  0  0  0  0  0  0  0  0
  147.9504  139.5986  153.7595 C   0  0  0  0  0  0  0  0  0  0  0  0
  146.9065  140.5236  153.5346 C   0  0  0  0  0  0  0  0  0  0  0  0
  147.0692  141.8670  153.9301 C   0  0  0  0  0  0  0  0  0  0  0  0
  148.2224  142.2618  154.5110 N   0  3  0  0  0  0  0  0  0  0  0  0
  149.2533  141.4186  154.7340 C   0  0  0  0  0  0  0  0  0  0  0  0
  149.1488  140.0633  154.3599 C   0  0  0  0  0  0  0  0  0  0  0  0
  145.1087  135.8195  150.9640 C   0  0  0  0  0  0  0  0  0  0  0  0
  144.1082  134.7536  150.4830 C   0  0  0  0  0  0  0  0  0  0  0  0
  141.7649  132.2958  147.1629 H   0  0  0  0  0  0  0  0  0  0  0  0
  141.6533  131.5735  148.7544 H   0  0  0  0  0  0  0  0  0  0  0  0
  143.0299  132.2564  150.5050 H   0  0  0  0  0  0  0  0  0  0  0  0
  144.3973  131.4517  149.7718 H   0  0  0  0  0  0  0  0  0  0  0  0
  144.5010  132.8985  152.3654 H   0  0  0  0  0  0  0  0  0  0  0  0
  145.7768  132.0323  151.5313 H   0  0  0  0  0  0  0  0  0  0  0  0
  146.7465  133.6698  153.1141 H   0  0  0  0  0  0  0  0  0  0  0  0
  147.2032  134.0327  151.4660 H   0  0  0  0  0  0  0  0  0  0  0  0
  144.9904  135.3849  153.0753 H   0  0  0  0  0  0  0  0  0  0  0  0
  147.7478  136.0186  152.6753 H   0  0  0  0  0  0  0  0  0  0  0  0
  148.5858  137.7217  153.1718 H   0  0  0  0  0  0  0  0  0  0  0  0
  145.9841  140.2086  153.0680 H   0  0  0  0  0  0  0  0  0  0  0  0
  146.3179  142.6318  153.7981 H   0  0  0  0  0  0  0  0  0  0  0  0
  150.1284  141.8511  155.1967 H   0  0  0  0  0  0  0  0  0  0  0  0
  149.9933  139.4132  154.5298 H   0  0  0  0  0  0  0  0  0  0  0  0
  144.5984  136.7777  151.0681 H   0  0  0  0  0  0  0  0  0  0  0  0
  145.8781  135.9612  150.2032 H   0  0  0  0  0  0  0  0  0  0  0  0
  143.6964  135.0862  149.5302 H   0  0  0  0  0  0  0  0  0  0  0  0
  143.2710  134.6789  151.1793 H   0  0  0  0  0  0  0  0  0  0  0  0
  148.3208  143.2387  154.7889 H   0  0  0  0  0  0  0  0  0  0  0  0
  1  2  1  0  0  0  0
  1 21  1  0  0  0  0
  1 22  1  0  0  0  0
  2  3  2  0  0  0  0
  2  4  1  0  0  0  0
  4  5  1  0  0  0  0
  4 23  1  0  0  0  0
  4 24  1  0  0  0  0
  5 20  1  0  0  0  0
  5  6  1  0  0  0  0
  6  7  1  0  0  0  0
  6 25  1  0  0  0  0
  6 26  1  0  0  0  0
  7  8  1  0  0  0  0
  7 27  1  0  0  0  0
  7 28  1  0  0  0  0
  8  9  1  0  0  0  0
  8 19  1  0  0  0  0
  8 29  1  0  0  0  0
  9 10  1  0  0  0  0
  9 30  1  0  0  0  0
 10 11  2  0  0  0  0
 10 12  1  0  0  0  0
 12 13  1  0  0  0  0
 12 31  1  0  0  0  0
 13 18  1  0  0  0  0
 13 14  2  0  0  0  0
 14 15  1  0  0  0  0
 14 32  1  0  0  0  0
 15 16  2  0  0  0  0
 15 33  1  0  0  0  0
 16 17  1  0  0  0  0
 16 40  1  0  0  0  0
 17 18  2  0  0  0  0
 17 34  1  0  0  0  0
 18 35  1  0  0  0  0
 19 20  1  0  0  0  0
 19 36  1  0  0  0  0
 19 37  1  0  0  0  0
 20 38  1  0  0  0  0
 20 39  1  0  0  0  0
M  CHG  1  16   1
M  END
> <s_m_source_file>
AV-unprocessed.smi

> <i_m_source_file_index>
1410

> <i_lp_mmshare_version>
43012

> <i_f3d_flags>
0

> <s_epik_input>
W05IMl1DKD1PKVtDSDJdTjFbQ0gyXVtDSDJdW0NIXShbQ0gyXVtDSDJdMSlbTkhdQyg9TylbTkhdYzJbY0hdW2NIXW5bY0hdW2NIXTI=

> <s_epik_cmdline>
J2VwaWtfcHl0aG9uJywgJy1waCcsICc3LjAnLCAnLXRuJywgJzgnLCAnLW1hJywgJzIwMCcsICctbWV0YWxfYmluZGluZycsICctaW1hZScsICc8aW5maWxlLm1hZT4nLCAnLW9tYWUnLCAnPG91dGZpbGUubWFlPic=

> <r_epik_Ionization_Penalty>
1.15133

> <r_epik_Ionization_Penalty_Charging>
0.995513

> <r_epik_Ionization_Penalty_Neutral>
0.155816

> <r_epik_State_Penalty>
1.22158

> <r_epik_Charging_Adjusted_Penalty>
2.2171

> <i_epik_Tot_Q>
1

> <i_epik_Tot_abs_Q>
1

> <r_epik_Metal_State_Penalty>
1.3359

> <b_epik_Metal_Only>
0

> <s_lp_Force_Field>
OPLS_2005

> <r_lp_Energy>
21.9587

> <b_lp_Chiralities_Consistent>
1

> <s_lp_Variant>
AV-unprocessed.smi:1410-4

> <Gold.Version>
5.8.1

> <Gold.Id.Protein>
6NUR|6NUR_protein|mol2

> <Gold.PLP.Fitness>
51.7554

> <Gold.PLP.PLP>
-34.8059

> <Gold.PLP.part.hbond>
-6.2398

> <Gold.PLP.part.metal>
0.0000

> <Gold.PLP.part.buried>
-4.4773

> <Gold.PLP.part.nonpolar>
-31.1719

> <Gold.PLP.part.repulsive>
6.0968

> <Gold.PLP.ligand.clash>
0.0000

> <Gold.PLP.ligand.torsion>
0.5012

> <Gold.PLP.Chemscore.Hbond>
5.9819

> <Gold.PLP.Chemscore.CHOScore>
0.0000

> <Gold.PLP.Chemscore.Metal>
0.0000

> <Gold.Chemscore.Hbonds>
donor molecule, donor type, donor heavy atom, donor atom, acceptor molecule, acceptor atom, score
      L1  H     1    21       P1 10195  1.00
      L1  H     1    22       P1 10952  1.00
      L1  H     9    30       P1  7948  0.61
      L1  H    12    31       P1  7948  0.62
      L1  H    16    40       P1  8028  2.00
      P1  H  7918  7932       L1     3  0.72

> <Gold.PLP.Chemscore.Internal.Correction>
0.0062

> <Gold.Rescore>
     Score         DG    S(hbond)    S(metal)    S(lipo)     H(rot)  DE(clash)    DE(int)     intcor
     20.50     -25.21       4.95        0.00      70.32       1.96       2.83       1.88       ----

> <Gold.Chemscore.Fitness>
20.5001

> <Gold.Chemscore.DG>
-25.2090

> <Gold.Chemscore.ZeroCoef>
-5.4800

> <Gold.Chemscore.Hbond>
4.9496

> <Gold.Chemscore.Metal>
0.0000

> <Gold.Chemscore.Lipo>
70.3201

> <Gold.Chemscore.Internal_Hbond>
0.0000

> <Gold.Chemscore.DEClash>
2.8276

> <Gold.Chemscore.DEInternal>
1.8813

> <Gold.Chemscore.Rot>
1.9650

> <Gold.Chemscore.Internal.Correction>
   9.000000E+99

> <Gold.Chemscore.Hbonds>
donor molecule, donor type, donor heavy atom, donor atom, acceptor molecule, acceptor atom, score
      L1  H     1    21       P1 10195  0.94
      L1  H     1    22       P1 10952  1.00
      L1  H     9    30       P1  7948  0.61
      L1  H    12    31       P1  7948  0.60
      L1  H    16    40       P1  8028  0.99
      P1  H  7918  7932       L1     3  0.71

> <Gold.Chemscore.Hbond.Weighted>
-16.5318

> <Gold.Chemscore.Metal.Weighted>
-0.0000

> <Gold.Chemscore.Lipo.Weighted>
-8.2274

> <Gold.Chemscore.Internal_Hbond.Weighted>
0.0000

> <Gold.Chemscore.DEClash.Weighted>
2.8276

> <Gold.Chemscore.DEInternal.Weighted>
1.8813

> <Gold.Chemscore.Rot.Weighted>
5.0303

> <Gold.Chemscore.Internal.Correction.Weighted>
   9.000000E+99

> <Gold.Protein.RotatedTorsions>
[ 6907 6896 6895 6894 ] final  121.37 input  -60.11 | X-H torsion
[ 7974 7965 7964 7962 ] final   20.27 input  175.53 | X-H torsion
[ 8008 7997 7996 7995 ] final  144.44 input   59.86 | X-H torsion
[ 10167 10162 10161 10158 ] final  163.31 input  -65.29 | X-H torsion
[ 10718 10713 10712 10709 ] final   82.42 input   66.30 | X-H torsion
[ 10763 10752 10751 10750 ] final -109.98 input  -60.55 | X-H torsion
[ 11005 11000 10999 10996 ] final  -69.53 input  -57.11 | X-H torsion

> <Gold.Protein.ActiveResidues>
 VAL166  LYS551  ARG553  GLY616  TRP617  ASP618  TYR619  PRO620  LYS621  CYS622 
 ASP623  PHE694  ASN695  SER759  ASP760  ASP761  ALA762  ILE779  LEU786  VAL792 
 PHE793  MET794  SER795  GLU796  ALA797  LYS798  CYS799  TRP800  GLU811  SER814 

> <Gold.Protein.RotatedAtoms>
  152.4327  133.7305  159.6584 H   0  0  0  0  0  0  0  0  0  0  0  0  # atno 6907 bound_to 6896
  150.8207  133.8247  159.3146 H   0  0  0  0  0  0  0  0  0  0  0  0  # atno 6908 bound_to 6896
  151.5930  135.1054  160.0095 H   0  0  0  0  0  0  0  0  0  0  0  0  # atno 6909 bound_to 6896
  146.2117  139.8193  142.8683 H   0  0  0  0  0  0  0  0  0  0  0  0  # atno 7974 bound_to 7965
  156.2908  140.2236  156.5053 H   0  0  0  0  0  0  0  0  0  0  0  0  # atno 8008 bound_to 7997
  154.7655  140.0470  157.1030 H   0  0  0  0  0  0  0  0  0  0  0  0  # atno 8009 bound_to 7997
  154.9938  140.3093  155.4898 H   0  0  0  0  0  0  0  0  0  0  0  0  # atno 8010 bound_to 7997
  139.4872  144.4350  151.9023 H   0  0  0  0  0  0  0  0  0  0  0  0  # atno 10167 bound_to 10162
  157.6856  131.0047  150.2371 H   0  0  0  0  0  0  0  0  0  0  0  0  # atno 10718 bound_to 10713
  154.8223  135.4581  154.0815 H   0  0  0  0  0  0  0  0  0  0  0  0  # atno 10763 bound_to 10752
  153.2158  135.6888  153.8065 H   0  0  0  0  0  0  0  0  0  0  0  0  # atno 10764 bound_to 10752
  153.7500  135.3299  155.3296 H   0  0  0  0  0  0  0  0  0  0  0  0  # atno 10765 bound_to 10752
  141.1556  133.6766  156.6613 H   0  0  0  0  0  0  0  0  0  0  0  0  # atno 11005 bound_to 11000
  145.3113  141.0220  143.3553 LP  0  0  0  0  0  0  0  0  0  0  0  0  # atno 17320 bound_to 7965
  144.8934  139.4745  143.6667 LP  0  0  0  0  0  0  0  0  0  0  0  0  # atno 17321 bound_to 7965
  140.3799  144.2749  150.5910 LP  0  0  0  0  0  0  0  0  0  0  0  0  # atno 17342 bound_to 10162
  140.5243  143.2258  151.8340 LP  0  0  0  0  0  0  0  0  0  0  0  0  # atno 17343 bound_to 10162
  156.2993  130.3756  149.7766 LP  0  0  0  0  0  0  0  0  0  0  0  0  # atno 17370 bound_to 10713
  156.5401  130.8296  151.3266 LP  0  0  0  0  0  0  0  0  0  0  0  0  # atno 17371 bound_to 10713
  140.3245  134.7980  157.4278 LP  0  0  0  0  0  0  0  0  0  0  0  0  # atno 17394 bound_to 11000
  140.1068  134.5398  155.8302 LP  0  0  0  0  0  0  0  0  0  0  0  0  # atno 17395 bound_to 11000

$$$$
