AV-unprocessed.smi:867|AV-procd|sdf|4001|dock10
  -GOLD-   22720 1483D 1   1.00000     0.00000
 Structure written by MMmdl.
 54 57  0  0  0  0  0  0  0  0  3 V2000
  150.6396  136.6040  157.8768 O   0  0  0  0  0  0  0  0  0  0  0  0
  150.3507  137.4168  156.9976 C   0  0  0  0  0  0  0  0  0  0  0  0
  150.3053  138.7402  157.2306 N   0  0  0  0  0  0  0  0  0  0  0  0
  150.6268  139.4008  158.4934 C   0  0  0  0  0  0  0  0  0  0  0  0
  151.9693  140.1550  158.4399 C   0  0  0  0  0  0  0  0  0  0  0  0
  151.8191  141.6662  158.4206 C   0  0  0  0  0  0  0  0  0  0  0  0
  152.5410  142.4775  159.3246 C   0  0  0  0  0  0  0  0  0  0  0  0
  152.3951  143.8791  159.2638 C   0  0  0  0  0  0  0  0  0  0  0  0
  151.5289  144.4381  158.3019 C   0  0  0  0  0  0  0  0  0  0  0  0
  150.8521  143.6304  157.4564 N   0  3  0  0  0  0  0  0  0  0  0  0
  150.9638  142.2845  157.4828 C   0  0  0  0  0  0  0  0  0  0  0  0
  149.9913  137.0521  155.7415 N   0  0  0  0  0  0  0  0  0  0  0  0
  149.7792  135.6783  155.2677 C   0  0  0  0  0  0  0  0  0  0  0  0
  148.2656  135.4193  155.1512 C   0  0  0  0  0  0  0  0  0  0  0  0
  147.5986  136.4198  154.2681 N   0  3  0  0  0  0  0  0  0  0  0  0
  146.1263  136.2139  154.1498 C   0  0  1  0  0  0  0  0  0  0  0  0
  145.4264  137.1785  153.1613 C   0  0  0  0  0  0  0  0  0  0  0  0
  144.5815  136.2313  152.2881 C   0  0  1  0  0  0  0  0  0  0  0  0
  145.5119  135.5077  151.2999 C   0  0  0  0  0  0  0  0  0  0  0  0
  146.2873  134.5451  152.2164 C   0  0  0  0  0  0  0  0  0  0  0  0
  145.6854  134.8302  153.6099 C   0  0  2  0  0  0  0  0  0  0  0  0
  144.2279  135.1108  153.2590 C   0  0  0  0  0  0  0  0  0  0  0  0
  147.9473  137.8216  154.6399 C   0  0  0  0  0  0  0  0  0  0  0  0
  149.4689  138.0163  154.7709 C   0  0  0  0  0  0  0  0  0  0  0  0
  150.0353  139.3412  156.4652 H   0  0  0  0  0  0  0  0  0  0  0  0
  149.8223  140.0748  158.7929 H   0  0  0  0  0  0  0  0  0  0  0  0
  150.6770  138.6320  159.2646 H   0  0  0  0  0  0  0  0  0  0  0  0
  152.5736  139.8812  159.3055 H   0  0  0  0  0  0  0  0  0  0  0  0
  152.5361  139.8360  157.5642 H   0  0  0  0  0  0  0  0  0  0  0  0
  153.2058  142.0343  160.0518 H   0  0  0  0  0  0  0  0  0  0  0  0
  152.9412  144.5161  159.9441 H   0  0  0  0  0  0  0  0  0  0  0  0
  151.3581  145.4981  158.1840 H   0  0  0  0  0  0  0  0  0  0  0  0
  150.3775  141.7477  156.7512 H   0  0  0  0  0  0  0  0  0  0  0  0
  150.2527  135.5605  154.2918 H   0  0  0  0  0  0  0  0  0  0  0  0
  150.2328  134.9164  155.9015 H   0  0  0  0  0  0  0  0  0  0  0  0
  148.1176  134.4113  154.7655 H   0  0  0  0  0  0  0  0  0  0  0  0
  147.8080  135.4501  156.1413 H   0  0  0  0  0  0  0  0  0  0  0  0
  145.6903  136.3458  155.1421 H   0  0  0  0  0  0  0  0  0  0  0  0
  144.7944  137.8853  153.7004 H   0  0  0  0  0  0  0  0  0  0  0  0
  146.1213  137.7549  152.5495 H   0  0  0  0  0  0  0  0  0  0  0  0
  143.7297  136.7163  151.8101 H   0  0  0  0  0  0  0  0  0  0  0  0
  144.9357  134.9514  150.5593 H   0  0  0  0  0  0  0  0  0  0  0  0
  146.1683  136.1946  150.7643 H   0  0  0  0  0  0  0  0  0  0  0  0
  146.1019  133.5111  151.9226 H   0  0  0  0  0  0  0  0  0  0  0  0
  147.3641  134.7100  152.1738 H   0  0  0  0  0  0  0  0  0  0  0  0
  145.8191  134.0151  154.3218 H   0  0  0  0  0  0  0  0  0  0  0  0
  143.6315  135.4466  154.1092 H   0  0  0  0  0  0  0  0  0  0  0  0
  143.7263  134.2666  152.7823 H   0  0  0  0  0  0  0  0  0  0  0  0
  147.5639  138.5209  153.8974 H   0  0  0  0  0  0  0  0  0  0  0  0
  147.4643  138.0739  155.5854 H   0  0  0  0  0  0  0  0  0  0  0  0
  149.6926  139.0490  155.0428 H   0  0  0  0  0  0  0  0  0  0  0  0
  149.9522  137.8559  153.8060 H   0  0  0  0  0  0  0  0  0  0  0  0
  147.9804  136.2695  153.3450 H   0  0  0  0  0  0  0  0  0  0  0  0
  150.2319  144.0549  156.7665 H   0  0  0  0  0  0  0  0  0  0  0  0
  1  2  2  0  0  0  0
  2  3  1  0  0  0  0
  2 12  1  0  0  0  0
  3  4  1  0  0  0  0
  3 25  1  0  0  0  0
  4  5  1  0  0  0  0
  4 26  1  0  0  0  0
  4 27  1  0  0  0  0
  5  6  1  0  0  0  0
  5 28  1  0  0  0  0
  5 29  1  0  0  0  0
  6 11  1  0  0  0  0
  6  7  2  0  0  0  0
  7  8  1  0  0  0  0
  7 30  1  0  0  0  0
  8  9  2  0  0  0  0
  8 31  1  0  0  0  0
  9 10  1  0  0  0  0
  9 32  1  0  0  0  0
 10 11  2  0  0  0  0
 10 54  1  0  0  0  0
 11 33  1  0  0  0  0
 12 24  1  0  0  0  0
 12 13  1  0  0  0  0
 13 14  1  0  0  0  0
 13 34  1  0  0  0  0
 13 35  1  0  0  0  0
 14 15  1  0  0  0  0
 14 36  1  0  0  0  0
 14 37  1  0  0  0  0
 15 16  1  0  0  0  0
 15 23  1  0  0  0  0
 15 53  1  0  0  0  0
 16 21  1  0  0  0  0
 16 17  1  0  0  0  0
 16 38  1  0  0  0  0
 17 18  1  0  0  0  0
 17 39  1  0  0  0  0
 17 40  1  0  0  0  0
 18 22  1  0  0  0  0
 18 19  1  0  0  0  0
 18 41  1  0  0  0  0
 19 20  1  0  0  0  0
 19 42  1  0  0  0  0
 19 43  1  0  0  0  0
 20 21  1  0  0  0  0
 20 44  1  0  0  0  0
 20 45  1  0  0  0  0
 21 22  1  0  0  0  0
 21 46  1  0  0  0  0
 22 47  1  0  0  0  0
 22 48  1  0  0  0  0
 23 24  1  0  0  0  0
 23 49  1  0  0  0  0
 23 50  1  0  0  0  0
 24 51  1  0  0  0  0
 24 52  1  0  0  0  0
M  CHG  1  10   1
M  CHG  1  15   1
M  END
> <s_m_source_file>
AV-unprocessed.smi

> <i_m_source_file_index>
867

> <i_lp_mmshare_version>
43012

> <i_f3d_flags>
0

> <s_epik_input>
W0NIMl0xW0NIMl1bQ0BASF0oW0NIMl0yKVtDQEBIXShbQ0gyXVtDQEhdMTIpTihbQ0gyXVtDSDJdMylbQ0gyXVtDSDJdTjNDKD1PKVtOSF1bQ0gyXVtDSDJdYzRbY0hdW2NIXVtjSF1uW2NIXTQ=

> <s_epik_cmdline>
J2VwaWtfcHl0aG9uJywgJy1waCcsICc3LjAnLCAnLXRuJywgJzgnLCAnLW1hJywgJzIwMCcsICctbWV0YWxfYmluZGluZycsICctaW1hZScsICc8aW5maWxlLm1hZT4nLCAnLW9tYWUnLCAnPG91dGZpbGUubWFlPic=

> <r_epik_Ionization_Penalty>
2.25108

> <r_epik_Ionization_Penalty_Charging>
2.25105

> <r_epik_Ionization_Penalty_Neutral>
2.64641e-05

> <r_epik_State_Penalty>
2.39519

> <r_epik_Charging_Adjusted_Penalty>
4.64625

> <i_epik_Tot_Q>
2

> <i_epik_Tot_abs_Q>
2

> <r_epik_Metal_State_Penalty>
2.40865

> <b_epik_Metal_Only>
0

> <s_lp_Force_Field>
OPLS_2005

> <r_lp_Energy>
106.845

> <b_lp_Chiralities_Consistent>
1

> <s_lp_Variant>
AV-unprocessed.smi:867-8

> <Gold.Version>
5.8.1

> <Gold.Id.Protein>
6NUR|6NUR_protein|mol2

> <Gold.PLP.Fitness>
45.5428

> <Gold.PLP.PLP>
-36.4105

> <Gold.PLP.part.hbond>
-2.0000

> <Gold.PLP.part.metal>
0.0000

> <Gold.PLP.part.buried>
-4.6771

> <Gold.PLP.part.nonpolar>
-29.8527

> <Gold.PLP.part.repulsive>
0.0085

> <Gold.PLP.ligand.clash>
1.9096

> <Gold.PLP.ligand.torsion>
0.5343

> <Gold.PLP.Chemscore.Hbond>
4.0000

> <Gold.PLP.Chemscore.CHOScore>
0.0000

> <Gold.PLP.Chemscore.Metal>
0.0000

> <Gold.Chemscore.Hbonds>
donor molecule, donor type, donor heavy atom, donor atom, acceptor molecule, acceptor atom, score
      L1  H    10    54       P1  8028  2.00
      L1  H    15    53       P1  7948  2.00

> <Gold.PLP.Chemscore.Internal.Correction>
0.1104

> <Gold.Rescore>
     Score         DG    S(hbond)    S(metal)    S(lipo)     H(rot)  DE(clash)    DE(int)     intcor
     20.24     -20.84       1.97        0.00     106.93       1.46       0.06       0.55       ----

> <Gold.Chemscore.Fitness>
20.2353

> <Gold.Chemscore.DG>
-20.8401

> <Gold.Chemscore.ZeroCoef>
-5.4800

> <Gold.Chemscore.Hbond>
1.9700

> <Gold.Chemscore.Metal>
0.0000

> <Gold.Chemscore.Lipo>
106.9313

> <Gold.Chemscore.Internal_Hbond>
0.0000

> <Gold.Chemscore.DEClash>
0.0552

> <Gold.Chemscore.DEInternal>
0.5496

> <Gold.Chemscore.Rot>
1.4572

> <Gold.Chemscore.Internal.Correction>
   9.000000E+99

> <Gold.Chemscore.Hbonds>
donor molecule, donor type, donor heavy atom, donor atom, acceptor molecule, acceptor atom, score
      L1  H    10    54       P1  8028  0.99
      L1  H    15    53       P1  7948  1.00

> <Gold.Chemscore.Hbond.Weighted>
-6.5797

> <Gold.Chemscore.Metal.Weighted>
-0.0000

> <Gold.Chemscore.Lipo.Weighted>
-12.5110

> <Gold.Chemscore.Internal_Hbond.Weighted>
0.0000

> <Gold.Chemscore.DEClash.Weighted>
0.0552

> <Gold.Chemscore.DEInternal.Weighted>
0.5496

> <Gold.Chemscore.Rot.Weighted>
3.7305

> <Gold.Chemscore.Internal.Correction.Weighted>
   9.000000E+99

> <Gold.Protein.RotatedTorsions>
[ 6907 6896 6895 6894 ] final -134.46 input  -60.11 | X-H torsion
[ 7974 7965 7964 7962 ] final -120.95 input  175.53 | X-H torsion
[ 8008 7997 7996 7995 ] final -143.08 input   59.86 | X-H torsion
[ 10167 10162 10161 10158 ] final   42.19 input  -65.29 | X-H torsion
[ 10718 10713 10712 10709 ] final  173.60 input   66.30 | X-H torsion
[ 10763 10752 10751 10750 ] final  -70.64 input  -60.55 | X-H torsion
[ 11005 11000 10999 10996 ] final  119.53 input  -57.11 | X-H torsion

> <Gold.Protein.ActiveResidues>
 VAL166  LYS551  ARG553  GLY616  TRP617  ASP618  TYR619  PRO620  LYS621  CYS622 
 ASP623  PHE694  ASN695  SER759  ASP760  ASP761  ALA762  ILE779  LEU786  VAL792 
 PHE793  MET794  SER795  GLU796  ALA797  LYS798  CYS799  TRP800  GLU811  SER814 

> <Gold.Protein.RotatedAtoms>
  150.9861  133.6196  159.2715 H   0  0  0  0  0  0  0  0  0  0  0  0  # atno 6907 bound_to 6896
  151.3434  135.0867  159.9388 H   0  0  0  0  0  0  0  0  0  0  0  0  # atno 6908 bound_to 6896
  152.5231  133.9468  159.7707 H   0  0  0  0  0  0  0  0  0  0  0  0  # atno 6909 bound_to 6896
  145.0457  140.8180  143.4239 H   0  0  0  0  0  0  0  0  0  0  0  0  # atno 7974 bound_to 7965
  155.5048  140.0578  157.2933 H   0  0  0  0  0  0  0  0  0  0  0  0  # atno 8008 bound_to 7997
  154.4573  140.1979  156.0291 H   0  0  0  0  0  0  0  0  0  0  0  0  # atno 8009 bound_to 7997
  156.0824  140.3245  155.7715 H   0  0  0  0  0  0  0  0  0  0  0  0  # atno 8010 bound_to 7997
  140.3568  144.2280  150.6141 H   0  0  0  0  0  0  0  0  0  0  0  0  # atno 10167 bound_to 10162
  156.9618  131.0063  151.2925 H   0  0  0  0  0  0  0  0  0  0  0  0  # atno 10718 bound_to 10713
  154.4204  135.5988  153.6006 H   0  0  0  0  0  0  0  0  0  0  0  0  # atno 10763 bound_to 10752
  152.9793  135.5951  154.3961 H   0  0  0  0  0  0  0  0  0  0  0  0  # atno 10764 bound_to 10752
  154.3786  135.2841  155.2203 H   0  0  0  0  0  0  0  0  0  0  0  0  # atno 10765 bound_to 10752
  139.9150  134.9629  156.7669 H   0  0  0  0  0  0  0  0  0  0  0  0  # atno 11005 bound_to 11000
  145.1590  139.2469  143.5401 LP  0  0  0  0  0  0  0  0  0  0  0  0  # atno 17320 bound_to 7965
  146.3513  140.1313  142.8597 LP  0  0  0  0  0  0  0  0  0  0  0  0  # atno 17321 bound_to 7965
  140.5166  143.2276  151.8454 LP  0  0  0  0  0  0  0  0  0  0  0  0  # atno 17342 bound_to 10162
  139.4819  144.4887  151.9213 LP  0  0  0  0  0  0  0  0  0  0  0  0  # atno 17343 bound_to 10162
  157.5652  130.8273  149.8318 LP  0  0  0  0  0  0  0  0  0  0  0  0  # atno 17370 bound_to 10713
  156.0319  130.3762  150.1665 LP  0  0  0  0  0  0  0  0  0  0  0  0  # atno 17371 bound_to 10713
  140.6652  133.9609  155.7826 LP  0  0  0  0  0  0  0  0  0  0  0  0  # atno 17394 bound_to 11000
  141.0616  134.0338  157.3651 LP  0  0  0  0  0  0  0  0  0  0  0  0  # atno 17395 bound_to 11000

$$$$
