AV-unprocessed.smi:3178|AV-procd|sdf|12130|dock4
  -GOLD-   2272017573D 1   1.00000     0.00000
 Structure written by MMmdl.
 35 35  0  0  0  0  0  0  0  0  1 V2000
  151.5102  139.7895  155.6338 C   0  0  0  0  0  0  0  0  0  0  0  0
  150.6926  140.5036  154.7150 O   0  0  0  0  0  0  0  0  0  0  0  0
  149.2829  140.5567  154.9617 C   0  0  0  0  0  0  0  0  0  0  0  0
  148.6648  141.6741  154.0986 C   0  0  0  0  0  0  0  0  0  0  0  0
  148.5916  139.2034  154.6713 C   0  0  0  0  0  0  0  0  0  0  0  0
  149.1413  140.9376  156.4559 C   0  0  0  0  0  0  0  0  0  0  0  0
  149.9242  142.1227  156.7916 N   0  0  0  0  0  0  0  0  0  0  0  0
  150.8003  142.2141  157.8043 C   0  0  0  0  0  0  0  0  0  0  0  0
  151.1832  141.2485  158.4646 O   0  0  0  0  0  0  0  0  0  0  0  0
  151.2840  143.6218  158.1530 C   0  0  0  0  0  0  0  0  0  0  0  0
  151.6112  143.6945  159.6229 C   0  0  0  0  0  0  0  0  0  0  0  0
  152.5351  142.8939  160.3595 C   0  0  0  0  0  0  0  0  0  0  0  0
  152.4177  143.3365  161.6463 C   0  0  0  0  0  0  0  0  0  0  0  0
  153.0963  142.9002  162.9002 C   0  0  0  0  0  0  0  0  0  0  0  0
  151.4808  144.3437  161.6211 N   0  0  0  0  0  0  0  0  0  0  0  0
  150.9822  144.5723  160.3921 N   0  0  0  0  0  0  0  0  0  0  0  0
  151.1759  144.8755  162.4240 H   0  0  0  0  0  0  0  0  0  0  0  0
  152.5308  139.7681  155.2527 H   0  0  0  0  0  0  0  0  0  0  0  0
  151.1877  138.7572  155.7635 H   0  0  0  0  0  0  0  0  0  0  0  0
  151.5429  140.2774  156.6079 H   0  0  0  0  0  0  0  0  0  0  0  0
  147.6140  141.8254  154.3481 H   0  0  0  0  0  0  0  0  0  0  0  0
  148.7093  141.4450  153.0344 H   0  0  0  0  0  0  0  0  0  0  0  0
  149.1797  142.6227  154.2546 H   0  0  0  0  0  0  0  0  0  0  0  0
  147.5527  139.2174  155.0022 H   0  0  0  0  0  0  0  0  0  0  0  0
  149.0890  138.3768  155.1798 H   0  0  0  0  0  0  0  0  0  0  0  0
  148.5815  138.9729  153.6060 H   0  0  0  0  0  0  0  0  0  0  0  0
  148.0915  141.0800  156.7187 H   0  0  0  0  0  0  0  0  0  0  0  0
  149.5011  140.1209  157.0825 H   0  0  0  0  0  0  0  0  0  0  0  0
  149.6861  142.9733  156.3023 H   0  0  0  0  0  0  0  0  0  0  0  0
  152.1650  143.8642  157.5576 H   0  0  0  0  0  0  0  0  0  0  0  0
  150.5119  144.3430  157.8805 H   0  0  0  0  0  0  0  0  0  0  0  0
  153.1739  142.1022  159.9966 H   0  0  0  0  0  0  0  0  0  0  0  0
  154.1794  142.9600  162.7936 H   0  0  0  0  0  0  0  0  0  0  0  0
  152.8367  141.8685  163.1380 H   0  0  0  0  0  0  0  0  0  0  0  0
  152.8059  143.5239  163.7461 H   0  0  0  0  0  0  0  0  0  0  0  0
  1  2  1  0  0  0  0
  1 18  1  0  0  0  0
  1 19  1  0  0  0  0
  1 20  1  0  0  0  0
  2  3  1  0  0  0  0
  3  4  1  0  0  0  0
  3  5  1  0  0  0  0
  3  6  1  0  0  0  0
  4 21  1  0  0  0  0
  4 22  1  0  0  0  0
  4 23  1  0  0  0  0
  5 24  1  0  0  0  0
  5 25  1  0  0  0  0
  5 26  1  0  0  0  0
  6  7  1  0  0  0  0
  6 27  1  0  0  0  0
  6 28  1  0  0  0  0
  7  8  1  0  0  0  0
  7 29  1  0  0  0  0
  8  9  2  0  0  0  0
  8 10  1  0  0  0  0
 10 11  1  0  0  0  0
 10 30  1  0  0  0  0
 10 31  1  0  0  0  0
 11 16  2  0  0  0  0
 11 12  1  0  0  0  0
 12 13  2  0  0  0  0
 12 32  1  0  0  0  0
 13 14  1  0  0  0  0
 13 15  1  0  0  0  0
 14 33  1  0  0  0  0
 14 34  1  0  0  0  0
 14 35  1  0  0  0  0
 15 17  1  0  0  0  0
 15 16  1  0  0  0  0
M  END
> <s_m_source_file>
AV-unprocessed.smi

> <i_m_source_file_index>
3178

> <i_lp_mmshare_version>
43012

> <i_f3d_flags>
0

> <s_epik_input>
W0NIM11PQyhbQ0gzXSkoW0NIM10pW0NIMl1bTkhdQyg9TylbQ0gyXWMxW2NIXWMoW0NIM10pW25IXW4x

> <s_epik_cmdline>
J2VwaWtfcHl0aG9uJywgJy1waCcsICc3LjAnLCAnLXRuJywgJzgnLCAnLW1hJywgJzIwMCcsICctbWV0YWxfYmluZGluZycsICctaW1hZScsICc8aW5maWxlLm1hZT4nLCAnLW9tYWUnLCAnPG91dGZpbGUubWFlPic=

> <r_lp_tautomer_probability>
0.5

> <r_epik_Ionization_Penalty>
8.10473e-05

> <r_epik_Ionization_Penalty_Charging>
0

> <r_epik_Ionization_Penalty_Neutral>
8.10473e-05

> <r_epik_State_Penalty>
0.41068

> <r_epik_Charging_Adjusted_Penalty>
0.41068

> <i_epik_Tot_Q>
0

> <i_epik_Tot_abs_Q>
0

> <r_epik_Metal_State_Penalty>
0.410702

> <b_epik_Metal_Only>
0

> <s_lp_Force_Field>
OPLS_2005

> <r_lp_Energy>
5.73531

> <b_lp_Chiralities_Consistent>
1

> <s_lp_Variant>
AV-unprocessed.smi:3178-1

> <Gold.Version>
5.8.1

> <Gold.Id.Protein>
6NUR|6NUR_protein|mol2

> <Gold.PLP.Fitness>
41.0474

> <Gold.PLP.PLP>
-36.1886

> <Gold.PLP.part.hbond>
-3.1403

> <Gold.PLP.part.metal>
0.0000

> <Gold.PLP.part.buried>
-3.7675

> <Gold.PLP.part.nonpolar>
-29.2674

> <Gold.PLP.part.repulsive>
0.3434

> <Gold.PLP.ligand.clash>
0.0000

> <Gold.PLP.ligand.torsion>
0.5872

> <Gold.PLP.Chemscore.Hbond>
2.0000

> <Gold.PLP.Chemscore.CHOScore>
0.0000

> <Gold.PLP.Chemscore.Metal>
0.0000

> <Gold.Chemscore.Hbonds>
donor molecule, donor type, donor heavy atom, donor atom, acceptor molecule, acceptor atom, score
      L1  H     7    29       P1  8028  1.00
      P1  H  7989  7998       L1     2  1.00

> <Gold.PLP.Chemscore.Internal.Correction>
0.0332

> <Gold.Rescore>
     Score         DG    S(hbond)    S(metal)    S(lipo)     H(rot)  DE(clash)    DE(int)     intcor
     13.19     -16.10       1.58        0.00      87.12       1.89       0.27       2.64       ----

> <Gold.Chemscore.Fitness>
13.1915

> <Gold.Chemscore.DG>
-16.1027

> <Gold.Chemscore.ZeroCoef>
-5.4800

> <Gold.Chemscore.Hbond>
1.5753

> <Gold.Chemscore.Metal>
0.0000

> <Gold.Chemscore.Lipo>
87.1248

> <Gold.Chemscore.Internal_Hbond>
0.0000

> <Gold.Chemscore.DEClash>
0.2728

> <Gold.Chemscore.DEInternal>
2.6383

> <Gold.Chemscore.Rot>
1.8877

> <Gold.Chemscore.Internal.Correction>
   9.000000E+99

> <Gold.Chemscore.Hbonds>
donor molecule, donor type, donor heavy atom, donor atom, acceptor molecule, acceptor atom, score
      L1  H     7    29       P1  8028  0.93
      P1  H  7989  7998       L1     2  0.52

> <Gold.Chemscore.Hbond.Weighted>
-5.2616

> <Gold.Chemscore.Metal.Weighted>
-0.0000

> <Gold.Chemscore.Lipo.Weighted>
-10.1936

> <Gold.Chemscore.Internal_Hbond.Weighted>
0.0000

> <Gold.Chemscore.DEClash.Weighted>
0.2728

> <Gold.Chemscore.DEInternal.Weighted>
2.6383

> <Gold.Chemscore.Rot.Weighted>
4.8325

> <Gold.Chemscore.Internal.Correction.Weighted>
   9.000000E+99

> <Gold.Protein.RotatedTorsions>
[ 6907 6896 6895 6894 ] final -179.91 input  -60.11 | X-H torsion
[ 7974 7965 7964 7962 ] final -139.77 input  175.53 | X-H torsion
[ 8008 7997 7996 7995 ] final -164.19 input   59.86 | X-H torsion
[ 10167 10162 10161 10158 ] final   50.57 input  -65.29 | X-H torsion
[ 10718 10713 10712 10709 ] final  -50.26 input   66.30 | X-H torsion
[ 10763 10752 10751 10750 ] final -179.05 input  -60.55 | X-H torsion
[ 11005 11000 10999 10996 ] final -169.25 input  -57.11 | X-H torsion

> <Gold.Protein.ActiveResidues>
 VAL166  LYS551  ARG553  GLY616  TRP617  ASP618  TYR619  PRO620  LYS621  CYS622 
 ASP623  PHE694  ASN695  SER759  ASP760  ASP761  ALA762  ILE779  LEU786  VAL792 
 PHE793  MET794  SER795  GLU796  ALA797  LYS798  CYS799  TRP800  GLU811  SER814 

> <Gold.Protein.RotatedAtoms>
  151.6610  133.3317  159.3173 H   0  0  0  0  0  0  0  0  0  0  0  0  # atno 6907 bound_to 6896
  150.7913  134.6943  159.6524 H   0  0  0  0  0  0  0  0  0  0  0  0  # atno 6908 bound_to 6896
  152.3993  134.6316  160.0128 H   0  0  0  0  0  0  0  0  0  0  0  0  # atno 6909 bound_to 6896
  144.8650  140.6279  143.5303 H   0  0  0  0  0  0  0  0  0  0  0  0  # atno 7974 bound_to 7965
  155.8320  140.0935  157.1787 H   0  0  0  0  0  0  0  0  0  0  0  0  # atno 8008 bound_to 7997
  154.3980  140.1417  156.3686 H   0  0  0  0  0  0  0  0  0  0  0  0  # atno 8009 bound_to 7997
  155.8156  140.3448  155.5486 H   0  0  0  0  0  0  0  0  0  0  0  0  # atno 8010 bound_to 7997
  140.2710  144.3265  150.6290 H   0  0  0  0  0  0  0  0  0  0  0  0  # atno 10167 bound_to 10162
  156.1817  130.4150  149.9497 H   0  0  0  0  0  0  0  0  0  0  0  0  # atno 10718 bound_to 10713
  154.5400  135.2805  155.1104 H   0  0  0  0  0  0  0  0  0  0  0  0  # atno 10763 bound_to 10752
  154.2591  135.6325  153.5271 H   0  0  0  0  0  0  0  0  0  0  0  0  # atno 10764 bound_to 10752
  152.9976  135.5601  154.5936 H   0  0  0  0  0  0  0  0  0  0  0  0  # atno 10765 bound_to 10752
  140.5328  134.5599  157.5079 H   0  0  0  0  0  0  0  0  0  0  0  0  # atno 11005 bound_to 11000
  145.4238  139.1559  143.4059 LP  0  0  0  0  0  0  0  0  0  0  0  0  # atno 17320 bound_to 7965
  146.2889  140.4350  142.8747 LP  0  0  0  0  0  0  0  0  0  0  0  0  # atno 17321 bound_to 7965
  140.5889  143.2169  151.7290 LP  0  0  0  0  0  0  0  0  0  0  0  0  # atno 17342 bound_to 10162
  139.4989  144.3968  152.0222 LP  0  0  0  0  0  0  0  0  0  0  0  0  # atno 17343 bound_to 10162
  156.7266  130.9027  151.3622 LP  0  0  0  0  0  0  0  0  0  0  0  0  # atno 17370 bound_to 10713
  157.6872  130.9197  150.0418 LP  0  0  0  0  0  0  0  0  0  0  0  0  # atno 17371 bound_to 10713
  139.9545  134.7559  156.0373 LP  0  0  0  0  0  0  0  0  0  0  0  0  # atno 17394 bound_to 11000
  141.1271  133.6596  156.3366 LP  0  0  0  0  0  0  0  0  0  0  0  0  # atno 17395 bound_to 11000

$$$$
