AV-unprocessed.smi:2525|AV-procd|sdf|9926|dock4
  -GOLD-   2272013563D 1   1.00000     0.00000
 Structure written by MMmdl.
 44 45  0  0  0  0  0  0  0  0  1 V2000
  149.2322  141.4450  155.3650 C   0  0  0  0  0  0  0  0  0  0  0  0
  149.2984  140.8611  156.7860 C   0  0  0  0  0  0  0  0  0  0  0  0
  150.7282  140.6226  157.3412 C   0  0  0  0  0  0  0  0  0  0  0  0
  151.3337  141.9927  157.7352 C   0  0  0  0  0  0  0  0  0  0  0  0
  152.5366  141.9356  158.6924 C   0  0  0  0  0  0  0  0  0  0  0  0
  150.8988  139.5285  158.4383 C   0  0  1  0  0  0  0  0  0  0  0  0
  149.8737  138.4859  158.3842 N   0  0  0  0  0  0  0  0  0  0  0  0
  149.8425  137.3761  159.1353 C   0  0  0  0  0  0  0  0  0  0  0  0
  150.7417  137.0493  159.9088 O   0  0  0  0  0  0  0  0  0  0  0  0
  148.5839  136.5165  159.0127 C   0  0  0  0  0  0  0  0  0  0  0  0
  148.0584  136.1811  160.3255 N   0  0  0  0  0  0  0  0  0  0  0  0
  147.8398  134.9322  160.8700 C   0  0  0  0  0  0  0  0  0  0  0  0
  147.3748  135.2089  162.1237 C   0  0  0  0  0  0  0  0  0  0  0  0
  147.3298  136.5921  162.2885 N   0  0  0  0  0  0  0  0  0  0  0  0
  147.7398  137.1655  161.2010 N   0  0  0  0  0  0  0  0  0  0  0  0
  152.1993  139.0742  157.7552 C   0  0  1  0  0  0  0  0  0  0  0  0
  152.6320  137.6091  157.7442 C   0  0  0  0  0  0  0  0  0  0  0  0
  151.6774  139.7437  156.4734 C   0  0  1  0  0  0  0  0  0  0  0  0
  151.0026  138.7951  155.6541 O   0  0  0  0  0  0  0  0  0  0  0  0
  151.8676  138.1192  154.7575 C   0  0  0  0  0  0  0  0  0  0  0  0
  148.2064  141.7135  155.1120 H   0  0  0  0  0  0  0  0  0  0  0  0
  149.5697  140.7294  154.6161 H   0  0  0  0  0  0  0  0  0  0  0  0
  149.8387  142.3444  155.2682 H   0  0  0  0  0  0  0  0  0  0  0  0
  148.7499  141.5406  157.4379 H   0  0  0  0  0  0  0  0  0  0  0  0
  148.7135  139.9431  156.8148 H   0  0  0  0  0  0  0  0  0  0  0  0
  151.6099  142.5609  156.8476 H   0  0  0  0  0  0  0  0  0  0  0  0
  150.5732  142.6071  158.2166 H   0  0  0  0  0  0  0  0  0  0  0  0
  152.8127  142.9395  159.0152 H   0  0  0  0  0  0  0  0  0  0  0  0
  153.4160  141.5028  158.2169 H   0  0  0  0  0  0  0  0  0  0  0  0
  152.3149  141.3542  159.5868 H   0  0  0  0  0  0  0  0  0  0  0  0
  151.0703  139.9378  159.4354 H   0  0  0  0  0  0  0  0  0  0  0  0
  149.0882  138.6636  157.7746 H   0  0  0  0  0  0  0  0  0  0  0  0
  147.8245  137.0471  158.4361 H   0  0  0  0  0  0  0  0  0  0  0  0
  148.8100  135.5924  158.4793 H   0  0  0  0  0  0  0  0  0  0  0  0
  148.0328  134.0072  160.3470 H   0  0  0  0  0  0  0  0  0  0  0  0
  147.0760  134.5360  162.9141 H   0  0  0  0  0  0  0  0  0  0  0  0
  153.0165  139.6805  158.1493 H   0  0  0  0  0  0  0  0  0  0  0  0
  151.8699  136.9570  157.3179 H   0  0  0  0  0  0  0  0  0  0  0  0
  152.8394  137.2546  158.7539 H   0  0  0  0  0  0  0  0  0  0  0  0
  153.5396  137.4743  157.1560 H   0  0  0  0  0  0  0  0  0  0  0  0
  152.4661  140.2843  155.9475 H   0  0  0  0  0  0  0  0  0  0  0  0
  151.2865  137.4455  154.1282 H   0  0  0  0  0  0  0  0  0  0  0  0
  152.6017  137.5224  155.3002 H   0  0  0  0  0  0  0  0  0  0  0  0
  152.3985  138.8138  154.1069 H   0  0  0  0  0  0  0  0  0  0  0  0
  1  2  1  0  0  0  0
  1 21  1  0  0  0  0
  1 22  1  0  0  0  0
  1 23  1  0  0  0  0
  2  3  1  0  0  0  0
  2 24  1  0  0  0  0
  2 25  1  0  0  0  0
  3 18  1  0  0  0  0
  3  4  1  0  0  0  0
  3  6  1  0  0  0  0
  4  5  1  0  0  0  0
  4 26  1  0  0  0  0
  4 27  1  0  0  0  0
  5 28  1  0  0  0  0
  5 29  1  0  0  0  0
  5 30  1  0  0  0  0
  6  7  1  0  0  0  0
  6 16  1  0  0  0  0
  6 31  1  0  0  0  0
  7  8  1  0  0  0  0
  7 32  1  0  0  0  0
  8  9  2  0  0  0  0
  8 10  1  0  0  0  0
 10 11  1  0  0  0  0
 10 33  1  0  0  0  0
 10 34  1  0  0  0  0
 11 15  1  0  0  0  0
 11 12  1  0  0  0  0
 12 13  2  0  0  0  0
 12 35  1  0  0  0  0
 13 14  1  0  0  0  0
 13 36  1  0  0  0  0
 14 15  2  0  0  0  0
 16 17  1  0  0  0  0
 16 18  1  0  0  0  0
 16 37  1  0  0  0  0
 17 38  1  0  0  0  0
 17 39  1  0  0  0  0
 17 40  1  0  0  0  0
 18 19  1  0  0  0  0
 18 41  1  0  0  0  0
 19 20  1  0  0  0  0
 20 42  1  0  0  0  0
 20 43  1  0  0  0  0
 20 44  1  0  0  0  0
M  END
> <s_m_source_file>
AV-unprocessed.smi

> <i_m_source_file_index>
2525

> <i_lp_mmshare_version>
43012

> <i_f3d_flags>
0

> <s_epik_input>
W0NIM11PW0NAQEhdMVtDQEhdKFtDSDNdKVtDQEBIXShDMShbQ0gyXVtDSDNdKVtDSDJdW0NIM10pW05IXUMoPU8pW0NIMl1uMltjSF1bY0hdbm4y

> <s_epik_cmdline>
J2VwaWtfcHl0aG9uJywgJy1waCcsICc3LjAnLCAnLXRuJywgJzgnLCAnLW1hJywgJzIwMCcsICctbWV0YWxfYmluZGluZycsICctaW1hZScsICc8aW5maWxlLm1hZT4nLCAnLW9tYWUnLCAnPG91dGZpbGUubWFlPic=

> <r_lp_tautomer_probability>
1

> <r_epik_Ionization_Penalty>
1.18045e-06

> <r_epik_Ionization_Penalty_Charging>
0

> <r_epik_Ionization_Penalty_Neutral>
1.18045e-06

> <r_epik_State_Penalty>
-0

> <r_epik_Charging_Adjusted_Penalty>
0

> <i_epik_Tot_Q>
0

> <i_epik_Tot_abs_Q>
0

> <r_epik_Metal_State_Penalty>
-0

> <b_epik_Metal_Only>
0

> <s_lp_Force_Field>
OPLS_2005

> <r_lp_Energy>
28.1352

> <b_lp_Chiralities_Consistent>
1

> <s_lp_Variant>
AV-unprocessed.smi:2525-1

> <Gold.Version>
5.8.1

> <Gold.Id.Protein>
6NUR|6NUR_protein|mol2

> <Gold.PLP.Fitness>
39.0725

> <Gold.PLP.PLP>
-31.6585

> <Gold.PLP.part.hbond>
-3.2858

> <Gold.PLP.part.metal>
0.0000

> <Gold.PLP.part.buried>
-6.3424

> <Gold.PLP.part.nonpolar>
-23.9793

> <Gold.PLP.part.repulsive>
0.1562

> <Gold.PLP.ligand.clash>
0.0000

> <Gold.PLP.ligand.torsion>
0.9246

> <Gold.PLP.Chemscore.Hbond>
2.8400

> <Gold.PLP.Chemscore.CHOScore>
0.0000

> <Gold.PLP.Chemscore.Metal>
0.0000

> <Gold.Chemscore.Hbonds>
donor molecule, donor type, donor heavy atom, donor atom, acceptor molecule, acceptor atom, score
      P1  H  6896  6907       L1     9  0.98
      P1  H  6931  6943       L1    15  0.98
      P1  H  6934  6947       L1    15  0.83

> <Gold.PLP.Chemscore.Internal.Correction>
0.7433

> <Gold.Rescore>
     Score         DG    S(hbond)    S(metal)    S(lipo)     H(rot)  DE(clash)    DE(int)     intcor
     13.43     -16.43       2.10        0.00      76.97       1.98       0.01       3.00       ----

> <Gold.Chemscore.Fitness>
13.4251

> <Gold.Chemscore.DG>
-16.4309

> <Gold.Chemscore.ZeroCoef>
-5.4800

> <Gold.Chemscore.Hbond>
2.1012

> <Gold.Chemscore.Metal>
0.0000

> <Gold.Chemscore.Lipo>
76.9735

> <Gold.Chemscore.Internal_Hbond>
0.0000

> <Gold.Chemscore.DEClash>
0.0086

> <Gold.Chemscore.DEInternal>
2.9972

> <Gold.Chemscore.Rot>
1.9817

> <Gold.Chemscore.Internal.Correction>
   9.000000E+99

> <Gold.Chemscore.Hbonds>
donor molecule, donor type, donor heavy atom, donor atom, acceptor molecule, acceptor atom, score
      P1  H  6896  6907       L1     9  0.68
      P1  H  6931  6943       L1    15  0.23
      P1  H  6934  6947       L1    15  0.76

> <Gold.Chemscore.Hbond.Weighted>
-7.0181

> <Gold.Chemscore.Metal.Weighted>
-0.0000

> <Gold.Chemscore.Lipo.Weighted>
-9.0059

> <Gold.Chemscore.Internal_Hbond.Weighted>
0.0000

> <Gold.Chemscore.DEClash.Weighted>
0.0086

> <Gold.Chemscore.DEInternal.Weighted>
2.9972

> <Gold.Chemscore.Rot.Weighted>
5.0731

> <Gold.Chemscore.Internal.Correction.Weighted>
   9.000000E+99

> <Gold.Protein.RotatedTorsions>
[ 6907 6896 6895 6894 ] final  -34.66 input  -60.11 | X-H torsion
[ 7974 7965 7964 7962 ] final  162.18 input  175.53 | X-H torsion
[ 8008 7997 7996 7995 ] final  -11.04 input   59.86 | X-H torsion
[ 10167 10162 10161 10158 ] final  141.63 input  -65.29 | X-H torsion
[ 10718 10713 10712 10709 ] final   50.24 input   66.30 | X-H torsion
[ 10763 10752 10751 10750 ] final   34.90 input  -60.55 | X-H torsion
[ 11005 11000 10999 10996 ] final   24.49 input  -57.11 | X-H torsion

> <Gold.Protein.ActiveResidues>
 VAL166  LYS551  ARG553  GLY616  TRP617  ASP618  TYR619  PRO620  LYS621  CYS622 
 ASP623  PHE694  ASN695  SER759  ASP760  ASP761  ALA762  ILE779  LEU786  VAL792 
 PHE793  MET794  SER795  GLU796  ALA797  LYS798  CYS799  TRP800  GLU811  SER814 

> <Gold.Protein.RotatedAtoms>
  151.0497  134.9664  159.8204 H   0  0  0  0  0  0  0  0  0  0  0  0  # atno 6907 bound_to 6896
  152.5378  134.2552  159.8924 H   0  0  0  0  0  0  0  0  0  0  0  0  # atno 6908 bound_to 6896
  151.2568  133.4279  159.2648 H   0  0  0  0  0  0  0  0  0  0  0  0  # atno 6909 bound_to 6896
  144.7649  139.8003  143.6319 H   0  0  0  0  0  0  0  0  0  0  0  0  # atno 7974 bound_to 7965
  154.5500  140.2313  155.8500 H   0  0  0  0  0  0  0  0  0  0  0  0  # atno 8008 bound_to 7997
  156.1938  140.3070  155.9347 H   0  0  0  0  0  0  0  0  0  0  0  0  # atno 8009 bound_to 7997
  155.3089  140.0435  157.3024 H   0  0  0  0  0  0  0  0  0  0  0  0  # atno 8010 bound_to 7997
  139.5015  144.6159  151.6164 H   0  0  0  0  0  0  0  0  0  0  0  0  # atno 10167 bound_to 10162
  157.4865  130.8348  149.8153 H   0  0  0  0  0  0  0  0  0  0  0  0  # atno 10718 bound_to 10713
  153.0143  135.6348  154.1742 H   0  0  0  0  0  0  0  0  0  0  0  0  # atno 10763 bound_to 10752
  154.1482  135.2830  155.3144 H   0  0  0  0  0  0  0  0  0  0  0  0  # atno 10764 bound_to 10752
  154.6073  135.5568  153.7497 H   0  0  0  0  0  0  0  0  0  0  0  0  # atno 10765 bound_to 10752
  140.3581  134.2155  155.7674 H   0  0  0  0  0  0  0  0  0  0  0  0  # atno 11005 bound_to 11000
  146.1747  139.4912  142.9905 LP  0  0  0  0  0  0  0  0  0  0  0  0  # atno 17320 bound_to 7965
  145.6502  141.0265  143.1764 LP  0  0  0  0  0  0  0  0  0  0  0  0  # atno 17321 bound_to 7965
  140.5847  143.9885  150.6288 LP  0  0  0  0  0  0  0  0  0  0  0  0  # atno 17342 bound_to 10162
  140.3045  143.3238  152.0939 LP  0  0  0  0  0  0  0  0  0  0  0  0  # atno 17343 bound_to 10162
  156.0149  130.3817  150.2142 LP  0  0  0  0  0  0  0  0  0  0  0  0  # atno 17370 bound_to 10713
  157.0329  131.0013  151.3307 LP  0  0  0  0  0  0  0  0  0  0  0  0  # atno 17371 bound_to 10713
  141.1992  133.8017  157.0546 LP  0  0  0  0  0  0  0  0  0  0  0  0  # atno 17394 bound_to 11000
  140.0649  134.9735  157.1368 LP  0  0  0  0  0  0  0  0  0  0  0  0  # atno 17395 bound_to 11000

$$$$
