AV-unprocessed.smi:2850|AV-procd|sdf|10970|dock7
  -GOLD-   2272015423D 1   1.00000     0.00000
 Structure written by MMmdl.
 44 45  0  0  0  0  0  0  0  0  1 V2000
  154.1443  132.5486  164.6863 C   0  0  0  0  0  0  0  0  0  0  0  0
  154.8464  134.1062  165.2983 S   0  0  0  0  0  0  0  0  0  0  0  0
  154.8452  135.2462  163.9475 C   0  0  0  0  0  0  0  0  0  0  0  0
  154.3451  136.5507  164.1102 C   0  0  0  0  0  0  0  0  0  0  0  0
  154.3814  137.3933  162.9855 C   0  0  0  0  0  0  0  0  0  0  0  0
  154.9120  136.8678  161.7898 C   0  0  0  0  0  0  0  0  0  0  0  0
  154.9648  137.6853  160.6530 N   0  0  0  0  0  0  0  0  0  0  0  0
  155.0144  139.1344  160.7897 C   0  0  0  0  0  0  0  0  0  0  0  0
  153.7437  139.8019  160.2472 C   0  0  1  0  0  0  0  0  0  0  0  0
  153.6876  141.2948  160.6255 C   0  0  0  0  0  0  0  0  0  0  0  0
  152.5245  141.9675  160.0567 N   0  0  0  0  0  0  0  0  0  0  0  0
  152.5008  143.3788  160.4453 C   0  0  0  0  0  0  0  0  0  0  0  0
  151.8099  144.3404  159.4546 C   0  0  0  0  0  0  0  0  0  0  0  0
  151.8003  145.7699  160.0159 C   0  0  0  0  0  0  0  0  0  0  0  0
  150.3802  143.8845  159.1207 C   0  0  0  0  0  0  0  0  0  0  0  0
  152.5321  141.7801  158.6077 C   0  0  0  0  0  0  0  0  0  0  0  0
  152.6028  140.2928  158.2224 C   0  0  0  0  0  0  0  0  0  0  0  0
  153.7468  139.6972  158.8253 O   0  0  0  0  0  0  0  0  0  0  0  0
  155.3776  135.5949  161.7099 N   0  0  0  0  0  0  0  0  0  0  0  0
  155.3453  134.7895  162.7772 N   0  0  0  0  0  0  0  0  0  0  0  0
  154.1191  131.8094  165.4866 H   0  0  0  0  0  0  0  0  0  0  0  0
  154.7482  132.1517  163.8701 H   0  0  0  0  0  0  0  0  0  0  0  0
  153.1265  132.7021  164.3270 H   0  0  0  0  0  0  0  0  0  0  0  0
  153.9510  136.8920  165.0562 H   0  0  0  0  0  0  0  0  0  0  0  0
  154.0143  138.4078  163.0412 H   0  0  0  0  0  0  0  0  0  0  0  0
  155.1446  137.2768  159.7473 H   0  0  0  0  0  0  0  0  0  0  0  0
  155.1265  139.3776  161.8471 H   0  0  0  0  0  0  0  0  0  0  0  0
  155.8935  139.5234  160.2742 H   0  0  0  0  0  0  0  0  0  0  0  0
  152.8652  139.2936  160.6496 H   0  0  0  0  0  0  0  0  0  0  0  0
  153.6693  141.3880  161.7120 H   0  0  0  0  0  0  0  0  0  0  0  0
  154.6001  141.7886  160.2871 H   0  0  0  0  0  0  0  0  0  0  0  0
  151.9914  143.4725  161.4056 H   0  0  0  0  0  0  0  0  0  0  0  0
  153.5232  143.7172  160.6217 H   0  0  0  0  0  0  0  0  0  0  0  0
  152.3797  144.3742  158.5266 H   0  0  0  0  0  0  0  0  0  0  0  0
  151.2389  145.8257  160.9491 H   0  0  0  0  0  0  0  0  0  0  0  0
  151.3450  146.4668  159.3115 H   0  0  0  0  0  0  0  0  0  0  0  0
  152.8132  146.1207  160.2157 H   0  0  0  0  0  0  0  0  0  0  0  0
  149.7605  143.8354  160.0165 H   0  0  0  0  0  0  0  0  0  0  0  0
  150.3768  142.8966  158.6593 H   0  0  0  0  0  0  0  0  0  0  0  0
  149.9017  144.5711  158.4220 H   0  0  0  0  0  0  0  0  0  0  0  0
  151.6350  142.2093  158.1635 H   0  0  0  0  0  0  0  0  0  0  0  0
  153.3823  142.3062  158.1705 H   0  0  0  0  0  0  0  0  0  0  0  0
  151.7005  139.7676  158.5395 H   0  0  0  0  0  0  0  0  0  0  0  0
  152.6729  140.1846  157.1401 H   0  0  0  0  0  0  0  0  0  0  0  0
  1  2  1  0  0  0  0
  1 21  1  0  0  0  0
  1 22  1  0  0  0  0
  1 23  1  0  0  0  0
  2  3  1  0  0  0  0
  3 20  1  0  0  0  0
  3  4  2  0  0  0  0
  4  5  1  0  0  0  0
  4 24  1  0  0  0  0
  5  6  2  0  0  0  0
  5 25  1  0  0  0  0
  6  7  1  0  0  0  0
  6 19  1  0  0  0  0
  7  8  1  0  0  0  0
  7 26  1  0  0  0  0
  8  9  1  0  0  0  0
  8 27  1  0  0  0  0
  8 28  1  0  0  0  0
  9 18  1  0  0  0  0
  9 10  1  0  0  0  0
  9 29  1  0  0  0  0
 10 11  1  0  0  0  0
 10 30  1  0  0  0  0
 10 31  1  0  0  0  0
 11 12  1  0  0  0  0
 11 16  1  0  0  0  0
 12 13  1  0  0  0  0
 12 32  1  0  0  0  0
 12 33  1  0  0  0  0
 13 14  1  0  0  0  0
 13 15  1  0  0  0  0
 13 34  1  0  0  0  0
 14 35  1  0  0  0  0
 14 36  1  0  0  0  0
 14 37  1  0  0  0  0
 15 38  1  0  0  0  0
 15 39  1  0  0  0  0
 15 40  1  0  0  0  0
 16 17  1  0  0  0  0
 16 41  1  0  0  0  0
 16 42  1  0  0  0  0
 17 18  1  0  0  0  0
 17 43  1  0  0  0  0
 17 44  1  0  0  0  0
 19 20  2  0  0  0  0
M  END
> <s_m_source_file>
AV-unprocessed.smi

> <i_m_source_file_index>
2850

> <i_lp_mmshare_version>
43012

> <i_f3d_flags>
0

> <s_epik_input>
W0NIM11TYzFbY0hdW2NIXWMobm4xKVtOSF1bQ0gyXVtDQEBIXTJbQ0gyXU4oW0NIMl1bQ0gyXU8yKVtDSDJdW0NIXShbQ0gzXSlbQ0gzXQ==

> <s_epik_cmdline>
J2VwaWtfcHl0aG9uJywgJy1waCcsICc3LjAnLCAnLXRuJywgJzgnLCAnLW1hJywgJzIwMCcsICctbWV0YWxfYmluZGluZycsICctaW1hZScsICc8aW5maWxlLm1hZT4nLCAnLW9tYWUnLCAnPG91dGZpbGUubWFlPic=

> <r_lp_tautomer_probability>
0.999978

> <r_epik_Ionization_Penalty>
1.20939

> <r_epik_Ionization_Penalty_Charging>
0

> <r_epik_Ionization_Penalty_Neutral>
1.20939

> <r_epik_State_Penalty>
1.27042

> <r_epik_Charging_Adjusted_Penalty>
1.27042

> <i_epik_Tot_Q>
0

> <i_epik_Tot_abs_Q>
0

> <r_epik_Metal_State_Penalty>
1.26998

> <b_epik_Metal_Only>
0

> <s_lp_Force_Field>
OPLS_2005

> <r_lp_Energy>
30.7386

> <b_lp_Chiralities_Consistent>
1

> <s_lp_Variant>
AV-unprocessed.smi:2850-6

> <Gold.Version>
5.8.1

> <Gold.Id.Protein>
6NUR|6NUR_protein|mol2

> <Gold.PLP.Fitness>
44.8970

> <Gold.PLP.PLP>
-43.2891

> <Gold.PLP.part.hbond>
-1.0000

> <Gold.PLP.part.metal>
0.0000

> <Gold.PLP.part.buried>
-5.7521

> <Gold.PLP.part.nonpolar>
-36.4995

> <Gold.PLP.part.repulsive>
0.0198

> <Gold.PLP.ligand.clash>
0.0000

> <Gold.PLP.ligand.torsion>
0.7200

> <Gold.PLP.Chemscore.Hbond>
0.9913

> <Gold.PLP.Chemscore.CHOScore>
0.0000

> <Gold.PLP.Chemscore.Metal>
0.0000

> <Gold.Chemscore.Hbonds>
donor molecule, donor type, donor heavy atom, donor atom, acceptor molecule, acceptor atom, score
      P1  H  7997  8010       L1    18  0.75

> <Gold.PLP.Chemscore.Internal.Correction>
0.0742

> <Gold.Rescore>
     Score         DG    S(hbond)    S(metal)    S(lipo)     H(rot)  DE(clash)    DE(int)     intcor
     17.44     -17.87       0.76        0.00     117.93       1.55       0.00       0.42       ----

> <Gold.Chemscore.Fitness>
17.4431

> <Gold.Chemscore.DG>
-17.8677

> <Gold.Chemscore.ZeroCoef>
-5.4800

> <Gold.Chemscore.Hbond>
0.7636

> <Gold.Chemscore.Metal>
0.0000

> <Gold.Chemscore.Lipo>
117.9330

> <Gold.Chemscore.Internal_Hbond>
0.0000

> <Gold.Chemscore.DEClash>
0.0000

> <Gold.Chemscore.DEInternal>
0.4247

> <Gold.Chemscore.Rot>
1.5473

> <Gold.Chemscore.Internal.Correction>
   9.000000E+99

> <Gold.Chemscore.Hbonds>
donor molecule, donor type, donor heavy atom, donor atom, acceptor molecule, acceptor atom, score
      P1  H  7997  8010       L1    18  0.09

> <Gold.Chemscore.Hbond.Weighted>
-2.5506

> <Gold.Chemscore.Metal.Weighted>
-0.0000

> <Gold.Chemscore.Lipo.Weighted>
-13.7982

> <Gold.Chemscore.Internal_Hbond.Weighted>
0.0000

> <Gold.Chemscore.DEClash.Weighted>
0.0000

> <Gold.Chemscore.DEInternal.Weighted>
0.4247

> <Gold.Chemscore.Rot.Weighted>
3.9610

> <Gold.Chemscore.Internal.Correction.Weighted>
   9.000000E+99

> <Gold.Protein.RotatedTorsions>
[ 6907 6896 6895 6894 ] final  103.14 input  -60.11 | X-H torsion
[ 7974 7965 7964 7962 ] final   83.87 input  175.53 | X-H torsion
[ 8008 7997 7996 7995 ] final    8.79 input   59.86 | X-H torsion
[ 10167 10162 10161 10158 ] final -114.70 input  -65.29 | X-H torsion
[ 10718 10713 10712 10709 ] final  -81.01 input   66.30 | X-H torsion
[ 10763 10752 10751 10750 ] final   47.27 input  -60.55 | X-H torsion
[ 11005 11000 10999 10996 ] final  162.41 input  -57.11 | X-H torsion

> <Gold.Protein.ActiveResidues>
 VAL166  LYS551  ARG553  GLY616  TRP617  ASP618  TYR619  PRO620  LYS621  CYS622 
 ASP623  PHE694  ASN695  SER759  ASP760  ASP761  ALA762  ILE779  LEU786  VAL792 
 PHE793  MET794  SER795  GLU796  ALA797  LYS798  CYS799  TRP800  GLU811  SER814 

> <Gold.Protein.RotatedAtoms>
  152.5304  133.9870  159.7832 H   0  0  0  0  0  0  0  0  0  0  0  0  # atno 6907 bound_to 6896
  151.0113  133.5954  159.2689 H   0  0  0  0  0  0  0  0  0  0  0  0  # atno 6908 bound_to 6896
  151.3028  135.0780  159.9298 H   0  0  0  0  0  0  0  0  0  0  0  0  # atno 6909 bound_to 6896
  145.6062  139.2360  143.2218 H   0  0  0  0  0  0  0  0  0  0  0  0  # atno 7974 bound_to 7965
  154.7715  140.2803  155.6134 H   0  0  0  0  0  0  0  0  0  0  0  0  # atno 8008 bound_to 7997
  156.2934  140.2640  156.2447 H   0  0  0  0  0  0  0  0  0  0  0  0  # atno 8009 bound_to 7997
  154.9894  140.0374  157.2302 H   0  0  0  0  0  0  0  0  0  0  0  0  # atno 8010 bound_to 7997
  140.0981  143.4638  152.1829 H   0  0  0  0  0  0  0  0  0  0  0  0  # atno 10167 bound_to 10162
  156.0059  130.4591  150.3887 H   0  0  0  0  0  0  0  0  0  0  0  0  # atno 10718 bound_to 10713
  152.9801  135.5982  154.3735 H   0  0  0  0  0  0  0  0  0  0  0  0  # atno 10763 bound_to 10752
  154.3406  135.2768  155.2426 H   0  0  0  0  0  0  0  0  0  0  0  0  # atno 10764 bound_to 10752
  154.4510  135.5990  153.6246 H   0  0  0  0  0  0  0  0  0  0  0  0  # atno 10765 bound_to 10752
  140.2255  134.8164  157.3264 H   0  0  0  0  0  0  0  0  0  0  0  0  # atno 11005 bound_to 11000
  146.1539  140.6886  142.9309 LP  0  0  0  0  0  0  0  0  0  0  0  0  # atno 17320 bound_to 7965
  144.7289  140.4610  143.6953 LP  0  0  0  0  0  0  0  0  0  0  0  0  # atno 17321 bound_to 7965
  139.5687  144.7450  151.3952 LP  0  0  0  0  0  0  0  0  0  0  0  0  # atno 17342 bound_to 10162
  140.6993  143.7672  150.7376 LP  0  0  0  0  0  0  0  0  0  0  0  0  # atno 17343 bound_to 10162
  157.1963  131.0427  151.2674 LP  0  0  0  0  0  0  0  0  0  0  0  0  # atno 17370 bound_to 10713
  157.4016  130.7336  149.6771 LP  0  0  0  0  0  0  0  0  0  0  0  0  # atno 17371 bound_to 10713
  140.1805  134.4495  155.7775 LP  0  0  0  0  0  0  0  0  0  0  0  0  # atno 17394 bound_to 11000
  141.2221  133.6981  156.7860 LP  0  0  0  0  0  0  0  0  0  0  0  0  # atno 17395 bound_to 11000

$$$$
