AV-unprocessed.smi:37|AV-procd|sdf|316|dock6
  -GOLD-   2262016133D 1   1.00000     0.00000
 Structure written by MMmdl.
 44 45  0  0  0  0  0  0  0  0  1 V2000
  147.3570  134.1659  162.3782 C   0  0  0  0  0  0  0  0  0  0  0  0
  147.0593  134.6187  160.9418 C   0  0  0  0  0  0  0  0  0  0  0  0
  147.6199  136.0016  160.6047 C   0  0  0  0  0  0  0  0  0  0  0  0
  147.3850  136.9961  161.2932 O   0  0  0  0  0  0  0  0  0  0  0  0
  148.3777  135.9782  159.4995 O   0  0  0  0  0  0  0  0  0  0  0  0
  148.7972  137.1970  158.9066 C   0  0  0  0  0  0  0  0  0  0  0  0
  150.2330  137.0759  158.3762 C   0  0  1  0  0  0  0  0  0  0  0  0
  150.2788  136.3052  157.1754 O   0  0  0  0  0  0  0  0  0  0  0  0
  150.8390  137.0503  156.1338 C   0  0  1  0  0  0  0  0  0  0  0  0
  149.6987  137.6414  155.3128 N   0  0  0  0  0  0  0  0  0  0  0  0
  148.3670  137.2433  155.4140 C   0  0  0  0  0  0  0  0  0  0  0  0
  147.3785  137.7638  154.6484 C   0  0  0  0  0  0  0  0  0  0  0  0
  146.1183  137.3251  154.8057 F   0  0  0  0  0  0  0  0  0  0  0  0
  147.6665  138.7885  153.6510 C   0  0  0  0  0  0  0  0  0  0  0  0
  146.8396  139.3142  152.9089 O   0  0  0  0  0  0  0  0  0  0  0  0
  149.0116  139.1550  153.5768 N   0  0  0  0  0  0  0  0  0  0  0  0
  150.0399  138.6284  154.3591 C   0  0  0  0  0  0  0  0  0  0  0  0
  151.1925  139.0289  154.2015 O   0  0  0  0  0  0  0  0  0  0  0  0
  151.7430  138.0766  156.8253 C   0  0  2  0  0  0  0  0  0  0  0  0
  153.4520  137.1685  157.3164 Br  0  0  0  0  0  0  0  0  0  0  0  0
  150.9358  138.4067  158.0787 C   0  0  2  0  0  0  0  0  0  0  0  0
  151.7462  138.8372  159.1646 O   0  0  0  0  0  0  0  0  0  0  0  0
  152.6361  139.8296  158.9904 C   0  0  0  0  0  0  0  0  0  0  0  0
  152.8266  140.4464  157.9407 O   0  0  0  0  0  0  0  0  0  0  0  0
  153.4255  140.1195  160.2686 C   0  0  0  0  0  0  0  0  0  0  0  0
  153.2768  141.5642  160.7685 C   0  0  0  0  0  0  0  0  0  0  0  0
  149.2614  139.8595  152.8981 H   0  0  0  0  0  0  0  0  0  0  0  0
  146.9304  133.1803  162.5648 H   0  0  0  0  0  0  0  0  0  0  0  0
  146.9294  134.8537  163.1084 H   0  0  0  0  0  0  0  0  0  0  0  0
  148.4300  134.1002  162.5616 H   0  0  0  0  0  0  0  0  0  0  0  0
  147.4793  133.8993  160.2393 H   0  0  0  0  0  0  0  0  0  0  0  0
  145.9817  134.6310  160.7769 H   0  0  0  0  0  0  0  0  0  0  0  0
  148.1245  137.4517  158.0863 H   0  0  0  0  0  0  0  0  0  0  0  0
  148.7373  138.0029  159.6394 H   0  0  0  0  0  0  0  0  0  0  0  0
  150.8223  136.5180  159.1052 H   0  0  0  0  0  0  0  0  0  0  0  0
  151.3860  136.4222  155.4279 H   0  0  0  0  0  0  0  0  0  0  0  0
  148.0609  136.4907  156.1210 H   0  0  0  0  0  0  0  0  0  0  0  0
  151.9992  138.9247  156.1914 H   0  0  0  0  0  0  0  0  0  0  0  0
  150.1804  139.1584  157.8511 H   0  0  0  0  0  0  0  0  0  0  0  0
  153.0952  139.4277  161.0438 H   0  0  0  0  0  0  0  0  0  0  0  0
  154.4771  139.9030  160.0802 H   0  0  0  0  0  0  0  0  0  0  0  0
  153.8506  141.7141  161.6831 H   0  0  0  0  0  0  0  0  0  0  0  0
  152.2360  141.8031  160.9903 H   0  0  0  0  0  0  0  0  0  0  0  0
  153.6395  142.2813  160.0311 H   0  0  0  0  0  0  0  0  0  0  0  0
  1  2  1  0  0  0  0
  1 28  1  0  0  0  0
  1 29  1  0  0  0  0
  1 30  1  0  0  0  0
  2  3  1  0  0  0  0
  2 31  1  0  0  0  0
  2 32  1  0  0  0  0
  3  4  2  0  0  0  0
  3  5  1  0  0  0  0
  5  6  1  0  0  0  0
  6  7  1  0  0  0  0
  6 33  1  0  0  0  0
  6 34  1  0  0  0  0
  7 21  1  0  0  0  0
  7  8  1  0  0  0  0
  7 35  1  0  0  0  0
  8  9  1  0  0  0  0
  9 10  1  0  0  0  0
  9 19  1  0  0  0  0
  9 36  1  0  0  0  0
 10 17  1  0  0  0  0
 10 11  1  0  0  0  0
 11 12  2  0  0  0  0
 11 37  1  0  0  0  0
 12 13  1  0  0  0  0
 12 14  1  0  0  0  0
 14 15  2  0  0  0  0
 14 16  1  0  0  0  0
 16 27  1  0  0  0  0
 16 17  1  0  0  0  0
 17 18  2  0  0  0  0
 19 20  1  0  0  0  0
 19 21  1  0  0  0  0
 19 38  1  0  0  0  0
 21 22  1  0  0  0  0
 21 39  1  0  0  0  0
 22 23  1  0  0  0  0
 23 24  2  0  0  0  0
 23 25  1  0  0  0  0
 25 26  1  0  0  0  0
 25 40  1  0  0  0  0
 25 41  1  0  0  0  0
 26 42  1  0  0  0  0
 26 43  1  0  0  0  0
 26 44  1  0  0  0  0
M  END
> <s_m_source_file>
AV-unprocessed.smi

> <i_m_source_file_index>
37

> <i_lp_mmshare_version>
43012

> <i_f3d_flags>
0

> <s_epik_input>
W0NIM11bQ0gyXUMoPU8pT1tDSDJdW0NAQEhdMU9bQ0BASF0objJbY0hdYyhGKWMoPU8pW25IXWMyPU8pW0NAQEhdKEJyKVtDQEhdMU9DKD1PKVtDSDJdW0NIM10=

> <s_epik_cmdline>
J2VwaWtfcHl0aG9uJywgJy1waCcsICc3LjAnLCAnLXRuJywgJzgnLCAnLW1hJywgJzIwMCcsICctbWV0YWxfYmluZGluZycsICctaW1hZScsICc8aW5maWxlLm1hZT4nLCAnLW9tYWUnLCAnPG91dGZpbGUubWFlPic=

> <r_lp_tautomer_probability>
0.999537

> <r_epik_Ionization_Penalty>
0.104106

> <r_epik_Ionization_Penalty_Charging>
0.104106

> <r_epik_Ionization_Penalty_Neutral>
3.94675e-16

> <r_epik_State_Penalty>
0.0940182

> <r_epik_Charging_Adjusted_Penalty>
0.198124

> <i_epik_Tot_Q>
0

> <i_epik_Tot_abs_Q>
0

> <r_epik_Metal_State_Penalty>
3.05314

> <b_epik_Metal_Only>
0

> <s_epik_Chemistry_Notes>
This compound has an ester and may undergo hydrolysis at high or low pH. This compound contains an acetal/aminal-like group ( X-CH(R)-Y where X, Y are N, S, or O) that may be acid/base labile, releasing an aldehyde.

> <s_lp_Force_Field>
OPLS_2005

> <r_lp_Energy>
20.7256

> <b_lp_Chiralities_Consistent>
1

> <s_lp_Variant>
AV-unprocessed.smi:37-14

> <Gold.Version>
5.8.1

> <Gold.Id.Protein>
6NUR|6NUR_protein|mol2

> <Gold.PLP.Fitness>
45.6002

> <Gold.PLP.PLP>
-33.4958

> <Gold.PLP.part.hbond>
-5.0440

> <Gold.PLP.part.metal>
0.0000

> <Gold.PLP.part.buried>
-3.9983

> <Gold.PLP.part.nonpolar>
-24.1930

> <Gold.PLP.part.repulsive>
0.5279

> <Gold.PLP.ligand.clash>
0.0000

> <Gold.PLP.ligand.torsion>
0.8158

> <Gold.PLP.Chemscore.Hbond>
4.5360

> <Gold.PLP.Chemscore.CHOScore>
0.0000

> <Gold.PLP.Chemscore.Metal>
0.0000

> <Gold.Chemscore.Hbonds>
donor molecule, donor type, donor heavy atom, donor atom, acceptor molecule, acceptor atom, score
      L1  H    16    27       P1  7957  0.82
      P1  H  6931  6943       L1     4  0.67
      P1  H  6934  6947       L1     4  0.90
      P1  H  7989  7998       L1    18  1.00
      P1  H  7997  8010       L1    24  0.85

> <Gold.PLP.Chemscore.Internal.Correction>
0.1281

> <Gold.Rescore>
     Score         DG    S(hbond)    S(metal)    S(lipo)     H(rot)  DE(clash)    DE(int)     intcor
     13.87     -17.55       4.26        0.00      54.36       3.33       0.27       3.41       ----

> <Gold.Chemscore.Fitness>
13.8714

> <Gold.Chemscore.DG>
-17.5474

> <Gold.Chemscore.ZeroCoef>
-5.4800

> <Gold.Chemscore.Hbond>
4.2612

> <Gold.Chemscore.Metal>
0.0000

> <Gold.Chemscore.Lipo>
54.3628

> <Gold.Chemscore.Internal_Hbond>
0.0000

> <Gold.Chemscore.DEClash>
0.2669

> <Gold.Chemscore.DEInternal>
3.4090

> <Gold.Chemscore.Rot>
3.3303

> <Gold.Chemscore.Internal.Correction>
   9.000000E+99

> <Gold.Chemscore.Hbonds>
donor molecule, donor type, donor heavy atom, donor atom, acceptor molecule, acceptor atom, score
      L1  H    16    27       P1  7957  0.81
      P1  H  6931  6943       L1     4  0.61
      P1  H  6934  6947       L1     4  0.82
      P1  H  7989  7998       L1    18  0.94
      P1  H  7997  8010       L1    24  0.79

> <Gold.Chemscore.Hbond.Weighted>
-14.2325

> <Gold.Chemscore.Metal.Weighted>
-0.0000

> <Gold.Chemscore.Lipo.Weighted>
-6.3604

> <Gold.Chemscore.Internal_Hbond.Weighted>
0.0000

> <Gold.Chemscore.DEClash.Weighted>
0.2669

> <Gold.Chemscore.DEInternal.Weighted>
3.4090

> <Gold.Chemscore.Rot.Weighted>
8.5256

> <Gold.Chemscore.Internal.Correction.Weighted>
   9.000000E+99

> <Gold.Protein.RotatedTorsions>
[ 6907 6896 6895 6894 ] final  158.12 input  -60.11 | X-H torsion
[ 7974 7965 7964 7962 ] final  -55.71 input  175.53 | X-H torsion
[ 8008 7997 7996 7995 ] final   48.49 input   59.86 | X-H torsion
[ 10167 10162 10161 10158 ] final  144.01 input  -65.29 | X-H torsion
[ 10718 10713 10712 10709 ] final  -98.98 input   66.30 | X-H torsion
[ 10763 10752 10751 10750 ] final  133.44 input  -60.55 | X-H torsion
[ 11005 11000 10999 10996 ] final   41.81 input  -57.11 | X-H torsion

> <Gold.Protein.ActiveResidues>
 VAL166  LYS551  ARG553  GLY616  TRP617  ASP618  TYR619  PRO620  LYS621  CYS622 
 ASP623  PHE694  ASN695  SER759  ASP760  ASP761  ALA762  ILE779  LEU786  VAL792 
 PHE793  MET794  SER795  GLU796  ALA797  LYS798  CYS799  TRP800  GLU811  SER814 

> <Gold.Protein.RotatedAtoms>
  152.0050  133.3840  159.4196 H   0  0  0  0  0  0  0  0  0  0  0  0  # atno 6907 bound_to 6896
  150.6905  134.3792  159.5036 H   0  0  0  0  0  0  0  0  0  0  0  0  # atno 6908 bound_to 6896
  152.1545  134.8962  160.0596 H   0  0  0  0  0  0  0  0  0  0  0  0  # atno 6909 bound_to 6896
  145.8710  140.8216  142.9888 H   0  0  0  0  0  0  0  0  0  0  0  0  # atno 7974 bound_to 7965
  155.3866  140.3431  155.4249 H   0  0  0  0  0  0  0  0  0  0  0  0  # atno 8008 bound_to 7997
  156.1581  140.1592  156.8692 H   0  0  0  0  0  0  0  0  0  0  0  0  # atno 8009 bound_to 7997
  154.5114  140.0789  156.7978 H   0  0  0  0  0  0  0  0  0  0  0  0  # atno 8010 bound_to 7997
  139.4956  144.6001  151.6499 H   0  0  0  0  0  0  0  0  0  0  0  0  # atno 10167 bound_to 10162
  156.0121  130.5262  150.6602 H   0  0  0  0  0  0  0  0  0  0  0  0  # atno 10718 bound_to 10713
  153.8072  135.3134  155.3397 H   0  0  0  0  0  0  0  0  0  0  0  0  # atno 10763 bound_to 10752
  154.8066  135.4694  154.0410 H   0  0  0  0  0  0  0  0  0  0  0  0  # atno 10764 bound_to 10752
  153.1777  135.6888  153.8609 H   0  0  0  0  0  0  0  0  0  0  0  0  # atno 10765 bound_to 10752
  140.1799  134.4117  155.8206 H   0  0  0  0  0  0  0  0  0  0  0  0  # atno 11005 bound_to 11000
  144.6726  140.1239  143.7448 LP  0  0  0  0  0  0  0  0  0  0  0  0  # atno 17320 bound_to 7965
  145.9136  139.2502  143.1423 LP  0  0  0  0  0  0  0  0  0  0  0  0  # atno 17321 bound_to 7965
  140.5649  144.0207  150.6187 LP  0  0  0  0  0  0  0  0  0  0  0  0  # atno 17342 bound_to 10162
  140.3305  143.3081  152.0692 LP  0  0  0  0  0  0  0  0  0  0  0  0  # atno 17343 bound_to 10162
  157.4346  131.0853  151.1004 LP  0  0  0  0  0  0  0  0  0  0  0  0  # atno 17370 bound_to 10713
  157.1567  130.6207  149.5598 LP  0  0  0  0  0  0  0  0  0  0  0  0  # atno 17371 bound_to 10713
  141.2222  133.6995  156.7912 LP  0  0  0  0  0  0  0  0  0  0  0  0  # atno 17394 bound_to 11000
  140.2280  134.8707  157.3446 LP  0  0  0  0  0  0  0  0  0  0  0  0  # atno 17395 bound_to 11000

$$$$
