#       Name:                AV-unprocessed.smi:1296
#       Creating user name   scv26
#       Creation time:       Fri Mar 27 04:57:16 2020


#       File generated by GOLD software.
#

@<TRIPOS>MOLECULE
AV-unprocessed.smi:1296
    41    41     1
SMALL
NO_CHARGES


@<TRIPOS>ATOM
      1 ****        -3.2889   5.1643   0.6804 C.3            1 S1                 0.0000
      2 ****        -2.7210   3.7623   0.6302 C.2            1 S1                 0.0000
      3 ****        -2.2585   3.3941  -0.6224 N.pl3          1 S1                 0.0000
      4 ****        -1.7326   2.1227  -0.7704 C.2            1 S1                 0.0000
      5 ****        -1.2548   1.7965  -2.1746 C.3            1 S1                 0.0000
      6 ****        -1.6637   1.2644   0.2787 C.2            1 S1                 0.0000
      7 ****        -1.0931  -0.1484   0.1575 C.3            1 S1                 0.0000
      8 ****         0.4300  -0.2785   0.2439 C.2            1 S1                 0.0000
      9 ****         1.1330   0.6973   0.5076 O.2            1 S1                 0.0000
     10 ****         0.9270  -1.5026   0.0189 N.am           1 S1                 0.0000
     11 ****         2.3436  -1.8408   0.0693 C.3            1 S1                 0.0000
     12 ****         2.5792  -3.3409  -0.1939 C.3            1 S1                 0.0000
     13 ****         1.8713  -4.2364   0.8380 C.3            1 S1                 0.0000
     14 ****         4.0816  -3.6552  -0.2426 C.3            1 S1                 0.0000
     15 ****        -2.1599   1.7211   1.5983 C.2            1 S1                 0.0000
     16 ****        -2.1050   0.9981   2.5922 O.2            1 S1                 0.0000
     17 ****        -2.6960   3.0158   1.6922 N.2            1 S1                 0.0000
     18 ****        -2.2903   4.0009  -1.4288 H              1 S1                 0.0000
     19 ****        -3.5847   5.4292   1.6963 H              1 S1                 0.0000
     20 ****        -4.1669   5.2409   0.0384 H              1 S1                 0.0000
     21 ****        -2.5474   5.8885   0.3420 H              1 S1                 0.0000
     22 ****        -1.8257   0.9650  -2.5881 H              1 S1                 0.0000
     23 ****        -0.2003   1.5199  -2.1635 H              1 S1                 0.0000
     24 ****        -1.3697   2.6482  -2.8461 H              1 S1                 0.0000
     25 ****        -1.4086  -0.5668  -0.7985 H              1 S1                 0.0000
     26 ****        -1.5391  -0.8034   0.9068 H              1 S1                 0.0000
     27 ****         0.2822  -2.2508  -0.1906 H              1 S1                 0.0000
     28 ****         2.8731  -1.2443  -0.6753 H              1 S1                 0.0000
     29 ****         2.7471  -1.5635   1.0447 H              1 S1                 0.0000
     30 ****         2.1665  -3.5779  -1.1757 H              1 S1                 0.0000
     31 ****         2.2215  -4.0270   1.8493 H              1 S1                 0.0000
     32 ****         2.0577  -5.2912   0.6342 H              1 S1                 0.0000
     33 ****         0.7910  -4.0917   0.8233 H              1 S1                 0.0000
     34 ****         4.5629  -3.4368   0.7113 H              1 S1                 0.0000
     35 ****         4.5822  -3.0656  -1.0110 H              1 S1                 0.0000
     36 ****         4.2570  -4.7069  -0.4706 H              1 S1                 0.0000
     37 ****         0.7103   1.5892   0.6685 LP             1 S1                 0.0000
     38 ****         2.1266   0.5979   0.5608 LP             1 S1                 0.0000
     39 ****        -1.7187   0.0785   2.5208 LP             1 S1                 0.0000
     40 ****        -2.4467   1.3300   3.4714 LP             1 S1                 0.0000
     41 ****        -3.0524   3.3568   2.5620 LP             1 S1                 0.0000
@<TRIPOS>BOND
    1    1   19 1     
    2    1   20 1     
    3    1   21 1     
    4    1    2 1     
    5    2    3 1     
    6    2   17 2     
    7    3    4 1     
    8    3   18 1     
    9    4    6 2     
   10    4    5 1     
   11    5   22 1     
   12    5   23 1     
   13    5   24 1     
   14    6   15 1     
   15    6    7 1     
   16    7    8 1     
   17    7   25 1     
   18    7   26 1     
   19    8    9 2     
   20    8   10 am    
   21   10   11 1     
   22   10   27 1     
   23   11   12 1     
   24   11   28 1     
   25   11   29 1     
   26   12   13 1     
   27   12   14 1     
   28   12   30 1     
   29   13   31 1     
   30   13   32 1     
   31   13   33 1     
   32   14   34 1     
   33   14   35 1     
   34   14   36 1     
   35   15   16 2     
   36   15   17 1     
   37    9   37 1     
   38    9   38 1     
   39   16   39 1     
   40   16   40 1     
   41   17   41 1     
@<TRIPOS>SUBSTRUCTURE
      1 S1             1
@<TRIPOS>SET
LONE_PAIRS      STATIC     ATOMS    <user>   **** ""
5 37 38 39 40 41
DONOR_HYDROGENS      STATIC     ATOMS    <user>   **** ""
2 18 27
ATOM$BLUE        STATIC     ATOMS    COLORGROUP SYSTEM
5 37 38 39 40 41
ATOM$RED        STATIC     ATOMS    COLORGROUP SYSTEM
2 18 27
