AV-unprocessed.smi:1401|AV-procd|sdf|5692|dock3
  -GOLD-   22720 5323D 1   1.00000     0.00000
 Structure written by MMmdl.
 48 50  0  0  0  0  0  0  0  0  1 V2000
  150.6599  144.6592  159.5343 C   0  0  0  0  0  0  0  0  0  0  0  0
  151.3102  143.3486  159.1807 C   0  0  0  0  0  0  0  0  0  0  0  0
  151.0745  142.8858  157.9973 N   0  0  0  0  0  0  0  0  0  0  0  0
  151.6228  141.6925  157.5685 N   0  0  0  0  0  0  0  0  0  0  0  0
  151.2315  141.3105  156.2035 C   0  0  0  0  0  0  0  0  0  0  0  0
  149.7726  140.8433  156.0888 C   0  0  0  0  0  0  0  0  0  0  0  0
  149.3700  139.8623  156.7159 O   0  0  0  0  0  0  0  0  0  0  0  0
  148.9882  141.5763  155.2835 N   0  0  0  0  0  0  0  0  0  0  0  0
  147.5721  141.3295  155.0146 C   0  0  2  0  0  0  0  0  0  0  0  0
  147.4028  141.0354  153.5134 C   0  0  0  0  0  0  0  0  0  0  0  0
  146.7339  142.5422  155.4906 C   0  0  2  0  0  0  0  0  0  0  0  0
  146.4815  142.5623  157.0198 C   0  0  0  0  0  0  0  0  0  0  0  0
  144.9522  142.6922  157.1276 C   0  0  1  0  0  0  0  0  0  0  0  0
  144.5178  144.0917  156.6563 C   0  0  0  0  0  0  0  0  0  0  0  0
  144.7233  144.0127  155.1322 C   0  0  0  0  0  0  0  0  0  0  0  0
  145.2864  142.5914  154.9374 C   0  0  2  0  0  0  0  0  0  0  0  0
  144.4908  141.8085  155.9773 C   0  0  0  0  0  0  0  0  0  0  0  0
  152.4550  140.9083  158.3131 C   0  0  0  0  0  0  0  0  0  0  0  0
  152.9330  139.8565  157.8853 O   0  0  0  0  0  0  0  0  0  0  0  0
  152.7149  141.4369  159.6539 C   0  0  0  0  0  0  0  0  0  0  0  0
  153.5802  140.6460  160.4682 C   0  0  0  0  0  0  0  0  0  0  0  0
  154.2844  139.9908  161.1128 N   0  0  0  0  0  0  0  0  0  0  0  0
  152.1713  142.6003  160.0912 C   0  0  0  0  0  0  0  0  0  0  0  0
  152.4137  143.1896  161.4740 C   0  0  0  0  0  0  0  0  0  0  0  0
  151.3965  145.3716  159.9066 H   0  0  0  0  0  0  0  0  0  0  0  0
  149.9035  144.5183  160.3069 H   0  0  0  0  0  0  0  0  0  0  0  0
  150.1705  145.1155  158.6723 H   0  0  0  0  0  0  0  0  0  0  0  0
  151.3711  142.1521  155.5225 H   0  0  0  0  0  0  0  0  0  0  0  0
  151.8918  140.5240  155.8330 H   0  0  0  0  0  0  0  0  0  0  0  0
  149.4052  142.3670  154.8141 H   0  0  0  0  0  0  0  0  0  0  0  0
  147.2459  140.4498  155.5717 H   0  0  0  0  0  0  0  0  0  0  0  0
  146.3790  140.7581  153.2657 H   0  0  0  0  0  0  0  0  0  0  0  0
  148.0398  140.2063  153.2035 H   0  0  0  0  0  0  0  0  0  0  0  0
  147.6695  141.9014  152.9068 H   0  0  0  0  0  0  0  0  0  0  0  0
  147.2641  143.4508  155.1997 H   0  0  0  0  0  0  0  0  0  0  0  0
  146.8039  141.6331  157.4921 H   0  0  0  0  0  0  0  0  0  0  0  0
  147.0040  143.3811  157.5155 H   0  0  0  0  0  0  0  0  0  0  0  0
  144.5580  142.4176  158.1063 H   0  0  0  0  0  0  0  0  0  0  0  0
  143.4690  144.2753  156.8926 H   0  0  0  0  0  0  0  0  0  0  0  0
  145.1095  144.8837  157.1168 H   0  0  0  0  0  0  0  0  0  0  0  0
  143.7708  144.1242  154.6125 H   0  0  0  0  0  0  0  0  0  0  0  0
  145.3969  144.7854  154.7602 H   0  0  0  0  0  0  0  0  0  0  0  0
  145.1735  142.2325  153.9154 H   0  0  0  0  0  0  0  0  0  0  0  0
  144.8038  140.7680  156.0769 H   0  0  0  0  0  0  0  0  0  0  0  0
  143.4123  141.8420  155.8129 H   0  0  0  0  0  0  0  0  0  0  0  0
  152.9012  142.4794  162.1413 H   0  0  0  0  0  0  0  0  0  0  0  0
  151.4748  143.4800  161.9461 H   0  0  0  0  0  0  0  0  0  0  0  0
  153.0514  144.0712  161.4020 H   0  0  0  0  0  0  0  0  0  0  0  0
  1  2  1  0  0  0  0
  1 25  1  0  0  0  0
  1 26  1  0  0  0  0
  1 27  1  0  0  0  0
  2 23  1  0  0  0  0
  2  3  2  0  0  0  0
  3  4  1  0  0  0  0
  4  5  1  0  0  0  0
  4 18  1  0  0  0  0
  5  6  1  0  0  0  0
  5 28  1  0  0  0  0
  5 29  1  0  0  0  0
  6  7  2  0  0  0  0
  6  8  1  0  0  0  0
  8  9  1  0  0  0  0
  8 30  1  0  0  0  0
  9 10  1  0  0  0  0
  9 11  1  0  0  0  0
  9 31  1  0  0  0  0
 10 32  1  0  0  0  0
 10 33  1  0  0  0  0
 10 34  1  0  0  0  0
 11 16  1  0  0  0  0
 11 12  1  0  0  0  0
 11 35  1  0  0  0  0
 12 13  1  0  0  0  0
 12 36  1  0  0  0  0
 12 37  1  0  0  0  0
 13 17  1  0  0  0  0
 13 14  1  0  0  0  0
 13 38  1  0  0  0  0
 14 15  1  0  0  0  0
 14 39  1  0  0  0  0
 14 40  1  0  0  0  0
 15 16  1  0  0  0  0
 15 41  1  0  0  0  0
 15 42  1  0  0  0  0
 16 17  1  0  0  0  0
 16 43  1  0  0  0  0
 17 44  1  0  0  0  0
 17 45  1  0  0  0  0
 18 19  2  0  0  0  0
 18 20  1  0  0  0  0
 20 21  1  0  0  0  0
 20 23  2  0  0  0  0
 21 22  3  0  0  0  0
 23 24  1  0  0  0  0
 24 46  1  0  0  0  0
 24 47  1  0  0  0  0
 24 48  1  0  0  0  0
M  END
> <s_m_source_file>
AV-unprocessed.smi

> <i_m_source_file_index>
1401

> <i_lp_mmshare_version>
43012

> <i_f3d_flags>
0

> <s_epik_input>
TiNDYyhjMVtDSDNdKWMoPU8pbihuYzFbQ0gzXSlbQ0gyXUMoPU8pW05IXVtDQEhdKFtDSDNdKVtDQEhdKFtDSDJdW0NASF0yMylbQ0BIXShbQ0gyXTMpW0NIMl1bQ0gyXTI=

> <s_epik_cmdline>
J2VwaWtfcHl0aG9uJywgJy1waCcsICc3LjAnLCAnLXRuJywgJzgnLCAnLW1hJywgJzIwMCcsICctbWV0YWxfYmluZGluZycsICctaW1hZScsICc8aW5maWxlLm1hZT4nLCAnLW9tYWUnLCAnPG91dGZpbGUubWFlPic=

> <r_lp_tautomer_probability>
1

> <r_epik_Ionization_Penalty>
2.16501e-08

> <r_epik_Ionization_Penalty_Charging>
2.29436e-11

> <r_epik_Ionization_Penalty_Neutral>
2.16271e-08

> <r_epik_State_Penalty>
-0

> <r_epik_Charging_Adjusted_Penalty>
2.29436e-11

> <i_epik_Tot_Q>
0

> <i_epik_Tot_abs_Q>
0

> <r_epik_Metal_State_Penalty>
-0

> <b_epik_Metal_Only>
0

> <s_lp_Force_Field>
OPLS_2005

> <r_lp_Energy>
66.5869

> <b_lp_Chiralities_Consistent>
1

> <s_lp_Variant>
AV-unprocessed.smi:1401-5

> <Gold.Version>
5.8.1

> <Gold.Id.Protein>
6NUR|6NUR_protein|mol2

> <Gold.PLP.Fitness>
44.9238

> <Gold.PLP.PLP>
-42.8013

> <Gold.PLP.part.hbond>
-1.5483

> <Gold.PLP.part.metal>
0.0000

> <Gold.PLP.part.buried>
-6.5955

> <Gold.PLP.part.nonpolar>
-34.7785

> <Gold.PLP.part.repulsive>
0.2705

> <Gold.PLP.ligand.clash>
0.0000

> <Gold.PLP.ligand.torsion>
0.4530

> <Gold.PLP.Chemscore.Hbond>
1.0000

> <Gold.PLP.Chemscore.CHOScore>
0.0000

> <Gold.PLP.Chemscore.Metal>
0.0000

> <Gold.Chemscore.Hbonds>
donor molecule, donor type, donor heavy atom, donor atom, acceptor molecule, acceptor atom, score
      P1  H  7997  8010       L1    19  1.00

> <Gold.PLP.Chemscore.Internal.Correction>
0.0284

> <Gold.Rescore>
     Score         DG    S(hbond)    S(metal)    S(lipo)     H(rot)  DE(clash)    DE(int)     intcor
     15.47     -16.12       0.94        0.00      99.75       1.63       0.27       0.38       ----

> <Gold.Chemscore.Fitness>
15.4749

> <Gold.Chemscore.DG>
-16.1235

> <Gold.Chemscore.ZeroCoef>
-5.4800

> <Gold.Chemscore.Hbond>
0.9403

> <Gold.Chemscore.Metal>
0.0000

> <Gold.Chemscore.Lipo>
99.7490

> <Gold.Chemscore.Internal_Hbond>
0.0000

> <Gold.Chemscore.DEClash>
0.2688

> <Gold.Chemscore.DEInternal>
0.3798

> <Gold.Chemscore.Rot>
1.6281

> <Gold.Chemscore.Internal.Correction>
   9.000000E+99

> <Gold.Chemscore.Hbonds>
donor molecule, donor type, donor heavy atom, donor atom, acceptor molecule, acceptor atom, score
      P1  H  7997  8010       L1    19  0.90

> <Gold.Chemscore.Hbond.Weighted>
-3.1407

> <Gold.Chemscore.Metal.Weighted>
-0.0000

> <Gold.Chemscore.Lipo.Weighted>
-11.6706

> <Gold.Chemscore.Internal_Hbond.Weighted>
0.0000

> <Gold.Chemscore.DEClash.Weighted>
0.2688

> <Gold.Chemscore.DEInternal.Weighted>
0.3798

> <Gold.Chemscore.Rot.Weighted>
4.1678

> <Gold.Chemscore.Internal.Correction.Weighted>
   9.000000E+99

> <Gold.Protein.RotatedTorsions>
[ 6907 6896 6895 6894 ] final  -32.32 input  -60.11 | X-H torsion
[ 7974 7965 7964 7962 ] final   71.35 input  175.53 | X-H torsion
[ 8008 7997 7996 7995 ] final   43.24 input   59.86 | X-H torsion
[ 10167 10162 10161 10158 ] final   13.99 input  -65.29 | X-H torsion
[ 10718 10713 10712 10709 ] final -126.28 input   66.30 | X-H torsion
[ 10763 10752 10751 10750 ] final  176.55 input  -60.55 | X-H torsion
[ 11005 11000 10999 10996 ] final  -54.49 input  -57.11 | X-H torsion

> <Gold.Protein.ActiveResidues>
 VAL166  LYS551  ARG553  GLY616  TRP617  ASP618  TYR619  PRO620  LYS621  CYS622 
 ASP623  PHE694  ASN695  SER759  ASP760  ASP761  ALA762  ILE779  LEU786  VAL792 
 PHE793  MET794  SER795  GLU796  ALA797  LYS798  CYS799  TRP800  GLU811  SER814 

> <Gold.Protein.RotatedAtoms>
  151.0803  134.9854  159.8352 H   0  0  0  0  0  0  0  0  0  0  0  0  # atno 6907 bound_to 6896
  152.5419  134.2190  159.8790 H   0  0  0  0  0  0  0  0  0  0  0  0  # atno 6908 bound_to 6896
  151.2219  133.4454  159.2634 H   0  0  0  0  0  0  0  0  0  0  0  0  # atno 6909 bound_to 6896
  145.7669  139.2825  143.1344 H   0  0  0  0  0  0  0  0  0  0  0  0  # atno 7974 bound_to 7965
  155.2995  140.3384  155.4248 H   0  0  0  0  0  0  0  0  0  0  0  0  # atno 8008 bound_to 7997
  156.2008  140.1732  156.7943 H   0  0  0  0  0  0  0  0  0  0  0  0  # atno 8009 bound_to 7997
  154.5556  140.0697  156.8722 H   0  0  0  0  0  0  0  0  0  0  0  0  # atno 8010 bound_to 7997
  140.5965  143.8690  150.6923 H   0  0  0  0  0  0  0  0  0  0  0  0  # atno 10167 bound_to 10162
  156.1751  130.6694  151.0231 H   0  0  0  0  0  0  0  0  0  0  0  0  # atno 10718 bound_to 10713
  154.4827  135.2775  155.1558 H   0  0  0  0  0  0  0  0  0  0  0  0  # atno 10763 bound_to 10752
  154.3262  135.6199  153.5534 H   0  0  0  0  0  0  0  0  0  0  0  0  # atno 10764 bound_to 10752
  152.9877  135.5754  154.5231 H   0  0  0  0  0  0  0  0  0  0  0  0  # atno 10765 bound_to 10752
  141.1028  133.6616  156.4328 H   0  0  0  0  0  0  0  0  0  0  0  0  # atno 11005 bound_to 11000
  146.0209  140.8349  142.9924 LP  0  0  0  0  0  0  0  0  0  0  0  0  # atno 17320 bound_to 7965
  144.6820  140.2627  143.7317 LP  0  0  0  0  0  0  0  0  0  0  0  0  # atno 17321 bound_to 7965
  140.2226  143.3797  152.1631 LP  0  0  0  0  0  0  0  0  0  0  0  0  # atno 17342 bound_to 10162
  139.5262  144.7105  151.5222 LP  0  0  0  0  0  0  0  0  0  0  0  0  # atno 17343 bound_to 10162
  157.6830  131.0833  150.7320 LP  0  0  0  0  0  0  0  0  0  0  0  0  # atno 17370 bound_to 10713
  156.7378  130.4729  149.5484 LP  0  0  0  0  0  0  0  0  0  0  0  0  # atno 17371 bound_to 10713
  140.4978  134.6514  157.5237 LP  0  0  0  0  0  0  0  0  0  0  0  0  # atno 17394 bound_to 11000
  139.9886  134.7021  155.9729 LP  0  0  0  0  0  0  0  0  0  0  0  0  # atno 17395 bound_to 11000

$$$$
