AV-unprocessed.smi:1464|AV-procd|sdf|5942|dock1
  -GOLD-   22720 6 23D 1   1.00000     0.00000
 Structure written by MMmdl.
 40 41  0  0  0  0  0  0  0  0  2 V2000
  151.3279  142.4134  157.3746 C   0  0  0  0  0  0  0  0  0  0  0  0
  150.5928  141.1057  157.0306 C   0  0  1  0  0  0  0  0  0  0  0  0
  150.3018  141.0531  155.5161 C   0  0  0  0  0  0  0  0  0  0  0  0
  149.5571  139.7733  155.1123 C   0  0  0  0  0  0  0  0  0  0  0  0
  150.3345  138.5248  155.5537 C   0  0  0  0  0  0  0  0  0  0  0  0
  150.6250  138.5396  157.0676 C   0  0  2  0  0  0  0  0  0  0  0  0
  149.3897  138.3927  157.8314 N   0  0  0  0  0  0  0  0  0  0  0  0
  149.0281  137.3471  158.5917 C   0  0  0  0  0  0  0  0  0  0  0  0
  149.7356  136.3518  158.7450 O   0  0  0  0  0  0  0  0  0  0  0  0
  147.6544  137.4181  159.2822 C   0  0  0  0  0  0  0  0  0  0  0  0
  147.5398  136.5801  160.4885 N   0  0  0  0  0  0  0  0  0  0  0  0
  147.7580  137.3070  161.7364 N   0  5  0  0  0  0  0  0  0  0  0  0
  147.5733  136.6628  162.9192 C   0  0  0  0  0  0  0  0  0  0  0  0
  147.6990  137.2190  164.0075 O   0  0  0  0  0  0  0  0  0  0  0  0
  147.2161  135.2543  162.8824 C   0  0  0  0  0  0  0  0  0  0  0  0
  147.0488  134.6011  161.7157 C   0  0  0  0  0  0  0  0  0  0  0  0
  147.2009  135.2605  160.4244 C   0  0  0  0  0  0  0  0  0  0  0  0
  147.0174  134.6779  159.3559 O   0  0  0  0  0  0  0  0  0  0  0  0
  151.3667  139.8358  157.4869 C   0  0  2  0  0  0  0  0  0  0  0  0
  151.6791  139.8333  158.9977 C   0  0  0  0  0  0  0  0  0  0  0  0
  152.3300  142.4310  156.9454 H   0  0  0  0  0  0  0  0  0  0  0  0
  151.4198  142.5536  158.4512 H   0  0  0  0  0  0  0  0  0  0  0  0
  150.7872  143.2785  156.9895 H   0  0  0  0  0  0  0  0  0  0  0  0
  149.6340  141.1293  157.5513 H   0  0  0  0  0  0  0  0  0  0  0  0
  149.7111  141.9206  155.2202 H   0  0  0  0  0  0  0  0  0  0  0  0
  151.2383  141.1156  154.9600 H   0  0  0  0  0  0  0  0  0  0  0  0
  148.5614  139.7699  155.5581 H   0  0  0  0  0  0  0  0  0  0  0  0
  149.4096  139.7547  154.0325 H   0  0  0  0  0  0  0  0  0  0  0  0
  149.7825  137.6251  155.2792 H   0  0  0  0  0  0  0  0  0  0  0  0
  151.2775  138.4782  155.0077 H   0  0  0  0  0  0  0  0  0  0  0  0
  151.2695  137.6897  157.2991 H   0  0  0  0  0  0  0  0  0  0  0  0
  148.7399  139.1651  157.7844 H   0  0  0  0  0  0  0  0  0  0  0  0
  147.4353  138.4595  159.5238 H   0  0  0  0  0  0  0  0  0  0  0  0
  146.8965  137.1247  158.5537 H   0  0  0  0  0  0  0  0  0  0  0  0
  147.0863  134.7187  163.8114 H   0  0  0  0  0  0  0  0  0  0  0  0
  146.7860  133.5539  161.7361 H   0  0  0  0  0  0  0  0  0  0  0  0
  152.3262  139.8329  156.9676 H   0  0  0  0  0  0  0  0  0  0  0  0
  150.7774  139.9688  159.5967 H   0  0  0  0  0  0  0  0  0  0  0  0
  152.3773  140.6257  159.2654 H   0  0  0  0  0  0  0  0  0  0  0  0
  152.1388  138.8920  159.3001 H   0  0  0  0  0  0  0  0  0  0  0  0
  1  2  1  0  0  0  0
  1 21  1  0  0  0  0
  1 22  1  0  0  0  0
  1 23  1  0  0  0  0
  2 19  1  0  0  0  0
  2  3  1  0  0  0  0
  2 24  1  0  0  0  0
  3  4  1  0  0  0  0
  3 25  1  0  0  0  0
  3 26  1  0  0  0  0
  4  5  1  0  0  0  0
  4 27  1  0  0  0  0
  4 28  1  0  0  0  0
  5  6  1  0  0  0  0
  5 29  1  0  0  0  0
  5 30  1  0  0  0  0
  6  7  1  0  0  0  0
  6 19  1  0  0  0  0
  6 31  1  0  0  0  0
  7  8  1  0  0  0  0
  7 32  1  0  0  0  0
  8  9  2  0  0  0  0
  8 10  1  0  0  0  0
 10 33  1  0  0  0  0
 10 34  1  0  0  0  0
 10 11  1  0  0  0  0
 11 12  1  0  0  0  0
 11 17  1  0  0  0  0
 12 13  1  0  0  0  0
 13 14  2  0  0  0  0
 13 15  1  0  0  0  0
 15 35  1  0  0  0  0
 15 16  2  0  0  0  0
 16 36  1  0  0  0  0
 16 17  1  0  0  0  0
 17 18  2  0  0  0  0
 19 20  1  0  0  0  0
 19 37  1  0  0  0  0
 20 38  1  0  0  0  0
 20 39  1  0  0  0  0
 20 40  1  0  0  0  0
M  CHG  1  12  -1
M  END
> <s_m_source_file>
AV-unprocessed.smi

> <i_m_source_file_index>
1464

> <i_lp_mmshare_version>
43012

> <i_f3d_flags>
0

> <s_epik_input>
W0NIM11bQ0BASF0xW0NIMl1bQ0gyXVtDSDJdW0NASF0oW0NASF0xW0NIM10pW05IXUMoPU8pW0NIMl1uMltuSF1jKD1PKVtjSF1bY0hdYzI9Tw==

> <s_epik_cmdline>
J2VwaWtfcHl0aG9uJywgJy1waCcsICc3LjAnLCAnLXRuJywgJzgnLCAnLW1hJywgJzIwMCcsICctbWV0YWxfYmluZGluZycsICctaW1hZScsICc8aW5maWxlLm1hZT4nLCAnLW9tYWUnLCAnPG91dGZpbGUubWFlPic=

> <r_lp_tautomer_probability>
1

> <r_epik_Ionization_Penalty>
0.101366

> <r_epik_Ionization_Penalty_Charging>
0.101366

> <r_epik_Ionization_Penalty_Neutral>
1.90469e-08

> <r_epik_State_Penalty>
0.035861

> <r_epik_Charging_Adjusted_Penalty>
0.137227

> <i_epik_Tot_Q>
-1

> <i_epik_Tot_abs_Q>
1

> <r_epik_Metal_State_Penalty>
0.035861

> <b_epik_Metal_Only>
0

> <s_lp_Force_Field>
OPLS_2005

> <r_lp_Energy>
23.814

> <b_lp_Chiralities_Consistent>
1

> <s_lp_Variant>
AV-unprocessed.smi:1464-8

> <Gold.Version>
5.8.1

> <Gold.Id.Protein>
6NUR|6NUR_protein|mol2

> <Gold.PLP.Fitness>
45.5740

> <Gold.PLP.PLP>
-33.7713

> <Gold.PLP.part.hbond>
-3.7123

> <Gold.PLP.part.metal>
0.0000

> <Gold.PLP.part.buried>
-2.2580

> <Gold.PLP.part.nonpolar>
-27.5158

> <Gold.PLP.part.repulsive>
0.1282

> <Gold.PLP.ligand.clash>
0.0000

> <Gold.PLP.ligand.torsion>
0.7173

> <Gold.PLP.Chemscore.Hbond>
4.4080

> <Gold.PLP.Chemscore.CHOScore>
0.0000

> <Gold.PLP.Chemscore.Metal>
0.0000

> <Gold.Chemscore.Hbonds>
donor molecule, donor type, donor heavy atom, donor atom, acceptor molecule, acceptor atom, score
      P1  H  6896  6907       L1     9  0.83
      P1  H  6931  6943       L1    12  1.98
      P1  H  6934  6947       L1    12  0.85

> <Gold.PLP.Chemscore.Internal.Correction>
0.0133

> <Gold.Rescore>
     Score         DG    S(hbond)    S(metal)    S(lipo)     H(rot)  DE(clash)    DE(int)     intcor
     13.70     -15.57       1.95        0.00      66.49       1.64       1.21       0.66       ----

> <Gold.Chemscore.Fitness>
13.7033

> <Gold.Chemscore.DG>
-15.5739

> <Gold.Chemscore.ZeroCoef>
-5.4800

> <Gold.Chemscore.Hbond>
1.9529

> <Gold.Chemscore.Metal>
0.0000

> <Gold.Chemscore.Lipo>
66.4904

> <Gold.Chemscore.Internal_Hbond>
0.0000

> <Gold.Chemscore.DEClash>
1.2110

> <Gold.Chemscore.DEInternal>
0.6596

> <Gold.Chemscore.Rot>
1.6438

> <Gold.Chemscore.Internal.Correction>
   9.000000E+99

> <Gold.Chemscore.Hbonds>
donor molecule, donor type, donor heavy atom, donor atom, acceptor molecule, acceptor atom, score
      P1  H  6896  6907       L1     9  0.82
      P1  H  6931  6943       L1    12  0.54
      P1  H  6934  6947       L1    12  0.04

> <Gold.Chemscore.Hbond.Weighted>
-6.5226

> <Gold.Chemscore.Metal.Weighted>
-0.0000

> <Gold.Chemscore.Lipo.Weighted>
-7.7794

> <Gold.Chemscore.Internal_Hbond.Weighted>
0.0000

> <Gold.Chemscore.DEClash.Weighted>
1.2110

> <Gold.Chemscore.DEInternal.Weighted>
0.6596

> <Gold.Chemscore.Rot.Weighted>
4.2080

> <Gold.Chemscore.Internal.Correction.Weighted>
   9.000000E+99

> <Gold.Protein.RotatedTorsions>
[ 6907 6896 6895 6894 ] final  -60.25 input  -60.11 | X-H torsion
[ 7974 7965 7964 7962 ] final    8.28 input  175.53 | X-H torsion
[ 8008 7997 7996 7995 ] final  120.96 input   59.86 | X-H torsion
[ 10167 10162 10161 10158 ] final  -63.69 input  -65.29 | X-H torsion
[ 10718 10713 10712 10709 ] final  -57.19 input   66.30 | X-H torsion
[ 10763 10752 10751 10750 ] final   86.11 input  -60.55 | X-H torsion
[ 11005 11000 10999 10996 ] final  -38.18 input  -57.11 | X-H torsion

> <Gold.Protein.ActiveResidues>
 VAL166  LYS551  ARG553  GLY616  TRP617  ASP618  TYR619  PRO620  LYS621  CYS622 
 ASP623  PHE694  ASN695  SER759  ASP760  ASP761  ALA762  ILE779  LEU786  VAL792 
 PHE793  MET794  SER795  GLU796  ALA797  LYS798  CYS799  TRP800  GLU811  SER814 

> <Gold.Protein.RotatedAtoms>
  150.7870  134.6862  159.6470 H   0  0  0  0  0  0  0  0  0  0  0  0  # atno 6907 bound_to 6896
  152.3968  134.6349  160.0095 H   0  0  0  0  0  0  0  0  0  0  0  0  # atno 6908 bound_to 6896
  151.6632  133.3279  159.3215 H   0  0  0  0  0  0  0  0  0  0  0  0  # atno 6909 bound_to 6896
  146.2418  139.9957  142.8421 H   0  0  0  0  0  0  0  0  0  0  0  0  # atno 7974 bound_to 7965
  156.2666  140.2819  156.1232 H   0  0  0  0  0  0  0  0  0  0  0  0  # atno 8008 bound_to 7997
  155.1133  140.0391  157.2747 H   0  0  0  0  0  0  0  0  0  0  0  0  # atno 8009 bound_to 7997
  154.6726  140.2591  155.6997 H   0  0  0  0  0  0  0  0  0  0  0  0  # atno 8010 bound_to 7997
  140.5853  143.2333  151.6255 H   0  0  0  0  0  0  0  0  0  0  0  0  # atno 10167 bound_to 10162
  156.1230  130.4165  150.0406 H   0  0  0  0  0  0  0  0  0  0  0  0  # atno 10718 bound_to 10713
  153.1539  135.4592  154.9676 H   0  0  0  0  0  0  0  0  0  0  0  0  # atno 10763 bound_to 10752
  154.7846  135.3200  154.7917 H   0  0  0  0  0  0  0  0  0  0  0  0  # atno 10764 bound_to 10752
  153.8417  135.6929  153.4856 H   0  0  0  0  0  0  0  0  0  0  0  0  # atno 10765 bound_to 10752
  141.0008  133.6956  156.2020 H   0  0  0  0  0  0  0  0  0  0  0  0  # atno 11005 bound_to 11000
  145.1462  140.9598  143.4460 LP  0  0  0  0  0  0  0  0  0  0  0  0  # atno 17320 bound_to 7965
  145.0249  139.3392  143.6054 LP  0  0  0  0  0  0  0  0  0  0  0  0  # atno 17321 bound_to 7965
  139.5194  144.3254  152.0873 LP  0  0  0  0  0  0  0  0  0  0  0  0  # atno 17342 bound_to 10162
  140.2411  144.4269  150.6260 LP  0  0  0  0  0  0  0  0  0  0  0  0  # atno 17343 bound_to 10162
  156.8339  130.9402  151.3635 LP  0  0  0  0  0  0  0  0  0  0  0  0  # atno 17370 bound_to 10713
  157.6413  130.8808  149.9453 LP  0  0  0  0  0  0  0  0  0  0  0  0  # atno 17371 bound_to 10713
  140.6891  134.4685  157.5589 LP  0  0  0  0  0  0  0  0  0  0  0  0  # atno 17394 bound_to 11000
  139.9038  134.8495  156.1788 LP  0  0  0  0  0  0  0  0  0  0  0  0  # atno 17395 bound_to 11000

$$$$
