AV-unprocessed.smi:2430|AV-procd|sdf|9583|dock1
  -GOLD-   2272013213D 1   1.00000     0.00000
 Structure written by MMmdl.
 46 47  0  0  0  0  0  0  0  0  1 V2000
  150.5998  144.8580  159.4083 C   0  0  0  0  0  0  0  0  0  0  0  0
  151.8765  144.4963  158.6286 C   0  0  2  0  0  0  0  0  0  0  0  0
  151.6089  143.6344  157.3785 C   0  0  0  0  0  0  0  0  0  0  0  0
  151.3211  142.2506  157.7449 N   0  0  0  0  0  0  0  0  0  0  0  0
  150.7928  141.4495  156.7104 C   0  0  0  0  0  0  0  0  0  0  0  0
  151.4150  140.2241  156.3753 C   0  0  0  0  0  0  0  0  0  0  0  0
  150.8756  139.4374  155.3397 C   0  0  0  0  0  0  0  0  0  0  0  0
  149.7274  139.8999  154.6566 C   0  0  0  0  0  0  0  0  0  0  0  0
  149.0819  139.1899  153.6094 N   0  0  0  0  0  0  0  0  0  0  0  0
  147.7956  139.2624  153.2275 C   0  0  0  0  0  0  0  0  0  0  0  0
  146.9401  139.9812  153.7438 O   0  0  0  0  0  0  0  0  0  0  0  0
  147.5427  138.4228  152.2135 N   0  0  0  0  0  0  0  0  0  0  0  0
  146.2344  138.2203  151.6020 C   0  0  0  0  0  0  0  0  0  0  0  0
  145.6741  136.8264  151.9278 C   0  0  0  0  0  0  0  0  0  0  0  0
  144.4044  136.8909  152.7863 C   0  0  0  0  0  0  0  0  0  0  0  0
  143.5260  137.8659  152.2679 O   0  0  0  0  0  0  0  0  0  0  0  0
  149.1703  141.1259  155.0700 C   0  0  0  0  0  0  0  0  0  0  0  0
  149.6865  141.8847  156.0591 N   0  0  0  0  0  0  0  0  0  0  0  0
  152.3356  141.6641  158.6159 C   0  0  0  0  0  0  0  0  0  0  0  0
  152.5435  142.5420  159.8624 C   0  0  1  0  0  0  0  0  0  0  0  0
  153.6893  142.0274  160.7399 C   0  0  0  0  0  0  0  0  0  0  0  0
  152.8588  143.8743  159.4602 O   0  0  0  0  0  0  0  0  0  0  0  0
  149.9256  145.4508  158.7899 H   0  0  0  0  0  0  0  0  0  0  0  0
  150.8385  145.4474  160.2939 H   0  0  0  0  0  0  0  0  0  0  0  0
  150.0484  143.9755  159.7315 H   0  0  0  0  0  0  0  0  0  0  0  0
  152.3160  145.4360  158.2929 H   0  0  0  0  0  0  0  0  0  0  0  0
  150.8021  144.0794  156.7974 H   0  0  0  0  0  0  0  0  0  0  0  0
  152.4919  143.6374  156.7380 H   0  0  0  0  0  0  0  0  0  0  0  0
  152.3008  139.8857  156.8920 H   0  0  0  0  0  0  0  0  0  0  0  0
  151.3440  138.4956  155.0996 H   0  0  0  0  0  0  0  0  0  0  0  0
  149.6444  138.4897  153.1488 H   0  0  0  0  0  0  0  0  0  0  0  0
  148.3051  137.8692  151.8510 H   0  0  0  0  0  0  0  0  0  0  0  0
  145.5411  138.9981  151.9265 H   0  0  0  0  0  0  0  0  0  0  0  0
  146.3443  138.3338  150.5232 H   0  0  0  0  0  0  0  0  0  0  0  0
  145.4585  136.2962  150.9988 H   0  0  0  0  0  0  0  0  0  0  0  0
  146.4313  136.2393  152.4499 H   0  0  0  0  0  0  0  0  0  0  0  0
  143.8982  135.9253  152.7970 H   0  0  0  0  0  0  0  0  0  0  0  0
  144.6480  137.1450  153.8183 H   0  0  0  0  0  0  0  0  0  0  0  0
  143.8367  138.1275  151.4146 H   0  0  0  0  0  0  0  0  0  0  0  0
  148.2853  141.5166  154.5890 H   0  0  0  0  0  0  0  0  0  0  0  0
  152.0327  140.6626  158.9249 H   0  0  0  0  0  0  0  0  0  0  0  0
  153.2707  141.5666  158.0624 H   0  0  0  0  0  0  0  0  0  0  0  0
  151.6342  142.5445  160.4637 H   0  0  0  0  0  0  0  0  0  0  0  0
  153.4951  141.0108  161.0829 H   0  0  0  0  0  0  0  0  0  0  0  0
  153.8174  142.6564  161.6212 H   0  0  0  0  0  0  0  0  0  0  0  0
  154.6330  142.0220  160.1938 H   0  0  0  0  0  0  0  0  0  0  0  0
  1  2  1  0  0  0  0
  1 23  1  0  0  0  0
  1 24  1  0  0  0  0
  1 25  1  0  0  0  0
  2 22  1  0  0  0  0
  2  3  1  0  0  0  0
  2 26  1  0  0  0  0
  3  4  1  0  0  0  0
  3 27  1  0  0  0  0
  3 28  1  0  0  0  0
  4  5  1  0  0  0  0
  4 19  1  0  0  0  0
  5 18  1  0  0  0  0
  5  6  2  0  0  0  0
  6  7  1  0  0  0  0
  6 29  1  0  0  0  0
  7  8  2  0  0  0  0
  7 30  1  0  0  0  0
  8  9  1  0  0  0  0
  8 17  1  0  0  0  0
  9 10  1  0  0  0  0
  9 31  1  0  0  0  0
 10 11  2  0  0  0  0
 10 12  1  0  0  0  0
 12 13  1  0  0  0  0
 12 32  1  0  0  0  0
 13 14  1  0  0  0  0
 13 33  1  0  0  0  0
 13 34  1  0  0  0  0
 14 15  1  0  0  0  0
 14 35  1  0  0  0  0
 14 36  1  0  0  0  0
 15 16  1  0  0  0  0
 15 37  1  0  0  0  0
 15 38  1  0  0  0  0
 16 39  1  0  0  0  0
 17 18  2  0  0  0  0
 17 40  1  0  0  0  0
 19 20  1  0  0  0  0
 19 41  1  0  0  0  0
 19 42  1  0  0  0  0
 20 21  1  0  0  0  0
 20 22  1  0  0  0  0
 20 43  1  0  0  0  0
 21 44  1  0  0  0  0
 21 45  1  0  0  0  0
 21 46  1  0  0  0  0
M  END
> <s_m_source_file>
AV-unprocessed.smi

> <i_m_source_file_index>
2430

> <i_lp_mmshare_version>
43012

> <i_f3d_flags>
0

> <s_epik_input>
W0NIM11bQ0BASF0xW0NIMl1OKFtDSDJdW0NASF0oTzEpW0NIM10pYzJbY0hdW2NIXWMoW2NIXW4yKVtOSF1DKD1PKVtOSF1bQ0gyXVtDSDJdW0NIMl1bT0hd

> <s_epik_cmdline>
J2VwaWtfcHl0aG9uJywgJy1waCcsICc3LjAnLCAnLXRuJywgJzgnLCAnLW1hJywgJzIwMCcsICctbWV0YWxfYmluZGluZycsICctaW1hZScsICc8aW5maWxlLm1hZT4nLCAnLW9tYWUnLCAnPG91dGZpbGUubWFlPic=

> <r_lp_tautomer_probability>
1

> <r_epik_Ionization_Penalty>
0.00269907

> <r_epik_Ionization_Penalty_Charging>
0

> <r_epik_Ionization_Penalty_Neutral>
0.00269907

> <r_epik_State_Penalty>
0.00185337

> <r_epik_Charging_Adjusted_Penalty>
0.00185337

> <i_epik_Tot_Q>
0

> <i_epik_Tot_abs_Q>
0

> <r_epik_Metal_State_Penalty>
-0

> <b_epik_Metal_Only>
0

> <s_lp_Force_Field>
OPLS_2005

> <r_lp_Energy>
20.8666

> <b_lp_Chiralities_Consistent>
1

> <s_lp_Variant>
AV-unprocessed.smi:2430-1

> <Gold.Version>
5.8.1

> <Gold.Id.Protein>
6NUR|6NUR_protein|mol2

> <Gold.PLP.Fitness>
51.3183

> <Gold.PLP.PLP>
-46.7409

> <Gold.PLP.part.hbond>
-5.0000

> <Gold.PLP.part.metal>
0.0000

> <Gold.PLP.part.buried>
-5.1156

> <Gold.PLP.part.nonpolar>
-39.8934

> <Gold.PLP.part.repulsive>
1.5314

> <Gold.PLP.ligand.clash>
0.0000

> <Gold.PLP.ligand.torsion>
0.7614

> <Gold.PLP.Chemscore.Hbond>
1.9120

> <Gold.PLP.Chemscore.CHOScore>
0.0000

> <Gold.PLP.Chemscore.Metal>
0.0000

> <Gold.Chemscore.Hbonds>
donor molecule, donor type, donor heavy atom, donor atom, acceptor molecule, acceptor atom, score
      L1  H    12    32       P1  7948  0.88
      L1  H    16    39       P1 10171  1.00

> <Gold.PLP.Chemscore.Internal.Correction>
0.3642

> <Gold.Rescore>
     Score         DG    S(hbond)    S(metal)    S(lipo)     H(rot)  DE(clash)    DE(int)     intcor
     15.71     -19.02       1.96        0.00     110.80       2.33       1.28       2.03       ----

> <Gold.Chemscore.Fitness>
15.7100

> <Gold.Chemscore.DG>
-19.0218

> <Gold.Chemscore.ZeroCoef>
-5.4800

> <Gold.Chemscore.Hbond>
1.9626

> <Gold.Chemscore.Metal>
0.0000

> <Gold.Chemscore.Lipo>
110.7975

> <Gold.Chemscore.Internal_Hbond>
0.0000

> <Gold.Chemscore.DEClash>
1.2808

> <Gold.Chemscore.DEInternal>
2.0311

> <Gold.Chemscore.Rot>
2.3346

> <Gold.Chemscore.Internal.Correction>
   9.000000E+99

> <Gold.Chemscore.Hbonds>
donor molecule, donor type, donor heavy atom, donor atom, acceptor molecule, acceptor atom, score
      L1  H    12    32       P1  7948  0.87
      L1  H    16    39       P1 10171  0.98

> <Gold.Chemscore.Hbond.Weighted>
-6.5551

> <Gold.Chemscore.Metal.Weighted>
-0.0000

> <Gold.Chemscore.Lipo.Weighted>
-12.9633

> <Gold.Chemscore.Internal_Hbond.Weighted>
0.0000

> <Gold.Chemscore.DEClash.Weighted>
1.2808

> <Gold.Chemscore.DEInternal.Weighted>
2.0311

> <Gold.Chemscore.Rot.Weighted>
5.9766

> <Gold.Chemscore.Internal.Correction.Weighted>
   9.000000E+99

> <Gold.Protein.RotatedTorsions>
[ 6907 6896 6895 6894 ] final   35.21 input  -60.11 | X-H torsion
[ 7974 7965 7964 7962 ] final -100.02 input  175.53 | X-H torsion
[ 8008 7997 7996 7995 ] final   23.94 input   59.86 | X-H torsion
[ 10167 10162 10161 10158 ] final   43.96 input  -65.29 | X-H torsion
[ 10718 10713 10712 10709 ] final -167.50 input   66.30 | X-H torsion
[ 10763 10752 10751 10750 ] final  153.80 input  -60.55 | X-H torsion
[ 11005 11000 10999 10996 ] final  171.11 input  -57.11 | X-H torsion

> <Gold.Protein.ActiveResidues>
 VAL166  LYS551  ARG553  GLY616  TRP617  ASP618  TYR619  PRO620  LYS621  CYS622 
 ASP623  PHE694  ASN695  SER759  ASP760  ASP761  ALA762  ILE779  LEU786  VAL792 
 PHE793  MET794  SER795  GLU796  ALA797  LYS798  CYS799  TRP800  GLU811  SER814 

> <Gold.Protein.RotatedAtoms>
  152.1130  134.9260  160.0565 H   0  0  0  0  0  0  0  0  0  0  0  0  # atno 6907 bound_to 6896
  152.0430  133.3981  159.4353 H   0  0  0  0  0  0  0  0  0  0  0  0  # atno 6908 bound_to 6896
  150.6844  134.3314  159.4872 H   0  0  0  0  0  0  0  0  0  0  0  0  # atno 6909 bound_to 6896
  145.3000  140.9375  143.2829 H   0  0  0  0  0  0  0  0  0  0  0  0  # atno 7974 bound_to 7965
  154.9886  140.3111  155.4916 H   0  0  0  0  0  0  0  0  0  0  0  0  # atno 8008 bound_to 7997
  156.2943  140.2253  156.4930 H   0  0  0  0  0  0  0  0  0  0  0  0  # atno 8009 bound_to 7997
  154.7724  140.0451  157.1050 H   0  0  0  0  0  0  0  0  0  0  0  0  # atno 8010 bound_to 7997
  140.3391  144.2493  150.6158 H   0  0  0  0  0  0  0  0  0  0  0  0  # atno 10167 bound_to 10162
  156.6832  130.9130  151.3060 H   0  0  0  0  0  0  0  0  0  0  0  0  # atno 10718 bound_to 10713
  154.1421  135.2820  155.3158 H   0  0  0  0  0  0  0  0  0  0  0  0  # atno 10763 bound_to 10752
  154.6279  135.5445  153.7651 H   0  0  0  0  0  0  0  0  0  0  0  0  # atno 10764 bound_to 10752
  153.0247  135.6455  154.1568 H   0  0  0  0  0  0  0  0  0  0  0  0  # atno 10765 bound_to 10752
  140.3155  134.7481  157.4024 H   0  0  0  0  0  0  0  0  0  0  0  0  # atno 11005 bound_to 11000
  144.9101  139.4539  143.6591 LP  0  0  0  0  0  0  0  0  0  0  0  0  # atno 17320 bound_to 7965
  146.3155  139.7904  142.8987 LP  0  0  0  0  0  0  0  0  0  0  0  0  # atno 17321 bound_to 7965
  140.5326  143.2240  151.8215 LP  0  0  0  0  0  0  0  0  0  0  0  0  # atno 17342 bound_to 10162
  139.4843  144.4702  151.9435 LP  0  0  0  0  0  0  0  0  0  0  0  0  # atno 17343 bound_to 10162
  157.7036  130.9360  150.0860 LP  0  0  0  0  0  0  0  0  0  0  0  0  # atno 17370 bound_to 10713
  156.1852  130.3652  149.8982 LP  0  0  0  0  0  0  0  0  0  0  0  0  # atno 17371 bound_to 10713
  140.0987  134.5502  155.8373 LP  0  0  0  0  0  0  0  0  0  0  0  0  # atno 17394 bound_to 11000
  141.2098  133.6688  156.6468 LP  0  0  0  0  0  0  0  0  0  0  0  0  # atno 17395 bound_to 11000

$$$$
