AV-unprocessed.smi:712|AV-procd|sdf|3472|dock8
  -GOLD-   22720 0463D 1   1.00000     0.00000
 Structure written by MMmdl.
 50 51  0  0  0  0  0  0  0  0  1 V2000
  152.4374  143.8170  161.0490 C   0  0  0  0  0  0  0  0  0  0  0  0
  152.1544  142.9391  159.8475 C   0  0  0  0  0  0  0  0  0  0  0  0
  151.2423  143.3792  158.8134 C   0  0  0  0  0  0  0  0  0  0  0  0
  150.9923  142.5687  157.7741 C   0  0  0  0  0  0  0  0  0  0  0  0
  151.5986  141.3050  157.6528 N   0  0  0  0  0  0  0  0  0  0  0  0
  151.2068  140.4942  156.4851 C   0  0  0  0  0  0  0  0  0  0  0  0
  149.6878  140.4232  156.2496 C   0  0  0  0  0  0  0  0  0  0  0  0
  149.0724  141.4537  155.9798 O   0  0  0  0  0  0  0  0  0  0  0  0
  149.0872  139.2299  156.3875 N   0  0  0  0  0  0  0  0  0  0  0  0
  147.6506  138.9861  156.3586 C   0  0  0  0  0  0  0  0  0  0  0  0
  147.0959  138.8018  157.7816 C   0  0  2  0  0  0  0  0  0  0  0  0
  147.6712  137.5566  158.4932 C   0  0  0  0  0  0  0  0  0  0  0  0
  147.0824  137.3565  159.8141 N   0  0  0  0  0  0  0  0  0  0  0  0
  147.6058  136.1710  160.4958 C   0  0  0  0  0  0  0  0  0  0  0  0
  146.8511  135.7373  161.7715 C   0  0  0  0  0  0  0  0  0  0  0  0
  147.0510  136.7667  162.8925 C   0  0  0  0  0  0  0  0  0  0  0  0
  147.2761  134.3370  162.2433 C   0  0  0  0  0  0  0  0  0  0  0  0
  145.6322  137.2842  159.6787 C   0  0  0  0  0  0  0  0  0  0  0  0
  145.0585  138.5224  158.9692 C   0  0  0  0  0  0  0  0  0  0  0  0
  145.6794  138.6732  157.6967 O   0  0  0  0  0  0  0  0  0  0  0  0
  152.4837  140.8377  158.5843 C   0  0  0  0  0  0  0  0  0  0  0  0
  153.0153  139.7319  158.4860 O   0  0  0  0  0  0  0  0  0  0  0  0
  152.7426  141.7288  159.7216 C   0  0  0  0  0  0  0  0  0  0  0  0
  151.6572  144.5680  161.1758 H   0  0  0  0  0  0  0  0  0  0  0  0
  153.3910  144.3302  160.9253 H   0  0  0  0  0  0  0  0  0  0  0  0
  152.4816  143.2203  161.9607 H   0  0  0  0  0  0  0  0  0  0  0  0
  150.7608  144.3437  158.8788 H   0  0  0  0  0  0  0  0  0  0  0  0
  150.3124  142.8306  156.9761 H   0  0  0  0  0  0  0  0  0  0  0  0
  151.6769  140.8968  155.5864 H   0  0  0  0  0  0  0  0  0  0  0  0
  151.5888  139.4757  156.5689 H   0  0  0  0  0  0  0  0  0  0  0  0
  149.6727  138.4338  156.5943 H   0  0  0  0  0  0  0  0  0  0  0  0
  147.1281  139.7961  155.8473 H   0  0  0  0  0  0  0  0  0  0  0  0
  147.4724  138.0850  155.7712 H   0  0  0  0  0  0  0  0  0  0  0  0
  147.3296  139.6931  158.3676 H   0  0  0  0  0  0  0  0  0  0  0  0
  147.5031  136.6733  157.8753 H   0  0  0  0  0  0  0  0  0  0  0  0
  148.7500  137.6746  158.5842 H   0  0  0  0  0  0  0  0  0  0  0  0
  147.5916  135.3312  159.7995 H   0  0  0  0  0  0  0  0  0  0  0  0
  148.6566  136.3334  160.7403 H   0  0  0  0  0  0  0  0  0  0  0  0
  145.7826  135.7155  161.5629 H   0  0  0  0  0  0  0  0  0  0  0  0
  148.1027  136.8555  163.1669 H   0  0  0  0  0  0  0  0  0  0  0  0
  146.4960  136.4856  163.7880 H   0  0  0  0  0  0  0  0  0  0  0  0
  146.7014  137.7534  162.5869 H   0  0  0  0  0  0  0  0  0  0  0  0
  148.3462  134.2959  162.4484 H   0  0  0  0  0  0  0  0  0  0  0  0
  147.0509  133.5799  161.4918 H   0  0  0  0  0  0  0  0  0  0  0  0
  146.7513  134.0532  163.1559 H   0  0  0  0  0  0  0  0  0  0  0  0
  145.3572  136.3891  159.1182 H   0  0  0  0  0  0  0  0  0  0  0  0
  145.1725  137.1889  160.6631 H   0  0  0  0  0  0  0  0  0  0  0  0
  143.9827  138.4151  158.8302 H   0  0  0  0  0  0  0  0  0  0  0  0
  145.2167  139.4201  159.5689 H   0  0  0  0  0  0  0  0  0  0  0  0
  153.4246  141.3939  160.4899 H   0  0  0  0  0  0  0  0  0  0  0  0
  1  2  1  0  0  0  0
  1 24  1  0  0  0  0
  1 25  1  0  0  0  0
  1 26  1  0  0  0  0
  2 23  2  0  0  0  0
  2  3  1  0  0  0  0
  3  4  2  0  0  0  0
  3 27  1  0  0  0  0
  4  5  1  0  0  0  0
  4 28  1  0  0  0  0
  5  6  1  0  0  0  0
  5 21  1  0  0  0  0
  6  7  1  0  0  0  0
  6 29  1  0  0  0  0
  6 30  1  0  0  0  0
  7  8  2  0  0  0  0
  7  9  1  0  0  0  0
  9 10  1  0  0  0  0
  9 31  1  0  0  0  0
 10 11  1  0  0  0  0
 10 32  1  0  0  0  0
 10 33  1  0  0  0  0
 11 20  1  0  0  0  0
 11 12  1  0  0  0  0
 11 34  1  0  0  0  0
 12 13  1  0  0  0  0
 12 35  1  0  0  0  0
 12 36  1  0  0  0  0
 13 14  1  0  0  0  0
 13 18  1  0  0  0  0
 14 15  1  0  0  0  0
 14 37  1  0  0  0  0
 14 38  1  0  0  0  0
 15 16  1  0  0  0  0
 15 17  1  0  0  0  0
 15 39  1  0  0  0  0
 16 40  1  0  0  0  0
 16 41  1  0  0  0  0
 16 42  1  0  0  0  0
 17 43  1  0  0  0  0
 17 44  1  0  0  0  0
 17 45  1  0  0  0  0
 18 19  1  0  0  0  0
 18 46  1  0  0  0  0
 18 47  1  0  0  0  0
 19 20  1  0  0  0  0
 19 48  1  0  0  0  0
 19 49  1  0  0  0  0
 21 22  2  0  0  0  0
 21 23  1  0  0  0  0
 23 50  1  0  0  0  0
M  END
> <s_m_source_file>
AV-unprocessed.smi

> <i_m_source_file_index>
712

> <i_lp_mmshare_version>
43012

> <i_f3d_flags>
0

> <s_epik_input>
W0NIM11jMVtjSF1bY0hdbihjKD1PKVtjSF0xKVtDSDJdQyg9TylbTkhdW0NIMl1bQ0BASF0yW0NIMl1OKFtDSDJdW0NIMl1PMilbQ0gyXVtDSF0oW0NIM10pW0NIM10=

> <s_epik_cmdline>
J2VwaWtfcHl0aG9uJywgJy1waCcsICc3LjAnLCAnLXRuJywgJzgnLCAnLW1hJywgJzIwMCcsICctbWV0YWxfYmluZGluZycsICctaW1hZScsICc8aW5maWxlLm1hZT4nLCAnLW9tYWUnLCAnPG91dGZpbGUubWFlPic=

> <r_lp_tautomer_probability>
1

> <r_epik_Ionization_Penalty>
1.11669

> <r_epik_Ionization_Penalty_Charging>
4.93496e-07

> <r_epik_Ionization_Penalty_Neutral>
1.11669

> <r_epik_State_Penalty>
1.17516

> <r_epik_Charging_Adjusted_Penalty>
1.17516

> <i_epik_Tot_Q>
0

> <i_epik_Tot_abs_Q>
0

> <r_epik_Metal_State_Penalty>
1.17513

> <b_epik_Metal_Only>
0

> <s_lp_Force_Field>
OPLS_2005

> <r_lp_Energy>
32.9939

> <b_lp_Chiralities_Consistent>
1

> <s_lp_Variant>
AV-unprocessed.smi:712-5

> <Gold.Version>
5.8.1

> <Gold.Id.Protein>
6NUR|6NUR_protein|mol2

> <Gold.PLP.Fitness>
47.0612

> <Gold.PLP.PLP>
-39.4579

> <Gold.PLP.part.hbond>
-2.0000

> <Gold.PLP.part.metal>
0.0000

> <Gold.PLP.part.buried>
-4.0207

> <Gold.PLP.part.nonpolar>
-32.1055

> <Gold.PLP.part.repulsive>
0.1070

> <Gold.PLP.ligand.clash>
0.0000

> <Gold.PLP.ligand.torsion>
0.4212

> <Gold.PLP.Chemscore.Hbond>
1.7833

> <Gold.PLP.Chemscore.CHOScore>
1.0000

> <Gold.PLP.Chemscore.Metal>
0.0000

> <Gold.Chemscore.Hbonds>
donor molecule, donor type, donor heavy atom, donor atom, acceptor molecule, acceptor atom, score
      P1  H  6934  6947       L1    13  0.90
      P1  H  7997  8010       L1    22  0.65
      L1  C     4    28       P1  8028  0.57

> <Gold.PLP.Chemscore.Internal.Correction>
0.0960

> <Gold.Rescore>
     Score         DG    S(hbond)    S(metal)    S(lipo)     H(rot)  DE(clash)    DE(int)     intcor
     13.65     -15.51       0.97        0.00      98.01       1.82       0.01       1.86       ----

> <Gold.Chemscore.Fitness>
13.6478

> <Gold.Chemscore.DG>
-15.5133

> <Gold.Chemscore.ZeroCoef>
-5.4800

> <Gold.Chemscore.Hbond>
0.9690

> <Gold.Chemscore.Metal>
0.0000

> <Gold.Chemscore.Lipo>
98.0098

> <Gold.Chemscore.Internal_Hbond>
0.0000

> <Gold.Chemscore.DEClash>
0.0081

> <Gold.Chemscore.DEInternal>
1.8574

> <Gold.Chemscore.Rot>
1.8243

> <Gold.Chemscore.Internal.Correction>
   9.000000E+99

> <Gold.Chemscore.Hbonds>
donor molecule, donor type, donor heavy atom, donor atom, acceptor molecule, acceptor atom, score
      P1  H  6934  6947       L1    13  0.11
      P1  H  7997  8010       L1    22  0.29

> <Gold.Chemscore.Hbond.Weighted>
-3.2364

> <Gold.Chemscore.Metal.Weighted>
-0.0000

> <Gold.Chemscore.Lipo.Weighted>
-11.4671

> <Gold.Chemscore.Internal_Hbond.Weighted>
0.0000

> <Gold.Chemscore.DEClash.Weighted>
0.0081

> <Gold.Chemscore.DEInternal.Weighted>
1.8574

> <Gold.Chemscore.Rot.Weighted>
4.6703

> <Gold.Chemscore.Internal.Correction.Weighted>
   9.000000E+99

> <Gold.Protein.RotatedTorsions>
[ 6907 6896 6895 6894 ] final  -50.14 input  -60.11 | X-H torsion
[ 7974 7965 7964 7962 ] final -120.23 input  175.53 | X-H torsion
[ 8008 7997 7996 7995 ] final   31.24 input   59.86 | X-H torsion
[ 10167 10162 10161 10158 ] final  -93.66 input  -65.29 | X-H torsion
[ 10718 10713 10712 10709 ] final  -69.18 input   66.30 | X-H torsion
[ 10763 10752 10751 10750 ] final -136.92 input  -60.55 | X-H torsion
[ 11005 11000 10999 10996 ] final  -20.12 input  -57.11 | X-H torsion

> <Gold.Protein.ActiveResidues>
 VAL166  LYS551  ARG553  GLY616  TRP617  ASP618  TYR619  PRO620  LYS621  CYS622 
 ASP623  PHE694  ASN695  SER759  ASP760  ASP761  ALA762  ILE779  LEU786  VAL792 
 PHE793  MET794  SER795  GLU796  ALA797  LYS798  CYS799  TRP800  GLU811  SER814 

> <Gold.Protein.RotatedAtoms>
  150.8736  134.8115  159.7173 H   0  0  0  0  0  0  0  0  0  0  0  0  # atno 6907 bound_to 6896
  152.4731  134.4907  159.9704 H   0  0  0  0  0  0  0  0  0  0  0  0  # atno 6908 bound_to 6896
  151.4992  133.3469  159.2901 H   0  0  0  0  0  0  0  0  0  0  0  0  # atno 6909 bound_to 6896
  145.0536  140.8237  143.4194 H   0  0  0  0  0  0  0  0  0  0  0  0  # atno 7974 bound_to 7965
  155.1033  140.3232  155.4541 H   0  0  0  0  0  0  0  0  0  0  0  0  # atno 8008 bound_to 7997
  156.2711  140.2057  156.6106 H   0  0  0  0  0  0  0  0  0  0  0  0  # atno 8009 bound_to 7997
  154.6812  140.0526  157.0255 H   0  0  0  0  0  0  0  0  0  0  0  0  # atno 8010 bound_to 7997
  140.3224  143.3041  152.0032 H   0  0  0  0  0  0  0  0  0  0  0  0  # atno 10167 bound_to 10162
  156.0468  130.4308  150.2110 H   0  0  0  0  0  0  0  0  0  0  0  0  # atno 10718 bound_to 10713
  154.8673  135.3658  154.5138 H   0  0  0  0  0  0  0  0  0  0  0  0  # atno 10763 bound_to 10752
  153.5772  135.7019  153.5484 H   0  0  0  0  0  0  0  0  0  0  0  0  # atno 10764 bound_to 10752
  153.3489  135.4077  155.1593 H   0  0  0  0  0  0  0  0  0  0  0  0  # atno 10765 bound_to 10752
  140.8434  133.7910  155.9885 H   0  0  0  0  0  0  0  0  0  0  0  0  # atno 11005 bound_to 11000
  145.1496  139.2522  143.5448 LP  0  0  0  0  0  0  0  0  0  0  0  0  # atno 17320 bound_to 7965
  146.3520  140.1195  142.8601 LP  0  0  0  0  0  0  0  0  0  0  0  0  # atno 17321 bound_to 7965
  139.4872  144.6300  151.7088 LP  0  0  0  0  0  0  0  0  0  0  0  0  # atno 17342 bound_to 10162
  140.5472  144.0485  150.6112 LP  0  0  0  0  0  0  0  0  0  0  0  0  # atno 17343 bound_to 10162
  157.0199  130.9976  151.3342 LP  0  0  0  0  0  0  0  0  0  0  0  0  # atno 17370 bound_to 10713
  157.5352  130.8084  149.7963 LP  0  0  0  0  0  0  0  0  0  0  0  0  # atno 17371 bound_to 10713
  140.8870  134.2541  157.5114 LP  0  0  0  0  0  0  0  0  0  0  0  0  # atno 17394 bound_to 11000
  139.8703  134.9643  156.4491 LP  0  0  0  0  0  0  0  0  0  0  0  0  # atno 17395 bound_to 11000

$$$$
