AV-unprocessed.smi:45|AV-procd|sdf|413|dock2
  -GOLD-   2262016273D 1   1.00000     0.00000
 Structure written by MMmdl.
 59 62  0  0  0  0  0  0  0  0  2 V2000
  153.6459  127.4631  154.5306 C   0  0  0  0  0  0  0  0  0  0  0  0
  153.6135  128.6949  155.2358 O   0  0  0  0  0  0  0  0  0  0  0  0
  152.4722  129.4650  155.1499 C   0  0  0  0  0  0  0  0  0  0  0  0
  151.3480  129.1216  154.3577 C   0  0  0  0  0  0  0  0  0  0  0  0
  150.2076  129.9465  154.3384 C   0  0  0  0  0  0  0  0  0  0  0  0
  150.1684  131.1271  155.1050 C   0  0  0  0  0  0  0  0  0  0  0  0
  148.9080  131.9828  155.0998 C   0  0  0  0  0  0  0  0  0  0  0  0
  149.1175  133.4236  155.2007 N   0  0  0  0  0  0  0  0  0  0  0  0
  147.9966  134.2723  155.1759 C   0  0  0  0  0  0  0  0  0  0  0  0
  147.2371  134.2815  154.0540 N   0  0  0  0  0  0  0  0  0  0  0  0
  146.1369  135.0360  154.0582 C   0  0  0  0  0  0  0  0  0  0  0  0
  145.3413  134.9457  152.9291 N   0  0  0  0  0  0  0  0  0  0  0  0
  144.8020  133.6424  152.5576 C   0  0  0  0  0  0  0  0  0  0  0  0
  144.6436  133.6445  151.0311 C   0  0  0  0  0  0  0  0  0  0  0  0
  144.8288  135.1072  150.6367 C   0  0  0  0  0  0  0  0  0  0  0  0
  145.7870  135.6147  151.7135 C   0  0  1  0  0  0  0  0  0  0  0  0
  145.8304  137.1480  151.8546 C   0  0  0  0  0  0  0  0  0  0  0  0
  146.5517  137.7208  150.7854 O   0  0  0  0  0  0  0  0  0  0  0  0
  145.7082  135.8111  155.0585 N   0  0  0  0  0  0  0  0  0  0  0  0
  146.4570  135.8216  156.1822 C   0  0  0  0  0  0  0  0  0  0  0  0
  147.6344  135.0487  156.3090 C   0  0  0  0  0  0  0  0  0  0  0  0
  148.4366  135.0539  157.5809 C   0  0  0  0  0  0  0  0  0  0  0  0
  149.0493  134.0267  157.8927 O   0  0  0  0  0  0  0  0  0  0  0  0
  148.3133  136.2360  158.2457 N   0  5  0  0  0  0  0  0  0  0  0  0
  148.8721  136.4845  159.5753 C   0  0  0  0  0  0  0  0  0  0  0  0
  148.1493  135.6912  160.6593 C   0  0  0  0  0  0  0  0  0  0  0  0
  147.9573  136.3060  161.8328 N   0  0  0  0  0  0  0  0  0  0  0  0
  147.2848  135.6209  162.7826 C   0  0  0  0  0  0  0  0  0  0  0  0
  146.8056  134.3151  162.5568 C   0  0  0  0  0  0  0  0  0  0  0  0
  147.0712  133.7661  161.2867 C   0  0  0  0  0  0  0  0  0  0  0  0
  147.7451  134.4549  160.3406 N   0  0  0  0  0  0  0  0  0  0  0  0
  151.2954  131.4898  155.8733 C   0  0  0  0  0  0  0  0  0  0  0  0
  152.4330  130.6603  155.9017 C   0  0  0  0  0  0  0  0  0  0  0  0
  153.7812  131.1133  156.8809 Cl  0  0  0  0  0  0  0  0  0  0  0  0
  146.7918  135.2534  151.4868 H   0  0  0  0  0  0  0  0  0  0  0  0
  154.5921  126.9603  154.7297 H   0  0  0  0  0  0  0  0  0  0  0  0
  153.5757  127.6187  153.4533 H   0  0  0  0  0  0  0  0  0  0  0  0
  152.8447  126.7971  154.8540 H   0  0  0  0  0  0  0  0  0  0  0  0
  151.3290  128.2210  153.7633 H   0  0  0  0  0  0  0  0  0  0  0  0
  149.3537  129.6599  153.7423 H   0  0  0  0  0  0  0  0  0  0  0  0
  148.3685  131.7850  154.1737 H   0  0  0  0  0  0  0  0  0  0  0  0
  148.2503  131.6703  155.9119 H   0  0  0  0  0  0  0  0  0  0  0  0
  149.8569  133.7111  155.8269 H   0  0  0  0  0  0  0  0  0  0  0  0
  145.4411  132.8223  152.8873 H   0  0  0  0  0  0  0  0  0  0  0  0
  143.8323  133.5212  153.0408 H   0  0  0  0  0  0  0  0  0  0  0  0
  145.4332  133.0407  150.5820 H   0  0  0  0  0  0  0  0  0  0  0  0
  143.6853  133.2388  150.7058 H   0  0  0  0  0  0  0  0  0  0  0  0
  145.2207  135.2279  149.6264 H   0  0  0  0  0  0  0  0  0  0  0  0
  143.8746  135.6328  150.6972 H   0  0  0  0  0  0  0  0  0  0  0  0
  144.8243  137.5677  151.8797 H   0  0  0  0  0  0  0  0  0  0  0  0
  146.3251  137.4367  152.7823 H   0  0  0  0  0  0  0  0  0  0  0  0
  145.9509  138.2203  150.2536 H   0  0  0  0  0  0  0  0  0  0  0  0
  146.1034  136.4482  156.9882 H   0  0  0  0  0  0  0  0  0  0  0  0
  149.9382  136.2540  159.6209 H   0  0  0  0  0  0  0  0  0  0  0  0
  148.8088  137.5429  159.8313 H   0  0  0  0  0  0  0  0  0  0  0  0
  147.1254  136.1188  163.7276 H   0  0  0  0  0  0  0  0  0  0  0  0
  146.2663  133.7663  163.3139 H   0  0  0  0  0  0  0  0  0  0  0  0
  146.7418  132.7706  161.0285 H   0  0  0  0  0  0  0  0  0  0  0  0
  151.2850  132.3959  156.4625 H   0  0  0  0  0  0  0  0  0  0  0  0
  1  2  1  0  0  0  0
  1 36  1  0  0  0  0
  1 37  1  0  0  0  0
  1 38  1  0  0  0  0
  2  3  1  0  0  0  0
  3 33  1  0  0  0  0
  3  4  2  0  0  0  0
  4  5  1  0  0  0  0
  4 39  1  0  0  0  0
  5  6  2  0  0  0  0
  5 40  1  0  0  0  0
  6  7  1  0  0  0  0
  6 32  1  0  0  0  0
  7  8  1  0  0  0  0
  7 41  1  0  0  0  0
  7 42  1  0  0  0  0
  8  9  1  0  0  0  0
  8 43  1  0  0  0  0
  9 21  1  0  0  0  0
  9 10  2  0  0  0  0
 10 11  1  0  0  0  0
 11 12  1  0  0  0  0
 11 19  2  0  0  0  0
 12 16  1  0  0  0  0
 12 13  1  0  0  0  0
 13 14  1  0  0  0  0
 13 44  1  0  0  0  0
 13 45  1  0  0  0  0
 14 15  1  0  0  0  0
 14 46  1  0  0  0  0
 14 47  1  0  0  0  0
 15 16  1  0  0  0  0
 15 48  1  0  0  0  0
 15 49  1  0  0  0  0
 16 35  1  0  0  0  0
 16 17  1  0  0  0  0
 17 18  1  0  0  0  0
 17 50  1  0  0  0  0
 17 51  1  0  0  0  0
 18 52  1  0  0  0  0
 19 20  1  0  0  0  0
 20 21  2  0  0  0  0
 20 53  1  0  0  0  0
 21 22  1  0  0  0  0
 22 23  2  0  0  0  0
 22 24  1  0  0  0  0
 24 25  1  0  0  0  0
 25 26  1  0  0  0  0
 25 54  1  0  0  0  0
 25 55  1  0  0  0  0
 26 31  1  0  0  0  0
 26 27  2  0  0  0  0
 27 28  1  0  0  0  0
 28 29  2  0  0  0  0
 28 56  1  0  0  0  0
 29 30  1  0  0  0  0
 29 57  1  0  0  0  0
 30 31  2  0  0  0  0
 30 58  1  0  0  0  0
 32 33  2  0  0  0  0
 32 59  1  0  0  0  0
 33 34  1  0  0  0  0
M  CHG  1  24  -1
M  END
> <s_m_source_file>
AV-unprocessed.smi

> <i_m_source_file_index>
45

> <i_lp_mmshare_version>
43012

> <i_f3d_flags>
0

> <s_epik_input>
W0NIM11PYzFbY0hdW2NIXWMoW2NIXWMxQ2wpW0NIMl1bTkhdYzJuYyhOM1tDSDJdW0NIMl1bQ0gyXVtDQEhdM1tDSDJdW09IXSluW2NIXWMyQyg9TylbTkhdW0NIMl1jNG5bY0hdW2NIXVtjSF1uNA==

> <s_epik_cmdline>
J2VwaWtfcHl0aG9uJywgJy1waCcsICc3LjAnLCAnLXRuJywgJzgnLCAnLW1hJywgJzIwMCcsICctbWV0YWxfYmluZGluZycsICctaW1hZScsICc8aW5maWxlLm1hZT4nLCAnLW9tYWUnLCAnPG91dGZpbGUubWFlPic=

> <r_lp_tautomer_probability>
1

> <r_epik_Ionization_Penalty>
7.35269

> <r_epik_Ionization_Penalty_Charging>
6.82087

> <r_epik_Ionization_Penalty_Neutral>
0.53182

> <r_epik_State_Penalty>
6.85781

> <r_epik_Charging_Adjusted_Penalty>
13.6787

> <i_epik_Tot_Q>
-1

> <i_epik_Tot_abs_Q>
1

> <r_epik_Metal_State_Penalty>
2.8146

> <b_epik_Metal_Only>
1

> <s_epik_Chemistry_Notes>
This compound contains an electron-poor aromatic ring that is susceptible to covalent hydrolysis at low pH, typically resulting in measured values for nitrogen ring protonation that are around two units higher than predicted values.

> <s_lp_Force_Field>
OPLS_2005

> <r_lp_Energy>
41.892

> <b_lp_Chiralities_Consistent>
1

> <s_lp_Variant>
AV-unprocessed.smi:45-7

> <Gold.Version>
5.8.1

> <Gold.Id.Protein>
6NUR|6NUR_protein|mol2

> <Gold.PLP.Fitness>
61.8845

> <Gold.PLP.PLP>
-51.5094

> <Gold.PLP.part.hbond>
-4.8939

> <Gold.PLP.part.metal>
0.0000

> <Gold.PLP.part.buried>
-6.7938

> <Gold.PLP.part.nonpolar>
-41.1392

> <Gold.PLP.part.repulsive>
0.2292

> <Gold.PLP.ligand.clash>
0.0000

> <Gold.PLP.ligand.torsion>
1.3877

> <Gold.PLP.Chemscore.Hbond>
3.9675

> <Gold.PLP.Chemscore.CHOScore>
0.0000

> <Gold.PLP.Chemscore.Metal>
0.0000

> <Gold.Chemscore.Hbonds>
donor molecule, donor type, donor heavy atom, donor atom, acceptor molecule, acceptor atom, score
      L1  H    18    52       P1 10171  0.68
      P1  H  6896  6908       L1    23  0.65
      P1  H  6931  6943       L1    27  0.54
      P1  H  7954  7966       L1    18  1.00

> <Gold.PLP.Chemscore.Internal.Correction>
1.2481

> <Gold.Rescore>
     Score         DG    S(hbond)    S(metal)    S(lipo)     H(rot)  DE(clash)    DE(int)     intcor
     17.26     -20.96       3.60        0.00     102.89       3.36       0.02       3.67       ----

> <Gold.Chemscore.Fitness>
17.2620

> <Gold.Chemscore.DG>
-20.9567

> <Gold.Chemscore.ZeroCoef>
-5.4800

> <Gold.Chemscore.Hbond>
3.6017

> <Gold.Chemscore.Metal>
0.0000

> <Gold.Chemscore.Lipo>
102.8903

> <Gold.Chemscore.Internal_Hbond>
0.0000

> <Gold.Chemscore.DEClash>
0.0237

> <Gold.Chemscore.DEInternal>
3.6710

> <Gold.Chemscore.Rot>
3.3560

> <Gold.Chemscore.Internal.Correction>
   9.000000E+99

> <Gold.Chemscore.Hbonds>
donor molecule, donor type, donor heavy atom, donor atom, acceptor molecule, acceptor atom, score
      L1  H    18    52       P1 10171  0.65
      P1  H  6896  6908       L1    23  0.64
      P1  H  6931  6943       L1    27  0.43
      P1  H  7954  7966       L1    18  0.44

> <Gold.Chemscore.Hbond.Weighted>
-12.0297

> <Gold.Chemscore.Metal.Weighted>
-0.0000

> <Gold.Chemscore.Lipo.Weighted>
-12.0382

> <Gold.Chemscore.Internal_Hbond.Weighted>
0.0000

> <Gold.Chemscore.DEClash.Weighted>
0.0237

> <Gold.Chemscore.DEInternal.Weighted>
3.6710

> <Gold.Chemscore.Rot.Weighted>
8.5912

> <Gold.Chemscore.Internal.Correction.Weighted>
   9.000000E+99

> <Gold.Protein.RotatedTorsions>
[ 6907 6896 6895 6894 ] final  136.49 input  -60.11 | X-H torsion
[ 7974 7965 7964 7962 ] final   46.28 input  175.53 | X-H torsion
[ 8008 7997 7996 7995 ] final    3.02 input   59.86 | X-H torsion
[ 10167 10162 10161 10158 ] final  -43.89 input  -65.29 | X-H torsion
[ 10718 10713 10712 10709 ] final -126.72 input   66.30 | X-H torsion
[ 10763 10752 10751 10750 ] final  -94.47 input  -60.55 | X-H torsion
[ 11005 11000 10999 10996 ] final   33.71 input  -57.11 | X-H torsion

> <Gold.Protein.ActiveResidues>
 VAL166  LYS551  ARG553  GLY616  TRP617  ASP618  TYR619  PRO620  LYS621  CYS622 
 ASP623  PHE694  ASN695  SER759  ASP760  ASP761  ALA762  ILE779  LEU786  VAL792 
 PHE793  MET794  SER795  GLU796  ALA797  LYS798  CYS799  TRP800  GLU811  SER814 

> <Gold.Protein.RotatedAtoms>
  152.2887  133.5540  159.5543 H   0  0  0  0  0  0  0  0  0  0  0  0  # atno 6907 bound_to 6896
  150.7226  134.0460  159.3791 H   0  0  0  0  0  0  0  0  0  0  0  0  # atno 6908 bound_to 6896
  151.8367  135.0604  160.0494 H   0  0  0  0  0  0  0  0  0  0  0  0  # atno 6909 bound_to 6896
  146.0404  139.4872  142.9782 H   0  0  0  0  0  0  0  0  0  0  0  0  # atno 7974 bound_to 7965
  154.6986  140.2668  155.6741 H   0  0  0  0  0  0  0  0  0  0  0  0  # atno 8008 bound_to 7997
  156.2757  140.2776  156.1513 H   0  0  0  0  0  0  0  0  0  0  0  0  # atno 8009 bound_to 7997
  155.0796  140.0372  157.2625 H   0  0  0  0  0  0  0  0  0  0  0  0  # atno 8010 bound_to 7997
  140.6917  143.2959  151.3416 H   0  0  0  0  0  0  0  0  0  0  0  0  # atno 10167 bound_to 10162
  156.1791  130.6720  151.0281 H   0  0  0  0  0  0  0  0  0  0  0  0  # atno 10718 bound_to 10713
  154.7058  135.5156  153.8593 H   0  0  0  0  0  0  0  0  0  0  0  0  # atno 10763 bound_to 10752
  153.0740  135.6610  154.0195 H   0  0  0  0  0  0  0  0  0  0  0  0  # atno 10764 bound_to 10752
  154.0046  135.3007  155.3378 H   0  0  0  0  0  0  0  0  0  0  0  0  # atno 10765 bound_to 10752
  140.2603  134.3199  155.7860 H   0  0  0  0  0  0  0  0  0  0  0  0  # atno 11005 bound_to 11000
  145.6895  141.0168  143.1563 LP  0  0  0  0  0  0  0  0  0  0  0  0  # atno 17320 bound_to 7965
  144.7071  139.8515  143.7426 LP  0  0  0  0  0  0  0  0  0  0  0  0  # atno 17321 bound_to 7965
  139.6328  144.0689  152.2490 LP  0  0  0  0  0  0  0  0  0  0  0  0  # atno 17342 bound_to 10162
  140.0169  144.6182  150.7600 LP  0  0  0  0  0  0  0  0  0  0  0  0  # atno 17343 bound_to 10162
  157.6856  131.0826  150.7251 LP  0  0  0  0  0  0  0  0  0  0  0  0  # atno 17370 bound_to 10713
  156.7309  130.4709  149.5500 LP  0  0  0  0  0  0  0  0  0  0  0  0  # atno 17371 bound_to 10713
  141.2191  133.7406  156.9177 LP  0  0  0  0  0  0  0  0  0  0  0  0  # atno 17394 bound_to 11000
  140.1471  134.9255  157.2543 LP  0  0  0  0  0  0  0  0  0  0  0  0  # atno 17395 bound_to 11000

$$$$
