AV-unprocessed.smi:906|AV-procd|sdf|4103|dock7
  -GOLD-   22720 1593D 1   1.00000     0.00000
 Structure written by MMmdl.
 48 49  0  0  0  0  0  0  0  0  2 V2000
  151.7174  144.8920  159.5961 C   0  0  0  0  0  0  0  0  0  0  0  0
  152.4284  143.7058  160.2122 C   0  0  0  0  0  0  0  0  0  0  0  0
  152.6097  143.5784  161.6061 C   0  0  0  0  0  0  0  0  0  0  0  0
  153.2794  142.4452  162.1130 C   0  0  0  0  0  0  0  0  0  0  0  0
  153.7531  141.4626  161.2165 C   0  0  0  0  0  0  0  0  0  0  0  0
  154.4727  140.2304  161.7280 C   0  0  0  0  0  0  0  0  0  0  0  0
  153.9917  138.9477  161.0299 C   0  0  0  0  0  0  0  0  0  0  0  0
  154.7239  137.7762  161.4962 N   0  0  0  0  0  0  0  0  0  0  0  0
  154.5297  136.5193  161.0612 C   0  0  0  0  0  0  0  0  0  0  0  0
  153.6987  136.2508  160.1922 O   0  0  0  0  0  0  0  0  0  0  0  0
  155.3411  135.5908  161.6258 N   0  0  0  0  0  0  0  0  0  0  0  0
  156.2996  135.8048  162.7196 C   0  0  0  0  0  0  0  0  0  0  0  0
  155.7620  135.1174  163.9894 C   0  0  0  0  0  0  0  0  0  0  0  0
  155.5696  133.6822  163.7466 N   0  0  0  0  0  0  0  0  0  0  0  0
  155.2168  132.9623  164.9823 C   0  0  1  0  0  0  0  0  0  0  0  0
  153.8852  133.4226  165.6153 C   0  0  0  0  0  0  0  0  0  0  0  0
  155.2792  131.4276  164.7951 C   0  0  0  0  0  0  0  0  0  0  0  0
  156.3551  131.0920  164.0822 F   0  0  0  0  0  0  0  0  0  0  0  0
  155.3805  130.8477  165.9910 F   0  0  0  0  0  0  0  0  0  0  0  0
  154.1919  130.9475  164.1919 F   0  0  0  0  0  0  0  0  0  0  0  0
  154.6609  133.4586  162.6134 C   0  0  0  0  0  0  0  0  0  0  0  0
  155.2076  134.1572  161.3537 C   0  0  0  0  0  0  0  0  0  0  0  0
  153.5414  141.6424  159.8327 C   0  0  0  0  0  0  0  0  0  0  0  0
  152.8954  142.7420  159.3870 N   0  3  0  0  0  0  0  0  0  0  0  0
  151.7333  145.7479  160.2714 H   0  0  0  0  0  0  0  0  0  0  0  0
  150.6776  144.6406  159.3848 H   0  0  0  0  0  0  0  0  0  0  0  0
  152.1970  145.1890  158.6629 H   0  0  0  0  0  0  0  0  0  0  0  0
  152.2413  144.3379  162.2805 H   0  0  0  0  0  0  0  0  0  0  0  0
  153.4245  142.3328  163.1777 H   0  0  0  0  0  0  0  0  0  0  0  0
  155.5447  140.3653  161.5779 H   0  0  0  0  0  0  0  0  0  0  0  0
  154.3221  140.1495  162.8054 H   0  0  0  0  0  0  0  0  0  0  0  0
  152.9320  138.7882  161.2314 H   0  0  0  0  0  0  0  0  0  0  0  0
  154.0909  139.0402  159.9468 H   0  0  0  0  0  0  0  0  0  0  0  0
  155.4289  137.9276  162.2031 H   0  0  0  0  0  0  0  0  0  0  0  0
  157.2641  135.3768  162.4413 H   0  0  0  0  0  0  0  0  0  0  0  0
  156.4993  136.8545  162.9331 H   0  0  0  0  0  0  0  0  0  0  0  0
  156.4724  135.2614  164.8040 H   0  0  0  0  0  0  0  0  0  0  0  0
  154.8246  135.5843  164.2926 H   0  0  0  0  0  0  0  0  0  0  0  0
  156.0066  133.1959  165.6978 H   0  0  0  0  0  0  0  0  0  0  0  0
  153.7353  132.9404  166.5813 H   0  0  0  0  0  0  0  0  0  0  0  0
  153.0272  133.1652  164.9944 H   0  0  0  0  0  0  0  0  0  0  0  0
  153.8629  134.4973  165.7916 H   0  0  0  0  0  0  0  0  0  0  0  0
  154.5612  132.3951  162.4059 H   0  0  0  0  0  0  0  0  0  0  0  0
  153.6648  133.8401  162.8402 H   0  0  0  0  0  0  0  0  0  0  0  0
  154.5542  133.9494  160.5054 H   0  0  0  0  0  0  0  0  0  0  0  0
  156.1813  133.7448  161.0841 H   0  0  0  0  0  0  0  0  0  0  0  0
  153.8652  140.9440  159.0743 H   0  0  0  0  0  0  0  0  0  0  0  0
  152.7538  142.8496  158.3824 H   0  0  0  0  0  0  0  0  0  0  0  0
  1  2  1  0  0  0  0
  1 25  1  0  0  0  0
  1 26  1  0  0  0  0
  1 27  1  0  0  0  0
  2 24  1  0  0  0  0
  2  3  2  0  0  0  0
  3  4  1  0  0  0  0
  3 28  1  0  0  0  0
  4  5  2  0  0  0  0
  4 29  1  0  0  0  0
  5  6  1  0  0  0  0
  5 23  1  0  0  0  0
  6  7  1  0  0  0  0
  6 30  1  0  0  0  0
  6 31  1  0  0  0  0
  7  8  1  0  0  0  0
  7 32  1  0  0  0  0
  7 33  1  0  0  0  0
  8  9  1  0  0  0  0
  8 34  1  0  0  0  0
  9 10  2  0  0  0  0
  9 11  1  0  0  0  0
 11 22  1  0  0  0  0
 11 12  1  0  0  0  0
 12 13  1  0  0  0  0
 12 35  1  0  0  0  0
 12 36  1  0  0  0  0
 13 14  1  0  0  0  0
 13 37  1  0  0  0  0
 13 38  1  0  0  0  0
 14 15  1  0  0  0  0
 14 21  1  0  0  0  0
 15 16  1  0  0  0  0
 15 17  1  0  0  0  0
 15 39  1  0  0  0  0
 16 40  1  0  0  0  0
 16 41  1  0  0  0  0
 16 42  1  0  0  0  0
 17 18  1  0  0  0  0
 17 19  1  0  0  0  0
 17 20  1  0  0  0  0
 21 22  1  0  0  0  0
 21 43  1  0  0  0  0
 21 44  1  0  0  0  0
 22 45  1  0  0  0  0
 22 46  1  0  0  0  0
 23 24  2  0  0  0  0
 23 47  1  0  0  0  0
 24 48  1  0  0  0  0
M  CHG  1  24   1
M  END
> <s_m_source_file>
AV-unprocessed.smi

> <i_m_source_file_index>
906

> <i_lp_mmshare_version>
43012

> <i_f3d_flags>
0

> <s_epik_input>
W0NIM11jMVtjSF1bY0hdYyhbY0hdbjEpW0NIMl1bQ0gyXVtOSF1DKD1PKU4yW0NIMl1bQ0gyXU4oW0NASF0oW0NIM10pQyhGKShGKUYpW0NIMl1bQ0gyXTI=

> <s_epik_cmdline>
J2VwaWtfcHl0aG9uJywgJy1waCcsICc3LjAnLCAnLXRuJywgJzgnLCAnLW1hJywgJzIwMCcsICctbWV0YWxfYmluZGluZycsICctaW1hZScsICc8aW5maWxlLm1hZT4nLCAnLW9tYWUnLCAnPG91dGZpbGUubWFlPic=

> <r_epik_Ionization_Penalty>
1.4413

> <r_epik_Ionization_Penalty_Charging>
1.42075

> <r_epik_Ionization_Penalty_Neutral>
0.0205507

> <r_epik_State_Penalty>
1.52216

> <r_epik_Charging_Adjusted_Penalty>
2.94291

> <i_epik_Tot_Q>
1

> <i_epik_Tot_abs_Q>
1

> <r_epik_Metal_State_Penalty>
1.57308

> <b_epik_Metal_Only>
0

> <s_lp_Force_Field>
OPLS_2005

> <r_lp_Energy>
53.1846

> <b_lp_Chiralities_Consistent>
1

> <s_lp_Variant>
AV-unprocessed.smi:906-4

> <Gold.Version>
5.8.1

> <Gold.Id.Protein>
6NUR|6NUR_protein|mol2

> <Gold.PLP.Fitness>
47.7309

> <Gold.PLP.PLP>
-45.3082

> <Gold.PLP.part.hbond>
-1.0000

> <Gold.PLP.part.metal>
0.0000

> <Gold.PLP.part.buried>
-5.7278

> <Gold.PLP.part.nonpolar>
-39.5376

> <Gold.PLP.part.repulsive>
0.0734

> <Gold.PLP.ligand.clash>
0.0000

> <Gold.PLP.ligand.torsion>
0.5985

> <Gold.PLP.Chemscore.Hbond>
0.9913

> <Gold.PLP.Chemscore.CHOScore>
0.0000

> <Gold.PLP.Chemscore.Metal>
0.0000

> <Gold.Chemscore.Hbonds>
donor molecule, donor type, donor heavy atom, donor atom, acceptor molecule, acceptor atom, score
      P1  H  6896  6908       L1    10  1.00

> <Gold.PLP.Chemscore.Internal.Correction>
0.6460

> <Gold.Rescore>
     Score         DG    S(hbond)    S(metal)    S(lipo)     H(rot)  DE(clash)    DE(int)     intcor
     18.77     -19.60       0.98        0.00     128.78       1.66       0.01       0.82       ----

> <Gold.Chemscore.Fitness>
18.7686

> <Gold.Chemscore.DG>
-19.5987

> <Gold.Chemscore.ZeroCoef>
-5.4800

> <Gold.Chemscore.Hbond>
0.9849

> <Gold.Chemscore.Metal>
0.0000

> <Gold.Chemscore.Lipo>
128.7761

> <Gold.Chemscore.Internal_Hbond>
0.0000

> <Gold.Chemscore.DEClash>
0.0090

> <Gold.Chemscore.DEInternal>
0.8210

> <Gold.Chemscore.Rot>
1.6553

> <Gold.Chemscore.Internal.Correction>
   9.000000E+99

> <Gold.Chemscore.Hbonds>
donor molecule, donor type, donor heavy atom, donor atom, acceptor molecule, acceptor atom, score
      P1  H  6896  6908       L1    10  0.95

> <Gold.Chemscore.Hbond.Weighted>
-3.2894

> <Gold.Chemscore.Metal.Weighted>
-0.0000

> <Gold.Chemscore.Lipo.Weighted>
-15.0668

> <Gold.Chemscore.Internal_Hbond.Weighted>
0.0000

> <Gold.Chemscore.DEClash.Weighted>
0.0090

> <Gold.Chemscore.DEInternal.Weighted>
0.8210

> <Gold.Chemscore.Rot.Weighted>
4.2376

> <Gold.Chemscore.Internal.Correction.Weighted>
   9.000000E+99

> <Gold.Protein.RotatedTorsions>
[ 6907 6896 6895 6894 ] final  -60.15 input  -60.11 | X-H torsion
[ 7974 7965 7964 7962 ] final  -42.55 input  175.53 | X-H torsion
[ 8008 7997 7996 7995 ] final  -43.64 input   59.86 | X-H torsion
[ 10167 10162 10161 10158 ] final  156.47 input  -65.29 | X-H torsion
[ 10718 10713 10712 10709 ] final  -16.17 input   66.30 | X-H torsion
[ 10763 10752 10751 10750 ] final   50.95 input  -60.55 | X-H torsion
[ 11005 11000 10999 10996 ] final  -64.52 input  -57.11 | X-H torsion

> <Gold.Protein.ActiveResidues>
 VAL166  LYS551  ARG553  GLY616  TRP617  ASP618  TYR619  PRO620  LYS621  CYS622 
 ASP623  PHE694  ASN695  SER759  ASP760  ASP761  ALA762  ILE779  LEU786  VAL792 
 PHE793  MET794  SER795  GLU796  ALA797  LYS798  CYS799  TRP800  GLU811  SER814 

> <Gold.Protein.RotatedAtoms>
  150.7877  134.6875  159.6477 H   0  0  0  0  0  0  0  0  0  0  0  0  # atno 6907 bound_to 6896
  152.3977  134.6335  160.0091 H   0  0  0  0  0  0  0  0  0  0  0  0  # atno 6908 bound_to 6896
  151.6616  133.3280  159.3211 H   0  0  0  0  0  0  0  0  0  0  0  0  # atno 6909 bound_to 6896
  146.0105  140.6970  142.9226 H   0  0  0  0  0  0  0  0  0  0  0  0  # atno 7974 bound_to 7965
  154.3997  140.1442  156.3553 H   0  0  0  0  0  0  0  0  0  0  0  0  # atno 8008 bound_to 7997
  155.8231  140.3468  155.5505 H   0  0  0  0  0  0  0  0  0  0  0  0  # atno 8009 bound_to 7997
  155.8267  140.0906  157.1807 H   0  0  0  0  0  0  0  0  0  0  0  0  # atno 8010 bound_to 7997
  139.4821  144.5005  151.8175 H   0  0  0  0  0  0  0  0  0  0  0  0  # atno 10167 bound_to 10162
  156.5913  130.4800  149.6278 H   0  0  0  0  0  0  0  0  0  0  0  0  # atno 10718 bound_to 10713
  152.9785  135.5862  154.4337 H   0  0  0  0  0  0  0  0  0  0  0  0  # atno 10763 bound_to 10752
  154.3946  135.2768  155.2135 H   0  0  0  0  0  0  0  0  0  0  0  0  # atno 10764 bound_to 10752
  154.3993  135.6107  153.5942 H   0  0  0  0  0  0  0  0  0  0  0  0  # atno 10765 bound_to 10752
  141.1427  133.6667  156.5845 H   0  0  0  0  0  0  0  0  0  0  0  0  # atno 11005 bound_to 11000
  144.6951  140.3390  143.7202 LP  0  0  0  0  0  0  0  0  0  0  0  0  # atno 17320 bound_to 7965
  145.7349  139.1747  143.2409 LP  0  0  0  0  0  0  0  0  0  0  0  0  # atno 17321 bound_to 7965
  140.4498  144.1871  150.5896 LP  0  0  0  0  0  0  0  0  0  0  0  0  # atno 17342 bound_to 10162
  140.4596  143.2454  151.9237 LP  0  0  0  0  0  0  0  0  0  0  0  0  # atno 17343 bound_to 10162
  156.2547  130.6927  151.1677 LP  0  0  0  0  0  0  0  0  0  0  0  0  # atno 17370 bound_to 10713
  157.7303  131.0617  150.5734 LP  0  0  0  0  0  0  0  0  0  0  0  0  # atno 17371 bound_to 10713
  140.3811  134.7522  157.4662 LP  0  0  0  0  0  0  0  0  0  0  0  0  # atno 17394 bound_to 11000
  140.0637  134.5960  155.8720 LP  0  0  0  0  0  0  0  0  0  0  0  0  # atno 17395 bound_to 11000

$$$$
