AV-unprocessed.smi:806|AV-procd|sdf|3800|dock6
  -GOLD-   22720 1233D 1   1.00000     0.00000
 Structure written by MMmdl.
 45 46  0  0  0  0  0  0  0  0  2 V2000
  147.0716  141.1836  153.4906 C   0  0  0  0  0  0  0  0  0  0  0  0
  147.6122  139.8869  153.9418 N   0  0  0  0  0  0  0  0  0  0  0  0
  147.2051  138.7095  153.3847 C   0  0  0  0  0  0  0  0  0  0  0  0
  147.6624  137.6213  153.7381 O   0  0  0  0  0  0  0  0  0  0  0  0
  146.1341  138.7080  152.2754 C   0  0  0  0  0  0  0  0  0  0  0  0
  146.2278  137.5393  151.3730 N   0  3  0  0  0  0  0  0  0  0  0  0
  145.4836  136.3421  151.8210 C   0  0  0  0  0  0  0  0  0  0  0  0
  144.8154  135.6284  150.6348 C   0  0  0  0  0  0  0  0  0  0  0  0
  144.9278  134.1837  150.7325 N   0  0  0  0  0  0  0  0  0  0  0  0
  143.9206  133.2415  150.7274 C   0  0  0  0  0  0  0  0  0  0  0  0
  144.5101  132.0164  150.8532 C   0  0  0  0  0  0  0  0  0  0  0  0
  145.8998  132.3145  150.9189 C   0  0  0  0  0  0  0  0  0  0  0  0
  146.1461  133.6124  150.8430 N   0  0  0  0  0  0  0  0  0  0  0  0
  148.6506  139.9183  155.0226 C   0  0  0  0  0  0  0  0  0  0  0  0
  148.1847  139.1697  156.2120 C   0  0  0  0  0  0  0  0  0  0  0  0
  147.8216  138.5851  157.1429 N   0  0  0  0  0  0  0  0  0  0  0  0
  149.9687  139.2970  154.4784 C   0  0  0  0  0  0  0  0  0  0  0  0
  151.1089  139.3025  155.5125 C   0  0  0  0  0  0  0  0  0  0  0  0
  151.3908  140.7208  156.0251 C   0  0  0  0  0  0  0  0  0  0  0  0
  150.1159  141.3736  156.5747 C   0  0  0  0  0  0  0  0  0  0  0  0
  148.9933  141.3572  155.5211 C   0  0  0  0  0  0  0  0  0  0  0  0
  146.3389  141.1450  152.6882 H   0  0  0  0  0  0  0  0  0  0  0  0
  147.8777  141.8151  153.1172 H   0  0  0  0  0  0  0  0  0  0  0  0
  146.5751  141.7012  154.3111 H   0  0  0  0  0  0  0  0  0  0  0  0
  145.1519  138.6667  152.7470 H   0  0  0  0  0  0  0  0  0  0  0  0
  146.1843  139.6244  151.6857 H   0  0  0  0  0  0  0  0  0  0  0  0
  145.8765  137.8189  150.4676 H   0  0  0  0  0  0  0  0  0  0  0  0
  146.1742  135.6635  152.3224 H   0  0  0  0  0  0  0  0  0  0  0  0
  144.7293  136.6202  152.5582 H   0  0  0  0  0  0  0  0  0  0  0  0
  143.7601  135.8973  150.5734 H   0  0  0  0  0  0  0  0  0  0  0  0
  145.2760  135.9449  149.6979 H   0  0  0  0  0  0  0  0  0  0  0  0
  142.8795  133.5166  150.6416 H   0  0  0  0  0  0  0  0  0  0  0  0
  144.0235  131.0530  150.8902 H   0  0  0  0  0  0  0  0  0  0  0  0
  146.7308  131.6319  151.0180 H   0  0  0  0  0  0  0  0  0  0  0  0
  149.8145  138.2690  154.1525 H   0  0  0  0  0  0  0  0  0  0  0  0
  150.2893  139.8461  153.5918 H   0  0  0  0  0  0  0  0  0  0  0  0
  150.8547  138.6521  156.3500 H   0  0  0  0  0  0  0  0  0  0  0  0
  152.0129  138.8862  155.0671 H   0  0  0  0  0  0  0  0  0  0  0  0
  152.1592  140.6923  156.7984 H   0  0  0  0  0  0  0  0  0  0  0  0
  151.7916  141.3290  155.2132 H   0  0  0  0  0  0  0  0  0  0  0  0
  149.7961  140.8563  157.4798 H   0  0  0  0  0  0  0  0  0  0  0  0
  150.3281  142.4011  156.8716 H   0  0  0  0  0  0  0  0  0  0  0  0
  149.3211  141.9927  154.6988 H   0  0  0  0  0  0  0  0  0  0  0  0
  148.1085  141.8282  155.9512 H   0  0  0  0  0  0  0  0  0  0  0  0
  147.1997  137.2823  151.2776 H   0  0  0  0  0  0  0  0  0  0  0  0
  1  2  1  0  0  0  0
  1 22  1  0  0  0  0
  1 23  1  0  0  0  0
  1 24  1  0  0  0  0
  2  3  1  0  0  0  0
  2 14  1  0  0  0  0
  3  4  2  0  0  0  0
  3  5  1  0  0  0  0
  5  6  1  0  0  0  0
  5 25  1  0  0  0  0
  5 26  1  0  0  0  0
  6  7  1  0  0  0  0
  6 27  1  0  0  0  0
  6 45  1  0  0  0  0
  7  8  1  0  0  0  0
  7 28  1  0  0  0  0
  7 29  1  0  0  0  0
  8  9  1  0  0  0  0
  8 30  1  0  0  0  0
  8 31  1  0  0  0  0
  9 13  1  0  0  0  0
  9 10  1  0  0  0  0
 10 11  2  0  0  0  0
 10 32  1  0  0  0  0
 11 12  1  0  0  0  0
 11 33  1  0  0  0  0
 12 13  2  0  0  0  0
 12 34  1  0  0  0  0
 14 21  1  0  0  0  0
 14 15  1  0  0  0  0
 14 17  1  0  0  0  0
 15 16  3  0  0  0  0
 17 18  1  0  0  0  0
 17 35  1  0  0  0  0
 17 36  1  0  0  0  0
 18 19  1  0  0  0  0
 18 37  1  0  0  0  0
 18 38  1  0  0  0  0
 19 20  1  0  0  0  0
 19 39  1  0  0  0  0
 19 40  1  0  0  0  0
 20 21  1  0  0  0  0
 20 41  1  0  0  0  0
 20 42  1  0  0  0  0
 21 43  1  0  0  0  0
 21 44  1  0  0  0  0
M  CHG  1   6   1
M  END
> <s_m_source_file>
AV-unprocessed.smi

> <i_m_source_file_index>
806

> <i_lp_mmshare_version>
43012

> <i_f3d_flags>
0

> <s_epik_input>
W0NIMl0xW0NIMl1bQ0gyXVtDSDJdW0NIMl1DMShDI04pTihbQ0gzXSlDKD1PKVtDSDJdW05IXVtDSDJdW0NIMl1uMltjSF1bY0hdW2NIXW4y

> <s_epik_cmdline>
J2VwaWtfcHl0aG9uJywgJy1waCcsICc3LjAnLCAnLXRuJywgJzgnLCAnLW1hJywgJzIwMCcsICctbWV0YWxfYmluZGluZycsICctaW1hZScsICc8aW5maWxlLm1hZT4nLCAnLW9tYWUnLCAnPG91dGZpbGUubWFlPic=

> <r_lp_tautomer_probability>
1

> <r_epik_Ionization_Penalty>
0.349033

> <r_epik_Ionization_Penalty_Charging>
0.349031

> <r_epik_Ionization_Penalty_Neutral>
2.24604e-06

> <r_epik_State_Penalty>
0.345151

> <r_epik_Charging_Adjusted_Penalty>
0.694182

> <i_epik_Tot_Q>
1

> <i_epik_Tot_abs_Q>
1

> <r_epik_Metal_State_Penalty>
0.345887

> <b_epik_Metal_Only>
0

> <s_lp_Force_Field>
OPLS_2005

> <r_lp_Energy>
26.3561

> <b_lp_Chiralities_Consistent>
1

> <s_lp_Variant>
AV-unprocessed.smi:806-1

> <Gold.Version>
5.8.1

> <Gold.Id.Protein>
6NUR|6NUR_protein|mol2

> <Gold.PLP.Fitness>
46.8747

> <Gold.PLP.PLP>
-36.2945

> <Gold.PLP.part.hbond>
-1.8952

> <Gold.PLP.part.metal>
0.0000

> <Gold.PLP.part.buried>
-5.7667

> <Gold.PLP.part.nonpolar>
-33.7359

> <Gold.PLP.part.repulsive>
3.6535

> <Gold.PLP.ligand.clash>
0.0000

> <Gold.PLP.ligand.torsion>
1.1041

> <Gold.PLP.Chemscore.Hbond>
2.2345

> <Gold.PLP.Chemscore.CHOScore>
2.0000

> <Gold.PLP.Chemscore.Metal>
0.0000

> <Gold.Chemscore.Hbonds>
donor molecule, donor type, donor heavy atom, donor atom, acceptor molecule, acceptor atom, score
      L1  H     6    27       P1 10171  0.32
      L1  H     6    45       P1  7948  1.72
      L1  C    10    32       P1 10186  1.00
      L1  C    12    34       P1 10747  1.00

> <Gold.PLP.Chemscore.Internal.Correction>
0.0848

> <Gold.Rescore>
     Score         DG    S(hbond)    S(metal)    S(lipo)     H(rot)  DE(clash)    DE(int)     intcor
     10.01     -14.17       0.99        0.00      91.73       2.09       1.45       2.72       ----

> <Gold.Chemscore.Fitness>
10.0082

> <Gold.Chemscore.DG>
-14.1744

> <Gold.Chemscore.ZeroCoef>
-5.4800

> <Gold.Chemscore.Hbond>
0.9911

> <Gold.Chemscore.Metal>
0.0000

> <Gold.Chemscore.Lipo>
91.7312

> <Gold.Chemscore.Internal_Hbond>
0.0000

> <Gold.Chemscore.DEClash>
1.4507

> <Gold.Chemscore.DEInternal>
2.7155

> <Gold.Chemscore.Rot>
2.0893

> <Gold.Chemscore.Internal.Correction>
   9.000000E+99

> <Gold.Chemscore.Hbonds>
donor molecule, donor type, donor heavy atom, donor atom, acceptor molecule, acceptor atom, score
      L1  H     6    27       P1 10171  0.33
      L1  H     6    45       P1  7948  0.82

> <Gold.Chemscore.Hbond.Weighted>
-3.3104

> <Gold.Chemscore.Metal.Weighted>
-0.0000

> <Gold.Chemscore.Lipo.Weighted>
-10.7326

> <Gold.Chemscore.Internal_Hbond.Weighted>
0.0000

> <Gold.Chemscore.DEClash.Weighted>
1.4507

> <Gold.Chemscore.DEInternal.Weighted>
2.7155

> <Gold.Chemscore.Rot.Weighted>
5.3486

> <Gold.Chemscore.Internal.Correction.Weighted>
   9.000000E+99

> <Gold.Protein.RotatedTorsions>
[ 6907 6896 6895 6894 ] final -177.14 input  -60.11 | X-H torsion
[ 7974 7965 7964 7962 ] final   43.87 input  175.53 | X-H torsion
[ 8008 7997 7996 7995 ] final -101.54 input   59.86 | X-H torsion
[ 10167 10162 10161 10158 ] final   31.39 input  -65.29 | X-H torsion
[ 10718 10713 10712 10709 ] final   92.34 input   66.30 | X-H torsion
[ 10763 10752 10751 10750 ] final  130.74 input  -60.55 | X-H torsion
[ 11005 11000 10999 10996 ] final   24.63 input  -57.11 | X-H torsion

> <Gold.Protein.ActiveResidues>
 VAL166  LYS551  ARG553  GLY616  TRP617  ASP618  TYR619  PRO620  LYS621  CYS622 
 ASP623  PHE694  ASN695  SER759  ASP760  ASP761  ALA762  ILE779  LEU786  VAL792 
 PHE793  MET794  SER795  GLU796  ALA797  LYS798  CYS799  TRP800  GLU811  SER814 

> <Gold.Protein.RotatedAtoms>
  151.6162  133.3343  159.3077 H   0  0  0  0  0  0  0  0  0  0  0  0  # atno 6907 bound_to 6896
  150.8130  134.7300  159.6716 H   0  0  0  0  0  0  0  0  0  0  0  0  # atno 6908 bound_to 6896
  152.4227  134.5931  160.0031 H   0  0  0  0  0  0  0  0  0  0  0  0  # atno 6909 bound_to 6896
  146.0618  139.5138  142.9653 H   0  0  0  0  0  0  0  0  0  0  0  0  # atno 7974 bound_to 7965
  154.8439  140.0434  157.1560 H   0  0  0  0  0  0  0  0  0  0  0  0  # atno 8008 bound_to 7997
  154.9016  140.3001  155.5294 H   0  0  0  0  0  0  0  0  0  0  0  0  # atno 8009 bound_to 7997
  156.2993  140.2375  156.4044 H   0  0  0  0  0  0  0  0  0  0  0  0  # atno 8010 bound_to 7997
  140.4593  144.0931  150.6209 H   0  0  0  0  0  0  0  0  0  0  0  0  # atno 10167 bound_to 10162
  157.6959  131.0440  150.3867 H   0  0  0  0  0  0  0  0  0  0  0  0  # atno 10718 bound_to 10713
  153.7629  135.3193  155.3340 H   0  0  0  0  0  0  0  0  0  0  0  0  # atno 10763 bound_to 10752
  154.8224  135.4594  154.0820 H   0  0  0  0  0  0  0  0  0  0  0  0  # atno 10764 bound_to 10752
  153.2056  135.6928  153.8260 H   0  0  0  0  0  0  0  0  0  0  0  0  # atno 10765 bound_to 10752
  140.3566  134.2171  155.7675 H   0  0  0  0  0  0  0  0  0  0  0  0  # atno 11005 bound_to 11000
  145.6547  141.0255  143.1741 LP  0  0  0  0  0  0  0  0  0  0  0  0  # atno 17320 bound_to 7965
  144.7179  139.8132  143.7392 LP  0  0  0  0  0  0  0  0  0  0  0  0  # atno 17321 bound_to 7965
  140.4113  143.2655  151.9829 LP  0  0  0  0  0  0  0  0  0  0  0  0  # atno 17342 bound_to 10162
  139.4804  144.5912  151.7768 LP  0  0  0  0  0  0  0  0  0  0  0  0  # atno 17343 bound_to 10162
  156.4275  130.3965  149.6783 LP  0  0  0  0  0  0  0  0  0  0  0  0  # atno 17370 bound_to 10713
  156.4012  130.7676  151.2683 LP  0  0  0  0  0  0  0  0  0  0  0  0  # atno 17371 bound_to 10713
  141.1996  133.8006  157.0527 LP  0  0  0  0  0  0  0  0  0  0  0  0  # atno 17394 bound_to 11000
  140.0660  134.9729  157.1386 LP  0  0  0  0  0  0  0  0  0  0  0  0  # atno 17395 bound_to 11000

$$$$
