AV-unprocessed.smi:2143|AV-procd|sdf|8725|dock3
  -GOLD-   2272011493D 1   1.00000     0.00000
 Structure written by MMmdl.
 44 45  0  0  0  0  0  0  0  0  1 V2000
  150.2899  143.7271  158.4062 C   0  0  0  0  0  0  0  0  0  0  0  0
  151.7618  143.3730  158.1092 C   0  0  1  0  0  0  0  0  0  0  0  0
  152.7241  144.0891  159.0783 C   0  0  0  0  0  0  0  0  0  0  0  0
  152.6811  143.4858  160.4906 C   0  0  0  0  0  0  0  0  0  0  0  0
  152.9722  141.9795  160.4568 C   0  0  0  0  0  0  0  0  0  0  0  0
  152.0217  141.2297  159.5032 C   0  0  2  0  0  0  0  0  0  0  0  0
  152.4124  139.8205  159.4755 N   0  0  0  0  0  0  0  0  0  0  0  0
  153.6682  139.3508  159.4153 C   0  0  0  0  0  0  0  0  0  0  0  0
  154.6651  140.0746  159.4131 O   0  0  0  0  0  0  0  0  0  0  0  0
  153.8085  137.8230  159.3759 C   0  0  0  0  0  0  0  0  0  0  0  0
  153.9734  137.2236  160.7064 N   0  0  0  0  0  0  0  0  0  0  0  0
  153.8535  138.0149  161.8341 C   0  0  0  0  0  0  0  0  0  0  0  0
  154.0092  137.5474  163.0920 C   0  0  0  0  0  0  0  0  0  0  0  0
  154.3185  136.1438  163.3365 C   0  0  0  0  0  0  0  0  0  0  0  0
  154.4898  135.6812  164.4648 O   0  0  0  0  0  0  0  0  0  0  0  0
  154.4198  135.3532  162.1665 N   0  0  0  0  0  0  0  0  0  0  0  0
  154.7454  133.9488  162.3067 C   0  0  0  0  0  0  0  0  0  0  0  0
  154.2715  135.8515  160.8528 C   0  0  0  0  0  0  0  0  0  0  0  0
  154.4027  135.1281  159.8621 O   0  0  0  0  0  0  0  0  0  0  0  0
  152.0554  141.8485  158.0798 C   0  0  1  0  0  0  0  0  0  0  0  0
  151.1632  141.1015  157.0687 C   0  0  0  0  0  0  0  0  0  0  0  0
  149.9553  143.3322  159.3650 H   0  0  0  0  0  0  0  0  0  0  0  0
  149.6215  143.3388  157.6382 H   0  0  0  0  0  0  0  0  0  0  0  0
  150.1485  144.8080  158.4309 H   0  0  0  0  0  0  0  0  0  0  0  0
  151.9729  143.7638  157.1128 H   0  0  0  0  0  0  0  0  0  0  0  0
  153.7418  144.0157  158.6924 H   0  0  0  0  0  0  0  0  0  0  0  0
  152.4954  145.1546  159.1211 H   0  0  0  0  0  0  0  0  0  0  0  0
  153.4090  143.9873  161.1288 H   0  0  0  0  0  0  0  0  0  0  0  0
  151.7057  143.6625  160.9444 H   0  0  0  0  0  0  0  0  0  0  0  0
  154.0062  141.8232  160.1449 H   0  0  0  0  0  0  0  0  0  0  0  0
  152.8900  141.5694  161.4642 H   0  0  0  0  0  0  0  0  0  0  0  0
  151.0103  141.3223  159.9014 H   0  0  0  0  0  0  0  0  0  0  0  0
  151.6611  139.1461  159.4853 H   0  0  0  0  0  0  0  0  0  0  0  0
  152.9221  137.4131  158.8900 H   0  0  0  0  0  0  0  0  0  0  0  0
  154.6493  137.5465  158.7370 H   0  0  0  0  0  0  0  0  0  0  0  0
  153.6295  139.0642  161.7060 H   0  0  0  0  0  0  0  0  0  0  0  0
  153.9074  138.2225  163.9291 H   0  0  0  0  0  0  0  0  0  0  0  0
  154.1528  133.3802  161.5880 H   0  0  0  0  0  0  0  0  0  0  0  0
  154.4941  133.5967  163.3074 H   0  0  0  0  0  0  0  0  0  0  0  0
  155.8141  133.8506  162.1105 H   0  0  0  0  0  0  0  0  0  0  0  0
  153.0779  141.7422  157.7131 H   0  0  0  0  0  0  0  0  0  0  0  0
  150.1322  141.0331  157.4165 H   0  0  0  0  0  0  0  0  0  0  0  0
  151.5182  140.0851  156.8981 H   0  0  0  0  0  0  0  0  0  0  0  0
  151.1583  141.6047  156.1015 H   0  0  0  0  0  0  0  0  0  0  0  0
  1  2  1  0  0  0  0
  1 22  1  0  0  0  0
  1 23  1  0  0  0  0
  1 24  1  0  0  0  0
  2 20  1  0  0  0  0
  2  3  1  0  0  0  0
  2 25  1  0  0  0  0
  3  4  1  0  0  0  0
  3 26  1  0  0  0  0
  3 27  1  0  0  0  0
  4  5  1  0  0  0  0
  4 28  1  0  0  0  0
  4 29  1  0  0  0  0
  5  6  1  0  0  0  0
  5 30  1  0  0  0  0
  5 31  1  0  0  0  0
  6  7  1  0  0  0  0
  6 20  1  0  0  0  0
  6 32  1  0  0  0  0
  7  8  1  0  0  0  0
  7 33  1  0  0  0  0
  8  9  2  0  0  0  0
  8 10  1  0  0  0  0
 10 11  1  0  0  0  0
 10 34  1  0  0  0  0
 10 35  1  0  0  0  0
 11 18  1  0  0  0  0
 11 12  1  0  0  0  0
 12 13  2  0  0  0  0
 12 36  1  0  0  0  0
 13 14  1  0  0  0  0
 13 37  1  0  0  0  0
 14 15  2  0  0  0  0
 14 16  1  0  0  0  0
 16 17  1  0  0  0  0
 16 18  1  0  0  0  0
 17 38  1  0  0  0  0
 17 39  1  0  0  0  0
 17 40  1  0  0  0  0
 18 19  2  0  0  0  0
 20 21  1  0  0  0  0
 20 41  1  0  0  0  0
 21 42  1  0  0  0  0
 21 43  1  0  0  0  0
 21 44  1  0  0  0  0
M  END
> <s_m_source_file>
AV-unprocessed.smi

> <i_m_source_file_index>
2143

> <i_lp_mmshare_version>
43012

> <i_f3d_flags>
0

> <s_epik_input>
W0NIM11bQ0BASF0xW0NIMl1bQ0gyXVtDSDJdW0NASF0oW0NASF0xW0NIM10pW05IXUMoPU8pW0NIMl1uMltjSF1bY0hdYyg9TyluKFtDSDNdKWMyPU8=

> <s_epik_cmdline>
J2VwaWtfcHl0aG9uJywgJy1waCcsICc3LjAnLCAnLXRuJywgJzgnLCAnLW1hJywgJzIwMCcsICctbWV0YWxfYmluZGluZycsICctaW1hZScsICc8aW5maWxlLm1hZT4nLCAnLW9tYWUnLCAnPG91dGZpbGUubWFlPic=

> <r_lp_tautomer_probability>
1

> <r_epik_Ionization_Penalty>
3.18445e-08

> <r_epik_Ionization_Penalty_Charging>
1.27977e-08

> <r_epik_Ionization_Penalty_Neutral>
1.90469e-08

> <r_epik_State_Penalty>
-0

> <r_epik_Charging_Adjusted_Penalty>
1.27977e-08

> <i_epik_Tot_Q>
0

> <i_epik_Tot_abs_Q>
0

> <r_epik_Metal_State_Penalty>
-0

> <b_epik_Metal_Only>
0

> <s_lp_Force_Field>
OPLS_2005

> <r_lp_Energy>
21.4204

> <b_lp_Chiralities_Consistent>
1

> <s_lp_Variant>
AV-unprocessed.smi:2143-4

> <Gold.Version>
5.8.1

> <Gold.Id.Protein>
6NUR|6NUR_protein|mol2

> <Gold.PLP.Fitness>
43.6471

> <Gold.PLP.PLP>
-38.9793

> <Gold.PLP.part.hbond>
-2.0000

> <Gold.PLP.part.metal>
0.0000

> <Gold.PLP.part.buried>
-4.0037

> <Gold.PLP.part.nonpolar>
-33.0294

> <Gold.PLP.part.repulsive>
0.2219

> <Gold.PLP.ligand.clash>
0.0000

> <Gold.PLP.ligand.torsion>
0.6687

> <Gold.PLP.Chemscore.Hbond>
2.0000

> <Gold.PLP.Chemscore.CHOScore>
0.0000

> <Gold.PLP.Chemscore.Metal>
0.0000

> <Gold.Chemscore.Hbonds>
donor molecule, donor type, donor heavy atom, donor atom, acceptor molecule, acceptor atom, score
      P1  H  6896  6907       L1    19  0.75
      P1  H  7997  8008       L1     9  0.78

> <Gold.PLP.Chemscore.Internal.Correction>
0.0052

> <Gold.Rescore>
     Score         DG    S(hbond)    S(metal)    S(lipo)     H(rot)  DE(clash)    DE(int)     intcor
     18.83     -20.34       1.94        0.00     104.60       1.51       0.01       1.49       ----

> <Gold.Chemscore.Fitness>
18.8295

> <Gold.Chemscore.DG>
-20.3367

> <Gold.Chemscore.ZeroCoef>
-5.4800

> <Gold.Chemscore.Hbond>
1.9436

> <Gold.Chemscore.Metal>
0.0000

> <Gold.Chemscore.Lipo>
104.6019

> <Gold.Chemscore.Internal_Hbond>
0.0000

> <Gold.Chemscore.DEClash>
0.0149

> <Gold.Chemscore.DEInternal>
1.4923

> <Gold.Chemscore.Rot>
1.5131

> <Gold.Chemscore.Internal.Correction>
   9.000000E+99

> <Gold.Chemscore.Hbonds>
donor molecule, donor type, donor heavy atom, donor atom, acceptor molecule, acceptor atom, score
      P1  H  6896  6907       L1    19  0.09
      P1  H  7997  8008       L1     9  0.19

> <Gold.Chemscore.Hbond.Weighted>
-6.4918

> <Gold.Chemscore.Metal.Weighted>
-0.0000

> <Gold.Chemscore.Lipo.Weighted>
-12.2384

> <Gold.Chemscore.Internal_Hbond.Weighted>
0.0000

> <Gold.Chemscore.DEClash.Weighted>
0.0149

> <Gold.Chemscore.DEInternal.Weighted>
1.4923

> <Gold.Chemscore.Rot.Weighted>
3.8734

> <Gold.Chemscore.Internal.Correction.Weighted>
   9.000000E+99

> <Gold.Protein.RotatedTorsions>
[ 6907 6896 6895 6894 ] final   77.02 input  -60.11 | X-H torsion
[ 7974 7965 7964 7962 ] final -116.77 input  175.53 | X-H torsion
[ 8008 7997 7996 7995 ] final -120.43 input   59.86 | X-H torsion
[ 10167 10162 10161 10158 ] final  157.74 input  -65.29 | X-H torsion
[ 10718 10713 10712 10709 ] final   10.52 input   66.30 | X-H torsion
[ 10763 10752 10751 10750 ] final  151.19 input  -60.55 | X-H torsion
[ 11005 11000 10999 10996 ] final -179.32 input  -57.11 | X-H torsion

> <Gold.Protein.ActiveResidues>
 VAL166  LYS551  ARG553  GLY616  TRP617  ASP618  TYR619  PRO620  LYS621  CYS622 
 ASP623  PHE694  ASN695  SER759  ASP760  ASP761  ALA762  ILE779  LEU786  VAL792 
 PHE793  MET794  SER795  GLU796  ALA797  LYS798  CYS799  TRP800  GLU811  SER814 

> <Gold.Protein.RotatedAtoms>
  152.5099  134.3880  159.9373 H   0  0  0  0  0  0  0  0  0  0  0  0  # atno 6907 bound_to 6896
  151.3839  133.3805  159.2721 H   0  0  0  0  0  0  0  0  0  0  0  0  # atno 6908 bound_to 6896
  150.9483  134.8906  159.7715 H   0  0  0  0  0  0  0  0  0  0  0  0  # atno 6909 bound_to 6896
  145.0930  140.8502  143.3971 H   0  0  0  0  0  0  0  0  0  0  0  0  # atno 7974 bound_to 7965
  155.1317  140.0400  157.2776 H   0  0  0  0  0  0  0  0  0  0  0  0  # atno 8008 bound_to 7997
  154.6538  140.2575  155.7158 H   0  0  0  0  0  0  0  0  0  0  0  0  # atno 8009 bound_to 7997
  156.2589  140.2831  156.0982 H   0  0  0  0  0  0  0  0  0  0  0  0  # atno 8010 bound_to 7997
  139.4824  144.4889  151.8337 H   0  0  0  0  0  0  0  0  0  0  0  0  # atno 10167 bound_to 10162
  156.9822  130.6010  149.5678 H   0  0  0  0  0  0  0  0  0  0  0  0  # atno 10718 bound_to 10713
  154.0998  135.2846  155.3254 H   0  0  0  0  0  0  0  0  0  0  0  0  # atno 10763 bound_to 10752
  154.6563  135.5351  153.7966 H   0  0  0  0  0  0  0  0  0  0  0  0  # atno 10764 bound_to 10752
  153.0383  135.6522  154.1162 H   0  0  0  0  0  0  0  0  0  0  0  0  # atno 10765 bound_to 10752
  140.4199  134.6615  157.4658 H   0  0  0  0  0  0  0  0  0  0  0  0  # atno 11005 bound_to 11000
  145.1044  139.2800  143.5669 LP  0  0  0  0  0  0  0  0  0  0  0  0  # atno 17320 bound_to 7965
  146.3531  140.0621  142.8628 LP  0  0  0  0  0  0  0  0  0  0  0  0  # atno 17321 bound_to 7965
  140.4371  144.2036  150.5890 LP  0  0  0  0  0  0  0  0  0  0  0  0  # atno 17342 bound_to 10162
  140.4720  143.2409  151.9075 LP  0  0  0  0  0  0  0  0  0  0  0  0  # atno 17343 bound_to 10162
  156.0240  130.5334  150.8355 LP  0  0  0  0  0  0  0  0  0  0  0  0  # atno 17370 bound_to 10713
  157.5518  131.0944  150.9684 LP  0  0  0  0  0  0  0  0  0  0  0  0  # atno 17371 bound_to 10713
  140.0207  134.6551  155.9243 LP  0  0  0  0  0  0  0  0  0  0  0  0  # atno 17394 bound_to 11000
  141.1788  133.6543  156.4936 LP  0  0  0  0  0  0  0  0  0  0  0  0  # atno 17395 bound_to 11000

$$$$
