AV-unprocessed.smi:1762|AV-procd|sdf|7102|dock3
  -GOLD-   22720 8323D 1   1.00000     0.00000
 Structure written by MMmdl.
 52 53  0  0  0  0  0  0  0  0  1 V2000
  151.9760  145.2505  160.3157 C   0  0  0  0  0  0  0  0  0  0  0  0
  151.0150  144.1005  159.9951 C   0  0  1  0  0  0  0  0  0  0  0  0
  149.5467  144.5635  159.9371 C   0  0  0  0  0  0  0  0  0  0  0  0
  148.6261  143.4848  159.5586 N   0  0  0  0  0  0  0  0  0  0  0  0
  147.2009  143.9184  159.5326 C   0  0  1  0  0  0  0  0  0  0  0  0
  146.2674  142.8894  158.8516 C   0  0  0  0  0  0  0  0  0  0  0  0
  146.2048  141.7323  159.2688 O   0  0  0  0  0  0  0  0  0  0  0  0
  145.5752  143.3187  157.7844 N   0  0  0  0  0  0  0  0  0  0  0  0
  144.6835  142.4933  156.9795 C   0  0  0  0  0  0  0  0  0  0  0  0
  145.2081  142.3375  155.5423 C   0  0  0  0  0  0  0  0  0  0  0  0
  144.9617  143.5774  154.7042 C   0  0  0  0  0  0  0  0  0  0  0  0
  145.6398  143.7658  153.4809 C   0  0  0  0  0  0  0  0  0  0  0  0
  145.3687  144.9297  152.7358 C   0  0  0  0  0  0  0  0  0  0  0  0
  144.4341  145.8547  153.2395 C   0  0  0  0  0  0  0  0  0  0  0  0
  143.8100  145.5738  154.4713 C   0  0  0  0  0  0  0  0  0  0  0  0
  144.0626  144.4608  155.1938 N   0  0  0  0  0  0  0  0  0  0  0  0
  146.6187  144.3702  160.9142 C   0  0  0  0  0  0  0  0  0  0  0  0
  145.1214  144.0530  161.0974 C   0  0  0  0  0  0  0  0  0  0  0  0
  146.8984  145.8503  161.2441 C   0  0  0  0  0  0  0  0  0  0  0  0
  149.1004  142.8892  158.2967 C   0  0  0  0  0  0  0  0  0  0  0  0
  150.5747  142.4454  158.3602 C   0  0  1  0  0  0  0  0  0  0  0  0
  151.0824  141.9206  157.0123 C   0  0  0  0  0  0  0  0  0  0  0  0
  151.3824  143.5537  158.7354 O   0  0  0  0  0  0  0  0  0  0  0  0
  151.7455  145.6965  161.2834 H   0  0  0  0  0  0  0  0  0  0  0  0
  151.9169  146.0358  159.5616 H   0  0  0  0  0  0  0  0  0  0  0  0
  153.0071  144.8979  160.3495 H   0  0  0  0  0  0  0  0  0  0  0  0
  151.1244  143.3311  160.7618 H   0  0  0  0  0  0  0  0  0  0  0  0
  149.3009  144.9517  160.9235 H   0  0  0  0  0  0  0  0  0  0  0  0
  149.4512  145.3956  159.2373 H   0  0  0  0  0  0  0  0  0  0  0  0
  147.1618  144.8072  158.8989 H   0  0  0  0  0  0  0  0  0  0  0  0
  145.6871  144.2815  157.5016 H   0  0  0  0  0  0  0  0  0  0  0  0
  144.5529  141.5158  157.4471 H   0  0  0  0  0  0  0  0  0  0  0  0
  143.7010  142.9662  156.9699 H   0  0  0  0  0  0  0  0  0  0  0  0
  146.2784  142.1261  155.5560 H   0  0  0  0  0  0  0  0  0  0  0  0
  144.7347  141.4821  155.0584 H   0  0  0  0  0  0  0  0  0  0  0  0
  146.3492  143.0357  153.1194 H   0  0  0  0  0  0  0  0  0  0  0  0
  145.8676  145.1090  151.7947 H   0  0  0  0  0  0  0  0  0  0  0  0
  144.2006  146.7577  152.6949 H   0  0  0  0  0  0  0  0  0  0  0  0
  143.0881  146.2609  154.8872 H   0  0  0  0  0  0  0  0  0  0  0  0
  147.1535  143.8258  161.6908 H   0  0  0  0  0  0  0  0  0  0  0  0
  144.4958  144.6295  160.4168 H   0  0  0  0  0  0  0  0  0  0  0  0
  144.7978  144.2879  162.1118 H   0  0  0  0  0  0  0  0  0  0  0  0
  144.9111  142.9966  160.9297 H   0  0  0  0  0  0  0  0  0  0  0  0
  146.3323  146.5282  160.6047 H   0  0  0  0  0  0  0  0  0  0  0  0
  147.9569  146.0856  161.1295 H   0  0  0  0  0  0  0  0  0  0  0  0
  146.6246  146.0765  162.2750 H   0  0  0  0  0  0  0  0  0  0  0  0
  148.5199  142.0062  158.0311 H   0  0  0  0  0  0  0  0  0  0  0  0
  148.9699  143.6045  157.4827 H   0  0  0  0  0  0  0  0  0  0  0  0
  150.6859  141.6564  159.1062 H   0  0  0  0  0  0  0  0  0  0  0  0
  150.5025  141.0586  156.6820 H   0  0  0  0  0  0  0  0  0  0  0  0
  152.1256  141.6117  157.0826 H   0  0  0  0  0  0  0  0  0  0  0  0
  151.0138  142.6870  156.2396 H   0  0  0  0  0  0  0  0  0  0  0  0
  1  2  1  0  0  0  0
  1 24  1  0  0  0  0
  1 25  1  0  0  0  0
  1 26  1  0  0  0  0
  2 23  1  0  0  0  0
  2  3  1  0  0  0  0
  2 27  1  0  0  0  0
  3  4  1  0  0  0  0
  3 28  1  0  0  0  0
  3 29  1  0  0  0  0
  4  5  1  0  0  0  0
  4 20  1  0  0  0  0
  5  6  1  0  0  0  0
  5 17  1  0  0  0  0
  5 30  1  0  0  0  0
  6  7  2  0  0  0  0
  6  8  1  0  0  0  0
  8  9  1  0  0  0  0
  8 31  1  0  0  0  0
  9 10  1  0  0  0  0
  9 32  1  0  0  0  0
  9 33  1  0  0  0  0
 10 11  1  0  0  0  0
 10 34  1  0  0  0  0
 10 35  1  0  0  0  0
 11 16  1  0  0  0  0
 11 12  2  0  0  0  0
 12 13  1  0  0  0  0
 12 36  1  0  0  0  0
 13 14  2  0  0  0  0
 13 37  1  0  0  0  0
 14 15  1  0  0  0  0
 14 38  1  0  0  0  0
 15 16  2  0  0  0  0
 15 39  1  0  0  0  0
 17 18  1  0  0  0  0
 17 19  1  0  0  0  0
 17 40  1  0  0  0  0
 18 41  1  0  0  0  0
 18 42  1  0  0  0  0
 18 43  1  0  0  0  0
 19 44  1  0  0  0  0
 19 45  1  0  0  0  0
 19 46  1  0  0  0  0
 20 21  1  0  0  0  0
 20 47  1  0  0  0  0
 20 48  1  0  0  0  0
 21 22  1  0  0  0  0
 21 23  1  0  0  0  0
 21 49  1  0  0  0  0
 22 50  1  0  0  0  0
 22 51  1  0  0  0  0
 22 52  1  0  0  0  0
M  END
> <s_m_source_file>
AV-unprocessed.smi

> <i_m_source_file_index>
1762

> <i_lp_mmshare_version>
43012

> <i_f3d_flags>
0

> <s_epik_input>
W0NIM11bQ0BASF0xW0NIMl1OKFtDSDJdW0NASF0oTzEpW0NIM10pW0NAQEhdKFtDSF0oW0NIM10pW0NIM10pQyg9TylbTkhdW0NIMl1bQ0gyXWMyW2NIXVtjSF1bY0hdW2NIXW4y

> <s_epik_cmdline>
J2VwaWtfcHl0aG9uJywgJy1waCcsICc3LjAnLCAnLXRuJywgJzgnLCAnLW1hJywgJzIwMCcsICctbWV0YWxfYmluZGluZycsICctaW1hZScsICc8aW5maWxlLm1hZT4nLCAnLW9tYWUnLCAnPG91dGZpbGUubWFlPic=

> <r_epik_Ionization_Penalty>
0.0399736

> <r_epik_Ionization_Penalty_Charging>
0

> <r_epik_Ionization_Penalty_Neutral>
0.0399736

> <r_epik_State_Penalty>
0.0317634

> <r_epik_Charging_Adjusted_Penalty>
0.0317634

> <i_epik_Tot_Q>
0

> <i_epik_Tot_abs_Q>
0

> <r_epik_Metal_State_Penalty>
0.0307795

> <b_epik_Metal_Only>
0

> <s_lp_Force_Field>
OPLS_2005

> <r_lp_Energy>
24.971

> <b_lp_Chiralities_Consistent>
1

> <s_lp_Variant>
AV-unprocessed.smi:1762-4

> <Gold.Version>
5.8.1

> <Gold.Id.Protein>
6NUR|6NUR_protein|mol2

> <Gold.PLP.Fitness>
43.7755

> <Gold.PLP.PLP>
-42.3952

> <Gold.PLP.part.hbond>
-2.0000

> <Gold.PLP.part.metal>
0.0000

> <Gold.PLP.part.buried>
-4.0299

> <Gold.PLP.part.nonpolar>
-36.9276

> <Gold.PLP.part.repulsive>
0.3115

> <Gold.PLP.ligand.clash>
0.0000

> <Gold.PLP.ligand.torsion>
1.4537

> <Gold.PLP.Chemscore.Hbond>
1.3228

> <Gold.PLP.Chemscore.CHOScore>
0.0000

> <Gold.PLP.Chemscore.Metal>
0.0000

> <Gold.Chemscore.Hbonds>
donor molecule, donor type, donor heavy atom, donor atom, acceptor molecule, acceptor atom, score
      P1  H  6933  6944       L1     4  0.33
      P1  H  6934  6946       L1     7  0.94

> <Gold.PLP.Chemscore.Internal.Correction>
0.3193

> <Gold.Rescore>
     Score         DG    S(hbond)    S(metal)    S(lipo)     H(rot)  DE(clash)    DE(int)     intcor
     15.87     -17.39       0.96        0.00     109.54       1.60       0.15       1.38       ----

> <Gold.Chemscore.Fitness>
15.8698

> <Gold.Chemscore.DG>
-17.3944

> <Gold.Chemscore.ZeroCoef>
-5.4800

> <Gold.Chemscore.Hbond>
0.9556

> <Gold.Chemscore.Metal>
0.0000

> <Gold.Chemscore.Lipo>
109.5441

> <Gold.Chemscore.Internal_Hbond>
0.0000

> <Gold.Chemscore.DEClash>
0.1486

> <Gold.Chemscore.DEInternal>
1.3760

> <Gold.Chemscore.Rot>
1.5993

> <Gold.Chemscore.Internal.Correction>
   9.000000E+99

> <Gold.Chemscore.Hbonds>
donor molecule, donor type, donor heavy atom, donor atom, acceptor molecule, acceptor atom, score
      P1  H  6933  6944       L1     4  0.02
      P1  H  6934  6946       L1     7  0.92

> <Gold.Chemscore.Hbond.Weighted>
-3.1919

> <Gold.Chemscore.Metal.Weighted>
-0.0000

> <Gold.Chemscore.Lipo.Weighted>
-12.8167

> <Gold.Chemscore.Internal_Hbond.Weighted>
0.0000

> <Gold.Chemscore.DEClash.Weighted>
0.1486

> <Gold.Chemscore.DEInternal.Weighted>
1.3760

> <Gold.Chemscore.Rot.Weighted>
4.0941

> <Gold.Chemscore.Internal.Correction.Weighted>
   9.000000E+99

> <Gold.Protein.RotatedTorsions>
[ 6907 6896 6895 6894 ] final  101.02 input  -60.11 | X-H torsion
[ 7974 7965 7964 7962 ] final  116.16 input  175.53 | X-H torsion
[ 8008 7997 7996 7995 ] final -157.39 input   59.86 | X-H torsion
[ 10167 10162 10161 10158 ] final   46.35 input  -65.29 | X-H torsion
[ 10718 10713 10712 10709 ] final   35.36 input   66.30 | X-H torsion
[ 10763 10752 10751 10750 ] final  125.10 input  -60.55 | X-H torsion
[ 11005 11000 10999 10996 ] final -172.97 input  -57.11 | X-H torsion

> <Gold.Protein.ActiveResidues>
 VAL166  LYS551  ARG553  GLY616  TRP617  ASP618  TYR619  PRO620  LYS621  CYS622 
 ASP623  PHE694  ASN695  SER759  ASP760  ASP761  ALA762  ILE779  LEU786  VAL792 
 PHE793  MET794  SER795  GLU796  ALA797  LYS798  CYS799  TRP800  GLU811  SER814 

> <Gold.Protein.RotatedAtoms>
  152.5359  134.0188  159.7972 H   0  0  0  0  0  0  0  0  0  0  0  0  # atno 6907 bound_to 6896
  151.0378  133.5725  159.2661 H   0  0  0  0  0  0  0  0  0  0  0  0  # atno 6908 bound_to 6896
  151.2706  135.0690  159.9186 H   0  0  0  0  0  0  0  0  0  0  0  0  # atno 6909 bound_to 6896
  145.1831  139.3039  143.4407 H   0  0  0  0  0  0  0  0  0  0  0  0  # atno 7974 bound_to 7965
  155.7317  140.0803  157.2285 H   0  0  0  0  0  0  0  0  0  0  0  0  # atno 8008 bound_to 7997
  154.4032  140.1594  156.2571 H   0  0  0  0  0  0  0  0  0  0  0  0  # atno 8009 bound_to 7997
  155.9102  140.3404  155.6096 H   0  0  0  0  0  0  0  0  0  0  0  0  # atno 8010 bound_to 7997
  140.3148  144.2777  150.6193 H   0  0  0  0  0  0  0  0  0  0  0  0  # atno 10167 bound_to 10162
  157.3217  130.7452  149.6790 H   0  0  0  0  0  0  0  0  0  0  0  0  # atno 10718 bound_to 10713
  153.6719  135.3329  155.3155 H   0  0  0  0  0  0  0  0  0  0  0  0  # atno 10763 bound_to 10752
  154.8488  135.4388  154.1696 H   0  0  0  0  0  0  0  0  0  0  0  0  # atno 10764 bound_to 10752
  153.2690  135.6998  153.7576 H   0  0  0  0  0  0  0  0  0  0  0  0  # atno 10765 bound_to 10752
  140.4910  134.5985  157.4954 H   0  0  0  0  0  0  0  0  0  0  0  0  # atno 11005 bound_to 11000
  146.3449  140.2017  142.8589 LP  0  0  0  0  0  0  0  0  0  0  0  0  # atno 17320 bound_to 7965
  145.0116  140.8719  143.5220 LP  0  0  0  0  0  0  0  0  0  0  0  0  # atno 17321 bound_to 7965
  140.5536  143.2202  151.7885 LP  0  0  0  0  0  0  0  0  0  0  0  0  # atno 17342 bound_to 10162
  139.4886  144.4443  151.9728 LP  0  0  0  0  0  0  0  0  0  0  0  0  # atno 17343 bound_to 10162
  155.9686  130.4221  150.4500 LP  0  0  0  0  0  0  0  0  0  0  0  0  # atno 17370 bound_to 10713
  157.2517  131.0548  151.2375 LP  0  0  0  0  0  0  0  0  0  0  0  0  # atno 17371 bound_to 10713
  139.9769  134.7200  155.9932 LP  0  0  0  0  0  0  0  0  0  0  0  0  # atno 17394 bound_to 11000
  141.1484  133.6552  156.3938 LP  0  0  0  0  0  0  0  0  0  0  0  0  # atno 17395 bound_to 11000

$$$$
