AV-unprocessed.smi:1817|AV-procd|sdf|7371|dock10
  -GOLD-   22720 9 33D 1   1.00000     0.00000
 Structure written by MMmdl.
 43 44  0  0  0  0  0  0  0  0  2 V2000
  151.8304  139.5412  157.0724 C   0  0  0  0  0  0  0  0  0  0  0  0
  150.8833  138.3611  156.8119 C   0  0  0  0  0  0  0  0  0  0  0  0
  151.0385  137.8218  155.4589 N   0  0  0  0  0  0  0  0  0  0  0  0
  150.1342  136.7223  155.1180 C   0  0  0  0  0  0  0  0  0  0  0  0
  148.6667  137.1819  154.9890 C   0  0  0  0  0  0  0  0  0  0  0  0
  148.5164  138.2639  153.9744 N   0  3  0  0  0  0  0  0  0  0  0  0
  147.1090  138.7444  153.7622 C   0  0  1  0  0  0  0  0  0  0  0  0
  147.1004  140.0805  152.9812 C   0  0  0  0  0  0  0  0  0  0  0  0
  146.2063  137.6931  153.0556 C   0  0  0  0  0  0  0  0  0  0  0  0
  144.7885  138.0481  153.0656 N   0  0  0  0  0  0  0  0  0  0  0  0
  143.7752  137.2087  153.3264 C   0  0  0  0  0  0  0  0  0  0  0  0
  143.9303  136.0104  153.5594 O   0  0  0  0  0  0  0  0  0  0  0  0
  142.5951  137.8483  153.2923 N   0  0  0  0  0  0  0  0  0  0  0  0
  141.3022  137.3061  153.5006 C   0  0  0  0  0  0  0  0  0  0  0  0
  141.2143  136.0702  154.0054 N   0  0  0  0  0  0  0  0  0  0  0  0
  139.8946  135.6636  154.1600 N   0  0  0  0  0  0  0  0  0  0  0  0
  139.0380  136.6110  153.7666 C   0  0  0  0  0  0  0  0  0  0  0  0
  139.7577  138.0951  153.1676 S   0  0  0  0  0  0  0  0  0  0  0  0
  149.4658  139.3672  154.2945 C   0  0  0  0  0  0  0  0  0  0  0  0
  150.9130  138.8497  154.4269 C   0  0  0  0  0  0  0  0  0  0  0  0
  151.6009  140.0085  158.0303 H   0  0  0  0  0  0  0  0  0  0  0  0
  151.7321  140.3063  156.3019 H   0  0  0  0  0  0  0  0  0  0  0  0
  152.8735  139.2287  157.1102 H   0  0  0  0  0  0  0  0  0  0  0  0
  151.0230  137.5933  157.5720 H   0  0  0  0  0  0  0  0  0  0  0  0
  149.8597  138.7216  156.9218 H   0  0  0  0  0  0  0  0  0  0  0  0
  150.4606  136.2911  154.1704 H   0  0  0  0  0  0  0  0  0  0  0  0
  150.2163  135.9203  155.8508 H   0  0  0  0  0  0  0  0  0  0  0  0
  148.0988  136.3017  154.6914 H   0  0  0  0  0  0  0  0  0  0  0  0
  148.2684  137.5083  155.9504 H   0  0  0  0  0  0  0  0  0  0  0  0
  146.6752  138.9263  154.7470 H   0  0  0  0  0  0  0  0  0  0  0  0
  146.0898  140.4613  152.8388 H   0  0  0  0  0  0  0  0  0  0  0  0
  147.5484  139.9620  151.9942 H   0  0  0  0  0  0  0  0  0  0  0  0
  147.6316  140.8785  153.4957 H   0  0  0  0  0  0  0  0  0  0  0  0
  146.5581  137.5125  152.0382 H   0  0  0  0  0  0  0  0  0  0  0  0
  146.2512  136.7358  153.5732 H   0  0  0  0  0  0  0  0  0  0  0  0
  144.5630  139.0153  152.8833 H   0  0  0  0  0  0  0  0  0  0  0  0
  142.6212  138.8378  153.0942 H   0  0  0  0  0  0  0  0  0  0  0  0
  137.9746  136.4340  153.8299 H   0  0  0  0  0  0  0  0  0  0  0  0
  149.4696  140.1163  153.5062 H   0  0  0  0  0  0  0  0  0  0  0  0
  149.1498  139.8806  155.2035 H   0  0  0  0  0  0  0  0  0  0  0  0
  151.5906  139.6750  154.6491 H   0  0  0  0  0  0  0  0  0  0  0  0
  151.2419  138.4332  153.4738 H   0  0  0  0  0  0  0  0  0  0  0  0
  148.8183  137.8640  153.0974 H   0  0  0  0  0  0  0  0  0  0  0  0
  1  2  1  0  0  0  0
  1 21  1  0  0  0  0
  1 22  1  0  0  0  0
  1 23  1  0  0  0  0
  2  3  1  0  0  0  0
  2 24  1  0  0  0  0
  2 25  1  0  0  0  0
  3 20  1  0  0  0  0
  3  4  1  0  0  0  0
  4  5  1  0  0  0  0
  4 26  1  0  0  0  0
  4 27  1  0  0  0  0
  5  6  1  0  0  0  0
  5 28  1  0  0  0  0
  5 29  1  0  0  0  0
  6  7  1  0  0  0  0
  6 19  1  0  0  0  0
  6 43  1  0  0  0  0
  7  8  1  0  0  0  0
  7  9  1  0  0  0  0
  7 30  1  0  0  0  0
  8 31  1  0  0  0  0
  8 32  1  0  0  0  0
  8 33  1  0  0  0  0
  9 10  1  0  0  0  0
  9 34  1  0  0  0  0
  9 35  1  0  0  0  0
 10 11  1  0  0  0  0
 10 36  1  0  0  0  0
 11 12  2  0  0  0  0
 11 13  1  0  0  0  0
 13 14  1  0  0  0  0
 13 37  1  0  0  0  0
 14 18  1  0  0  0  0
 14 15  2  0  0  0  0
 15 16  1  0  0  0  0
 16 17  2  0  0  0  0
 17 18  1  0  0  0  0
 17 38  1  0  0  0  0
 19 20  1  0  0  0  0
 19 39  1  0  0  0  0
 19 40  1  0  0  0  0
 20 41  1  0  0  0  0
 20 42  1  0  0  0  0
M  CHG  1   6   1
M  END
> <s_m_source_file>
AV-unprocessed.smi

> <i_m_source_file_index>
1817

> <i_lp_mmshare_version>
43012

> <i_f3d_flags>
0

> <s_epik_input>
W0NIM11bQ0gyXU4xW0NIMl1bQ0gyXU4oW0NIMl1bQ0gyXTEpW0NASF0oW0NIM10pW0NIMl1bTkhdQyg9TylbTkhdYzJubltjSF1zMg==

> <s_epik_cmdline>
J2VwaWtfcHl0aG9uJywgJy1waCcsICc3LjAnLCAnLXRuJywgJzgnLCAnLW1hJywgJzIwMCcsICctbWV0YWxfYmluZGluZycsICctaW1hZScsICc8aW5maWxlLm1hZT4nLCAnLW9tYWUnLCAnPG91dGZpbGUubWFlPic=

> <r_epik_Ionization_Penalty>
0.153808

> <r_epik_Ionization_Penalty_Charging>
0.148467

> <r_epik_Ionization_Penalty_Neutral>
0.00534086

> <r_epik_State_Penalty>
0.974087

> <r_epik_Charging_Adjusted_Penalty>
1.12255

> <i_epik_Tot_Q>
1

> <i_epik_Tot_abs_Q>
1

> <r_epik_Metal_State_Penalty>
1.30894

> <b_epik_Metal_Only>
0

> <s_lp_Force_Field>
OPLS_2005

> <r_lp_Energy>
21.4774

> <b_lp_Chiralities_Consistent>
1

> <s_lp_Variant>
AV-unprocessed.smi:1817-4

> <Gold.Version>
5.8.1

> <Gold.Id.Protein>
6NUR|6NUR_protein|mol2

> <Gold.PLP.Fitness>
43.1888

> <Gold.PLP.PLP>
-28.9829

> <Gold.PLP.part.hbond>
-4.7007

> <Gold.PLP.part.metal>
0.0000

> <Gold.PLP.part.buried>
-4.0653

> <Gold.PLP.part.nonpolar>
-21.1456

> <Gold.PLP.part.repulsive>
0.3512

> <Gold.PLP.ligand.clash>
0.0000

> <Gold.PLP.ligand.torsion>
0.4264

> <Gold.PLP.Chemscore.Hbond>
5.0000

> <Gold.PLP.Chemscore.CHOScore>
0.0000

> <Gold.PLP.Chemscore.Metal>
0.0000

> <Gold.Chemscore.Hbonds>
donor molecule, donor type, donor heavy atom, donor atom, acceptor molecule, acceptor atom, score
      L1  H     6    43       P1  7948  2.00
      L1  H    10    36       P1 10175  1.00
      L1  H    13    37       P1 10175  1.00
      P1  H 11000 11005       L1    16  1.00

> <Gold.PLP.Chemscore.Internal.Correction>
0.0587

> <Gold.Rescore>
     Score         DG    S(hbond)    S(metal)    S(lipo)     H(rot)  DE(clash)    DE(int)     intcor
     17.93     -20.52       3.68        0.00      65.56       1.92       0.73       1.85       ----

> <Gold.Chemscore.Fitness>
17.9295

> <Gold.Chemscore.DG>
-20.5168

> <Gold.Chemscore.ZeroCoef>
-5.4800

> <Gold.Chemscore.Hbond>
3.6769

> <Gold.Chemscore.Metal>
0.0000

> <Gold.Chemscore.Lipo>
65.5560

> <Gold.Chemscore.Internal_Hbond>
0.0000

> <Gold.Chemscore.DEClash>
0.7330

> <Gold.Chemscore.DEInternal>
1.8543

> <Gold.Chemscore.Rot>
1.9196

> <Gold.Chemscore.Internal.Correction>
   9.000000E+99

> <Gold.Chemscore.Hbonds>
donor molecule, donor type, donor heavy atom, donor atom, acceptor molecule, acceptor atom, score
      L1  H     6    43       P1  7948  0.88
      L1  H    10    36       P1 10175  1.00
      L1  H    13    37       P1 10175  0.93
      P1  H 11000 11005       L1    16  0.24

> <Gold.Chemscore.Hbond.Weighted>
-12.2808

> <Gold.Chemscore.Metal.Weighted>
-0.0000

> <Gold.Chemscore.Lipo.Weighted>
-7.6701

> <Gold.Chemscore.Internal_Hbond.Weighted>
0.0000

> <Gold.Chemscore.DEClash.Weighted>
0.7330

> <Gold.Chemscore.DEInternal.Weighted>
1.8543

> <Gold.Chemscore.Rot.Weighted>
4.9141

> <Gold.Chemscore.Internal.Correction.Weighted>
   9.000000E+99

> <Gold.Protein.RotatedTorsions>
[ 6907 6896 6895 6894 ] final  159.13 input  -60.11 | X-H torsion
[ 7974 7965 7964 7962 ] final -175.74 input  175.53 | X-H torsion
[ 8008 7997 7996 7995 ] final -144.26 input   59.86 | X-H torsion
[ 10167 10162 10161 10158 ] final  -76.86 input  -65.29 | X-H torsion
[ 10718 10713 10712 10709 ] final -168.84 input   66.30 | X-H torsion
[ 10763 10752 10751 10750 ] final   55.60 input  -60.55 | X-H torsion
[ 11005 11000 10999 10996 ] final   52.53 input  -57.11 | X-H torsion

> <Gold.Protein.ActiveResidues>
 VAL166  LYS551  ARG553  GLY616  TRP617  ASP618  TYR619  PRO620  LYS621  CYS622 
 ASP623  PHE694  ASN695  SER759  ASP760  ASP761  ALA762  ILE779  LEU786  VAL792 
 PHE793  MET794  SER795  GLU796  ALA797  LYS798  CYS799  TRP800  GLU811  SER814 

> <Gold.Protein.RotatedAtoms>
  151.9902  133.3788  159.4141 H   0  0  0  0  0  0  0  0  0  0  0  0  # atno 6907 bound_to 6896
  150.6923  134.3945  159.5100 H   0  0  0  0  0  0  0  0  0  0  0  0  # atno 6908 bound_to 6896
  152.1677  134.8860  160.0587 H   0  0  0  0  0  0  0  0  0  0  0  0  # atno 6909 bound_to 6896
  144.7127  140.1275  143.6401 H   0  0  0  0  0  0  0  0  0  0  0  0  # atno 7974 bound_to 7965
  155.5241  140.0594  157.2901 H   0  0  0  0  0  0  0  0  0  0  0  0  # atno 8008 bound_to 7997
  154.4507  140.1947  156.0473 H   0  0  0  0  0  0  0  0  0  0  0  0  # atno 8009 bound_to 7997
  156.0698  140.3261  155.7566 H   0  0  0  0  0  0  0  0  0  0  0  0  # atno 8010 bound_to 7997
  140.4820  143.2400  151.8043 H   0  0  0  0  0  0  0  0  0  0  0  0  # atno 10167 bound_to 10162
  156.7028  130.9203  151.3081 H   0  0  0  0  0  0  0  0  0  0  0  0  # atno 10718 bound_to 10713
  152.9819  135.5705  154.5092 H   0  0  0  0  0  0  0  0  0  0  0  0  # atno 10763 bound_to 10752
  154.4599  135.2781  155.1722 H   0  0  0  0  0  0  0  0  0  0  0  0  # atno 10764 bound_to 10752
  154.3314  135.6248  153.5607 H   0  0  0  0  0  0  0  0  0  0  0  0  # atno 10765 bound_to 10752
  140.0841  134.5298  155.8916 H   0  0  0  0  0  0  0  0  0  0  0  0  # atno 11005 bound_to 11000
  145.9316  139.2610  143.1322 LP  0  0  0  0  0  0  0  0  0  0  0  0  # atno 17320 bound_to 7965
  145.9517  140.8904  143.0256 LP  0  0  0  0  0  0  0  0  0  0  0  0  # atno 17321 bound_to 7965
  139.4835  144.4760  151.9366 LP  0  0  0  0  0  0  0  0  0  0  0  0  # atno 17342 bound_to 10162
  140.3846  144.2693  150.5905 LP  0  0  0  0  0  0  0  0  0  0  0  0  # atno 17343 bound_to 10162
  157.6966  130.9289  150.0663 LP  0  0  0  0  0  0  0  0  0  0  0  0  # atno 17370 bound_to 10713
  156.1716  130.3646  149.9157 LP  0  0  0  0  0  0  0  0  0  0  0  0  # atno 17371 bound_to 10713
  141.2057  133.6649  156.6195 LP  0  0  0  0  0  0  0  0  0  0  0  0  # atno 17394 bound_to 11000
  140.3445  134.7821  157.4422 LP  0  0  0  0  0  0  0  0  0  0  0  0  # atno 17395 bound_to 11000

$$$$
