AV-unprocessed.smi:852|AV-procd|sdf|3952|dock10
  -GOLD-   22720 1423D 1   1.00000     0.00000
 Structure written by MMmdl.
 30 31  0  0  0  0  0  0  0  0  1 V2000
  149.9286  139.4409  157.6145 C   0  0  0  0  0  0  0  0  0  0  0  0
  150.3230  140.5607  156.6316 C   0  0  2  0  0  0  0  0  0  0  0  0
  151.3294  140.0401  155.6823 C   0  0  0  0  0  0  0  0  0  0  0  0
  152.1175  139.6330  154.9384 N   0  0  0  0  0  0  0  0  0  0  0  0
  150.8627  141.6952  157.3834 N   0  0  0  0  0  0  0  0  0  0  0  0
  150.2164  142.4725  158.2704 C   0  0  0  0  0  0  0  0  0  0  0  0
  149.0228  142.3501  158.5407 O   0  0  0  0  0  0  0  0  0  0  0  0
  151.0429  143.5642  158.9556 C   0  0  0  0  0  0  0  0  0  0  0  0
  151.9359  143.0123  159.9600 N   0  0  0  0  0  0  0  0  0  0  0  0
  152.8473  142.0379  159.8702 C   0  0  0  0  0  0  0  0  0  0  0  0
  153.4765  141.7805  161.0097 N   0  0  0  0  0  0  0  0  0  0  0  0
  152.8585  142.7013  161.8052 C   0  0  0  0  0  0  0  0  0  0  0  0
  153.1950  142.8367  163.2121 C   0  0  0  0  0  0  0  0  0  0  0  0
  153.4627  142.9445  164.3328 N   0  0  0  0  0  0  0  0  0  0  0  0
  151.9305  143.4680  161.2365 N   0  0  0  0  0  0  0  0  0  0  0  0
  149.0758  140.9941  155.8641 C   0  0  0  0  0  0  0  0  0  0  0  0
  148.6167  140.3060  154.5975 C   0  0  0  0  0  0  0  0  0  0  0  0
  149.1437  141.7234  154.5411 C   0  0  0  0  0  0  0  0  0  0  0  0
  149.4690  138.6034  157.0886 H   0  0  0  0  0  0  0  0  0  0  0  0
  149.2122  139.7961  158.3563 H   0  0  0  0  0  0  0  0  0  0  0  0
  150.7921  139.0466  158.1506 H   0  0  0  0  0  0  0  0  0  0  0  0
  151.8420  141.8901  157.2348 H   0  0  0  0  0  0  0  0  0  0  0  0
  151.6335  144.0970  158.2094 H   0  0  0  0  0  0  0  0  0  0  0  0
  150.3853  144.2953  159.4287 H   0  0  0  0  0  0  0  0  0  0  0  0
  153.0494  141.5022  158.9542 H   0  0  0  0  0  0  0  0  0  0  0  0
  148.2716  141.3177  156.5231 H   0  0  0  0  0  0  0  0  0  0  0  0
  149.2424  139.5202  154.1790 H   0  0  0  0  0  0  0  0  0  0  0  0
  147.5461  140.1635  154.4652 H   0  0  0  0  0  0  0  0  0  0  0  0
  148.4230  142.5210  154.3740 H   0  0  0  0  0  0  0  0  0  0  0  0
  150.1194  141.8803  154.0862 H   0  0  0  0  0  0  0  0  0  0  0  0
  1  2  1  0  0  0  0
  1 19  1  0  0  0  0
  1 20  1  0  0  0  0
  1 21  1  0  0  0  0
  2  3  1  0  0  0  0
  2  5  1  0  0  0  0
  2 16  1  0  0  0  0
  3  4  3  0  0  0  0
  5  6  1  0  0  0  0
  5 22  1  0  0  0  0
  6  7  2  0  0  0  0
  6  8  1  0  0  0  0
  8  9  1  0  0  0  0
  8 23  1  0  0  0  0
  8 24  1  0  0  0  0
  9 15  1  0  0  0  0
  9 10  1  0  0  0  0
 10 11  2  0  0  0  0
 10 25  1  0  0  0  0
 11 12  1  0  0  0  0
 12 13  1  0  0  0  0
 12 15  2  0  0  0  0
 13 14  3  0  0  0  0
 16 18  1  0  0  0  0
 16 17  1  0  0  0  0
 16 26  1  0  0  0  0
 17 18  1  0  0  0  0
 17 27  1  0  0  0  0
 17 28  1  0  0  0  0
 18 29  1  0  0  0  0
 18 30  1  0  0  0  0
M  END
> <s_m_source_file>
AV-unprocessed.smi

> <i_m_source_file_index>
852

> <i_lp_mmshare_version>
43012

> <i_f3d_flags>
0

> <s_epik_input>
W0NIMl0xW0NIMl1bQ0hdMVtDQF0oW0NIM10pKEMjTilbTkhdQyg9TylbQ0gyXW4yW2NIXW5jKG4yKUMjTg==

> <s_epik_cmdline>
J2VwaWtfcHl0aG9uJywgJy1waCcsICc3LjAnLCAnLXRuJywgJzgnLCAnLW1hJywgJzIwMCcsICctbWV0YWxfYmluZGluZycsICctaW1hZScsICc8aW5maWxlLm1hZT4nLCAnLW9tYWUnLCAnPG91dGZpbGUubWFlPic=

> <r_lp_tautomer_probability>
1

> <r_epik_Ionization_Penalty>
2.64294e-06

> <r_epik_Ionization_Penalty_Charging>
0

> <r_epik_Ionization_Penalty_Neutral>
2.64294e-06

> <r_epik_State_Penalty>
-0

> <r_epik_Charging_Adjusted_Penalty>
0

> <i_epik_Tot_Q>
0

> <i_epik_Tot_abs_Q>
0

> <r_epik_Metal_State_Penalty>
-0

> <b_epik_Metal_Only>
0

> <s_lp_Force_Field>
OPLS_2005

> <r_lp_Energy>
16.3367

> <b_lp_Chiralities_Consistent>
1

> <s_lp_Variant>
AV-unprocessed.smi:852-2

> <Gold.Version>
5.8.1

> <Gold.Id.Protein>
6NUR|6NUR_protein|mol2

> <Gold.PLP.Fitness>
38.6339

> <Gold.PLP.PLP>
-36.6675

> <Gold.PLP.part.hbond>
-2.3019

> <Gold.PLP.part.metal>
0.0000

> <Gold.PLP.part.buried>
-6.3538

> <Gold.PLP.part.nonpolar>
-27.7914

> <Gold.PLP.part.repulsive>
0.4030

> <Gold.PLP.ligand.clash>
0.0000

> <Gold.PLP.ligand.torsion>
1.0026

> <Gold.PLP.Chemscore.Hbond>
0.8208

> <Gold.PLP.Chemscore.CHOScore>
0.0000

> <Gold.PLP.Chemscore.Metal>
0.0000

> <Gold.Chemscore.Hbonds>
donor molecule, donor type, donor heavy atom, donor atom, acceptor molecule, acceptor atom, score
      P1  H  7989  7998       L1     4  0.68

> <Gold.PLP.Chemscore.Internal.Correction>
1.5092

> <Gold.Rescore>
     Score         DG    S(hbond)    S(metal)    S(lipo)     H(rot)  DE(clash)    DE(int)     intcor
      4.36      -6.06       0.94        0.00      31.90       2.46       0.22       1.49       ----

> <Gold.Chemscore.Fitness>
4.3551

> <Gold.Chemscore.DG>
-6.0631

> <Gold.Chemscore.ZeroCoef>
-5.4800

> <Gold.Chemscore.Hbond>
0.9405

> <Gold.Chemscore.Metal>
0.0000

> <Gold.Chemscore.Lipo>
31.8971

> <Gold.Chemscore.Internal_Hbond>
0.0000

> <Gold.Chemscore.DEClash>
0.2179

> <Gold.Chemscore.DEInternal>
1.4901

> <Gold.Chemscore.Rot>
2.4571

> <Gold.Chemscore.Internal.Correction>
   9.000000E+99

> <Gold.Chemscore.Hbonds>
donor molecule, donor type, donor heavy atom, donor atom, acceptor molecule, acceptor atom, score
      P1  H  7989  7998       L1     4  0.10

> <Gold.Chemscore.Hbond.Weighted>
-3.1412

> <Gold.Chemscore.Metal.Weighted>
-0.0000

> <Gold.Chemscore.Lipo.Weighted>
-3.7320

> <Gold.Chemscore.Internal_Hbond.Weighted>
0.0000

> <Gold.Chemscore.DEClash.Weighted>
0.2179

> <Gold.Chemscore.DEInternal.Weighted>
1.4901

> <Gold.Chemscore.Rot.Weighted>
6.2901

> <Gold.Chemscore.Internal.Correction.Weighted>
   9.000000E+99

> <Gold.Protein.RotatedTorsions>
[ 6907 6896 6895 6894 ] final  131.59 input  -60.11 | X-H torsion
[ 7974 7965 7964 7962 ] final   14.23 input  175.53 | X-H torsion
[ 8008 7997 7996 7995 ] final -113.57 input   59.86 | X-H torsion
[ 10167 10162 10161 10158 ] final  -16.51 input  -65.29 | X-H torsion
[ 10718 10713 10712 10709 ] final  158.49 input   66.30 | X-H torsion
[ 10763 10752 10751 10750 ] final   24.09 input  -60.55 | X-H torsion
[ 11005 11000 10999 10996 ] final   14.49 input  -57.11 | X-H torsion

> <Gold.Protein.ActiveResidues>
 VAL166  LYS551  ARG553  GLY616  TRP617  ASP618  TYR619  PRO620  LYS621  CYS622 
 ASP623  PHE694  ASN695  SER759  ASP760  ASP761  ALA762  ILE779  LEU786  VAL792 
 PHE793  MET794  SER795  GLU796  ALA797  LYS798  CYS799  TRP800  GLU811  SER814 

> <Gold.Protein.RotatedAtoms>
  152.3410  133.6067  159.5876 H   0  0  0  0  0  0  0  0  0  0  0  0  # atno 6907 bound_to 6896
  150.7479  133.9722  159.3558 H   0  0  0  0  0  0  0  0  0  0  0  0  # atno 6908 bound_to 6896
  151.7586  135.0816  160.0393 H   0  0  0  0  0  0  0  0  0  0  0  0  # atno 6909 bound_to 6896
  146.2310  139.9072  142.8530 H   0  0  0  0  0  0  0  0  0  0  0  0  # atno 7974 bound_to 7965
  155.0228  140.0393  157.2444 H   0  0  0  0  0  0  0  0  0  0  0  0  # atno 8008 bound_to 7997
  154.7363  140.2740  155.6388 H   0  0  0  0  0  0  0  0  0  0  0  0  # atno 8009 bound_to 7997
  156.2854  140.2674  156.2078 H   0  0  0  0  0  0  0  0  0  0  0  0  # atno 8010 bound_to 7997
  140.7234  143.5109  150.9751 H   0  0  0  0  0  0  0  0  0  0  0  0  # atno 10167 bound_to 10162
  157.1771  131.0624  151.2151 H   0  0  0  0  0  0  0  0  0  0  0  0  # atno 10718 bound_to 10713
  153.0790  135.6613  154.0085 H   0  0  0  0  0  0  0  0  0  0  0  0  # atno 10763 bound_to 10752
  153.9712  135.2964  155.3428 H   0  0  0  0  0  0  0  0  0  0  0  0  # atno 10764 bound_to 10752
  154.7185  135.5175  153.8845 H   0  0  0  0  0  0  0  0  0  0  0  0  # atno 10765 bound_to 10752
  140.4689  134.1051  155.7729 H   0  0  0  0  0  0  0  0  0  0  0  0  # atno 11005 bound_to 11000
  145.2265  140.9956  143.4015 LP  0  0  0  0  0  0  0  0  0  0  0  0  # atno 17320 bound_to 7965
  144.9566  139.4025  143.6376 LP  0  0  0  0  0  0  0  0  0  0  0  0  # atno 17321 bound_to 7965
  139.8823  143.7057  152.3155 LP  0  0  0  0  0  0  0  0  0  0  0  0  # atno 17342 bound_to 10162
  139.7343  144.7575  151.0752 LP  0  0  0  0  0  0  0  0  0  0  0  0  # atno 17343 bound_to 10162
  157.3988  130.7322  149.6751 LP  0  0  0  0  0  0  0  0  0  0  0  0  # atno 17370 bound_to 10713
  155.9729  130.4126  150.4042 LP  0  0  0  0  0  0  0  0  0  0  0  0  # atno 17371 bound_to 10713
  141.1586  133.8836  157.1910 LP  0  0  0  0  0  0  0  0  0  0  0  0  # atno 17394 bound_to 11000
  139.9897  135.0069  156.9947 LP  0  0  0  0  0  0  0  0  0  0  0  0  # atno 17395 bound_to 11000

$$$$
