AV-unprocessed.smi:169|AV-procd|sdf|1401|dock9
  -GOLD-   2262019153D 1   1.00000     0.00000
 Structure written by MMmdl.
 56 60  0  0  0  0  0  0  0  0  2 V2000
  148.9250  133.1638  153.3437 C   0  0  0  0  0  0  0  0  0  0  0  0
  147.7014  133.2557  152.4161 C   0  0  0  0  0  0  0  0  0  0  0  0
  146.9017  134.4943  152.6021 N   0  3  1  0  0  0  0  0  0  0  0  0
  146.0246  134.8003  151.4172 C   0  0  0  0  0  0  0  0  0  0  0  0
  145.5969  136.3085  151.2879 C   0  0  0  0  0  0  0  0  0  0  0  0
  145.3000  136.9700  152.6490 C   0  0  3  0  0  0  0  0  0  0  0  0
  144.0859  137.1705  153.5632 C   0  0  0  0  0  0  0  0  0  0  0  0
  144.5843  136.4269  154.8476 C   0  0  0  0  0  0  0  0  0  0  0  0
  146.0615  136.0088  154.5381 C   0  0  1  0  0  0  0  0  0  0  0  0
  146.2291  134.5587  153.9532 C   0  0  0  0  0  0  0  0  0  0  0  0
  146.4550  136.9780  153.5278 N   0  0  0  0  0  0  0  0  0  0  0  0
  146.9904  138.1817  153.8743 C   0  0  0  0  0  0  0  0  0  0  0  0
  147.2140  139.1074  152.9043 N   0  0  0  0  0  0  0  0  0  0  0  0
  147.7347  140.2995  153.2064 C   0  0  0  0  0  0  0  0  0  0  0  0
  148.0907  140.7742  154.4001 N   0  0  0  0  0  0  0  0  0  0  0  0
  147.8520  139.8629  155.3855 C   0  0  0  0  0  0  0  0  0  0  0  0
  147.3125  138.5553  155.2136 C   0  0  0  0  0  0  0  0  0  0  0  0
  147.2205  137.9251  156.4499 N   0  0  0  0  0  0  0  0  0  0  0  0
  147.6833  138.8025  157.2968 C   0  0  0  0  0  0  0  0  0  0  0  0
  148.0692  140.0027  156.7456 N   0  0  0  0  0  0  0  0  0  0  0  0
  148.6170  141.1533  157.4505 C   0  0  0  0  0  0  0  0  0  0  0  0
  150.1507  141.3265  157.3261 C   0  0  0  0  0  0  0  0  0  0  0  0
  150.4723  141.6581  155.8629 C   0  0  0  0  0  0  0  0  0  0  0  0
  150.7764  140.4896  155.1282 O   0  0  0  0  0  0  0  0  0  0  0  0
  150.8339  142.2277  158.3703 C   0  0  0  0  0  0  0  0  0  0  0  0
  151.2948  141.0890  159.1276 O   0  0  0  0  0  0  0  0  0  0  0  0
  151.0311  140.2503  157.9831 C   0  0  0  0  0  0  0  0  0  0  0  0
  149.4771  132.2430  153.1544 H   0  0  0  0  0  0  0  0  0  0  0  0
  148.6365  133.1577  154.3946 H   0  0  0  0  0  0  0  0  0  0  0  0
  149.6147  133.9934  153.1878 H   0  0  0  0  0  0  0  0  0  0  0  0
  148.0253  133.1967  151.3764 H   0  0  0  0  0  0  0  0  0  0  0  0
  147.0569  132.3901  152.5734 H   0  0  0  0  0  0  0  0  0  0  0  0
  146.5356  134.5164  150.4965 H   0  0  0  0  0  0  0  0  0  0  0  0
  145.1363  134.1688  151.4696 H   0  0  0  0  0  0  0  0  0  0  0  0
  146.4096  136.8592  150.8131 H   0  0  0  0  0  0  0  0  0  0  0  0
  144.7426  136.4026  150.6154 H   0  0  0  0  0  0  0  0  0  0  0  0
  144.8113  136.0046  152.7042 H   0  0  0  0  0  0  0  0  0  0  0  0
  143.9527  138.2324  153.7741 H   0  0  0  0  0  0  0  0  0  0  0  0
  143.1332  136.7948  153.1766 H   0  0  0  0  0  0  0  0  0  0  0  0
  144.5545  137.1096  155.6977 H   0  0  0  0  0  0  0  0  0  0  0  0
  143.9598  135.5693  155.0991 H   0  0  0  0  0  0  0  0  0  0  0  0
  146.6627  136.0757  155.4448 H   0  0  0  0  0  0  0  0  0  0  0  0
  145.2705  134.0405  153.9011 H   0  0  0  0  0  0  0  0  0  0  0  0
  146.8208  133.9924  154.6734 H   0  0  0  0  0  0  0  0  0  0  0  0
  147.8851  140.9698  152.3730 H   0  0  0  0  0  0  0  0  0  0  0  0
  147.7532  138.5956  158.3546 H   0  0  0  0  0  0  0  0  0  0  0  0
  148.1013  142.0377  157.0747 H   0  0  0  0  0  0  0  0  0  0  0  0
  148.3281  141.0672  158.4987 H   0  0  0  0  0  0  0  0  0  0  0  0
  149.6379  142.1707  155.3831 H   0  0  0  0  0  0  0  0  0  0  0  0
  151.3286  142.3297  155.7940 H   0  0  0  0  0  0  0  0  0  0  0  0
  151.2446  139.8931  155.6923 H   0  0  0  0  0  0  0  0  0  0  0  0
  151.6689  142.8085  157.9744 H   0  0  0  0  0  0  0  0  0  0  0  0
  150.1632  142.8715  158.9364 H   0  0  0  0  0  0  0  0  0  0  0  0
  150.5093  139.3291  158.2386 H   0  0  0  0  0  0  0  0  0  0  0  0
  151.9447  140.0298  157.4282 H   0  0  0  0  0  0  0  0  0  0  0  0
  147.5922  135.2317  152.6186 H   0  0  0  0  0  0  0  0  0  0  0  0
  1  2  1  0  0  0  0
  1 28  1  0  0  0  0
  1 29  1  0  0  0  0
  1 30  1  0  0  0  0
  2  3  1  0  0  0  0
  2 31  1  0  0  0  0
  2 32  1  0  0  0  0
  3 10  1  0  0  0  0
  3  4  1  0  0  0  0
  3 56  1  0  0  0  0
  4  5  1  0  0  0  0
  4 33  1  0  0  0  0
  4 34  1  0  0  0  0
  5  6  1  0  0  0  0
  5 35  1  0  0  0  0
  5 36  1  0  0  0  0
  6 11  1  0  0  0  0
  6  7  1  0  0  0  0
  6 37  1  0  0  0  0
  7  8  1  0  0  0  0
  7 38  1  0  0  0  0
  7 39  1  0  0  0  0
  8  9  1  0  0  0  0
  8 40  1  0  0  0  0
  8 41  1  0  0  0  0
  9 10  1  0  0  0  0
  9 11  1  0  0  0  0
  9 42  1  0  0  0  0
 10 43  1  0  0  0  0
 10 44  1  0  0  0  0
 11 12  1  0  0  0  0
 12 17  1  0  0  0  0
 12 13  2  0  0  0  0
 13 14  1  0  0  0  0
 14 15  2  0  0  0  0
 14 45  1  0  0  0  0
 15 16  1  0  0  0  0
 16 20  1  0  0  0  0
 16 17  2  0  0  0  0
 17 18  1  0  0  0  0
 18 19  2  0  0  0  0
 19 20  1  0  0  0  0
 19 46  1  0  0  0  0
 20 21  1  0  0  0  0
 21 22  1  0  0  0  0
 21 47  1  0  0  0  0
 21 48  1  0  0  0  0
 22 27  1  0  0  0  0
 22 23  1  0  0  0  0
 22 25  1  0  0  0  0
 23 24  1  0  0  0  0
 23 49  1  0  0  0  0
 23 50  1  0  0  0  0
 24 51  1  0  0  0  0
 25 26  1  0  0  0  0
 25 52  1  0  0  0  0
 25 53  1  0  0  0  0
 26 27  1  0  0  0  0
 27 54  1  0  0  0  0
 27 55  1  0  0  0  0
M  CHG  1   3   1
M  END
> <s_m_source_file>
AV-unprocessed.smi

> <i_m_source_file_index>
169

> <i_lp_mmshare_version>
43012

> <i_f3d_flags>
0

> <s_epik_input>
W0NASF0xMltDSDJdW0NIMl1OKFtDSDJdW0NIM10pW0NIMl1bQ0BIXShbQ0gyXVtDSDJdMSlOMmMobltjSF1uMyljKGMzNCluW2NIXW40W0NIMl1DNShbQ0gyXVtPSF0pW0NIMl1PW0NIMl01

> <s_epik_cmdline>
J2VwaWtfcHl0aG9uJywgJy1waCcsICc3LjAnLCAnLXRuJywgJzgnLCAnLW1hJywgJzIwMCcsICctbWV0YWxfYmluZGluZycsICctaW1hZScsICc8aW5maWxlLm1hZT4nLCAnLW9tYWUnLCAnPG91dGZpbGUubWFlPic=

> <r_lp_tautomer_probability>
1

> <r_epik_Ionization_Penalty>
0.00274162

> <r_epik_Ionization_Penalty_Charging>
0.00243722

> <r_epik_Ionization_Penalty_Neutral>
0.000304399

> <r_epik_State_Penalty>
-0

> <r_epik_Charging_Adjusted_Penalty>
0.00243722

> <i_epik_Tot_Q>
1

> <i_epik_Tot_abs_Q>
1

> <r_epik_Metal_State_Penalty>
-0

> <b_epik_Metal_Only>
0

> <s_lp_Force_Field>
OPLS_2005

> <r_lp_Energy>
128.509

> <b_lp_Chiralities_Consistent>
1

> <s_lp_Variant>
AV-unprocessed.smi:169-4

> <Gold.Version>
5.8.1

> <Gold.Id.Protein>
6NUR|6NUR_protein|mol2

> <Gold.PLP.Fitness>
38.1163

> <Gold.PLP.PLP>
-29.5976

> <Gold.PLP.part.hbond>
-2.0000

> <Gold.PLP.part.metal>
0.0000

> <Gold.PLP.part.buried>
-3.2746

> <Gold.PLP.part.nonpolar>
-24.3988

> <Gold.PLP.part.repulsive>
1.0377

> <Gold.PLP.ligand.clash>
0.0000

> <Gold.PLP.ligand.torsion>
1.2399

> <Gold.PLP.Chemscore.Hbond>
3.0000

> <Gold.PLP.Chemscore.CHOScore>
0.5241

> <Gold.PLP.Chemscore.Metal>
0.0000

> <Gold.Chemscore.Hbonds>
donor molecule, donor type, donor heavy atom, donor atom, acceptor molecule, acceptor atom, score
      L1  H     3    56       P1  7948  2.00
      P1  H  7989  7998       L1    24  1.00
      L1  C    14    45       P1  7957  0.52

> <Gold.PLP.Chemscore.Internal.Correction>
0.4260

> <Gold.Rescore>
     Score         DG    S(hbond)    S(metal)    S(lipo)     H(rot)  DE(clash)    DE(int)     intcor
      8.08     -11.95       1.85        0.00      59.72       2.62       1.25       2.62       ----

> <Gold.Chemscore.Fitness>
8.0759

> <Gold.Chemscore.DG>
-11.9459

> <Gold.Chemscore.ZeroCoef>
-5.4800

> <Gold.Chemscore.Hbond>
1.8529

> <Gold.Chemscore.Metal>
0.0000

> <Gold.Chemscore.Lipo>
59.7217

> <Gold.Chemscore.Internal_Hbond>
0.0000

> <Gold.Chemscore.DEClash>
1.2465

> <Gold.Chemscore.DEInternal>
2.6234

> <Gold.Chemscore.Rot>
2.6212

> <Gold.Chemscore.Internal.Correction>
   9.000000E+99

> <Gold.Chemscore.Hbonds>
donor molecule, donor type, donor heavy atom, donor atom, acceptor molecule, acceptor atom, score
      L1  H     3    56       P1  7948  0.95
      P1  H  7989  7998       L1    24  0.71

> <Gold.Chemscore.Hbond.Weighted>
-6.1886

> <Gold.Chemscore.Metal.Weighted>
-0.0000

> <Gold.Chemscore.Lipo.Weighted>
-6.9874

> <Gold.Chemscore.Internal_Hbond.Weighted>
0.0000

> <Gold.Chemscore.DEClash.Weighted>
1.2465

> <Gold.Chemscore.DEInternal.Weighted>
2.6234

> <Gold.Chemscore.Rot.Weighted>
6.7102

> <Gold.Chemscore.Internal.Correction.Weighted>
   9.000000E+99

> <Gold.Protein.RotatedTorsions>
[ 6907 6896 6895 6894 ] final   83.91 input  -60.11 | X-H torsion
[ 7974 7965 7964 7962 ] final  -22.03 input  175.53 | X-H torsion
[ 8008 7997 7996 7995 ] final  -85.84 input   59.86 | X-H torsion
[ 10167 10162 10161 10158 ] final   17.85 input  -65.29 | X-H torsion
[ 10718 10713 10712 10709 ] final  -11.33 input   66.30 | X-H torsion
[ 10763 10752 10751 10750 ] final   68.65 input  -60.55 | X-H torsion
[ 11005 11000 10999 10996 ] final  123.88 input  -57.11 | X-H torsion

> <Gold.Protein.ActiveResidues>
 VAL166  LYS551  ARG553  GLY616  TRP617  ASP618  TYR619  PRO620  LYS621  CYS622 
 ASP623  PHE694  ASN695  SER759  ASP760  ASP761  ALA762  ILE779  LEU786  VAL792 
 PHE793  MET794  SER795  GLU796  ALA797  LYS798  CYS799  TRP800  GLU811  SER814 

> <Gold.Protein.RotatedAtoms>
  152.5339  134.2822  159.9011 H   0  0  0  0  0  0  0  0  0  0  0  0  # atno 6907 bound_to 6896
  151.2776  133.4218  159.2632 H   0  0  0  0  0  0  0  0  0  0  0  0  # atno 6908 bound_to 6896
  151.0312  134.9556  159.8169 H   0  0  0  0  0  0  0  0  0  0  0  0  # atno 6909 bound_to 6896
  146.1699  140.4423  142.8537 H   0  0  0  0  0  0  0  0  0  0  0  0  # atno 7974 bound_to 7965
  154.6452  140.0586  156.9892 H   0  0  0  0  0  0  0  0  0  0  0  0  # atno 8008 bound_to 7997
  155.1456  140.3269  155.4424 H   0  0  0  0  0  0  0  0  0  0  0  0  # atno 8009 bound_to 7997
  156.2550  140.1956  156.6570 H   0  0  0  0  0  0  0  0  0  0  0  0  # atno 8010 bound_to 7997
  140.5696  143.9186  150.6703 H   0  0  0  0  0  0  0  0  0  0  0  0  # atno 10167 bound_to 10162
  156.6606  130.4981  149.6031 H   0  0  0  0  0  0  0  0  0  0  0  0  # atno 10718 bound_to 10713
  153.0246  135.5239  154.7167 H   0  0  0  0  0  0  0  0  0  0  0  0  # atno 10763 bound_to 10752
  154.6234  135.2891  155.0302 H   0  0  0  0  0  0  0  0  0  0  0  0  # atno 10764 bound_to 10752
  154.1281  135.6597  153.4969 H   0  0  0  0  0  0  0  0  0  0  0  0  # atno 10765 bound_to 10752
  139.9333  134.9641  156.8325 H   0  0  0  0  0  0  0  0  0  0  0  0  # atno 11005 bound_to 11000
  144.8147  140.6447  143.6392 LP  0  0  0  0  0  0  0  0  0  0  0  0  # atno 17320 bound_to 7965
  145.4368  139.1541  143.3992 LP  0  0  0  0  0  0  0  0  0  0  0  0  # atno 17321 bound_to 7965
  140.2658  143.3491  152.1282 LP  0  0  0  0  0  0  0  0  0  0  0  0  # atno 17342 bound_to 10162
  139.5110  144.6894  151.5800 LP  0  0  0  0  0  0  0  0  0  0  0  0  # atno 17343 bound_to 10162
  156.2013  130.6622  151.1171 LP  0  0  0  0  0  0  0  0  0  0  0  0  # atno 17370 bound_to 10713
  157.7111  131.0734  150.6498 LP  0  0  0  0  0  0  0  0  0  0  0  0  # atno 17371 bound_to 10713
  140.6144  134.0052  155.7591 LP  0  0  0  0  0  0  0  0  0  0  0  0  # atno 17394 bound_to 11000
  141.0933  133.9883  157.3201 LP  0  0  0  0  0  0  0  0  0  0  0  0  # atno 17395 bound_to 11000

$$$$
