AV-unprocessed.smi:1593|AV-procd|sdf|6413|dock5
  -GOLD-   22720 7 43D 1   1.00000     0.00000
 Structure written by MMmdl.
 36 37  0  0  0  0  0  0  0  0  3 V2000
  147.1648  135.3036  162.5373 C   0  0  0  0  0  0  0  0  0  0  0  0
  147.5922  135.6776  161.1596 C   0  0  0  0  0  0  0  0  0  0  0  0
  148.0621  134.9518  160.1017 C   0  0  0  0  0  0  0  0  0  0  0  0
  148.2694  135.9388  159.1013 C   0  0  0  0  0  0  0  0  0  0  0  0
  148.7554  135.5767  157.8172 N   0  0  0  0  0  0  0  0  0  0  0  0
  149.3051  134.4140  157.4213 C   0  0  0  0  0  0  0  0  0  0  0  0
  149.3952  133.4656  158.2104 O   0  0  0  0  0  0  0  0  0  0  0  0
  149.7065  134.4513  156.1208 N   0  5  0  0  0  0  0  0  0  0  0  0
  148.8909  134.9481  155.0150 C   0  0  0  0  0  0  0  0  0  0  0  0
  148.4411  133.7696  154.1303 C   0  0  0  0  0  0  0  0  0  0  0  0
  147.5721  134.2162  153.0089 N   0  3  0  0  0  0  0  0  0  0  0  0
  147.2765  133.1351  152.0374 C   0  0  0  0  0  0  0  0  0  0  0  0
  146.4511  133.6839  150.8612 C   0  0  0  0  0  0  0  0  0  0  0  0
  145.2547  134.2776  151.3503 O   0  0  0  0  0  0  0  0  0  0  0  0
  145.5194  135.3692  152.2230 C   0  0  0  0  0  0  0  0  0  0  0  0
  146.3106  134.8723  153.4440 C   0  0  0  0  0  0  0  0  0  0  0  0
  147.9547  137.1578  159.5139 N   0  0  0  0  0  0  0  0  0  0  0  0
  147.5195  136.9967  160.8345 O   0  0  0  0  0  0  0  0  0  0  0  0
  147.2541  134.2285  162.6949 H   0  0  0  0  0  0  0  0  0  0  0  0
  146.1258  135.5853  162.7088 H   0  0  0  0  0  0  0  0  0  0  0  0
  147.7803  135.8071  163.2828 H   0  0  0  0  0  0  0  0  0  0  0  0
  148.2287  133.8861  160.0527 H   0  0  0  0  0  0  0  0  0  0  0  0
  148.6952  136.2944  157.1105 H   0  0  0  0  0  0  0  0  0  0  0  0
  148.0050  135.4801  155.3643 H   0  0  0  0  0  0  0  0  0  0  0  0
  149.4423  135.6607  154.4004 H   0  0  0  0  0  0  0  0  0  0  0  0
  149.3357  133.2893  153.7300 H   0  0  0  0  0  0  0  0  0  0  0  0
  147.9288  133.0079  154.7207 H   0  0  0  0  0  0  0  0  0  0  0  0
  148.2073  132.7093  151.6608 H   0  0  0  0  0  0  0  0  0  0  0  0
  146.7328  132.3318  152.5371 H   0  0  0  0  0  0  0  0  0  0  0  0
  147.0266  134.4138  150.2893 H   0  0  0  0  0  0  0  0  0  0  0  0
  146.1904  132.8769  150.1764 H   0  0  0  0  0  0  0  0  0  0  0  0
  146.0680  136.1503  151.6941 H   0  0  0  0  0  0  0  0  0  0  0  0
  144.5721  135.8048  152.5412 H   0  0  0  0  0  0  0  0  0  0  0  0
  145.7075  134.1647  154.0151 H   0  0  0  0  0  0  0  0  0  0  0  0
  146.5256  135.7127  154.1046 H   0  0  0  0  0  0  0  0  0  0  0  0
  148.1078  134.9083  152.5045 H   0  0  0  0  0  0  0  0  0  0  0  0
  1  2  1  0  0  0  0
  1 19  1  0  0  0  0
  1 20  1  0  0  0  0
  1 21  1  0  0  0  0
  2 18  1  0  0  0  0
  2  3  2  0  0  0  0
  3  4  1  0  0  0  0
  3 22  1  0  0  0  0
  4  5  1  0  0  0  0
  4 17  2  0  0  0  0
  5  6  1  0  0  0  0
  5 23  1  0  0  0  0
  6  7  2  0  0  0  0
  6  8  1  0  0  0  0
  8  9  1  0  0  0  0
  9 10  1  0  0  0  0
  9 24  1  0  0  0  0
  9 25  1  0  0  0  0
 10 11  1  0  0  0  0
 10 26  1  0  0  0  0
 10 27  1  0  0  0  0
 11 16  1  0  0  0  0
 11 12  1  0  0  0  0
 11 36  1  0  0  0  0
 12 13  1  0  0  0  0
 12 28  1  0  0  0  0
 12 29  1  0  0  0  0
 13 14  1  0  0  0  0
 13 30  1  0  0  0  0
 13 31  1  0  0  0  0
 14 15  1  0  0  0  0
 15 16  1  0  0  0  0
 15 32  1  0  0  0  0
 15 33  1  0  0  0  0
 16 34  1  0  0  0  0
 16 35  1  0  0  0  0
 17 18  1  0  0  0  0
M  CHG  1   8  -1
M  CHG  1  11   1
M  END
> <s_m_source_file>
AV-unprocessed.smi

> <i_m_source_file_index>
1593

> <i_lp_mmshare_version>
43012

> <i_f3d_flags>
0

> <s_epik_input>
W0NIM11jMVtjSF1jKG5vMSlbTkhdQyg9TylbTkhdW0NIMl1bQ0gyXU4yW0NIMl1bQ0gyXU9bQ0gyXVtDSDJdMg==

> <s_epik_cmdline>
J2VwaWtfcHl0aG9uJywgJy1waCcsICc3LjAnLCAnLXRuJywgJzgnLCAnLW1hJywgJzIwMCcsICctbWV0YWxfYmluZGluZycsICctaW1hZScsICc8aW5maWxlLm1hZT4nLCAnLW9tYWUnLCAnPG91dGZpbGUubWFlPic=

> <r_epik_Ionization_Penalty>
6.79272

> <r_epik_Ionization_Penalty_Charging>
6.79272

> <r_epik_Ionization_Penalty_Neutral>
5.6208e-06

> <r_epik_State_Penalty>
7.45901

> <r_epik_Charging_Adjusted_Penalty>
14.2517

> <i_epik_Tot_Q>
0

> <i_epik_Tot_abs_Q>
2

> <r_epik_Metal_State_Penalty>
3.38639

> <b_epik_Metal_Only>
1

> <s_lp_Force_Field>
OPLS_2005

> <r_lp_Energy>
12.9182

> <b_lp_Chiralities_Consistent>
1

> <s_lp_Variant>
AV-unprocessed.smi:1593-5

> <Gold.Version>
5.8.1

> <Gold.Id.Protein>
6NUR|6NUR_protein|mol2

> <Gold.PLP.Fitness>
39.2126

> <Gold.PLP.PLP>
-26.2543

> <Gold.PLP.part.hbond>
-4.2901

> <Gold.PLP.part.metal>
0.0000

> <Gold.PLP.part.buried>
-3.6702

> <Gold.PLP.part.nonpolar>
-19.0081

> <Gold.PLP.part.repulsive>
0.2144

> <Gold.PLP.ligand.clash>
0.0000

> <Gold.PLP.ligand.torsion>
0.5229

> <Gold.PLP.Chemscore.Hbond>
4.6520

> <Gold.PLP.Chemscore.CHOScore>
0.0000

> <Gold.PLP.Chemscore.Metal>
0.0000

> <Gold.Chemscore.Hbonds>
donor molecule, donor type, donor heavy atom, donor atom, acceptor molecule, acceptor atom, score
      L1  H    11    36       P1  7948  2.00
      P1  H  6896  6909       L1     7  1.00
      P1  H  6931  6943       L1    18  0.44
      P1  H  6934  6947       L1    18  0.42

> <Gold.PLP.Chemscore.Internal.Correction>
0.0482

> <Gold.Rescore>
     Score         DG    S(hbond)    S(metal)    S(lipo)     H(rot)  DE(clash)    DE(int)     intcor
     14.85     -16.84       2.95        0.00      48.46       1.62       0.00       1.99       ----

> <Gold.Chemscore.Fitness>
14.8455

> <Gold.Chemscore.DG>
-16.8410

> <Gold.Chemscore.ZeroCoef>
-5.4800

> <Gold.Chemscore.Hbond>
2.9479

> <Gold.Chemscore.Metal>
0.0000

> <Gold.Chemscore.Lipo>
48.4552

> <Gold.Chemscore.Internal_Hbond>
0.0000

> <Gold.Chemscore.DEClash>
0.0029

> <Gold.Chemscore.DEInternal>
1.9927

> <Gold.Chemscore.Rot>
1.6228

> <Gold.Chemscore.Internal.Correction>
   9.000000E+99

> <Gold.Chemscore.Hbonds>
donor molecule, donor type, donor heavy atom, donor atom, acceptor molecule, acceptor atom, score
      L1  H    11    36       P1  7948  0.70
      P1  H  6896  6909       L1     7  0.65
      P1  H  6931  6943       L1    18  0.09
      P1  H  6934  6947       L1    18  0.01

> <Gold.Chemscore.Hbond.Weighted>
-9.8460

> <Gold.Chemscore.Metal.Weighted>
-0.0000

> <Gold.Chemscore.Lipo.Weighted>
-5.6693

> <Gold.Chemscore.Internal_Hbond.Weighted>
0.0000

> <Gold.Chemscore.DEClash.Weighted>
0.0029

> <Gold.Chemscore.DEInternal.Weighted>
1.9927

> <Gold.Chemscore.Rot.Weighted>
4.1542

> <Gold.Chemscore.Internal.Correction.Weighted>
   9.000000E+99

> <Gold.Protein.RotatedTorsions>
[ 6907 6896 6895 6894 ] final   -0.62 input  -60.11 | X-H torsion
[ 7974 7965 7964 7962 ] final   41.35 input  175.53 | X-H torsion
[ 8008 7997 7996 7995 ] final    6.64 input   59.86 | X-H torsion
[ 10167 10162 10161 10158 ] final   43.01 input  -65.29 | X-H torsion
[ 10718 10713 10712 10709 ] final -123.04 input   66.30 | X-H torsion
[ 10763 10752 10751 10750 ] final   53.42 input  -60.55 | X-H torsion
[ 11005 11000 10999 10996 ] final    7.71 input  -57.11 | X-H torsion

> <Gold.Protein.ActiveResidues>
 VAL166  LYS551  ARG553  GLY616  TRP617  ASP618  TYR619  PRO620  LYS621  CYS622 
 ASP623  PHE694  ASN695  SER759  ASP760  ASP761  ALA762  ILE779  LEU786  VAL792 
 PHE793  MET794  SER795  GLU796  ALA797  LYS798  CYS799  TRP800  GLU811  SER814 

> <Gold.Protein.RotatedAtoms>
  151.5593  135.1066  159.9968 H   0  0  0  0  0  0  0  0  0  0  0  0  # atno 6907 bound_to 6896
  152.4454  133.7522  159.6711 H   0  0  0  0  0  0  0  0  0  0  0  0  # atno 6908 bound_to 6896
  150.8368  133.7932  159.3100 H   0  0  0  0  0  0  0  0  0  0  0  0  # atno 6909 bound_to 6896
  146.0831  139.5426  142.9524 H   0  0  0  0  0  0  0  0  0  0  0  0  # atno 7974 bound_to 7965
  154.7435  140.2753  155.6352 H   0  0  0  0  0  0  0  0  0  0  0  0  # atno 8008 bound_to 7997
  156.2879  140.2692  156.2096 H   0  0  0  0  0  0  0  0  0  0  0  0  # atno 8009 bound_to 7997
  155.0227  140.0371  157.2433 H   0  0  0  0  0  0  0  0  0  0  0  0  # atno 8010 bound_to 7997
  140.3487  144.2378  150.6148 H   0  0  0  0  0  0  0  0  0  0  0  0  # atno 10167 bound_to 10162
  156.1468  130.6506  150.9855 H   0  0  0  0  0  0  0  0  0  0  0  0  # atno 10718 bound_to 10713
  152.9795  135.5779  154.4739 H   0  0  0  0  0  0  0  0  0  0  0  0  # atno 10763 bound_to 10752
  154.4298  135.2773  155.1922 H   0  0  0  0  0  0  0  0  0  0  0  0  # atno 10764 bound_to 10752
  154.3636  135.6183  153.5757 H   0  0  0  0  0  0  0  0  0  0  0  0  # atno 10765 bound_to 10752
  140.5451  134.0337  155.7917 H   0  0  0  0  0  0  0  0  0  0  0  0  # atno 11005 bound_to 11000
  145.6181  141.0327  143.1930 LP  0  0  0  0  0  0  0  0  0  0  0  0  # atno 17320 bound_to 7965
  144.7307  139.7736  143.7348 LP  0  0  0  0  0  0  0  0  0  0  0  0  # atno 17321 bound_to 7965
  140.5240  143.2259  151.8344 LP  0  0  0  0  0  0  0  0  0  0  0  0  # atno 17342 bound_to 10162
  139.4829  144.4802  151.9316 LP  0  0  0  0  0  0  0  0  0  0  0  0  # atno 17343 bound_to 10162
  157.6624  131.0878  150.7808 LP  0  0  0  0  0  0  0  0  0  0  0  0  # atno 17370 bound_to 10713
  156.7879  130.4880  149.5389 LP  0  0  0  0  0  0  0  0  0  0  0  0  # atno 17371 bound_to 10713
  141.1204  133.9470  157.2740 LP  0  0  0  0  0  0  0  0  0  0  0  0  # atno 17394 bound_to 11000
  139.9484  135.0180  156.8920 LP  0  0  0  0  0  0  0  0  0  0  0  0  # atno 17395 bound_to 11000

$$$$
