AV-unprocessed.smi:648|AV-procd|sdf|3174|dock7
  -GOLD-   22720 0 93D 1   1.00000     0.00000
 Structure written by MMmdl.
 45 46  0  0  0  0  0  0  0  0  1 V2000
  142.0473  135.9216  154.0756 C   0  0  0  0  0  0  0  0  0  0  0  0
  143.3429  135.7288  153.2739 C   0  0  2  0  0  0  0  0  0  0  0  0
  143.2128  134.5593  152.2820 C   0  0  0  0  0  0  0  0  0  0  0  0
  144.4859  134.3246  151.4373 C   0  0  0  0  0  0  0  0  0  0  0  0
  144.3306  132.9901  150.6795 C   0  0  0  0  0  0  0  0  0  0  0  0
  144.6491  135.4324  150.3715 C   0  0  0  0  0  0  0  0  0  0  0  0
  145.7321  134.2201  152.3626 C   0  0  0  0  0  0  0  0  0  0  0  0
  145.8908  135.3187  153.4544 C   0  0  1  0  0  0  0  0  0  0  0  0
  146.9497  134.8520  154.4914 C   0  0  0  0  0  0  0  0  0  0  0  0
  148.2311  134.6944  153.9126 O   0  0  0  0  0  0  0  0  0  0  0  0
  146.3425  136.5777  152.8258 N   0  0  0  0  0  0  0  0  0  0  0  0
  146.3214  137.8088  153.6200 C   0  0  0  0  0  0  0  0  0  0  0  0
  146.8344  138.9904  152.7877 C   0  0  0  0  0  0  0  0  0  0  0  0
  147.9256  139.6745  153.4514 N   0  0  0  0  0  0  0  0  0  0  0  0
  149.1628  139.2646  153.7355 C   0  0  0  0  0  0  0  0  0  0  0  0
  149.8992  140.1766  154.3554 N   0  0  0  0  0  0  0  0  0  0  0  0
  148.9895  141.1941  154.4267 C   0  0  0  0  0  0  0  0  0  0  0  0
  147.7912  140.9449  153.8983 N   0  0  0  0  0  0  0  0  0  0  0  0
  144.5447  135.4980  154.2062 C   0  0  0  0  0  0  0  0  0  0  0  0
  141.8104  135.0368  154.6671 H   0  0  0  0  0  0  0  0  0  0  0  0
  141.2023  136.1165  153.4147 H   0  0  0  0  0  0  0  0  0  0  0  0
  142.1311  136.7666  154.7597 H   0  0  0  0  0  0  0  0  0  0  0  0
  143.5096  136.6506  152.7171 H   0  0  0  0  0  0  0  0  0  0  0  0
  142.9818  133.6537  152.8451 H   0  0  0  0  0  0  0  0  0  0  0  0
  142.3589  134.7261  151.6238 H   0  0  0  0  0  0  0  0  0  0  0  0
  145.2068  132.7772  150.0662 H   0  0  0  0  0  0  0  0  0  0  0  0
  143.4634  133.0061  150.0184 H   0  0  0  0  0  0  0  0  0  0  0  0
  144.2005  132.1506  151.3636 H   0  0  0  0  0  0  0  0  0  0  0  0
  145.5561  135.2848  149.7843 H   0  0  0  0  0  0  0  0  0  0  0  0
  144.6998  136.4316  150.7989 H   0  0  0  0  0  0  0  0  0  0  0  0
  143.8093  135.4342  149.6760 H   0  0  0  0  0  0  0  0  0  0  0  0
  145.6763  133.2587  152.8760 H   0  0  0  0  0  0  0  0  0  0  0  0
  146.6345  134.1619  151.7519 H   0  0  0  0  0  0  0  0  0  0  0  0
  147.0207  135.5349  155.3375 H   0  0  0  0  0  0  0  0  0  0  0  0
  146.6632  133.8881  154.9139 H   0  0  0  0  0  0  0  0  0  0  0  0
  148.3225  135.3204  153.2106 H   0  0  0  0  0  0  0  0  0  0  0  0
  147.2760  136.4401  152.4508 H   0  0  0  0  0  0  0  0  0  0  0  0
  145.3109  138.0326  153.9595 H   0  0  0  0  0  0  0  0  0  0  0  0
  146.9455  137.7079  154.5071 H   0  0  0  0  0  0  0  0  0  0  0  0
  147.1787  138.6514  151.8095 H   0  0  0  0  0  0  0  0  0  0  0  0
  146.0318  139.7084  152.6121 H   0  0  0  0  0  0  0  0  0  0  0  0
  149.5323  138.2818  153.4821 H   0  0  0  0  0  0  0  0  0  0  0  0
  149.2173  142.1470  154.8812 H   0  0  0  0  0  0  0  0  0  0  0  0
  144.6073  136.2940  154.9475 H   0  0  0  0  0  0  0  0  0  0  0  0
  144.3455  134.5953  154.7859 H   0  0  0  0  0  0  0  0  0  0  0  0
  1  2  1  0  0  0  0
  1 20  1  0  0  0  0
  1 21  1  0  0  0  0
  1 22  1  0  0  0  0
  2 19  1  0  0  0  0
  2  3  1  0  0  0  0
  2 23  1  0  0  0  0
  3  4  1  0  0  0  0
  3 24  1  0  0  0  0
  3 25  1  0  0  0  0
  4  5  1  0  0  0  0
  4  6  1  0  0  0  0
  4  7  1  0  0  0  0
  5 26  1  0  0  0  0
  5 27  1  0  0  0  0
  5 28  1  0  0  0  0
  6 29  1  0  0  0  0
  6 30  1  0  0  0  0
  6 31  1  0  0  0  0
  7  8  1  0  0  0  0
  7 32  1  0  0  0  0
  7 33  1  0  0  0  0
  8  9  1  0  0  0  0
  8 11  1  0  0  0  0
  8 19  1  0  0  0  0
  9 10  1  0  0  0  0
  9 34  1  0  0  0  0
  9 35  1  0  0  0  0
 10 36  1  0  0  0  0
 11 12  1  0  0  0  0
 11 37  1  0  0  0  0
 12 13  1  0  0  0  0
 12 38  1  0  0  0  0
 12 39  1  0  0  0  0
 13 14  1  0  0  0  0
 13 40  1  0  0  0  0
 13 41  1  0  0  0  0
 14 18  1  0  0  0  0
 14 15  1  0  0  0  0
 15 16  2  0  0  0  0
 15 42  1  0  0  0  0
 16 17  1  0  0  0  0
 17 18  2  0  0  0  0
 17 43  1  0  0  0  0
 19 44  1  0  0  0  0
 19 45  1  0  0  0  0
M  END
> <s_m_source_file>
AV-unprocessed.smi

> <i_m_source_file_index>
648

> <i_lp_mmshare_version>
43012

> <i_f3d_flags>
0

> <s_epik_input>
W0NIM11DMShbQ0gzXSlbQ0gyXVtDQEBIXShbQ0gzXSlbQ0gyXVtDQF0oW0NIMl0xKShbQ0gyXVtPSF0pW05IXVtDSDJdW0NIMl1uMltjSF1uW2NIXW4y

> <s_epik_cmdline>
J2VwaWtfcHl0aG9uJywgJy1waCcsICc3LjAnLCAnLXRuJywgJzgnLCAnLW1hJywgJzIwMCcsICctbWV0YWxfYmluZGluZycsICctaW1hZScsICc8aW5maWxlLm1hZT4nLCAnLW9tYWUnLCAnPG91dGZpbGUubWFlPic=

> <r_lp_tautomer_probability>
1

> <r_epik_Ionization_Penalty>
2.45849

> <r_epik_Ionization_Penalty_Charging>
0

> <r_epik_Ionization_Penalty_Neutral>
2.45849

> <r_epik_State_Penalty>
2.62037

> <r_epik_Charging_Adjusted_Penalty>
2.62037

> <i_epik_Tot_Q>
0

> <i_epik_Tot_abs_Q>
0

> <r_epik_Metal_State_Penalty>
2.62024

> <b_epik_Metal_Only>
0

> <s_lp_Force_Field>
OPLS_2005

> <r_lp_Energy>
32.3104

> <b_lp_Chiralities_Consistent>
1

> <s_lp_Variant>
AV-unprocessed.smi:648-5

> <Gold.Version>
5.8.1

> <Gold.Id.Protein>
6NUR|6NUR_protein|mol2

> <Gold.PLP.Fitness>
39.2645

> <Gold.PLP.PLP>
-27.5079

> <Gold.PLP.part.hbond>
-3.0000

> <Gold.PLP.part.metal>
0.0000

> <Gold.PLP.part.buried>
0.0358

> <Gold.PLP.part.nonpolar>
-25.0199

> <Gold.PLP.part.repulsive>
0.2673

> <Gold.PLP.ligand.clash>
0.0000

> <Gold.PLP.ligand.torsion>
0.5186

> <Gold.PLP.Chemscore.Hbond>
2.9440

> <Gold.PLP.Chemscore.CHOScore>
1.3196

> <Gold.PLP.Chemscore.Metal>
0.0000

> <Gold.Chemscore.Hbonds>
donor molecule, donor type, donor heavy atom, donor atom, acceptor molecule, acceptor atom, score
      L1  H    10    36       P1  7948  1.00
      L1  H    11    37       P1  7948  1.00
      P1  H  7989  7998       L1    16  0.91
      L1  C    15    42       P1  7948  0.72
      L1  C    17    43       P1  8028  0.58

> <Gold.PLP.Chemscore.Internal.Correction>
0.0029

> <Gold.Rescore>
     Score         DG    S(hbond)    S(metal)    S(lipo)     H(rot)  DE(clash)    DE(int)     intcor
      9.80     -11.53       2.65        0.00      44.34       3.12       1.18       0.55       ----

> <Gold.Chemscore.Fitness>
9.7962

> <Gold.Chemscore.DG>
-11.5303

> <Gold.Chemscore.ZeroCoef>
-5.4800

> <Gold.Chemscore.Hbond>
2.6483

> <Gold.Chemscore.Metal>
0.0000

> <Gold.Chemscore.Lipo>
44.3413

> <Gold.Chemscore.Internal_Hbond>
0.0000

> <Gold.Chemscore.DEClash>
1.1804

> <Gold.Chemscore.DEInternal>
0.5538

> <Gold.Chemscore.Rot>
3.1183

> <Gold.Chemscore.Internal.Correction>
   9.000000E+99

> <Gold.Chemscore.Hbonds>
donor molecule, donor type, donor heavy atom, donor atom, acceptor molecule, acceptor atom, score
      L1  H    10    36       P1  7948  0.98
      L1  H    11    37       P1  7948  1.00
      P1  H  7989  7998       L1    16  0.57

> <Gold.Chemscore.Hbond.Weighted>
-8.8453

> <Gold.Chemscore.Metal.Weighted>
-0.0000

> <Gold.Chemscore.Lipo.Weighted>
-5.1879

> <Gold.Chemscore.Internal_Hbond.Weighted>
0.0000

> <Gold.Chemscore.DEClash.Weighted>
1.1804

> <Gold.Chemscore.DEInternal.Weighted>
0.5538

> <Gold.Chemscore.Rot.Weighted>
7.9829

> <Gold.Chemscore.Internal.Correction.Weighted>
   9.000000E+99

> <Gold.Protein.RotatedTorsions>
[ 6907 6896 6895 6894 ] final  106.47 input  -60.11 | X-H torsion
[ 7974 7965 7964 7962 ] final -162.81 input  175.53 | X-H torsion
[ 8008 7997 7996 7995 ] final   46.51 input   59.86 | X-H torsion
[ 10167 10162 10161 10158 ] final   55.88 input  -65.29 | X-H torsion
[ 10718 10713 10712 10709 ] final  -96.52 input   66.30 | X-H torsion
[ 10763 10752 10751 10750 ] final -100.72 input  -60.55 | X-H torsion
[ 11005 11000 10999 10996 ] final  -71.61 input  -57.11 | X-H torsion

> <Gold.Protein.ActiveResidues>
 VAL166  LYS551  ARG553  GLY616  TRP617  ASP618  TYR619  PRO620  LYS621  CYS622 
 ASP623  PHE694  ASN695  SER759  ASP760  ASP761  ALA762  ILE779  LEU786  VAL792 
 PHE793  MET794  SER795  GLU796  ALA797  LYS798  CYS799  TRP800  GLU811  SER814 

> <Gold.Protein.RotatedAtoms>
  152.5192  133.9376  159.7610 H   0  0  0  0  0  0  0  0  0  0  0  0  # atno 6907 bound_to 6896
  150.9713  133.6333  159.2744 H   0  0  0  0  0  0  0  0  0  0  0  0  # atno 6908 bound_to 6896
  151.3543  135.0896  159.9466 H   0  0  0  0  0  0  0  0  0  0  0  0  # atno 6909 bound_to 6896
  144.7345  140.3198  143.6173 H   0  0  0  0  0  0  0  0  0  0  0  0  # atno 7974 bound_to 7965
  155.3536  140.3415  155.4239 H   0  0  0  0  0  0  0  0  0  0  0  0  # atno 8008 bound_to 7997
  156.1751  140.1645  156.8413 H   0  0  0  0  0  0  0  0  0  0  0  0  # atno 8009 bound_to 7997
  154.5273  140.0753  156.8264 H   0  0  0  0  0  0  0  0  0  0  0  0  # atno 8010 bound_to 7997
  140.2147  144.3852  150.6474 H   0  0  0  0  0  0  0  0  0  0  0  0  # atno 10167 bound_to 10162
  156.0064  130.5155  150.6238 H   0  0  0  0  0  0  0  0  0  0  0  0  # atno 10718 bound_to 10713
  154.7601  135.4924  153.9448 H   0  0  0  0  0  0  0  0  0  0  0  0  # atno 10763 bound_to 10752
  153.1241  135.6738  153.9293 H   0  0  0  0  0  0  0  0  0  0  0  0  # atno 10764 bound_to 10752
  153.9016  135.3109  155.3427 H   0  0  0  0  0  0  0  0  0  0  0  0  # atno 10765 bound_to 10752
  141.1595  133.6822  156.6933 H   0  0  0  0  0  0  0  0  0  0  0  0  # atno 11005 bound_to 11000
  145.7580  139.1815  143.2283 LP  0  0  0  0  0  0  0  0  0  0  0  0  # atno 17320 bound_to 7965
  146.1008  140.7545  142.9550 LP  0  0  0  0  0  0  0  0  0  0  0  0  # atno 17321 bound_to 7965
  140.6298  143.2186  151.6519 LP  0  0  0  0  0  0  0  0  0  0  0  0  # atno 17342 bound_to 10162
  139.5166  144.3340  152.0800 LP  0  0  0  0  0  0  0  0  0  0  0  0  # atno 17343 bound_to 10162
  157.4048  131.0815  151.1275 LP  0  0  0  0  0  0  0  0  0  0  0  0  # atno 17370 bound_to 10713
  157.1925  130.6358  149.5709 LP  0  0  0  0  0  0  0  0  0  0  0  0  # atno 17371 bound_to 10713
  140.3014  134.8160  157.4101 LP  0  0  0  0  0  0  0  0  0  0  0  0  # atno 17394 bound_to 11000
  140.1259  134.5159  155.8145 LP  0  0  0  0  0  0  0  0  0  0  0  0  # atno 17395 bound_to 11000

$$$$
