#       Name:                AV-unprocessed.smi:3101
#       Creating user name   scv26
#       Creation time:       Fri Mar 27 17:18:27 2020


#       File generated by GOLD software.
#

@<TRIPOS>MOLECULE
AV-unprocessed.smi:3101
    34    35     1
SMALL
NO_CHARGES


@<TRIPOS>ATOM
      1 ****        -2.0159  -2.3189  -1.6482 C.3            1 S1                 0.0000
      2 ****        -1.8968  -0.8048  -1.4125 C.3            1 S1                 0.0000
      3 ****        -3.2342  -0.0977  -1.3268 C.3            1 S1                 0.0000
      4 ****        -2.8594   1.2114  -0.6409 C.3            1 S1                 0.0000
      5 ****        -1.7525   0.9073   0.2026 O.3            1 S1                 0.0000
      6 ****        -1.2660  -0.4082  -0.0677 C.3            1 S1                 0.0000
      7 ****         0.2702  -0.4144  -0.0312 C.2            1 S1                 0.0000
      8 ****         0.9039  -1.1242  -0.8127 O.2            1 S1                 0.0000
      9 ****         0.8344   0.3769   0.9005 N.am           1 S1                 0.0000
     10 ****         2.2144   0.5760   1.1662 C.ar           1 S1                 0.0000
     11 ****         2.5147   1.4925   2.2015 C.ar           1 S1                 0.0000
     12 ****         3.7811   1.7874   2.5702 N.ar           1 S1                 0.0000
     13 ****         4.7680   1.1588   1.8966 C.ar           1 S1                 0.0000
     14 ****         4.4880   0.2426   0.8632 C.ar           1 S1                 0.0000
     15 ****         3.2198  -0.0476   0.4999 N.ar           1 S1                 0.0000
     16 ****        -2.5803  -2.8024  -0.8504 H              1 S1                 0.0000
     17 ****        -1.0355  -2.7928  -1.6952 H              1 S1                 0.0000
     18 ****        -2.5261  -2.5260  -2.5889 H              1 S1                 0.0000
     19 ****        -1.3254  -0.3613  -2.2303 H              1 S1                 0.0000
     20 ****        -3.7039   0.0522  -2.2993 H              1 S1                 0.0000
     21 ****        -3.9244  -0.6623  -0.6980 H              1 S1                 0.0000
     22 ****        -2.5385   1.9485  -1.3778 H              1 S1                 0.0000
     23 ****        -3.6880   1.6371  -0.0746 H              1 S1                 0.0000
     24 ****        -1.6377  -1.0635   0.7214 H              1 S1                 0.0000
     25 ****         0.1969   0.9064   1.4775 H              1 S1                 0.0000
     26 ****         1.7285   1.9983   2.7432 H              1 S1                 0.0000
     27 ****         5.7841   1.3868   2.1825 H              1 S1                 0.0000
     28 ****         5.2814  -0.2576   0.3280 H              1 S1                 0.0000
     29 ****        -2.0420   0.9615   1.1583 LP             1 S1                 0.0000
     30 ****        -1.0213   1.5692   0.0379 LP             1 S1                 0.0000
     31 ****         0.4188  -1.6980  -1.4726 LP             1 S1                 0.0000
     32 ****         1.9035  -1.1269  -0.7874 LP             1 S1                 0.0000
     33 ****         3.9770   2.4377   3.3042 LP             1 S1                 0.0000
     34 ****         3.0280  -0.6990  -0.2342 LP             1 S1                 0.0000
@<TRIPOS>BOND
    1    1    2 1     
    2    1   16 1     
    3    1   17 1     
    4    1   18 1     
    5    2    6 1     
    6    2    3 1     
    7    2   19 1     
    8    3    4 1     
    9    3   20 1     
   10    3   21 1     
   11    4    5 1     
   12    4   22 1     
   13    4   23 1     
   14    5    6 1     
   15    6    7 1     
   16    6   24 1     
   17    7    8 2     
   18    7    9 am    
   19    9   10 1     
   20    9   25 1     
   21   10   15 ar    
   22   10   11 ar    
   23   11   12 ar    
   24   11   26 1     
   25   12   13 ar    
   26   13   14 ar    
   27   13   27 1     
   28   14   15 ar    
   29   14   28 1     
   30    5   29 1     
   31    5   30 1     
   32    8   31 1     
   33    8   32 1     
   34   12   33 1     
   35   15   34 1     
@<TRIPOS>SUBSTRUCTURE
      1 S1             1
@<TRIPOS>SET
LONE_PAIRS      STATIC     ATOMS    <user>   **** ""
6 29 30 31 32 33 34
DONOR_HYDROGENS      STATIC     ATOMS    <user>   **** ""
1 25
ATOM$BLUE        STATIC     ATOMS    COLORGROUP SYSTEM
6 29 30 31 32 33 34
ATOM$RED        STATIC     ATOMS    COLORGROUP SYSTEM
1 25
