AV-unprocessed.smi:313|AV-procd|sdf|2310|dock4
  -GOLD-   2262022213D 1   1.00000     0.00000
 Structure written by MMmdl.
 50 51  0  0  0  0  0  0  0  0  1 V2000
  152.1062  143.1742  161.5570 C   0  0  0  0  0  0  0  0  0  0  0  0
  152.1496  142.6296  160.1214 C   0  0  0  0  0  0  0  0  0  0  0  0
  151.3286  143.4550  159.1104 C   0  0  1  0  0  0  0  0  0  0  0  0
  151.8507  144.8942  159.0008 C   0  0  0  0  0  0  0  0  0  0  0  0
  151.3616  142.8337  157.7879 N   0  0  0  0  0  0  0  0  0  0  0  0
  150.4071  142.0523  157.2585 C   0  0  0  0  0  0  0  0  0  0  0  0
  149.3544  141.7780  157.8369 O   0  0  0  0  0  0  0  0  0  0  0  0
  150.6913  141.5011  155.8524 C   0  0  2  0  0  0  0  0  0  0  0  0
  149.5690  141.9716  154.9128 C   0  0  0  0  0  0  0  0  0  0  0  0
  150.6903  140.0393  155.8645 N   0  0  0  0  0  0  0  0  0  0  0  0
  151.6190  139.2683  156.4554 C   0  0  0  0  0  0  0  0  0  0  0  0
  152.5807  139.7197  157.0781 O   0  0  0  0  0  0  0  0  0  0  0  0
  151.3842  137.7880  156.3697 C   0  0  0  0  0  0  0  0  0  0  0  0
  150.1971  137.2539  155.8228 C   0  0  0  0  0  0  0  0  0  0  0  0
  150.0479  135.8564  155.7407 C   0  0  0  0  0  0  0  0  0  0  0  0
  151.0942  135.0209  156.1983 C   0  0  0  0  0  0  0  0  0  0  0  0
  150.9696  133.6168  156.1166 N   0  0  0  0  0  0  0  0  0  0  0  0
  152.0078  132.8007  156.7437 C   0  0  0  0  0  0  0  0  0  0  0  0
  151.5722  131.3268  156.7987 C   0  0  0  0  0  0  0  0  0  0  0  0
  151.2382  130.8777  155.4899 O   0  0  0  0  0  0  0  0  0  0  0  0
  150.1486  131.6116  154.9418 C   0  0  0  0  0  0  0  0  0  0  0  0
  150.5271  133.0983  154.8242 C   0  0  0  0  0  0  0  0  0  0  0  0
  152.2335  135.5365  156.7226 N   0  0  0  0  0  0  0  0  0  0  0  0
  152.3729  136.8771  156.7984 C   0  0  0  0  0  0  0  0  0  0  0  0
  152.7572  142.5927  162.2099 H   0  0  0  0  0  0  0  0  0  0  0  0
  151.1001  143.1295  161.9745 H   0  0  0  0  0  0  0  0  0  0  0  0
  152.4393  144.2115  161.5941 H   0  0  0  0  0  0  0  0  0  0  0  0
  153.1900  142.6015  159.7953 H   0  0  0  0  0  0  0  0  0  0  0  0
  151.8053  141.5945  160.1194 H   0  0  0  0  0  0  0  0  0  0  0  0
  150.3005  143.5116  159.4725 H   0  0  0  0  0  0  0  0  0  0  0  0
  151.8152  145.3989  159.9664 H   0  0  0  0  0  0  0  0  0  0  0  0
  151.2490  145.4782  158.3033 H   0  0  0  0  0  0  0  0  0  0  0  0
  152.8834  144.9179  158.6511 H   0  0  0  0  0  0  0  0  0  0  0  0
  152.1896  142.9991  157.2344 H   0  0  0  0  0  0  0  0  0  0  0  0
  151.6526  141.8684  155.4867 H   0  0  0  0  0  0  0  0  0  0  0  0
  149.5232  143.0604  154.8648 H   0  0  0  0  0  0  0  0  0  0  0  0
  148.5908  141.6110  155.2346 H   0  0  0  0  0  0  0  0  0  0  0  0
  149.7351  141.6097  153.8977 H   0  0  0  0  0  0  0  0  0  0  0  0
  149.9171  139.5819  155.4041 H   0  0  0  0  0  0  0  0  0  0  0  0
  149.4053  137.8964  155.4654 H   0  0  0  0  0  0  0  0  0  0  0  0
  149.1341  135.4445  155.3392 H   0  0  0  0  0  0  0  0  0  0  0  0
  152.9344  132.8943  156.1754 H   0  0  0  0  0  0  0  0  0  0  0  0
  152.2077  133.1560  157.7556 H   0  0  0  0  0  0  0  0  0  0  0  0
  152.3815  130.7103  157.1900 H   0  0  0  0  0  0  0  0  0  0  0  0
  150.7205  131.1971  157.4687 H   0  0  0  0  0  0  0  0  0  0  0  0
  149.9071  131.2076  153.9588 H   0  0  0  0  0  0  0  0  0  0  0  0
  149.2613  131.4847  155.5642 H   0  0  0  0  0  0  0  0  0  0  0  0
  149.6709  133.6501  154.4398 H   0  0  0  0  0  0  0  0  0  0  0  0
  151.3342  133.2211  154.1009 H   0  0  0  0  0  0  0  0  0  0  0  0
  153.3050  137.2266  157.2185 H   0  0  0  0  0  0  0  0  0  0  0  0
  1  2  1  0  0  0  0
  1 25  1  0  0  0  0
  1 26  1  0  0  0  0
  1 27  1  0  0  0  0
  2  3  1  0  0  0  0
  2 28  1  0  0  0  0
  2 29  1  0  0  0  0
  3  4  1  0  0  0  0
  3  5  1  0  0  0  0
  3 30  1  0  0  0  0
  4 31  1  0  0  0  0
  4 32  1  0  0  0  0
  4 33  1  0  0  0  0
  5  6  1  0  0  0  0
  5 34  1  0  0  0  0
  6  7  2  0  0  0  0
  6  8  1  0  0  0  0
  8  9  1  0  0  0  0
  8 10  1  0  0  0  0
  8 35  1  0  0  0  0
  9 36  1  0  0  0  0
  9 37  1  0  0  0  0
  9 38  1  0  0  0  0
 10 11  1  0  0  0  0
 10 39  1  0  0  0  0
 11 12  2  0  0  0  0
 11 13  1  0  0  0  0
 13 24  1  0  0  0  0
 13 14  2  0  0  0  0
 14 15  1  0  0  0  0
 14 40  1  0  0  0  0
 15 16  2  0  0  0  0
 15 41  1  0  0  0  0
 16 17  1  0  0  0  0
 16 23  1  0  0  0  0
 17 22  1  0  0  0  0
 17 18  1  0  0  0  0
 18 19  1  0  0  0  0
 18 42  1  0  0  0  0
 18 43  1  0  0  0  0
 19 20  1  0  0  0  0
 19 44  1  0  0  0  0
 19 45  1  0  0  0  0
 20 21  1  0  0  0  0
 21 22  1  0  0  0  0
 21 46  1  0  0  0  0
 21 47  1  0  0  0  0
 22 48  1  0  0  0  0
 22 49  1  0  0  0  0
 23 24  2  0  0  0  0
 24 50  1  0  0  0  0
M  END
> <s_m_source_file>
AV-unprocessed.smi

> <i_m_source_file_index>
313

> <i_lp_mmshare_version>
43012

> <i_f3d_flags>
0

> <s_epik_input>
W0NIM11bQ0gyXVtDQEhdKFtDSDNdKVtOSF1DKD1PKVtDQEhdKFtDSDNdKVtOSF1DKD1PKWMxW2NIXVtjSF1jKG5bY0hdMSlOMltDSDJdW0NIMl1PW0NIMl1bQ0gyXTI=

> <s_epik_cmdline>
J2VwaWtfcHl0aG9uJywgJy1waCcsICc3LjAnLCAnLXRuJywgJzgnLCAnLW1hJywgJzIwMCcsICctbWV0YWxfYmluZGluZycsICctaW1hZScsICc8aW5maWxlLm1hZT4nLCAnLW9tYWUnLCAnPG91dGZpbGUubWFlPic=

> <r_lp_tautomer_probability>
1

> <r_epik_Ionization_Penalty>
9.96442e-06

> <r_epik_Ionization_Penalty_Charging>
0

> <r_epik_Ionization_Penalty_Neutral>
9.96442e-06

> <r_epik_State_Penalty>
-0

> <r_epik_Charging_Adjusted_Penalty>
0

> <i_epik_Tot_Q>
0

> <i_epik_Tot_abs_Q>
0

> <r_epik_Metal_State_Penalty>
-0

> <b_epik_Metal_Only>
0

> <s_lp_Force_Field>
OPLS_2005

> <r_lp_Energy>
19.2481

> <b_lp_Chiralities_Consistent>
1

> <s_lp_Variant>
AV-unprocessed.smi:313-2

> <Gold.Version>
5.8.1

> <Gold.Id.Protein>
6NUR|6NUR_protein|mol2

> <Gold.PLP.Fitness>
42.3452

> <Gold.PLP.PLP>
-38.7409

> <Gold.PLP.part.hbond>
-2.0000

> <Gold.PLP.part.metal>
0.0000

> <Gold.PLP.part.buried>
-3.6135

> <Gold.PLP.part.nonpolar>
-32.2477

> <Gold.PLP.part.repulsive>
0.1983

> <Gold.PLP.ligand.clash>
0.0000

> <Gold.PLP.ligand.torsion>
0.5478

> <Gold.PLP.Chemscore.Hbond>
1.4500

> <Gold.PLP.Chemscore.CHOScore>
0.0000

> <Gold.PLP.Chemscore.Metal>
0.0000

> <Gold.Chemscore.Hbonds>
donor molecule, donor type, donor heavy atom, donor atom, acceptor molecule, acceptor atom, score
      P1  H  7997  8008       L1    12  1.00
      P1  H 10752 10763       L1    23  0.46

> <Gold.PLP.Chemscore.Internal.Correction>
0.3500

> <Gold.Rescore>
     Score         DG    S(hbond)    S(metal)    S(lipo)     H(rot)  DE(clash)    DE(int)     intcor
     14.77     -15.80       1.00        0.00      98.69       1.79       0.30       0.72       ----

> <Gold.Chemscore.Fitness>
14.7741

> <Gold.Chemscore.DG>
-15.7955

> <Gold.Chemscore.ZeroCoef>
-5.4800

> <Gold.Chemscore.Hbond>
1.0025

> <Gold.Chemscore.Metal>
0.0000

> <Gold.Chemscore.Lipo>
98.6875

> <Gold.Chemscore.Internal_Hbond>
0.0000

> <Gold.Chemscore.DEClash>
0.2987

> <Gold.Chemscore.DEInternal>
0.7227

> <Gold.Chemscore.Rot>
1.7888

> <Gold.Chemscore.Internal.Correction>
   9.000000E+99

> <Gold.Chemscore.Hbonds>
donor molecule, donor type, donor heavy atom, donor atom, acceptor molecule, acceptor atom, score
      P1  H  7997  8008       L1    12  0.96

> <Gold.Chemscore.Hbond.Weighted>
-3.3483

> <Gold.Chemscore.Metal.Weighted>
-0.0000

> <Gold.Chemscore.Lipo.Weighted>
-11.5464

> <Gold.Chemscore.Internal_Hbond.Weighted>
0.0000

> <Gold.Chemscore.DEClash.Weighted>
0.2987

> <Gold.Chemscore.DEInternal.Weighted>
0.7227

> <Gold.Chemscore.Rot.Weighted>
4.5793

> <Gold.Chemscore.Internal.Correction.Weighted>
   9.000000E+99

> <Gold.Protein.RotatedTorsions>
[ 6907 6896 6895 6894 ] final -107.53 input  -60.11 | X-H torsion
[ 7974 7965 7964 7962 ] final -154.98 input  175.53 | X-H torsion
[ 8008 7997 7996 7995 ] final  -42.75 input   59.86 | X-H torsion
[ 10167 10162 10161 10158 ] final  160.37 input  -65.29 | X-H torsion
[ 10718 10713 10712 10709 ] final  -62.94 input   66.30 | X-H torsion
[ 10763 10752 10751 10750 ] final   92.32 input  -60.55 | X-H torsion
[ 11005 11000 10999 10996 ] final   90.15 input  -57.11 | X-H torsion

> <Gold.Protein.ActiveResidues>
 VAL166  LYS551  ARG553  GLY616  TRP617  ASP618  TYR619  PRO620  LYS621  CYS622 
 ASP623  PHE694  ASN695  SER759  ASP760  ASP761  ALA762  ILE779  LEU786  VAL792 
 PHE793  MET794  SER795  GLU796  ALA797  LYS798  CYS799  TRP800  GLU811  SER814 

> <Gold.Protein.RotatedAtoms>
  150.7449  133.9813  159.3577 H   0  0  0  0  0  0  0  0  0  0  0  0  # atno 6907 bound_to 6896
  151.7755  135.0773  160.0375 H   0  0  0  0  0  0  0  0  0  0  0  0  # atno 6908 bound_to 6896
  152.3310  133.5921  159.5846 H   0  0  0  0  0  0  0  0  0  0  0  0  # atno 6909 bound_to 6896
  144.7662  140.4313  143.5940 H   0  0  0  0  0  0  0  0  0  0  0  0  # atno 7974 bound_to 7965
  154.3998  140.1465  156.3406 H   0  0  0  0  0  0  0  0  0  0  0  0  # atno 8008 bound_to 7997
  155.8359  140.3464  155.5580 H   0  0  0  0  0  0  0  0  0  0  0  0  # atno 8009 bound_to 7997
  155.8138  140.0888  157.1879 H   0  0  0  0  0  0  0  0  0  0  0  0  # atno 8010 bound_to 7997
  139.4839  144.4640  151.8666 H   0  0  0  0  0  0  0  0  0  0  0  0  # atno 10167 bound_to 10162
  156.0823  130.4215  150.1206 H   0  0  0  0  0  0  0  0  0  0  0  0  # atno 10718 bound_to 10713
  153.2179  135.4365  155.0456 H   0  0  0  0  0  0  0  0  0  0  0  0  # atno 10763 bound_to 10752
  154.8235  135.3349  154.6971 H   0  0  0  0  0  0  0  0  0  0  0  0  # atno 10764 bound_to 10752
  153.7404  135.7005  153.5024 H   0  0  0  0  0  0  0  0  0  0  0  0  # atno 10765 bound_to 10752
  139.8861  134.8596  156.3244 H   0  0  0  0  0  0  0  0  0  0  0  0  # atno 11005 bound_to 11000
  145.6462  139.1557  143.2887 LP  0  0  0  0  0  0  0  0  0  0  0  0  # atno 17320 bound_to 7965
  146.1772  140.6555  142.9206 LP  0  0  0  0  0  0  0  0  0  0  0  0  # atno 17321 bound_to 7965
  140.4104  144.2376  150.5889 LP  0  0  0  0  0  0  0  0  0  0  0  0  # atno 17342 bound_to 10162
  140.4971  143.2329  151.8733 LP  0  0  0  0  0  0  0  0  0  0  0  0  # atno 17343 bound_to 10162
  156.9234  130.9690  151.3545 LP  0  0  0  0  0  0  0  0  0  0  0  0  # atno 17370 bound_to 10713
  157.5944  130.8467  149.8707 LP  0  0  0  0  0  0  0  0  0  0  0  0  # atno 17371 bound_to 10713
  140.9765  133.7294  156.0609 LP  0  0  0  0  0  0  0  0  0  0  0  0  # atno 17394 bound_to 11000
  140.7804  134.3731  157.5488 LP  0  0  0  0  0  0  0  0  0  0  0  0  # atno 17395 bound_to 11000

$$$$
