#       Name:                AV-unprocessed.smi:3257
#       Creating user name   scv26
#       Creation time:       Fri Mar 27 18:36:31 2020


#       File generated by GOLD software.
#

@<TRIPOS>MOLECULE
AV-unprocessed.smi:3257
    43    44     1
SMALL
NO_CHARGES


@<TRIPOS>ATOM
      1 ****        -2.2601   6.2655  -1.9078 C.3            1 S1                 0.0000
      2 ****        -1.9209   5.2063  -0.9817 N.pl3          1 S1                 0.0000
      3 ****        -1.9528   3.8437  -1.1852 C.2            1 S1                 0.0000
      4 ****        -1.5475   3.2459  -0.0250 C.2            1 S1                 0.0000
      5 ****        -1.4028   1.7809   0.2773 C.3            1 S1                 0.0000
      6 ****        -0.1899   1.1728  -0.4453 C.3            1 S1                 0.0000
      7 ****        -0.0726  -0.2569  -0.1850 N.am           1 S1                 0.0000
      8 ****         0.4902  -0.8063   0.9048 C.2            1 S1                 0.0000
      9 ****         0.9673  -0.1196   1.8094 O.2            1 S1                 0.0000
     10 ****         0.4746  -2.1637   0.9303 N.am           1 S1                 0.0000
     11 ****         0.0415  -3.0534  -0.1627 C.3            1 S1                 0.0000
     12 ****         1.2827  -3.7233  -0.7803 C.3            1 S1                 0.0000
     13 ****         2.0818  -4.4850   0.2958 C.3            1 S1                 0.0000
     14 ****         3.2940  -4.9583  -0.2519 O.3            1 S1                 0.0000
     15 ****         2.3728  -3.5947   1.5203 C.3            1 S1                 0.0000
     16 ****         1.0815  -2.9274   2.0293 C.3            1 S1                 0.0000
     17 ****        -1.2912   4.3467   0.8415 C.2            1 S1                 0.0000
     18 ****        -1.5157   5.5173   0.2668 N.2            1 S1                 0.0000
     19 ****        -2.3593   5.8619  -2.9159 H              1 S1                 0.0000
     20 ****        -1.4781   7.0259  -1.9073 H              1 S1                 0.0000
     21 ****        -3.2052   6.7218  -1.6130 H              1 S1                 0.0000
     22 ****        -2.2560   3.4154  -2.1293 H              1 S1                 0.0000
     23 ****        -1.3024   1.6236   1.3519 H              1 S1                 0.0000
     24 ****        -2.3044   1.2423  -0.0170 H              1 S1                 0.0000
     25 ****        -0.2922   1.3077  -1.5225 H              1 S1                 0.0000
     26 ****         0.7284   1.6861  -0.1538 H              1 S1                 0.0000
     27 ****        -0.4475  -0.8792  -0.8859 H              1 S1                 0.0000
     28 ****        -0.6272  -3.8144   0.2420 H              1 S1                 0.0000
     29 ****        -0.5334  -2.5533  -0.9418 H              1 S1                 0.0000
     30 ****         0.9830  -4.4037  -1.5781 H              1 S1                 0.0000
     31 ****         1.9115  -2.9600  -1.2416 H              1 S1                 0.0000
     32 ****         1.5016  -5.3498   0.6199 H              1 S1                 0.0000
     33 ****         3.0936  -5.5375  -0.9714 H              1 S1                 0.0000
     34 ****         2.8273  -4.1861   2.3157 H              1 S1                 0.0000
     35 ****         3.0964  -2.8219   1.2555 H              1 S1                 0.0000
     36 ****         1.3017  -2.3110   2.9018 H              1 S1                 0.0000
     37 ****         0.3780  -3.6860   2.3751 H              1 S1                 0.0000
     38 ****        -0.9502   4.3289   1.8661 H              1 S1                 0.0000
     39 ****         0.9429   0.8780   1.7458 LP             1 S1                 0.0000
     40 ****         1.3791  -0.5599   2.6073 LP             1 S1                 0.0000
     41 ****         3.8085  -5.4549   0.4472 LP             1 S1                 0.0000
     42 ****         3.8386  -4.1872  -0.5817 LP             1 S1                 0.0000
     43 ****        -1.4090   6.4272   0.6676 LP             1 S1                 0.0000
@<TRIPOS>BOND
    1    1    2 1     
    2    1   19 1     
    3    1   20 1     
    4    1   21 1     
    5    2   18 1     
    6    2    3 1     
    7    3    4 2     
    8    3   22 1     
    9    4    5 1     
   10    4   17 1     
   11    5    6 1     
   12    5   23 1     
   13    5   24 1     
   14    6    7 1     
   15    6   25 1     
   16    6   26 1     
   17    7    8 am    
   18    7   27 1     
   19    8    9 2     
   20    8   10 am    
   21   10   16 1     
   22   10   11 1     
   23   11   12 1     
   24   11   28 1     
   25   11   29 1     
   26   12   13 1     
   27   12   30 1     
   28   12   31 1     
   29   13   14 1     
   30   13   15 1     
   31   13   32 1     
   32   14   33 1     
   33   15   16 1     
   34   15   34 1     
   35   15   35 1     
   36   16   36 1     
   37   16   37 1     
   38   17   18 2     
   39   17   38 1     
   40    9   39 1     
   41    9   40 1     
   42   14   41 1     
   43   14   42 1     
   44   18   43 1     
@<TRIPOS>SUBSTRUCTURE
      1 S1             1
@<TRIPOS>SET
LONE_PAIRS      STATIC     ATOMS    <user>   **** ""
5 39 40 41 42 43
DONOR_HYDROGENS      STATIC     ATOMS    <user>   **** ""
2 27 33
ATOM$BLUE        STATIC     ATOMS    COLORGROUP SYSTEM
5 39 40 41 42 43
ATOM$RED        STATIC     ATOMS    COLORGROUP SYSTEM
2 27 33
