AV-unprocessed.smi:310|AV-procd|sdf|2296|dock3
  -GOLD-   2262022193D 1   1.00000     0.00000
 Structure written by MMmdl.
 40 42  0  0  0  0  0  0  0  0  2 V2000
  150.2766  129.9972  154.3147 C   0  0  0  0  0  0  0  0  0  0  0  0
  150.0819  131.4416  154.6267 C   0  0  0  0  0  0  0  0  0  0  0  0
  149.3929  132.4406  153.9998 C   0  0  0  0  0  0  0  0  0  0  0  0
  149.6336  133.5710  154.8278 C   0  0  0  0  0  0  0  0  0  0  0  0
  149.1532  134.8088  154.6327 N   0  5  0  0  0  0  0  0  0  0  0  0
  149.8835  135.8878  154.9983 C   0  0  0  0  0  0  0  0  0  0  0  0
  150.5519  136.0022  156.0285 O   0  0  0  0  0  0  0  0  0  0  0  0
  149.8355  136.8969  154.1160 N   0  0  0  0  0  0  0  0  0  0  0  0
  150.5178  138.1822  154.2421 C   0  0  0  0  0  0  0  0  0  0  0  0
  151.9720  137.9831  154.7301 C   0  0  0  0  0  0  0  0  0  0  0  0
  152.6334  139.3319  155.0621 C   0  0  0  0  0  0  0  0  0  0  0  0
  151.8117  140.0299  156.0605 N   0  0  0  0  0  0  0  0  0  0  0  0
  152.1428  140.2476  157.3580 C   0  0  0  0  0  0  0  0  0  0  0  0
  153.1798  139.8023  157.8526 O   0  0  0  0  0  0  0  0  0  0  0  0
  151.2021  141.0830  158.1739 C   0  0  0  0  0  0  0  0  0  0  0  0
  150.8962  142.4944  157.7045 C   0  0  0  0  0  0  0  0  0  0  0  0
  151.7945  142.2760  158.8937 C   0  0  0  0  0  0  0  0  0  0  0  0
  150.5016  140.3933  155.5069 C   0  0  0  0  0  0  0  0  0  0  0  0
  149.7241  139.1010  155.1959 C   0  0  0  0  0  0  0  0  0  0  0  0
  150.3882  133.2795  155.8741 N   0  0  0  0  0  0  0  0  0  0  0  0
  150.6857  131.9172  155.7489 O   0  0  0  0  0  0  0  0  0  0  0  0
  149.3197  129.4760  154.2933 H   0  0  0  0  0  0  0  0  0  0  0  0
  150.9078  129.5144  155.0612 H   0  0  0  0  0  0  0  0  0  0  0  0
  150.7511  129.8745  153.3411 H   0  0  0  0  0  0  0  0  0  0  0  0
  148.8131  132.3761  153.0914 H   0  0  0  0  0  0  0  0  0  0  0  0
  149.2759  136.7582  153.2874 H   0  0  0  0  0  0  0  0  0  0  0  0
  150.5450  138.6697  153.2655 H   0  0  0  0  0  0  0  0  0  0  0  0
  151.9830  137.3489  155.6177 H   0  0  0  0  0  0  0  0  0  0  0  0
  152.5561  137.4619  153.9709 H   0  0  0  0  0  0  0  0  0  0  0  0
  153.6685  139.1848  155.3674 H   0  0  0  0  0  0  0  0  0  0  0  0
  152.6915  139.9426  154.1601 H   0  0  0  0  0  0  0  0  0  0  0  0
  150.3751  140.5623  158.6528 H   0  0  0  0  0  0  0  0  0  0  0  0
  151.3628  142.8683  156.7950 H   0  0  0  0  0  0  0  0  0  0  0  0
  149.8902  142.8661  157.8872 H   0  0  0  0  0  0  0  0  0  0  0  0
  151.4003  142.5012  159.8824 H   0  0  0  0  0  0  0  0  0  0  0  0
  152.8561  142.4797  158.7628 H   0  0  0  0  0  0  0  0  0  0  0  0
  149.9153  141.0232  156.1770 H   0  0  0  0  0  0  0  0  0  0  0  0
  150.6392  140.9777  154.5959 H   0  0  0  0  0  0  0  0  0  0  0  0
  148.7547  139.3450  154.7601 H   0  0  0  0  0  0  0  0  0  0  0  0
  149.5195  138.5758  156.1304 H   0  0  0  0  0  0  0  0  0  0  0  0
  1  2  1  0  0  0  0
  1 22  1  0  0  0  0
  1 23  1  0  0  0  0
  1 24  1  0  0  0  0
  2 21  1  0  0  0  0
  2  3  2  0  0  0  0
  3  4  1  0  0  0  0
  3 25  1  0  0  0  0
  4  5  1  0  0  0  0
  4 20  2  0  0  0  0
  5  6  1  0  0  0  0
  6  7  2  0  0  0  0
  6  8  1  0  0  0  0
  8  9  1  0  0  0  0
  8 26  1  0  0  0  0
  9 19  1  0  0  0  0
  9 10  1  0  0  0  0
  9 27  1  0  0  0  0
 10 11  1  0  0  0  0
 10 28  1  0  0  0  0
 10 29  1  0  0  0  0
 11 12  1  0  0  0  0
 11 30  1  0  0  0  0
 11 31  1  0  0  0  0
 12 13  1  0  0  0  0
 12 18  1  0  0  0  0
 13 14  2  0  0  0  0
 13 15  1  0  0  0  0
 15 17  1  0  0  0  0
 15 16  1  0  0  0  0
 15 32  1  0  0  0  0
 16 17  1  0  0  0  0
 16 33  1  0  0  0  0
 16 34  1  0  0  0  0
 17 35  1  0  0  0  0
 17 36  1  0  0  0  0
 18 19  1  0  0  0  0
 18 37  1  0  0  0  0
 18 38  1  0  0  0  0
 19 39  1  0  0  0  0
 19 40  1  0  0  0  0
 20 21  1  0  0  0  0
M  CHG  1   5  -1
M  END
> <s_m_source_file>
AV-unprocessed.smi

> <i_m_source_file_index>
310

> <i_lp_mmshare_version>
43012

> <i_f3d_flags>
0

> <s_epik_input>
W0NIM11jMVtjSF1jKG5vMSlbTkhdQyg9TylbTkhdW0NIXTJbQ0gyXVtDSDJdTihbQ0gyXVtDSDJdMilDKD1PKVtDSF0zW0NIMl1bQ0gyXTM=

> <s_epik_cmdline>
J2VwaWtfcHl0aG9uJywgJy1waCcsICc3LjAnLCAnLXRuJywgJzgnLCAnLW1hJywgJzIwMCcsICctbWV0YWxfYmluZGluZycsICctaW1hZScsICc8aW5maWxlLm1hZT4nLCAnLW9tYWUnLCAnPG91dGZpbGUubWFlPic=

> <r_lp_tautomer_probability>
1

> <r_epik_Ionization_Penalty>
6.54503

> <r_epik_Ionization_Penalty_Charging>
6.5449

> <r_epik_Ionization_Penalty_Neutral>
0.000132868

> <r_epik_State_Penalty>
6.54489

> <r_epik_Charging_Adjusted_Penalty>
13.0898

> <i_epik_Tot_Q>
-1

> <i_epik_Tot_abs_Q>
1

> <r_epik_Metal_State_Penalty>
2.47073

> <b_epik_Metal_Only>
1

> <s_lp_Force_Field>
OPLS_2005

> <r_lp_Energy>
23.2172

> <b_lp_Chiralities_Consistent>
1

> <s_lp_Variant>
AV-unprocessed.smi:310-2

> <Gold.Version>
5.8.1

> <Gold.Id.Protein>
6NUR|6NUR_protein|mol2

> <Gold.PLP.Fitness>
40.8643

> <Gold.PLP.PLP>
-36.4596

> <Gold.PLP.part.hbond>
-2.6967

> <Gold.PLP.part.metal>
0.0000

> <Gold.PLP.part.buried>
-1.8190

> <Gold.PLP.part.nonpolar>
-32.0210

> <Gold.PLP.part.repulsive>
0.2308

> <Gold.PLP.ligand.clash>
0.0000

> <Gold.PLP.ligand.torsion>
0.8623

> <Gold.PLP.Chemscore.Hbond>
2.0000

> <Gold.PLP.Chemscore.CHOScore>
0.0000

> <Gold.PLP.Chemscore.Metal>
0.0000

> <Gold.Chemscore.Hbonds>
donor molecule, donor type, donor heavy atom, donor atom, acceptor molecule, acceptor atom, score
      L1  H     8    26       P1  7948  0.99
      P1  H  7997  8009       L1    14  1.00

> <Gold.PLP.Chemscore.Internal.Correction>
0.1293

> <Gold.Rescore>
     Score         DG    S(hbond)    S(metal)    S(lipo)     H(rot)  DE(clash)    DE(int)     intcor
     13.15     -17.33       1.85        0.00      75.83       1.25       0.25       3.93       ----

> <Gold.Chemscore.Fitness>
13.1520

> <Gold.Chemscore.DG>
-17.3274

> <Gold.Chemscore.ZeroCoef>
-5.4800

> <Gold.Chemscore.Hbond>
1.8482

> <Gold.Chemscore.Metal>
0.0000

> <Gold.Chemscore.Lipo>
75.8343

> <Gold.Chemscore.Internal_Hbond>
0.0000

> <Gold.Chemscore.DEClash>
0.2474

> <Gold.Chemscore.DEInternal>
3.9280

> <Gold.Chemscore.Rot>
1.2493

> <Gold.Chemscore.Internal.Correction>
   9.000000E+99

> <Gold.Chemscore.Hbonds>
donor molecule, donor type, donor heavy atom, donor atom, acceptor molecule, acceptor atom, score
      L1  H     8    26       P1  7948  0.87
      P1  H  7997  8009       L1    14  0.95

> <Gold.Chemscore.Hbond.Weighted>
-6.1729

> <Gold.Chemscore.Metal.Weighted>
-0.0000

> <Gold.Chemscore.Lipo.Weighted>
-8.8726

> <Gold.Chemscore.Internal_Hbond.Weighted>
0.0000

> <Gold.Chemscore.DEClash.Weighted>
0.2474

> <Gold.Chemscore.DEInternal.Weighted>
3.9280

> <Gold.Chemscore.Rot.Weighted>
3.1981

> <Gold.Chemscore.Internal.Correction.Weighted>
   9.000000E+99

> <Gold.Protein.RotatedTorsions>
[ 6907 6896 6895 6894 ] final   78.28 input  -60.11 | X-H torsion
[ 7974 7965 7964 7962 ] final   72.47 input  175.53 | X-H torsion
[ 8008 7997 7996 7995 ] final  150.82 input   59.86 | X-H torsion
[ 10167 10162 10161 10158 ] final  147.49 input  -65.29 | X-H torsion
[ 10718 10713 10712 10709 ] final  110.11 input   66.30 | X-H torsion
[ 10763 10752 10751 10750 ] final -157.77 input  -60.55 | X-H torsion
[ 11005 11000 10999 10996 ] final   -4.05 input  -57.11 | X-H torsion

> <Gold.Protein.ActiveResidues>
 VAL166  LYS551  ARG553  GLY616  TRP617  ASP618  TYR619  PRO620  LYS621  CYS622 
 ASP623  PHE694  ASN695  SER759  ASP760  ASP761  ALA762  ILE779  LEU786  VAL792 
 PHE793  MET794  SER795  GLU796  ALA797  LYS798  CYS799  TRP800  GLU811  SER814 

> <Gold.Protein.RotatedAtoms>
  152.5153  134.3689  159.9310 H   0  0  0  0  0  0  0  0  0  0  0  0  # atno 6907 bound_to 6896
  151.3643  133.3872  159.2700 H   0  0  0  0  0  0  0  0  0  0  0  0  # atno 6908 bound_to 6896
  150.9627  134.9032  159.7799 H   0  0  0  0  0  0  0  0  0  0  0  0  # atno 6909 bound_to 6896
  145.7529  139.2767  143.1421 H   0  0  0  0  0  0  0  0  0  0  0  0  # atno 7974 bound_to 7965
  156.2700  140.2064  156.6078 H   0  0  0  0  0  0  0  0  0  0  0  0  # atno 8008 bound_to 7997
  154.6856  140.0535  157.0334 H   0  0  0  0  0  0  0  0  0  0  0  0  # atno 8009 bound_to 7997
  155.0939  140.3199  155.4569 H   0  0  0  0  0  0  0  0  0  0  0  0  # atno 8010 bound_to 7997
  139.4889  144.5751  151.6980 H   0  0  0  0  0  0  0  0  0  0  0  0  # atno 10167 bound_to 10162
  157.6510  131.0926  150.6553 H   0  0  0  0  0  0  0  0  0  0  0  0  # atno 10718 bound_to 10713
  154.7609  135.3117  154.8379 H   0  0  0  0  0  0  0  0  0  0  0  0  # atno 10763 bound_to 10752
  153.9140  135.6802  153.4754 H   0  0  0  0  0  0  0  0  0  0  0  0  # atno 10764 bound_to 10752
  153.1210  135.4822  154.9127 H   0  0  0  0  0  0  0  0  0  0  0  0  # atno 10765 bound_to 10752
  140.6760  133.9195  155.8524 H   0  0  0  0  0  0  0  0  0  0  0  0  # atno 11005 bound_to 11000
  146.0339  140.8231  142.9862 LP  0  0  0  0  0  0  0  0  0  0  0  0  # atno 17320 bound_to 7965
  144.6846  140.2809  143.7292 LP  0  0  0  0  0  0  0  0  0  0  0  0  # atno 17321 bound_to 7965
  140.5346  144.0676  150.6066 LP  0  0  0  0  0  0  0  0  0  0  0  0  # atno 17342 bound_to 10162
  140.3678  143.2872  152.0312 LP  0  0  0  0  0  0  0  0  0  0  0  0  # atno 17343 bound_to 10162
  156.6865  130.4582  149.5612 LP  0  0  0  0  0  0  0  0  0  0  0  0  # atno 17370 bound_to 10713
  156.1892  130.6549  151.1042 LP  0  0  0  0  0  0  0  0  0  0  0  0  # atno 17371 bound_to 10713
  141.0355  134.0696  157.3964 LP  0  0  0  0  0  0  0  0  0  0  0  0  # atno 17394 bound_to 11000
  139.8966  135.0147  156.7062 LP  0  0  0  0  0  0  0  0  0  0  0  0  # atno 17395 bound_to 11000

$$$$
