AV-unprocessed.smi:2377|AV-procd|sdf|9448|dock3
  -GOLD-   2272013 73D 1   1.00000     0.00000
 Structure written by MMmdl.
 23 23  0  0  0  0  0  0  0  0  1 V2000
  149.8075  141.4419  155.5331 C   0  0  0  0  0  0  0  0  0  0  0  0
  150.4212  142.6232  156.1260 N   0  0  0  0  0  0  0  0  0  0  0  0
  150.9541  142.3843  157.4650 C   0  0  0  0  0  0  0  0  0  0  0  0
  151.7442  143.5977  157.9886 C   0  0  1  0  0  0  0  0  0  0  0  0
  150.9240  144.7407  157.8658 O   0  0  0  0  0  0  0  0  0  0  0  0
  152.2358  143.4024  159.4155 C   0  0  0  0  0  0  0  0  0  0  0  0
  152.9707  142.2530  159.7752 C   0  0  0  0  0  0  0  0  0  0  0  0
  153.4002  142.1086  161.1084 C   0  0  0  0  0  0  0  0  0  0  0  0
  153.0741  143.1220  162.0311 C   0  0  0  0  0  0  0  0  0  0  0  0
  152.3698  144.2256  161.7018 N   0  0  0  0  0  0  0  0  0  0  0  0
  151.9615  144.3559  160.4210 C   0  0  0  0  0  0  0  0  0  0  0  0
  149.4383  141.6624  154.5317 H   0  0  0  0  0  0  0  0  0  0  0  0
  148.9648  141.0947  156.1316 H   0  0  0  0  0  0  0  0  0  0  0  0
  150.5256  140.6254  155.4518 H   0  0  0  0  0  0  0  0  0  0  0  0
  149.7419  143.3763  156.1641 H   0  0  0  0  0  0  0  0  0  0  0  0
  150.1320  142.1707  158.1496 H   0  0  0  0  0  0  0  0  0  0  0  0
  151.5908  141.4986  157.4605 H   0  0  0  0  0  0  0  0  0  0  0  0
  152.6070  143.7615  157.3412 H   0  0  0  0  0  0  0  0  0  0  0  0
  150.3010  144.5896  157.1712 H   0  0  0  0  0  0  0  0  0  0  0  0
  153.2019  141.4921  159.0444 H   0  0  0  0  0  0  0  0  0  0  0  0
  153.9645  141.2413  161.4172 H   0  0  0  0  0  0  0  0  0  0  0  0
  153.3871  143.0432  163.0617 H   0  0  0  0  0  0  0  0  0  0  0  0
  151.3978  145.2484  160.1924 H   0  0  0  0  0  0  0  0  0  0  0  0
  1  2  1  0  0  0  0
  1 12  1  0  0  0  0
  1 13  1  0  0  0  0
  1 14  1  0  0  0  0
  2  3  1  0  0  0  0
  2 15  1  0  0  0  0
  3  4  1  0  0  0  0
  3 16  1  0  0  0  0
  3 17  1  0  0  0  0
  4  5  1  0  0  0  0
  4  6  1  0  0  0  0
  4 18  1  0  0  0  0
  5 19  1  0  0  0  0
  6 11  1  0  0  0  0
  6  7  2  0  0  0  0
  7  8  1  0  0  0  0
  7 20  1  0  0  0  0
  8  9  2  0  0  0  0
  8 21  1  0  0  0  0
  9 10  1  0  0  0  0
  9 22  1  0  0  0  0
 10 11  2  0  0  0  0
 11 23  1  0  0  0  0
M  END
> <s_m_source_file>
AV-unprocessed.smi

> <i_m_source_file_index>
2377

> <i_lp_mmshare_version>
43012

> <i_f3d_flags>
0

> <s_epik_input>
W0NIM11bTkhdW0NIMl1bQ0BIXShbT0hdKWMxW2NIXVtjSF1bY0hdbltjSF0x

> <s_epik_cmdline>
J2VwaWtfcHl0aG9uJywgJy1waCcsICc3LjAnLCAnLXRuJywgJzgnLCAnLW1hJywgJzIwMCcsICctbWV0YWxfYmluZGluZycsICctaW1hZScsICc8aW5maWxlLm1hZT4nLCAnLW9tYWUnLCAnPG91dGZpbGUubWFlPic=

> <r_epik_Ionization_Penalty>
2.4626

> <r_epik_Ionization_Penalty_Charging>
0

> <r_epik_Ionization_Penalty_Neutral>
2.4626

> <r_epik_State_Penalty>
2.6219

> <r_epik_Charging_Adjusted_Penalty>
2.6219

> <i_epik_Tot_Q>
0

> <i_epik_Tot_abs_Q>
0

> <r_epik_Metal_State_Penalty>
2.61964

> <b_epik_Metal_Only>
0

> <s_lp_Force_Field>
OPLS_2005

> <r_lp_Energy>
6.69751

> <b_lp_Chiralities_Consistent>
1

> <s_lp_Variant>
AV-unprocessed.smi:2377-4

> <Gold.Version>
5.8.1

> <Gold.Id.Protein>
6NUR|6NUR_protein|mol2

> <Gold.PLP.Fitness>
38.1940

> <Gold.PLP.PLP>
-32.4075

> <Gold.PLP.part.hbond>
-2.5420

> <Gold.PLP.part.metal>
0.0000

> <Gold.PLP.part.buried>
-5.0574

> <Gold.PLP.part.nonpolar>
-25.3510

> <Gold.PLP.part.repulsive>
0.1798

> <Gold.PLP.ligand.clash>
0.0000

> <Gold.PLP.ligand.torsion>
0.1118

> <Gold.PLP.Chemscore.Hbond>
2.0000

> <Gold.PLP.Chemscore.CHOScore>
0.0000

> <Gold.PLP.Chemscore.Metal>
0.0000

> <Gold.Chemscore.Hbonds>
donor molecule, donor type, donor heavy atom, donor atom, acceptor molecule, acceptor atom, score
      L1  H     2    15       P1  8028  1.00
      L1  H     5    19       P1  8028  0.98

> <Gold.PLP.Chemscore.Internal.Correction>
0.0101

> <Gold.Rescore>
     Score         DG    S(hbond)    S(metal)    S(lipo)     H(rot)  DE(clash)    DE(int)     intcor
     16.64     -16.72       1.89        0.00      84.48       1.94       0.04       0.04       ----

> <Gold.Chemscore.Fitness>
16.6398

> <Gold.Chemscore.DG>
-16.7174

> <Gold.Chemscore.ZeroCoef>
-5.4800

> <Gold.Chemscore.Hbond>
1.8891

> <Gold.Chemscore.Metal>
0.0000

> <Gold.Chemscore.Lipo>
84.4844

> <Gold.Chemscore.Internal_Hbond>
0.0000

> <Gold.Chemscore.DEClash>
0.0387

> <Gold.Chemscore.DEInternal>
0.0390

> <Gold.Chemscore.Rot>
1.9363

> <Gold.Chemscore.Internal.Correction>
   9.000000E+99

> <Gold.Chemscore.Hbonds>
donor molecule, donor type, donor heavy atom, donor atom, acceptor molecule, acceptor atom, score
      L1  H     2    15       P1  8028  0.99
      L1  H     5    19       P1  8028  0.51

> <Gold.Chemscore.Hbond.Weighted>
-6.3097

> <Gold.Chemscore.Metal.Weighted>
-0.0000

> <Gold.Chemscore.Lipo.Weighted>
-9.8847

> <Gold.Chemscore.Internal_Hbond.Weighted>
0.0000

> <Gold.Chemscore.DEClash.Weighted>
0.0387

> <Gold.Chemscore.DEInternal.Weighted>
0.0390

> <Gold.Chemscore.Rot.Weighted>
4.9570

> <Gold.Chemscore.Internal.Correction.Weighted>
   9.000000E+99

> <Gold.Protein.RotatedTorsions>
[ 6907 6896 6895 6894 ] final -156.90 input  -60.11 | X-H torsion
[ 7974 7965 7964 7962 ] final  122.07 input  175.53 | X-H torsion
[ 8008 7997 7996 7995 ] final -146.33 input   59.86 | X-H torsion
[ 10167 10162 10161 10158 ] final  112.68 input  -65.29 | X-H torsion
[ 10718 10713 10712 10709 ] final  -82.84 input   66.30 | X-H torsion
[ 10763 10752 10751 10750 ] final   71.95 input  -60.55 | X-H torsion
[ 11005 11000 10999 10996 ] final  155.36 input  -57.11 | X-H torsion

> <Gold.Protein.ActiveResidues>
 VAL166  LYS551  ARG553  GLY616  TRP617  ASP618  TYR619  PRO620  LYS621  CYS622 
 ASP623  PHE694  ASN695  SER759  ASP760  ASP761  ALA762  ILE779  LEU786  VAL792 
 PHE793  MET794  SER795  GLU796  ALA797  LYS798  CYS799  TRP800  GLU811  SER814 

> <Gold.Protein.RotatedAtoms>
  151.2946  133.4149  159.2635 H   0  0  0  0  0  0  0  0  0  0  0  0  # atno 6907 bound_to 6896
  151.0247  134.9496  159.8089 H   0  0  0  0  0  0  0  0  0  0  0  0  # atno 6908 bound_to 6896
  152.5332  134.2909  159.9095 H   0  0  0  0  0  0  0  0  0  0  0  0  # atno 6909 bound_to 6896
  145.1119  139.3447  143.4759 H   0  0  0  0  0  0  0  0  0  0  0  0  # atno 7974 bound_to 7965
  155.5576  140.0622  157.2836 H   0  0  0  0  0  0  0  0  0  0  0  0  # atno 8008 bound_to 7997
  154.4400  140.1891  156.0795 H   0  0  0  0  0  0  0  0  0  0  0  0  # atno 8009 bound_to 7997
  156.0470  140.3289  155.7312 H   0  0  0  0  0  0  0  0  0  0  0  0  # atno 8010 bound_to 7997
  139.6517  144.7128  151.2034 H   0  0  0  0  0  0  0  0  0  0  0  0  # atno 10167 bound_to 10162
  156.0027  130.4647  150.4167 H   0  0  0  0  0  0  0  0  0  0  0  0  # atno 10718 bound_to 10713
  153.0429  135.5118  154.7670 H   0  0  0  0  0  0  0  0  0  0  0  0  # atno 10763 bound_to 10752
  154.6593  135.2936  154.9889 H   0  0  0  0  0  0  0  0  0  0  0  0  # atno 10764 bound_to 10752
  154.0746  135.6673  153.4881 H   0  0  0  0  0  0  0  0  0  0  0  0  # atno 10765 bound_to 10752
  140.1574  134.8633  157.2531 H   0  0  0  0  0  0  0  0  0  0  0  0  # atno 11005 bound_to 11000
  146.3526  140.1042  142.8606 LP  0  0  0  0  0  0  0  0  0  0  0  0  # atno 17320 bound_to 7965
  145.0837  140.9238  143.4810 LP  0  0  0  0  0  0  0  0  0  0  0  0  # atno 17321 bound_to 7965
  140.7541  143.6138  150.8579 LP  0  0  0  0  0  0  0  0  0  0  0  0  # atno 17342 bound_to 10162
  139.9787  143.5975  152.2950 LP  0  0  0  0  0  0  0  0  0  0  0  0  # atno 17343 bound_to 10162
  157.2226  131.0486  151.2538 LP  0  0  0  0  0  0  0  0  0  0  0  0  # atno 17370 bound_to 10713
  157.3786  130.7219  149.6614 LP  0  0  0  0  0  0  0  0  0  0  0  0  # atno 17371 bound_to 10713
  140.2531  134.3660  155.7434 LP  0  0  0  0  0  0  0  0  0  0  0  0  # atno 17394 bound_to 11000
  141.2206  133.7327  156.8965 LP  0  0  0  0  0  0  0  0  0  0  0  0  # atno 17395 bound_to 11000

$$$$
