AV-unprocessed.smi:3057|AV-procd|sdf|11668|dock2
  -GOLD-   2272017 73D 1   1.00000     0.00000
 Structure written by MMmdl.
 41 43  0  0  0  0  0  0  0  0  2 V2000
  150.1980  140.0084  156.9889 C   0  0  0  0  0  0  0  0  0  0  0  0
  150.3828  140.1673  155.4675 C   0  0  2  0  0  0  0  0  0  0  0  0
  149.7368  141.4661  154.9522 C   0  0  0  0  0  0  0  0  0  0  0  0
  148.3445  141.0362  154.4665 C   0  0  0  0  0  0  0  0  0  0  0  0
  148.5398  139.5550  154.1856 C   0  0  0  0  0  0  0  0  0  0  0  0
  147.7729  138.8905  153.4905 O   0  0  0  0  0  0  0  0  0  0  0  0
  149.6799  139.1267  154.7420 N   0  0  0  0  0  0  0  0  0  0  0  0
  150.4075  137.8943  154.4268 C   0  0  2  0  0  0  0  0  0  0  0  0
  149.8403  136.6969  155.2086 C   0  0  0  0  0  0  0  0  0  0  0  0
  149.7518  136.7208  156.4368 O   0  0  0  0  0  0  0  0  0  0  0  0
  149.4798  135.6369  154.4695 N   0  0  0  0  0  0  0  0  0  0  0  0
  148.9292  134.3895  154.9920 C   0  0  0  0  0  0  0  0  0  0  0  0
  149.0240  133.2137  153.9975 C   0  0  0  0  0  0  0  0  0  0  0  0
  147.7791  133.0263  153.1475 C   0  0  0  0  0  0  0  0  0  0  0  0
  147.0795  131.8005  153.1039 C   0  0  0  0  0  0  0  0  0  0  0  0
  145.9351  131.6879  152.2876 C   0  0  0  0  0  0  0  0  0  0  0  0
  145.5128  132.8030  151.5349 C   0  0  0  0  0  0  0  0  0  0  0  0
  146.2466  134.0040  151.6179 C   0  0  0  0  0  0  0  0  0  0  0  0
  147.3389  134.0719  152.4108 N   0  3  0  0  0  0  0  0  0  0  0  0
  151.8806  138.1366  154.8415 C   0  0  0  0  0  0  0  0  0  0  0  0
  152.1019  139.9309  154.9865 S   0  0  0  0  0  0  0  0  0  0  0  0
  149.1456  140.0569  157.2704 H   0  0  0  0  0  0  0  0  0  0  0  0
  150.7199  140.7991  157.5283 H   0  0  0  0  0  0  0  0  0  0  0  0
  150.5906  139.0567  157.3472 H   0  0  0  0  0  0  0  0  0  0  0  0
  149.6874  142.2444  155.7147 H   0  0  0  0  0  0  0  0  0  0  0  0
  150.3040  141.8705  154.1124 H   0  0  0  0  0  0  0  0  0  0  0  0
  147.5930  141.1585  155.2471 H   0  0  0  0  0  0  0  0  0  0  0  0
  148.0260  141.5828  153.5786 H   0  0  0  0  0  0  0  0  0  0  0  0
  150.3474  137.7118  153.3522 H   0  0  0  0  0  0  0  0  0  0  0  0
  149.5830  135.7041  153.4672 H   0  0  0  0  0  0  0  0  0  0  0  0
  149.4144  134.1311  155.9345 H   0  0  0  0  0  0  0  0  0  0  0  0
  147.8817  134.5775  155.2285 H   0  0  0  0  0  0  0  0  0  0  0  0
  149.8788  133.3609  153.3362 H   0  0  0  0  0  0  0  0  0  0  0  0
  149.2258  132.2895  154.5405 H   0  0  0  0  0  0  0  0  0  0  0  0
  147.4182  130.9539  153.6837 H   0  0  0  0  0  0  0  0  0  0  0  0
  145.3886  130.7573  152.2395 H   0  0  0  0  0  0  0  0  0  0  0  0
  144.6383  132.7383  150.9040 H   0  0  0  0  0  0  0  0  0  0  0  0
  145.9946  134.9049  151.0777 H   0  0  0  0  0  0  0  0  0  0  0  0
  152.1089  137.7030  155.8164 H   0  0  0  0  0  0  0  0  0  0  0  0
  152.5849  137.7174  154.1227 H   0  0  0  0  0  0  0  0  0  0  0  0
  147.8543  134.9513  152.4550 H   0  0  0  0  0  0  0  0  0  0  0  0
  1  2  1  0  0  0  0
  1 22  1  0  0  0  0
  1 23  1  0  0  0  0
  1 24  1  0  0  0  0
  2  7  1  0  0  0  0
  2 21  1  0  0  0  0
  2  3  1  0  0  0  0
  3  4  1  0  0  0  0
  3 25  1  0  0  0  0
  3 26  1  0  0  0  0
  4  5  1  0  0  0  0
  4 27  1  0  0  0  0
  4 28  1  0  0  0  0
  5  6  2  0  0  0  0
  5  7  1  0  0  0  0
  7  8  1  0  0  0  0
  8  9  1  0  0  0  0
  8 20  1  0  0  0  0
  8 29  1  0  0  0  0
  9 10  2  0  0  0  0
  9 11  1  0  0  0  0
 11 12  1  0  0  0  0
 11 30  1  0  0  0  0
 12 13  1  0  0  0  0
 12 31  1  0  0  0  0
 12 32  1  0  0  0  0
 13 14  1  0  0  0  0
 13 33  1  0  0  0  0
 13 34  1  0  0  0  0
 14 19  1  0  0  0  0
 14 15  2  0  0  0  0
 15 16  1  0  0  0  0
 15 35  1  0  0  0  0
 16 17  2  0  0  0  0
 16 36  1  0  0  0  0
 17 18  1  0  0  0  0
 17 37  1  0  0  0  0
 18 19  2  0  0  0  0
 18 38  1  0  0  0  0
 19 41  1  0  0  0  0
 20 21  1  0  0  0  0
 20 39  1  0  0  0  0
 20 40  1  0  0  0  0
M  CHG  1  19   1
M  END
> <s_m_source_file>
AV-unprocessed.smi

> <i_m_source_file_index>
3057

> <i_lp_mmshare_version>
43012

> <i_f3d_flags>
0

> <s_epik_input>
W0NIMl0xW0NIMl1DKD1PKU4oW0NAQF0xMltDSDNdKVtDQEhdKFtDSDJdUzIpQyg9TylbTkhdW0NIMl1bQ0gyXWMzW2NIXVtjSF1bY0hdW2NIXW4z

> <s_epik_cmdline>
J2VwaWtfcHl0aG9uJywgJy1waCcsICc3LjAnLCAnLXRuJywgJzgnLCAnLW1hJywgJzIwMCcsICctbWV0YWxfYmluZGluZycsICctaW1hZScsICc8aW5maWxlLm1hZT4nLCAnLW9tYWUnLCAnPG91dGZpbGUubWFlPic=

> <r_epik_Ionization_Penalty>
1.8888

> <r_epik_Ionization_Penalty_Charging>
1.8888

> <r_epik_Ionization_Penalty_Neutral>
1.66252e-07

> <r_epik_State_Penalty>
2.00916

> <r_epik_Charging_Adjusted_Penalty>
3.89796

> <i_epik_Tot_Q>
1

> <i_epik_Tot_abs_Q>
1

> <r_epik_Metal_State_Penalty>
2.03343

> <b_epik_Metal_Only>
0

> <s_lp_Force_Field>
OPLS_2005

> <r_lp_Energy>
33.0381

> <b_lp_Chiralities_Consistent>
1

> <s_lp_Variant>
AV-unprocessed.smi:3057-8

> <Gold.Version>
5.8.1

> <Gold.Id.Protein>
6NUR|6NUR_protein|mol2

> <Gold.PLP.Fitness>
44.5778

> <Gold.PLP.PLP>
-37.1250

> <Gold.PLP.part.hbond>
-2.0000

> <Gold.PLP.part.metal>
0.0000

> <Gold.PLP.part.buried>
-0.1527

> <Gold.PLP.part.nonpolar>
-34.8321

> <Gold.PLP.part.repulsive>
0.3252

> <Gold.PLP.ligand.clash>
0.0000

> <Gold.PLP.ligand.torsion>
0.4025

> <Gold.PLP.Chemscore.Hbond>
2.7440

> <Gold.PLP.Chemscore.CHOScore>
0.0000

> <Gold.PLP.Chemscore.Metal>
0.0000

> <Gold.Chemscore.Hbonds>
donor molecule, donor type, donor heavy atom, donor atom, acceptor molecule, acceptor atom, score
      L1  H    11    30       P1  7948  0.85
      L1  H    19    41       P1  7948  2.00

> <Gold.PLP.Chemscore.Internal.Correction>
0.0258

> <Gold.Rescore>
     Score         DG    S(hbond)    S(metal)    S(lipo)     H(rot)  DE(clash)    DE(int)     intcor
     15.31     -15.86       1.54        0.00      80.30       1.62       0.13       0.42       ----

> <Gold.Chemscore.Fitness>
15.3128

> <Gold.Chemscore.DG>
-15.8637

> <Gold.Chemscore.ZeroCoef>
-5.4800

> <Gold.Chemscore.Hbond>
1.5404

> <Gold.Chemscore.Metal>
0.0000

> <Gold.Chemscore.Lipo>
80.2959

> <Gold.Chemscore.Internal_Hbond>
0.0000

> <Gold.Chemscore.DEClash>
0.1334

> <Gold.Chemscore.DEInternal>
0.4175

> <Gold.Chemscore.Rot>
1.6234

> <Gold.Chemscore.Internal.Correction>
   9.000000E+99

> <Gold.Chemscore.Hbonds>
donor molecule, donor type, donor heavy atom, donor atom, acceptor molecule, acceptor atom, score
      L1  H    11    30       P1  7948  0.14
      L1  H    19    41       P1  7948  0.88

> <Gold.Chemscore.Hbond.Weighted>
-5.1449

> <Gold.Chemscore.Metal.Weighted>
-0.0000

> <Gold.Chemscore.Lipo.Weighted>
-9.3946

> <Gold.Chemscore.Internal_Hbond.Weighted>
0.0000

> <Gold.Chemscore.DEClash.Weighted>
0.1334

> <Gold.Chemscore.DEInternal.Weighted>
0.4175

> <Gold.Chemscore.Rot.Weighted>
4.1558

> <Gold.Chemscore.Internal.Correction.Weighted>
   9.000000E+99

> <Gold.Protein.RotatedTorsions>
[ 6907 6896 6895 6894 ] final -138.37 input  -60.11 | X-H torsion
[ 7974 7965 7964 7962 ] final -100.58 input  175.53 | X-H torsion
[ 8008 7997 7996 7995 ] final -128.02 input   59.86 | X-H torsion
[ 10167 10162 10161 10158 ] final  111.72 input  -65.29 | X-H torsion
[ 10718 10713 10712 10709 ] final  -29.80 input   66.30 | X-H torsion
[ 10763 10752 10751 10750 ] final  175.46 input  -60.55 | X-H torsion
[ 11005 11000 10999 10996 ] final    9.56 input  -57.11 | X-H torsion

> <Gold.Protein.ActiveResidues>
 VAL166  LYS551  ARG553  GLY616  TRP617  ASP618  TYR619  PRO620  LYS621  CYS622 
 ASP623  PHE694  ASN695  SER759  ASP760  ASP761  ALA762  ILE779  LEU786  VAL792 
 PHE793  MET794  SER795  GLU796  ALA797  LYS798  CYS799  TRP800  GLU811  SER814 

> <Gold.Protein.RotatedAtoms>
  151.0342  133.5764  159.2657 H   0  0  0  0  0  0  0  0  0  0  0  0  # atno 6907 bound_to 6896
  151.2834  135.0720  159.9187 H   0  0  0  0  0  0  0  0  0  0  0  0  # atno 6908 bound_to 6896
  152.5351  134.0052  159.7967 H   0  0  0  0  0  0  0  0  0  0  0  0  # atno 6909 bound_to 6896
  145.2928  140.9357  143.2868 H   0  0  0  0  0  0  0  0  0  0  0  0  # atno 7974 bound_to 7965
  155.2558  140.0434  157.2992 H   0  0  0  0  0  0  0  0  0  0  0  0  # atno 8008 bound_to 7997
  154.5741  140.2382  155.8118 H   0  0  0  0  0  0  0  0  0  0  0  0  # atno 8009 bound_to 7997
  156.2144  140.2989  155.9814 H   0  0  0  0  0  0  0  0  0  0  0  0  # atno 8010 bound_to 7997
  139.6590  144.7129  151.1901 H   0  0  0  0  0  0  0  0  0  0  0  0  # atno 10167 bound_to 10162
  156.4078  130.4402  149.7274 H   0  0  0  0  0  0  0  0  0  0  0  0  # atno 10718 bound_to 10713
  154.4678  135.2770  155.1665 H   0  0  0  0  0  0  0  0  0  0  0  0  # atno 10763 bound_to 10752
  154.3426  135.6167  153.5607 H   0  0  0  0  0  0  0  0  0  0  0  0  # atno 10764 bound_to 10752
  152.9861  135.5792  154.5054 H   0  0  0  0  0  0  0  0  0  0  0  0  # atno 10765 bound_to 10752
  140.5243  134.0528  155.7854 H   0  0  0  0  0  0  0  0  0  0  0  0  # atno 11005 bound_to 11000
  144.9159  139.4471  143.6565 LP  0  0  0  0  0  0  0  0  0  0  0  0  # atno 17320 bound_to 7965
  146.3179  139.7992  142.8969 LP  0  0  0  0  0  0  0  0  0  0  0  0  # atno 17321 bound_to 7965
  140.7572  143.6025  150.8685 LP  0  0  0  0  0  0  0  0  0  0  0  0  # atno 17342 bound_to 10162
  139.9681  143.6088  152.2982 LP  0  0  0  0  0  0  0  0  0  0  0  0  # atno 17343 bound_to 10162
  156.4265  130.7794  151.2813 LP  0  0  0  0  0  0  0  0  0  0  0  0  # atno 17370 bound_to 10713
  157.7506  131.0167  150.3555 LP  0  0  0  0  0  0  0  0  0  0  0  0  # atno 17371 bound_to 10713
  141.1316  133.9291  157.2522 LP  0  0  0  0  0  0  0  0  0  0  0  0  # atno 17394 bound_to 11000
  139.9588  135.0159  156.9204 LP  0  0  0  0  0  0  0  0  0  0  0  0  # atno 17395 bound_to 11000

$$$$
