#       Name:                AV-unprocessed.smi:234
#       Creating user name   scv26
#       Creation time:       Thu Mar 26 20:35:22 2020


#       File generated by GOLD software.
#

@<TRIPOS>MOLECULE
AV-unprocessed.smi:234
    69    72     1
SMALL
NO_CHARGES


@<TRIPOS>ATOM
      1 ****        -5.5816  -0.7396   1.4850 C.3            1 S1                 0.0000
      2 ****        -4.2976  -0.1546   0.8825 C.3            1 S1                 0.0000
      3 ****        -3.3738   0.2091   1.8987 O.3            1 S1                 0.0000
      4 ****        -2.5967  -0.8752   2.3983 C.3            1 S1                 0.0000
      5 ****        -1.3558  -1.1308   1.5355 C.3            1 S1                 0.0000
      6 ****        -0.6478  -0.1022   2.4263 C.3            1 S1                 0.0000
      7 ****         0.7496  -0.4182   2.7269 N.3            1 S1                 0.0000
      8 ****         1.4206   0.4632   3.6728 C.3            1 S1                 0.0000
      9 ****         1.5169  -0.6310   1.6356 C.ar           1 S1                 0.0000
     10 ****         2.1856  -1.8081   1.5669 N.ar           1 S1                 0.0000
     11 ****         2.9472  -2.0805   0.5028 C.ar           1 S1                 0.0000
     12 ****         3.1731  -1.3295  -0.5776 N.ar           1 S1                 0.0000
     13 ****         2.5063  -0.1415  -0.5062 C.ar           1 S1                 0.0000
     14 ****         1.6683   0.2891   0.5600 C.ar           1 S1                 0.0000
     15 ****         1.1740   1.5597   0.2925 N.2            1 S1                 0.0000
     16 ****         1.6853   1.8607  -0.8693 C.2            1 S1                 0.0000
     17 ****         2.4840   0.8891  -1.4302 N.pl3          1 S1                 0.0000
     18 ****         3.1605   0.9537  -2.7168 C.3            1 S1                 0.0000
     19 ****         2.3375   0.3474  -3.8811 C.3            1 S1                 0.0000
     20 ****         2.1916  -1.0430  -3.6472 O.3            1 S1                 0.0000
     21 ****         3.0335   0.5323  -5.2335 C.3            1 S1                 0.0000
     22 ****         2.1664   1.5552  -5.9574 C.3            1 S1                 0.0000
     23 ****         0.8651   1.2473  -5.4911 O.3            1 S1                 0.0000
     24 ****         0.9635   1.0386  -4.0895 C.3            1 S1                 0.0000
     25 ****        -0.2796   0.2994  -3.5663 C.3            1 S1                 0.0000
     26 ****        -1.6543  -0.4509   3.5548 C.3            1 S1                 0.0000
     27 ****        -2.1354   0.7133   4.4245 C.3            1 S1                 0.0000
     28 ****        -1.2871  -1.5970   4.5123 C.3            1 S1                 0.0000
     29 ****        -6.3101  -0.9562   0.7036 H              1 S1                 0.0000
     30 ****        -6.0399  -0.0365   2.1806 H              1 S1                 0.0000
     31 ****        -5.3924  -1.6679   2.0228 H              1 S1                 0.0000
     32 ****        -3.8500  -0.8453   0.1667 H              1 S1                 0.0000
     33 ****        -4.5490   0.7485   0.3266 H              1 S1                 0.0000
     34 ****        -3.1788  -1.7695   2.6233 H              1 S1                 0.0000
     35 ****        -0.9704  -2.1467   1.6362 H              1 S1                 0.0000
     36 ****        -1.4424  -0.8363   0.4895 H              1 S1                 0.0000
     37 ****        -0.7975   0.9148   2.0589 H              1 S1                 0.0000
     38 ****         2.4452   0.1361   3.8546 H              1 S1                 0.0000
     39 ****         0.9014   0.4700   4.6301 H              1 S1                 0.0000
     40 ****         1.4481   1.4865   3.2964 H              1 S1                 0.0000
     41 ****         3.4444  -3.0390   0.5174 H              1 S1                 0.0000
     42 ****         1.4836   2.8040  -1.3557 H              1 S1                 0.0000
     43 ****         3.3881   1.9999  -2.9257 H              1 S1                 0.0000
     44 ****         4.1219   0.4459  -2.6259 H              1 S1                 0.0000
     45 ****         1.6880  -1.4139  -4.3556 H              1 S1                 0.0000
     46 ****         4.0710   0.8578  -5.1488 H              1 S1                 0.0000
     47 ****         3.0319  -0.3967  -5.8064 H              1 S1                 0.0000
     48 ****         2.4330   2.5724  -5.6659 H              1 S1                 0.0000
     49 ****         2.2363   1.4764  -7.0424 H              1 S1                 0.0000
     50 ****         0.9891   2.0330  -3.6418 H              1 S1                 0.0000
     51 ****        -0.2035   0.1060  -2.4958 H              1 S1                 0.0000
     52 ****        -0.4221  -0.6556  -4.0725 H              1 S1                 0.0000
     53 ****        -1.1783   0.8940  -3.7309 H              1 S1                 0.0000
     54 ****        -1.3982   0.9850   5.1802 H              1 S1                 0.0000
     55 ****        -3.0622   0.4655   4.9426 H              1 S1                 0.0000
     56 ****        -2.3254   1.6080   3.8314 H              1 S1                 0.0000
     57 ****        -0.5265  -1.2975   5.2333 H              1 S1                 0.0000
     58 ****        -0.8997  -2.4674   3.9828 H              1 S1                 0.0000
     59 ****        -2.1562  -1.9306   5.0799 H              1 S1                 0.0000
     60 ****        -3.8861   0.6048   2.6609 LP             1 S1                 0.0000
     61 ****        -2.7501   0.8953   1.5243 LP             1 S1                 0.0000
     62 ****         0.6522  -1.2909   3.2055 LP             1 S1                 0.0000
     63 ****         2.1093  -2.4716   2.3112 LP             1 S1                 0.0000
     64 ****         3.7569  -1.6030  -1.3420 LP             1 S1                 0.0000
     65 ****         0.5663   2.1154   0.8599 LP             1 S1                 0.0000
     66 ****         1.7153  -1.1914  -2.7805 LP             1 S1                 0.0000
     67 ****         3.0925  -1.4756  -3.6107 LP             1 S1                 0.0000
     68 ****         0.5272   0.4193  -5.9385 LP             1 S1                 0.0000
     69 ****         0.2434   2.0068  -5.6822 LP             1 S1                 0.0000
@<TRIPOS>BOND
    1    1    2 1     
    2    1   29 1     
    3    1   30 1     
    4    1   31 1     
    5    2    3 1     
    6    2   32 1     
    7    2   33 1     
    8    3    4 1     
    9    4   26 1     
   10    4    5 1     
   11    4   34 1     
   12    5    6 1     
   13    5   35 1     
   14    5   36 1     
   15    6    7 1     
   16    6   26 1     
   17    6   37 1     
   18    7    8 1     
   19    7    9 1     
   20    8   38 1     
   21    8   39 1     
   22    8   40 1     
   23    9   14 ar    
   24    9   10 ar    
   25   10   11 ar    
   26   11   12 ar    
   27   11   41 1     
   28   12   13 ar    
   29   13   17 1     
   30   13   14 ar    
   31   14   15 1     
   32   15   16 2     
   33   16   17 1     
   34   16   42 1     
   35   17   18 1     
   36   18   19 1     
   37   18   43 1     
   38   18   44 1     
   39   19   24 1     
   40   19   20 1     
   41   19   21 1     
   42   20   45 1     
   43   21   22 1     
   44   21   46 1     
   45   21   47 1     
   46   22   23 1     
   47   22   48 1     
   48   22   49 1     
   49   23   24 1     
   50   24   25 1     
   51   24   50 1     
   52   25   51 1     
   53   25   52 1     
   54   25   53 1     
   55   26   27 1     
   56   26   28 1     
   57   27   54 1     
   58   27   55 1     
   59   27   56 1     
   60   28   57 1     
   61   28   58 1     
   62   28   59 1     
   63    3   60 1     
   64    3   61 1     
   65    7   62 1     
   66   10   63 1     
   67   12   64 1     
   68   15   65 1     
   69   20   66 1     
   70   20   67 1     
   71   23   68 1     
   72   23   69 1     
@<TRIPOS>SUBSTRUCTURE
      1 S1             1
@<TRIPOS>SET
LONE_PAIRS      STATIC     ATOMS    <user>   **** ""
10 60 61 62 63 64 65 66 67 68 69
DONOR_HYDROGENS      STATIC     ATOMS    <user>   **** ""
1 45
ATOM$BLUE        STATIC     ATOMS    COLORGROUP SYSTEM
10 60 61 62 63 64 65 66 67 68 69
ATOM$RED        STATIC     ATOMS    COLORGROUP SYSTEM
1 45
