AV-unprocessed.smi:103|AV-procd|sdf|980|dock6
  -GOLD-   2262017543D 1   1.00000     0.00000
 Structure written by MMmdl.
 53 55  0  0  0  0  0  0  0  0  1 V2000
  152.7178  141.4437  160.0460 C   0  0  0  0  0  0  0  0  0  0  0  0
  153.3755  140.1847  159.4964 C   0  0  0  0  0  0  0  0  0  0  0  0
  154.5524  140.1787  159.1359 O   0  0  0  0  0  0  0  0  0  0  0  0
  152.5363  139.1387  159.4660 O   0  0  0  0  0  0  0  0  0  0  0  0
  152.9855  137.8969  158.9495 C   0  0  0  0  0  0  0  0  0  0  0  0
  151.8211  137.1799  158.2528 C   0  0  1  0  0  0  0  0  0  0  0  0
  150.7413  136.9421  159.1559 O   0  0  0  0  0  0  0  0  0  0  0  0
  149.5247  137.0005  158.4719 C   0  0  2  0  0  0  0  0  0  0  0  0
  148.7910  135.7088  158.6686 N   0  0  0  0  0  0  0  0  0  0  0  0
  147.9731  135.3044  159.7076 C   0  0  0  0  0  0  0  0  0  0  0  0
  147.5125  136.2608  161.1507 S   0  0  0  0  0  0  0  0  0  0  0  0
  146.8013  134.9769  162.2581 C   0  0  0  0  0  0  0  0  0  0  0  0
  148.7595  136.7689  161.7442 O   0  0  0  0  0  0  0  0  0  0  0  0
  146.4518  137.1920  160.7367 O   0  0  0  0  0  0  0  0  0  0  0  0
  147.4204  134.1274  159.5934 N   0  0  0  0  0  0  0  0  0  0  0  0
  147.9492  133.6434  158.4066 C   0  0  0  0  0  0  0  0  0  0  0  0
  147.8061  132.4296  157.6881 C   0  0  0  0  0  0  0  0  0  0  0  0
  147.0267  131.4217  158.1032 N   0  0  0  0  0  0  0  0  0  0  0  0
  148.4893  132.2795  156.5297 N   0  0  0  0  0  0  0  0  0  0  0  0
  149.2748  133.2700  156.0956 C   0  0  0  0  0  0  0  0  0  0  0  0
  149.5047  134.4601  156.6563 N   0  0  0  0  0  0  0  0  0  0  0  0
  148.8152  134.6134  157.8252 C   0  0  0  0  0  0  0  0  0  0  0  0
  149.8408  137.2489  156.9952 C   0  0  1  0  0  0  0  0  0  0  0  0
  148.8242  138.0258  156.3763 O   0  0  0  0  0  0  0  0  0  0  0  0
  148.9230  138.3555  155.0788 C   0  0  0  0  0  0  0  0  0  0  0  0
  147.6726  139.0553  154.5640 C   0  0  0  0  0  0  0  0  0  0  0  0
  149.8915  138.1456  154.3490 O   0  0  0  0  0  0  0  0  0  0  0  0
  151.1838  137.9573  157.0969 C   0  0  1  0  0  0  0  0  0  0  0  0
  151.0330  139.3275  157.4688 O   0  0  0  0  0  0  0  0  0  0  0  0
  151.0767  140.3008  156.5414 C   0  0  0  0  0  0  0  0  0  0  0  0
  150.8793  141.6841  157.1457 C   0  0  0  0  0  0  0  0  0  0  0  0
  151.2442  140.1456  155.3320 O   0  0  0  0  0  0  0  0  0  0  0  0
  151.7303  141.5817  159.6050 H   0  0  0  0  0  0  0  0  0  0  0  0
  153.3231  142.3213  159.8176 H   0  0  0  0  0  0  0  0  0  0  0  0
  152.6082  141.3711  161.1279 H   0  0  0  0  0  0  0  0  0  0  0  0
  153.8163  138.0454  158.2581 H   0  0  0  0  0  0  0  0  0  0  0  0
  153.3503  137.2851  159.7760 H   0  0  0  0  0  0  0  0  0  0  0  0
  152.1666  136.2208  157.8653 H   0  0  0  0  0  0  0  0  0  0  0  0
  148.9070  137.7831  158.9040 H   0  0  0  0  0  0  0  0  0  0  0  0
  146.5189  135.4338  163.2063 H   0  0  0  0  0  0  0  0  0  0  0  0
  147.5438  134.1993  162.4364 H   0  0  0  0  0  0  0  0  0  0  0  0
  145.9200  134.5385  161.7942 H   0  0  0  0  0  0  0  0  0  0  0  0
  146.5081  131.5097  158.9654 H   0  0  0  0  0  0  0  0  0  0  0  0
  146.9625  130.5756  157.5559 H   0  0  0  0  0  0  0  0  0  0  0  0
  149.7910  133.0835  155.1654 H   0  0  0  0  0  0  0  0  0  0  0  0
  149.9693  136.2896  156.4935 H   0  0  0  0  0  0  0  0  0  0  0  0
  146.8324  138.3612  154.5447 H   0  0  0  0  0  0  0  0  0  0  0  0
  147.8334  139.4337  153.5543 H   0  0  0  0  0  0  0  0  0  0  0  0
  147.4161  139.8949  155.2102 H   0  0  0  0  0  0  0  0  0  0  0  0
  151.7723  137.8507  156.1847 H   0  0  0  0  0  0  0  0  0  0  0  0
  149.9235  141.7359  157.6674 H   0  0  0  0  0  0  0  0  0  0  0  0
  150.8903  142.4477  156.3676 H   0  0  0  0  0  0  0  0  0  0  0  0
  151.6755  141.9035  157.8571 H   0  0  0  0  0  0  0  0  0  0  0  0
  1  2  1  0  0  0  0
  1 33  1  0  0  0  0
  1 34  1  0  0  0  0
  1 35  1  0  0  0  0
  2  3  2  0  0  0  0
  2  4  1  0  0  0  0
  4  5  1  0  0  0  0
  5  6  1  0  0  0  0
  5 36  1  0  0  0  0
  5 37  1  0  0  0  0
  6 28  1  0  0  0  0
  6  7  1  0  0  0  0
  6 38  1  0  0  0  0
  7  8  1  0  0  0  0
  8  9  1  0  0  0  0
  8 23  1  0  0  0  0
  8 39  1  0  0  0  0
  9 22  1  0  0  0  0
  9 10  1  0  0  0  0
 10 11  1  0  0  0  0
 10 15  2  0  0  0  0
 11 12  1  0  0  0  0
 11 13  2  0  0  0  0
 11 14  2  0  0  0  0
 12 40  1  0  0  0  0
 12 41  1  0  0  0  0
 12 42  1  0  0  0  0
 15 16  1  0  0  0  0
 16 22  2  0  0  0  0
 16 17  1  0  0  0  0
 17 18  1  0  0  0  0
 17 19  2  0  0  0  0
 18 43  1  0  0  0  0
 18 44  1  0  0  0  0
 19 20  1  0  0  0  0
 20 21  2  0  0  0  0
 20 45  1  0  0  0  0
 21 22  1  0  0  0  0
 23 24  1  0  0  0  0
 23 28  1  0  0  0  0
 23 46  1  0  0  0  0
 24 25  1  0  0  0  0
 25 26  1  0  0  0  0
 25 27  2  0  0  0  0
 26 47  1  0  0  0  0
 26 48  1  0  0  0  0
 26 49  1  0  0  0  0
 28 29  1  0  0  0  0
 28 50  1  0  0  0  0
 29 30  1  0  0  0  0
 30 31  1  0  0  0  0
 30 32  2  0  0  0  0
 31 51  1  0  0  0  0
 31 52  1  0  0  0  0
 31 53  1  0  0  0  0
M  END
> <s_m_source_file>
AV-unprocessed.smi

> <i_m_source_file_index>
103

> <i_lp_mmshare_version>
43012

> <i_f3d_flags>
0

> <s_epik_input>
W0NIM11DKD1PKU9bQ0gyXVtDQEBIXTFPW0NASF0oW0NAQEhdKE9DKD1PKVtDSDNdKVtDQEhdMU9DKD1PKVtDSDNdKW4oYyhuMilTKD1PKSg9TylbQ0gzXSljKGMyMyluW2NIXW5jM1tOSDJd

> <s_epik_cmdline>
J2VwaWtfcHl0aG9uJywgJy1waCcsICc3LjAnLCAnLXRuJywgJzgnLCAnLW1hJywgJzIwMCcsICctbWV0YWxfYmluZGluZycsICctaW1hZScsICc8aW5maWxlLm1hZT4nLCAnLW9tYWUnLCAnPG91dGZpbGUubWFlPic=

> <r_lp_tautomer_probability>
1

> <r_epik_Ionization_Penalty>
1.51338e-05

> <r_epik_Ionization_Penalty_Charging>
0

> <r_epik_Ionization_Penalty_Neutral>
1.51338e-05

> <r_epik_State_Penalty>
-0

> <r_epik_Charging_Adjusted_Penalty>
0

> <i_epik_Tot_Q>
0

> <i_epik_Tot_abs_Q>
0

> <r_epik_Metal_State_Penalty>
-0

> <b_epik_Metal_Only>
0

> <s_epik_Chemistry_Notes>
This compound has an ester and may undergo hydrolysis at high or low pH. This compound contains an acetal/aminal-like group ( X-CH(R)-Y where X, Y are N, S, or O) that may be acid/base labile, releasing an aldehyde.

> <s_lp_Force_Field>
OPLS_2005

> <r_lp_Energy>
20.0914

> <b_lp_Chiralities_Consistent>
1

> <s_lp_Variant>
AV-unprocessed.smi:103-4

> <Gold.Version>
5.8.1

> <Gold.Id.Protein>
6NUR|6NUR_protein|mol2

> <Gold.PLP.Fitness>
42.8312

> <Gold.PLP.PLP>
-30.5364

> <Gold.PLP.part.hbond>
-4.9905

> <Gold.PLP.part.metal>
0.0000

> <Gold.PLP.part.buried>
-6.0150

> <Gold.PLP.part.nonpolar>
-21.2160

> <Gold.PLP.part.repulsive>
0.2532

> <Gold.PLP.ligand.clash>
0.0000

> <Gold.PLP.ligand.torsion>
2.6384

> <Gold.PLP.Chemscore.Hbond>
4.9833

> <Gold.PLP.Chemscore.CHOScore>
0.0000

> <Gold.PLP.Chemscore.Metal>
0.0000

> <Gold.Chemscore.Hbonds>
donor molecule, donor type, donor heavy atom, donor atom, acceptor molecule, acceptor atom, score
      P1  H  6896  6908       L1     7  1.00
      P1  H  6931  6943       L1    13  0.94
      P1  H  6934  6947       L1    14  1.00
      P1  H  7989  7998       L1    32  1.00
      P1  H  7997  8008       L1     3  0.94

> <Gold.PLP.Chemscore.Internal.Correction>
2.6219

> <Gold.Rescore>
     Score         DG    S(hbond)    S(metal)    S(lipo)     H(rot)  DE(clash)    DE(int)     intcor
      6.21     -13.01       3.97        0.00      43.77       4.25       0.79       6.00       ----

> <Gold.Chemscore.Fitness>
6.2147

> <Gold.Chemscore.DG>
-13.0065

> <Gold.Chemscore.ZeroCoef>
-5.4800

> <Gold.Chemscore.Hbond>
3.9742

> <Gold.Chemscore.Metal>
0.0000

> <Gold.Chemscore.Lipo>
43.7727

> <Gold.Chemscore.Internal_Hbond>
0.0000

> <Gold.Chemscore.DEClash>
0.7911

> <Gold.Chemscore.DEInternal>
6.0006

> <Gold.Chemscore.Rot>
4.2456

> <Gold.Chemscore.Internal.Correction>
   9.000000E+99

> <Gold.Chemscore.Hbonds>
donor molecule, donor type, donor heavy atom, donor atom, acceptor molecule, acceptor atom, score
      P1  H  6896  6908       L1     7  0.28
      P1  H  6931  6943       L1    13  0.90
      P1  H  6934  6947       L1    14  0.64
      P1  H  7989  7998       L1    32  0.94
      P1  H  7997  8008       L1     3  0.90

> <Gold.Chemscore.Hbond.Weighted>
-13.2737

> <Gold.Chemscore.Metal.Weighted>
-0.0000

> <Gold.Chemscore.Lipo.Weighted>
-5.1214

> <Gold.Chemscore.Internal_Hbond.Weighted>
0.0000

> <Gold.Chemscore.DEClash.Weighted>
0.7911

> <Gold.Chemscore.DEInternal.Weighted>
6.0006

> <Gold.Chemscore.Rot.Weighted>
10.8687

> <Gold.Chemscore.Internal.Correction.Weighted>
   9.000000E+99

> <Gold.Protein.RotatedTorsions>
[ 6907 6896 6895 6894 ] final -144.59 input  -60.11 | X-H torsion
[ 7974 7965 7964 7962 ] final -112.39 input  175.53 | X-H torsion
[ 8008 7997 7996 7995 ] final -119.83 input   59.86 | X-H torsion
[ 10167 10162 10161 10158 ] final  110.55 input  -65.29 | X-H torsion
[ 10718 10713 10712 10709 ] final    3.59 input   66.30 | X-H torsion
[ 10763 10752 10751 10750 ] final -173.63 input  -60.55 | X-H torsion
[ 11005 11000 10999 10996 ] final -117.26 input  -57.11 | X-H torsion

> <Gold.Protein.ActiveResidues>
 VAL166  LYS551  ARG553  GLY616  TRP617  ASP618  TYR619  PRO620  LYS621  CYS622 
 ASP623  PHE694  ASN695  SER759  ASP760  ASP761  ALA762  ILE779  LEU786  VAL792 
 PHE793  MET794  SER795  GLU796  ALA797  LYS798  CYS799  TRP800  GLU811  SER814 

> <Gold.Protein.RotatedAtoms>
  151.1161  133.5137  159.2603 H   0  0  0  0  0  0  0  0  0  0  0  0  # atno 6907 bound_to 6896
  151.1913  135.0403  159.8843 H   0  0  0  0  0  0  0  0  0  0  0  0  # atno 6908 bound_to 6896
  152.5453  134.1001  159.8367 H   0  0  0  0  0  0  0  0  0  0  0  0  # atno 6909 bound_to 6896
  145.1446  140.8796  143.3682 H   0  0  0  0  0  0  0  0  0  0  0  0  # atno 7974 bound_to 7965
  155.1221  140.0399  157.2752 H   0  0  0  0  0  0  0  0  0  0  0  0  # atno 8008 bound_to 7997
  154.6606  140.2590  155.7087 H   0  0  0  0  0  0  0  0  0  0  0  0  # atno 8009 bound_to 7997
  156.2617  140.2818  156.1076 H   0  0  0  0  0  0  0  0  0  0  0  0  # atno 8010 bound_to 7997
  139.6679  144.7126  151.1741 H   0  0  0  0  0  0  0  0  0  0  0  0  # atno 10167 bound_to 10162
  156.8800  130.5650  149.5653 H   0  0  0  0  0  0  0  0  0  0  0  0  # atno 10718 bound_to 10713
  154.6056  135.2859  155.0488 H   0  0  0  0  0  0  0  0  0  0  0  0  # atno 10763 bound_to 10752
  154.1737  135.6468  153.5020 H   0  0  0  0  0  0  0  0  0  0  0  0  # atno 10764 bound_to 10752
  153.0174  135.5407  154.6791 H   0  0  0  0  0  0  0  0  0  0  0  0  # atno 10765 bound_to 10752
  141.0367  133.9899  157.3060 H   0  0  0  0  0  0  0  0  0  0  0  0  # atno 11005 bound_to 11000
  145.0495  139.3193  143.5935 LP  0  0  0  0  0  0  0  0  0  0  0  0  # atno 17320 bound_to 7965
  146.3501  139.9898  142.8687 LP  0  0  0  0  0  0  0  0  0  0  0  0  # atno 17321 bound_to 7965
  140.7607  143.5889  150.8816 LP  0  0  0  0  0  0  0  0  0  0  0  0  # atno 17342 bound_to 10162
  139.9552  143.6226  152.3018 LP  0  0  0  0  0  0  0  0  0  0  0  0  # atno 17343 bound_to 10162
  156.0682  130.5720  150.9330 LP  0  0  0  0  0  0  0  0  0  0  0  0  # atno 17370 bound_to 10713
  157.6145  131.0934  150.8734 LP  0  0  0  0  0  0  0  0  0  0  0  0  # atno 17371 bound_to 10713
  139.9245  135.0201  156.8186 LP  0  0  0  0  0  0  0  0  0  0  0  0  # atno 17394 bound_to 11000
  140.6310  133.9906  155.7662 LP  0  0  0  0  0  0  0  0  0  0  0  0  # atno 17395 bound_to 11000

$$$$
