#       Name:                AV-unprocessed.smi:283
#       Creating user name   scv26
#       Creation time:       Thu Mar 26 21:50:19 2020


#       File generated by GOLD software.
#

@<TRIPOS>MOLECULE
AV-unprocessed.smi:283
    59    62     1
SMALL
NO_CHARGES


@<TRIPOS>ATOM
      1 ****        -3.9542   0.6652   2.1932 C.3            1 S1                 0.0000
      2 ****        -3.5470   0.7735   0.7126 C.3            1 S1                 0.0000
      3 ****        -2.3236   0.0189   0.4425 N.pl3          1 S1                 0.0000
      4 ****        -1.1078   0.4728   0.8197 C.ar           1 S1                 0.0000
      5 ****        -0.9543   1.6938   1.3953 N.ar           1 S1                 0.0000
      6 ****         0.2614   2.1154   1.7557 C.ar           1 S1                 0.0000
      7 ****         1.4338   1.4905   1.6250 N.ar           1 S1                 0.0000
      8 ****         1.2865   0.2680   1.0369 C.ar           1 S1                 0.0000
      9 ****         0.0573  -0.3107   0.6160 C.ar           1 S1                 0.0000
     10 ****         0.2900  -1.5708   0.0822 N.2            1 S1                 0.0000
     11 ****         1.5822  -1.7252   0.1901 C.2            1 S1                 0.0000
     12 ****         2.2660  -0.6516   0.7235 N.pl3          1 S1                 0.0000
     13 ****         3.7335  -0.5081   0.9996 C.3            1 S1                 0.0000
     14 ****         4.3897  -1.6044   0.4298 O.3            1 S1                 0.0000
     15 ****         5.0681  -1.2346  -0.7692 C.3            1 S1                 0.0000
     16 ****         4.1496  -1.4306  -1.9913 C.3            1 S1                 0.0000
     17 ****         4.8788  -1.2589  -3.1878 O.3            1 S1                 0.0000
     18 ****         5.4571   0.2238  -0.5151 C.3            1 S1                 0.0000
     19 ****         6.7023   0.2455   0.1626 O.3            1 S1                 0.0000
     20 ****         4.3022   0.7593   0.3298 C.3            1 S1                 0.0000
     21 ****         4.7334   1.7379   1.2568 O.3            1 S1                 0.0000
     22 ****        -4.7093   0.3422  -0.1801 C.ar           1 S1                 0.0000
     23 ****        -4.8743  -1.0231  -0.5131 C.ar           1 S1                 0.0000
     24 ****        -5.9435  -1.4399  -1.3282 C.ar           1 S1                 0.0000
     25 ****        -6.8645  -0.4962  -1.8163 C.ar           1 S1                 0.0000
     26 ****        -6.7180   0.8626  -1.4822 C.ar           1 S1                 0.0000
     27 ****        -5.6507   1.2859  -0.6648 C.ar           1 S1                 0.0000
     28 ****        -5.5352   2.9663  -0.2724 Cl             1 S1                 0.0000
     29 ****         3.8114  -0.5237   2.0874 H              1 S1                 0.0000
     30 ****         5.9453  -1.8730  -0.8878 H              1 S1                 0.0000
     31 ****         5.5741   0.7890  -1.4403 H              1 S1                 0.0000
     32 ****         3.5501   1.1943  -0.3302 H              1 S1                 0.0000
     33 ****        -4.8409   1.2658   2.3981 H              1 S1                 0.0000
     34 ****        -3.1663   1.0159   2.8590 H              1 S1                 0.0000
     35 ****        -4.1825  -0.3655   2.4663 H              1 S1                 0.0000
     36 ****        -3.3293   1.8166   0.4871 H              1 S1                 0.0000
     37 ****        -2.4555  -0.8748  -0.0087 H              1 S1                 0.0000
     38 ****         0.3008   3.0939   2.2111 H              1 S1                 0.0000
     39 ****         2.0701  -2.6355  -0.1261 H              1 S1                 0.0000
     40 ****         3.7381  -2.4399  -1.9907 H              1 S1                 0.0000
     41 ****         3.3085  -0.7369  -1.9795 H              1 S1                 0.0000
     42 ****         4.2976  -1.4069  -3.9183 H              1 S1                 0.0000
     43 ****         6.9414   1.1466   0.3176 H              1 S1                 0.0000
     44 ****         5.3857   1.3474   1.8183 H              1 S1                 0.0000
     45 ****        -4.1831  -1.7651  -0.1411 H              1 S1                 0.0000
     46 ****        -6.0579  -2.4848  -1.5769 H              1 S1                 0.0000
     47 ****        -7.6852  -0.8140  -2.4422 H              1 S1                 0.0000
     48 ****        -7.4311   1.5840  -1.8535 H              1 S1                 0.0000
     49 ****        -1.7516   2.2774   1.5494 LP             1 S1                 0.0000
     50 ****         2.3101   1.8706   1.9210 LP             1 S1                 0.0000
     51 ****        -0.3773  -2.2118  -0.2971 LP             1 S1                 0.0000
     52 ****         3.7168  -2.3133   0.2183 LP             1 S1                 0.0000
     53 ****         5.0559  -1.9619   1.0843 LP             1 S1                 0.0000
     54 ****         5.6336  -1.9141  -3.2195 LP             1 S1                 0.0000
     55 ****         5.2430  -0.3286  -3.2300 LP             1 S1                 0.0000
     56 ****         7.4007  -0.1975  -0.3996 LP             1 S1                 0.0000
     57 ****         6.6208  -0.2372   1.0346 LP             1 S1                 0.0000
     58 ****         3.9574   2.0492   1.8054 LP             1 S1                 0.0000
     59 ****         5.1294   2.5153   0.7682 LP             1 S1                 0.0000
@<TRIPOS>BOND
    1    1    2 1     
    2    1   33 1     
    3    1   34 1     
    4    1   35 1     
    5    2    3 1     
    6    2   22 1     
    7    2   36 1     
    8    3    4 1     
    9    3   37 1     
   10    4    9 ar    
   11    4    5 ar    
   12    5    6 ar    
   13    6    7 ar    
   14    6   38 1     
   15    7    8 ar    
   16    8   12 1     
   17    8    9 ar    
   18    9   10 1     
   19   10   11 2     
   20   11   12 1     
   21   11   39 1     
   22   12   13 1     
   23   13   29 1     
   24   13   20 1     
   25   13   14 1     
   26   14   15 1     
   27   15   30 1     
   28   15   16 1     
   29   15   18 1     
   30   16   17 1     
   31   16   40 1     
   32   16   41 1     
   33   17   42 1     
   34   18   31 1     
   35   18   19 1     
   36   18   20 1     
   37   19   43 1     
   38   20   32 1     
   39   20   21 1     
   40   21   44 1     
   41   22   27 ar    
   42   22   23 ar    
   43   23   24 ar    
   44   23   45 1     
   45   24   25 ar    
   46   24   46 1     
   47   25   26 ar    
   48   25   47 1     
   49   26   27 ar    
   50   26   48 1     
   51   27   28 1     
   52    5   49 1     
   53    7   50 1     
   54   10   51 1     
   55   14   52 1     
   56   14   53 1     
   57   17   54 1     
   58   17   55 1     
   59   19   56 1     
   60   19   57 1     
   61   21   58 1     
   62   21   59 1     
@<TRIPOS>SUBSTRUCTURE
      1 S1             1
@<TRIPOS>SET
LONE_PAIRS      STATIC     ATOMS    <user>   **** ""
11 49 50 51 52 53 54 55 56 57 58 59
DONOR_HYDROGENS      STATIC     ATOMS    <user>   **** ""
4 37 42 43 44
ATOM$BLUE        STATIC     ATOMS    COLORGROUP SYSTEM
11 49 50 51 52 53 54 55 56 57 58 59
ATOM$RED        STATIC     ATOMS    COLORGROUP SYSTEM
4 37 42 43 44
