AV-unprocessed.smi:1853|AV-procd|sdf|7528|dock6
  -GOLD-   22720 9233D 1   1.00000     0.00000
 Structure written by MMmdl.
 43 45  0  0  0  0  0  0  0  0  2 V2000
  146.5208  134.4507  162.6324 C   0  0  0  0  0  0  0  0  0  0  0  0
  147.2993  135.1341  161.5273 C   0  0  0  0  0  0  0  0  0  0  0  0
  147.9279  136.3735  161.7588 C   0  0  0  0  0  0  0  0  0  0  0  0
  148.6487  137.0026  160.7260 C   0  0  0  0  0  0  0  0  0  0  0  0
  148.7538  136.4093  159.4513 C   0  0  0  0  0  0  0  0  0  0  0  0
  149.4816  137.0923  158.5012 O   0  0  0  0  0  0  0  0  0  0  0  0
  149.5480  138.5092  158.5941 C   0  0  0  0  0  0  0  0  0  0  0  0
  150.6609  139.0247  157.6710 C   0  0  0  0  0  0  0  0  0  0  0  0
  150.6844  140.4924  157.5913 N   0  0  0  0  0  0  0  0  0  0  0  0
  150.0191  141.3459  156.7597 C   0  0  0  0  0  0  0  0  0  0  0  0
  149.0517  140.9666  155.6774 C   0  0  0  0  0  0  0  0  0  0  0  0
  148.3895  142.1016  155.0410 N   0  0  0  0  0  0  0  0  0  0  0  0
  147.4396  142.0080  154.0990 C   0  0  0  0  0  0  0  0  0  0  0  0
  146.9718  140.9473  153.6888 O   0  0  0  0  0  0  0  0  0  0  0  0
  150.4024  142.6115  157.0969 N   0  3  0  0  0  0  0  0  0  0  0  0
  151.3017  142.5680  158.1620 C   0  0  0  0  0  0  0  0  0  0  0  0
  151.9504  143.5887  158.8504 C   0  0  0  0  0  0  0  0  0  0  0  0
  152.8083  143.1982  159.8996 C   0  0  0  0  0  0  0  0  0  0  0  0
  152.9941  141.8397  160.2292 C   0  0  0  0  0  0  0  0  0  0  0  0
  152.3314  140.8139  159.5230 C   0  0  0  0  0  0  0  0  0  0  0  0
  151.4859  141.2090  158.4866 C   0  0  0  0  0  0  0  0  0  0  0  0
  148.1154  135.1638  159.2242 C   0  0  0  0  0  0  0  0  0  0  0  0
  147.3943  134.5333  160.2567 C   0  0  0  0  0  0  0  0  0  0  0  0
  146.7653  134.8734  163.6075 H   0  0  0  0  0  0  0  0  0  0  0  0
  146.7500  133.3850  162.6591 H   0  0  0  0  0  0  0  0  0  0  0  0
  145.4498  134.5681  162.4660 H   0  0  0  0  0  0  0  0  0  0  0  0
  147.8600  136.8470  162.7274 H   0  0  0  0  0  0  0  0  0  0  0  0
  149.1240  137.9537  160.9146 H   0  0  0  0  0  0  0  0  0  0  0  0
  148.5948  138.9538  158.3043 H   0  0  0  0  0  0  0  0  0  0  0  0
  149.7617  138.8084  159.6213 H   0  0  0  0  0  0  0  0  0  0  0  0
  151.6381  138.6741  158.0038 H   0  0  0  0  0  0  0  0  0  0  0  0
  150.5235  138.6357  156.6617 H   0  0  0  0  0  0  0  0  0  0  0  0
  149.5898  140.4070  154.9122 H   0  0  0  0  0  0  0  0  0  0  0  0
  148.2947  140.2935  156.0813 H   0  0  0  0  0  0  0  0  0  0  0  0
  148.7036  143.0233  155.3088 H   0  0  0  0  0  0  0  0  0  0  0  0
  147.1343  143.0056  153.7474 H   0  0  0  0  0  0  0  0  0  0  0  0
  151.8077  144.6299  158.6011 H   0  0  0  0  0  0  0  0  0  0  0  0
  153.3327  143.9557  160.4640 H   0  0  0  0  0  0  0  0  0  0  0  0
  153.6576  141.5788  161.0409 H   0  0  0  0  0  0  0  0  0  0  0  0
  152.4784  139.7766  159.7849 H   0  0  0  0  0  0  0  0  0  0  0  0
  148.1641  134.6695  158.2660 H   0  0  0  0  0  0  0  0  0  0  0  0
  146.9132  133.5842  160.0698 H   0  0  0  0  0  0  0  0  0  0  0  0
  150.0582  143.4441  156.6366 H   0  0  0  0  0  0  0  0  0  0  0  0
  1  2  1  0  0  0  0
  1 24  1  0  0  0  0
  1 25  1  0  0  0  0
  1 26  1  0  0  0  0
  2 23  1  0  0  0  0
  2  3  2  0  0  0  0
  3  4  1  0  0  0  0
  3 27  1  0  0  0  0
  4  5  2  0  0  0  0
  4 28  1  0  0  0  0
  5  6  1  0  0  0  0
  5 22  1  0  0  0  0
  6  7  1  0  0  0  0
  7  8  1  0  0  0  0
  7 29  1  0  0  0  0
  7 30  1  0  0  0  0
  8  9  1  0  0  0  0
  8 31  1  0  0  0  0
  8 32  1  0  0  0  0
  9 21  1  0  0  0  0
  9 10  1  0  0  0  0
 10 11  1  0  0  0  0
 10 15  2  0  0  0  0
 11 12  1  0  0  0  0
 11 33  1  0  0  0  0
 11 34  1  0  0  0  0
 12 13  1  0  0  0  0
 12 35  1  0  0  0  0
 13 14  2  0  0  0  0
 13 36  1  0  0  0  0
 15 16  1  0  0  0  0
 15 43  1  0  0  0  0
 16 21  2  0  0  0  0
 16 17  1  0  0  0  0
 17 18  2  0  0  0  0
 17 37  1  0  0  0  0
 18 19  1  0  0  0  0
 18 38  1  0  0  0  0
 19 20  2  0  0  0  0
 19 39  1  0  0  0  0
 20 21  1  0  0  0  0
 20 40  1  0  0  0  0
 22 23  2  0  0  0  0
 22 41  1  0  0  0  0
 23 42  1  0  0  0  0
M  CHG  1  15   1
M  END
> <s_m_source_file>
AV-unprocessed.smi

> <i_m_source_file_index>
1853

> <i_lp_mmshare_version>
43012

> <i_f3d_flags>
0

> <s_epik_input>
W0NIM11jMVtjSF1bY0hdYyhbY0hdW2NIXTEpT1tDSDJdW0NIMl1uKGMobjIpW0NIMl1bTkhdW0NIXT1PKWMoYzIzKVtjSF1bY0hdW2NIXVtjSF0z

> <s_epik_cmdline>
J2VwaWtfcHl0aG9uJywgJy1waCcsICc3LjAnLCAnLXRuJywgJzgnLCAnLW1hJywgJzIwMCcsICctbWV0YWxfYmluZGluZycsICctaW1hZScsICc8aW5maWxlLm1hZT4nLCAnLW9tYWUnLCAnPG91dGZpbGUubWFlPic=

> <r_lp_tautomer_probability>
1

> <r_epik_Ionization_Penalty>
1.39966

> <r_epik_Ionization_Penalty_Charging>
1.39966

> <r_epik_Ionization_Penalty_Neutral>
7.38905e-08

> <r_epik_State_Penalty>
1.4817

> <r_epik_Charging_Adjusted_Penalty>
2.88136

> <i_epik_Tot_Q>
1

> <i_epik_Tot_abs_Q>
1

> <r_epik_Metal_State_Penalty>
1.53574

> <b_epik_Metal_Only>
0

> <s_lp_Force_Field>
OPLS_2005

> <r_lp_Energy>
13.1997

> <b_lp_Chiralities_Consistent>
1

> <s_lp_Variant>
AV-unprocessed.smi:1853-2

> <Gold.Version>
5.8.1

> <Gold.Id.Protein>
6NUR|6NUR_protein|mol2

> <Gold.PLP.Fitness>
51.6037

> <Gold.PLP.PLP>
-44.2445

> <Gold.PLP.part.hbond>
-2.0000

> <Gold.PLP.part.metal>
0.0000

> <Gold.PLP.part.buried>
-4.1651

> <Gold.PLP.part.nonpolar>
-38.8703

> <Gold.PLP.part.repulsive>
0.3457

> <Gold.PLP.ligand.clash>
0.0000

> <Gold.PLP.ligand.torsion>
0.8460

> <Gold.PLP.Chemscore.Hbond>
3.0000

> <Gold.PLP.Chemscore.CHOScore>
0.0000

> <Gold.PLP.Chemscore.Metal>
0.0000

> <Gold.Chemscore.Hbonds>
donor molecule, donor type, donor heavy atom, donor atom, acceptor molecule, acceptor atom, score
      L1  H    12    35       P1  8028  1.00
      L1  H    15    43       P1  8028  2.00

> <Gold.PLP.Chemscore.Internal.Correction>
0.0513

> <Gold.Rescore>
     Score         DG    S(hbond)    S(metal)    S(lipo)     H(rot)  DE(clash)    DE(int)     intcor
     16.76     -18.97       2.00        0.00     112.04       2.46       1.42       0.79       ----

> <Gold.Chemscore.Fitness>
16.7550

> <Gold.Chemscore.DG>
-18.9693

> <Gold.Chemscore.ZeroCoef>
-5.4800

> <Gold.Chemscore.Hbond>
1.9996

> <Gold.Chemscore.Metal>
0.0000

> <Gold.Chemscore.Lipo>
112.0419

> <Gold.Chemscore.Internal_Hbond>
0.0000

> <Gold.Chemscore.DEClash>
1.4214

> <Gold.Chemscore.DEInternal>
0.7928

> <Gold.Chemscore.Rot>
2.4603

> <Gold.Chemscore.Internal.Correction>
   9.000000E+99

> <Gold.Chemscore.Hbonds>
donor molecule, donor type, donor heavy atom, donor atom, acceptor molecule, acceptor atom, score
      L1  H    12    35       P1  8028  1.00
      L1  H    15    43       P1  8028  0.97

> <Gold.Chemscore.Hbond.Weighted>
-6.6787

> <Gold.Chemscore.Metal.Weighted>
-0.0000

> <Gold.Chemscore.Lipo.Weighted>
-13.1089

> <Gold.Chemscore.Internal_Hbond.Weighted>
0.0000

> <Gold.Chemscore.DEClash.Weighted>
1.4214

> <Gold.Chemscore.DEInternal.Weighted>
0.7928

> <Gold.Chemscore.Rot.Weighted>
6.2983

> <Gold.Chemscore.Internal.Correction.Weighted>
   9.000000E+99

> <Gold.Protein.RotatedTorsions>
[ 6907 6896 6895 6894 ] final    9.68 input  -60.11 | X-H torsion
[ 7974 7965 7964 7962 ] final  -55.60 input  175.53 | X-H torsion
[ 8008 7997 7996 7995 ] final  -11.99 input   59.86 | X-H torsion
[ 10167 10162 10161 10158 ] final   15.68 input  -65.29 | X-H torsion
[ 10718 10713 10712 10709 ] final  150.72 input   66.30 | X-H torsion
[ 10763 10752 10751 10750 ] final  177.94 input  -60.55 | X-H torsion
[ 11005 11000 10999 10996 ] final  116.78 input  -57.11 | X-H torsion

> <Gold.Protein.ActiveResidues>
 VAL166  LYS551  ARG553  GLY616  TRP617  ASP618  TYR619  PRO620  LYS621  CYS622 
 ASP623  PHE694  ASN695  SER759  ASP760  ASP761  ALA762  ILE779  LEU786  VAL792 
 PHE793  MET794  SER795  GLU796  ALA797  LYS798  CYS799  TRP800  GLU811  SER814 

> <Gold.Protein.RotatedAtoms>
  151.7261  135.0884  160.0292 H   0  0  0  0  0  0  0  0  0  0  0  0  # atno 6907 bound_to 6896
  152.3571  133.6246  159.5996 H   0  0  0  0  0  0  0  0  0  0  0  0  # atno 6908 bound_to 6896
  150.7578  133.9399  159.3494 H   0  0  0  0  0  0  0  0  0  0  0  0  # atno 6909 bound_to 6896
  145.8723  140.8207  142.9882 H   0  0  0  0  0  0  0  0  0  0  0  0  # atno 7974 bound_to 7965
  154.5417  140.2288  155.8631 H   0  0  0  0  0  0  0  0  0  0  0  0  # atno 8008 bound_to 7997
  156.1864  140.3088  155.9209 H   0  0  0  0  0  0  0  0  0  0  0  0  # atno 8009 bound_to 7997
  155.3245  140.0442  157.3031 H   0  0  0  0  0  0  0  0  0  0  0  0  # atno 8010 bound_to 7997
  140.5851  143.8906  150.6823 H   0  0  0  0  0  0  0  0  0  0  0  0  # atno 10167 bound_to 10162
  157.2799  131.0833  151.1539 H   0  0  0  0  0  0  0  0  0  0  0  0  # atno 10718 bound_to 10713
  154.5011  135.2783  155.1420 H   0  0  0  0  0  0  0  0  0  0  0  0  # atno 10763 bound_to 10752
  154.3053  135.6240  153.5446 H   0  0  0  0  0  0  0  0  0  0  0  0  # atno 10764 bound_to 10752
  152.9902  135.5706  154.5454 H   0  0  0  0  0  0  0  0  0  0  0  0  # atno 10765 bound_to 10752
  139.9052  134.9602  156.7250 H   0  0  0  0  0  0  0  0  0  0  0  0  # atno 11005 bound_to 11000
  144.6726  140.1258  143.7447 LP  0  0  0  0  0  0  0  0  0  0  0  0  # atno 17320 bound_to 7965
  145.9122  139.2494  143.1431 LP  0  0  0  0  0  0  0  0  0  0  0  0  # atno 17321 bound_to 7965
  140.2415  143.3660  152.1482 LP  0  0  0  0  0  0  0  0  0  0  0  0  # atno 17342 bound_to 10162
  139.5192  144.7017  151.5474 LP  0  0  0  0  0  0  0  0  0  0  0  0  # atno 17343 bound_to 10162
  157.2977  130.6827  149.6147 LP  0  0  0  0  0  0  0  0  0  0  0  0  # atno 17370 bound_to 10713
  155.9664  130.4401  150.5287 LP  0  0  0  0  0  0  0  0  0  0  0  0  # atno 17371 bound_to 10713
  140.6970  133.9340  155.8001 LP  0  0  0  0  0  0  0  0  0  0  0  0  # atno 17394 bound_to 11000
  141.0399  134.0635  157.3914 LP  0  0  0  0  0  0  0  0  0  0  0  0  # atno 17395 bound_to 11000

$$$$
