AV-unprocessed.smi:2252|AV-procd|sdf|9109|dock9
  -GOLD-   2272012313D 1   1.00000     0.00000
 Structure written by MMmdl.
 45 47  0  0  0  0  0  0  0  0  4 V2000
  152.8802  142.2207  160.1288 C   0  0  0  0  0  0  0  0  0  0  0  0
  152.1718  143.1474  159.2424 N   0  0  0  0  0  0  0  0  0  0  0  0
  152.1366  144.5137  159.3553 C   0  0  0  0  0  0  0  0  0  0  0  0
  151.3590  144.9741  158.3255 C   0  0  0  0  0  0  0  0  0  0  0  0
  150.9521  143.8713  157.6258 N   0  3  0  0  0  0  0  0  0  0  0  0
  151.4480  142.7554  158.1778 C   0  0  0  0  0  0  0  0  0  0  0  0
  151.2136  141.3574  157.6767 C   0  0  0  0  0  0  0  0  0  0  0  0
  149.7287  141.0065  157.4629 C   0  0  0  0  0  0  0  0  0  0  0  0
  149.6192  139.9245  156.4903 N   0  5  0  0  0  0  0  0  0  0  0  0
  150.2306  139.9308  155.2742 C   0  0  0  0  0  0  0  0  0  0  0  0
  151.2796  140.4723  154.9081 O   0  0  0  0  0  0  0  0  0  0  0  0
  149.4285  139.1205  154.2386 C   0  0  2  0  0  0  0  0  0  0  0  0
  147.9586  139.5938  154.2640 C   0  0  0  0  0  0  0  0  0  0  0  0
  147.0634  139.4453  153.0529 C   0  0  0  0  0  0  0  0  0  0  0  0
  147.5265  140.8144  153.4798 C   0  0  0  0  0  0  0  0  0  0  0  0
  149.5366  137.6581  154.4973 N   0  3  0  0  0  0  0  0  0  0  0  0
  150.9099  137.1552  154.7348 C   0  0  0  0  0  0  0  0  0  0  0  0
  150.7858  135.9249  155.6463 C   0  0  0  0  0  0  0  0  0  0  0  0
  149.2902  135.7698  155.9198 C   0  0  0  0  0  0  0  0  0  0  0  0
  148.7156  137.1490  155.6165 C   0  0  0  0  0  0  0  0  0  0  0  0
  153.4057  142.7831  160.9011 H   0  0  0  0  0  0  0  0  0  0  0  0
  153.6025  141.6448  159.5497 H   0  0  0  0  0  0  0  0  0  0  0  0
  152.1616  141.5487  160.5988 H   0  0  0  0  0  0  0  0  0  0  0  0
  152.6544  145.0445  160.1411 H   0  0  0  0  0  0  0  0  0  0  0  0
  151.0720  145.9770  158.0450 H   0  0  0  0  0  0  0  0  0  0  0  0
  151.7789  141.2426  156.7515 H   0  0  0  0  0  0  0  0  0  0  0  0
  151.6645  140.6856  158.4088 H   0  0  0  0  0  0  0  0  0  0  0  0
  149.2881  140.7242  158.4194 H   0  0  0  0  0  0  0  0  0  0  0  0
  149.2020  141.9084  157.1477 H   0  0  0  0  0  0  0  0  0  0  0  0
  149.8255  139.2988  153.2359 H   0  0  0  0  0  0  0  0  0  0  0  0
  147.4774  139.4757  155.2335 H   0  0  0  0  0  0  0  0  0  0  0  0
  147.4976  139.0336  152.1443 H   0  0  0  0  0  0  0  0  0  0  0  0
  146.0206  139.1894  153.2285 H   0  0  0  0  0  0  0  0  0  0  0  0
  146.7945  141.4733  153.9422 H   0  0  0  0  0  0  0  0  0  0  0  0
  148.2713  141.3078  152.8583 H   0  0  0  0  0  0  0  0  0  0  0  0
  151.3961  136.9159  153.7886 H   0  0  0  0  0  0  0  0  0  0  0  0
  151.5116  137.9141  155.2373 H   0  0  0  0  0  0  0  0  0  0  0  0
  151.2018  135.0291  155.1838 H   0  0  0  0  0  0  0  0  0  0  0  0
  151.3266  136.0952  156.5779 H   0  0  0  0  0  0  0  0  0  0  0  0
  148.8651  135.0375  155.2320 H   0  0  0  0  0  0  0  0  0  0  0  0
  149.0766  135.4374  156.9362 H   0  0  0  0  0  0  0  0  0  0  0  0
  148.8322  137.8003  156.4844 H   0  0  0  0  0  0  0  0  0  0  0  0
  147.6554  137.1037  155.3652 H   0  0  0  0  0  0  0  0  0  0  0  0
  149.2004  137.1893  153.6685 H   0  0  0  0  0  0  0  0  0  0  0  0
  150.3640  143.8906  156.8021 H   0  0  0  0  0  0  0  0  0  0  0  0
  1  2  1  0  0  0  0
  1 21  1  0  0  0  0
  1 22  1  0  0  0  0
  1 23  1  0  0  0  0
  2  6  1  0  0  0  0
  2  3  1  0  0  0  0
  3  4  2  0  0  0  0
  3 24  1  0  0  0  0
  4  5  1  0  0  0  0
  4 25  1  0  0  0  0
  5  6  2  0  0  0  0
  5 45  1  0  0  0  0
  6  7  1  0  0  0  0
  7  8  1  0  0  0  0
  7 26  1  0  0  0  0
  7 27  1  0  0  0  0
  8  9  1  0  0  0  0
  8 28  1  0  0  0  0
  8 29  1  0  0  0  0
  9 10  1  0  0  0  0
 10 11  2  0  0  0  0
 10 12  1  0  0  0  0
 12 13  1  0  0  0  0
 12 16  1  0  0  0  0
 12 30  1  0  0  0  0
 13 15  1  0  0  0  0
 13 14  1  0  0  0  0
 13 31  1  0  0  0  0
 14 15  1  0  0  0  0
 14 32  1  0  0  0  0
 14 33  1  0  0  0  0
 15 34  1  0  0  0  0
 15 35  1  0  0  0  0
 16 20  1  0  0  0  0
 16 17  1  0  0  0  0
 16 44  1  0  0  0  0
 17 18  1  0  0  0  0
 17 36  1  0  0  0  0
 17 37  1  0  0  0  0
 18 19  1  0  0  0  0
 18 38  1  0  0  0  0
 18 39  1  0  0  0  0
 19 20  1  0  0  0  0
 19 40  1  0  0  0  0
 19 41  1  0  0  0  0
 20 42  1  0  0  0  0
 20 43  1  0  0  0  0
M  CHG  1   5   1
M  CHG  1   9  -1
M  CHG  1  16   1
M  END
> <s_m_source_file>
AV-unprocessed.smi

> <i_m_source_file_index>
2252

> <i_lp_mmshare_version>
43012

> <i_f3d_flags>
0

> <s_epik_input>
W0NIM11uMVtjSF1bY0hdbmMxW0NIMl1bQ0gyXVtOSF1DKD1PKVtDQEhdKFtDSF0yW0NIMl1bQ0gyXTIpTjNbQ0gyXVtDSDJdW0NIMl1bQ0gyXTM=

> <s_epik_cmdline>
J2VwaWtfcHl0aG9uJywgJy1waCcsICc3LjAnLCAnLXRuJywgJzgnLCAnLW1hJywgJzIwMCcsICctbWV0YWxfYmluZGluZycsICctaW1hZScsICc8aW5maWxlLm1hZT4nLCAnLW9tYWUnLCAnPG91dGZpbGUubWFlPic=

> <r_lp_tautomer_probability>
1

> <r_epik_Ionization_Penalty>
5.88052

> <r_epik_Ionization_Penalty_Charging>
5.85424

> <r_epik_Ionization_Penalty_Neutral>
0.026272

> <r_epik_State_Penalty>
5.94961

> <r_epik_Charging_Adjusted_Penalty>
11.8039

> <i_epik_Tot_Q>
1

> <i_epik_Tot_abs_Q>
3

> <r_epik_Metal_State_Penalty>
2.20001

> <b_epik_Metal_Only>
1

> <s_lp_Force_Field>
OPLS_2005

> <r_lp_Energy>
29.4432

> <b_lp_Chiralities_Consistent>
1

> <s_lp_Variant>
AV-unprocessed.smi:2252-7

> <Gold.Version>
5.8.1

> <Gold.Id.Protein>
6NUR|6NUR_protein|mol2

> <Gold.PLP.Fitness>
52.7741

> <Gold.PLP.PLP>
-39.6685

> <Gold.PLP.part.hbond>
-2.5641

> <Gold.PLP.part.metal>
0.0000

> <Gold.PLP.part.buried>
-3.6384

> <Gold.PLP.part.nonpolar>
-33.6757

> <Gold.PLP.part.repulsive>
0.0820

> <Gold.PLP.ligand.clash>
0.0000

> <Gold.PLP.ligand.torsion>
1.3543

> <Gold.PLP.Chemscore.Hbond>
4.8613

> <Gold.PLP.Chemscore.CHOScore>
0.0000

> <Gold.PLP.Chemscore.Metal>
0.0000

> <Gold.Chemscore.Hbonds>
donor molecule, donor type, donor heavy atom, donor atom, acceptor molecule, acceptor atom, score
      L1  H     5    45       P1  8028  2.00
      L1  H    16    44       P1  7948  1.95
      P1  H  7989  7998       L1    11  0.93

> <Gold.PLP.Chemscore.Internal.Correction>
1.2304

> <Gold.Rescore>
     Score         DG    S(hbond)    S(metal)    S(lipo)     H(rot)  DE(clash)    DE(int)     intcor
     16.95     -19.79       2.77        0.00      86.67       1.98       0.04       2.80       ----

> <Gold.Chemscore.Fitness>
16.9547

> <Gold.Chemscore.DG>
-19.7923

> <Gold.Chemscore.ZeroCoef>
-5.4800

> <Gold.Chemscore.Hbond>
2.7672

> <Gold.Chemscore.Metal>
0.0000

> <Gold.Chemscore.Lipo>
86.6748

> <Gold.Chemscore.Internal_Hbond>
0.0000

> <Gold.Chemscore.DEClash>
0.0375

> <Gold.Chemscore.DEInternal>
2.8001

> <Gold.Chemscore.Rot>
1.9809

> <Gold.Chemscore.Internal.Correction>
   9.000000E+99

> <Gold.Chemscore.Hbonds>
donor molecule, donor type, donor heavy atom, donor atom, acceptor molecule, acceptor atom, score
      L1  H     5    45       P1  8028  0.89
      L1  H    16    44       P1  7948  0.92
      P1  H  7989  7998       L1    11  0.84

> <Gold.Chemscore.Hbond.Weighted>
-9.2425

> <Gold.Chemscore.Metal.Weighted>
-0.0000

> <Gold.Chemscore.Lipo.Weighted>
-10.1410

> <Gold.Chemscore.Internal_Hbond.Weighted>
0.0000

> <Gold.Chemscore.DEClash.Weighted>
0.0375

> <Gold.Chemscore.DEInternal.Weighted>
2.8001

> <Gold.Chemscore.Rot.Weighted>
5.0711

> <Gold.Chemscore.Internal.Correction.Weighted>
   9.000000E+99

> <Gold.Protein.RotatedTorsions>
[ 6907 6896 6895 6894 ] final -114.17 input  -60.11 | X-H torsion
[ 7974 7965 7964 7962 ] final  -14.93 input  175.53 | X-H torsion
[ 8008 7997 7996 7995 ] final  -17.32 input   59.86 | X-H torsion
[ 10167 10162 10161 10158 ] final   16.44 input  -65.29 | X-H torsion
[ 10718 10713 10712 10709 ] final -136.80 input   66.30 | X-H torsion
[ 10763 10752 10751 10750 ] final  126.60 input  -60.55 | X-H torsion
[ 11005 11000 10999 10996 ] final    8.64 input  -57.11 | X-H torsion

> <Gold.Protein.ActiveResidues>
 VAL166  LYS551  ARG553  GLY616  TRP617  ASP618  TYR619  PRO620  LYS621  CYS622 
 ASP623  PHE694  ASN695  SER759  ASP760  ASP761  ALA762  ILE779  LEU786  VAL792 
 PHE793  MET794  SER795  GLU796  ALA797  LYS798  CYS799  TRP800  GLU811  SER814 

> <Gold.Protein.RotatedAtoms>
  150.7883  133.8839  159.3293 H   0  0  0  0  0  0  0  0  0  0  0  0  # atno 6907 bound_to 6896
  151.6684  135.0978  160.0202 H   0  0  0  0  0  0  0  0  0  0  0  0  # atno 6908 bound_to 6896
  152.3951  133.6697  159.6305 H   0  0  0  0  0  0  0  0  0  0  0  0  # atno 6909 bound_to 6896
  146.2053  140.3419  142.8409 H   0  0  0  0  0  0  0  0  0  0  0  0  # atno 7974 bound_to 7965
  154.4987  140.2146  155.9392 H   0  0  0  0  0  0  0  0  0  0  0  0  # atno 8008 bound_to 7997
  156.1405  140.3180  155.8455 H   0  0  0  0  0  0  0  0  0  0  0  0  # atno 8009 bound_to 7997
  155.4129  140.0491  157.3021 H   0  0  0  0  0  0  0  0  0  0  0  0  # atno 8010 bound_to 7997
  140.5797  143.9005  150.6779 H   0  0  0  0  0  0  0  0  0  0  0  0  # atno 10167 bound_to 10162
  156.2811  130.7321  151.1318 H   0  0  0  0  0  0  0  0  0  0  0  0  # atno 10718 bound_to 10713
  153.6960  135.3291  155.3213 H   0  0  0  0  0  0  0  0  0  0  0  0  # atno 10763 bound_to 10752
  154.8426  135.4443  154.1459 H   0  0  0  0  0  0  0  0  0  0  0  0  # atno 10764 bound_to 10752
  153.2514  135.6982  153.7753 H   0  0  0  0  0  0  0  0  0  0  0  0  # atno 10765 bound_to 10752
  140.5347  134.0432  155.7884 H   0  0  0  0  0  0  0  0  0  0  0  0  # atno 11005 bound_to 11000
  144.8779  140.7361  143.6005 LP  0  0  0  0  0  0  0  0  0  0  0  0  # atno 17320 bound_to 7965
  145.3339  139.1751  143.4522 LP  0  0  0  0  0  0  0  0  0  0  0  0  # atno 17321 bound_to 7965
  140.2501  143.3600  152.1413 LP  0  0  0  0  0  0  0  0  0  0  0  0  # atno 17342 bound_to 10162
  139.5163  144.6975  151.5589 LP  0  0  0  0  0  0  0  0  0  0  0  0  # atno 17343 bound_to 10162
  157.7314  131.0608  150.5677 LP  0  0  0  0  0  0  0  0  0  0  0  0  # atno 17370 bound_to 10713
  156.5783  130.4298  149.5988 LP  0  0  0  0  0  0  0  0  0  0  0  0  # atno 17371 bound_to 10713
  141.1261  133.9380  157.2632 LP  0  0  0  0  0  0  0  0  0  0  0  0  # atno 17394 bound_to 11000
  139.9535  135.0170  156.9062 LP  0  0  0  0  0  0  0  0  0  0  0  0  # atno 17395 bound_to 11000

$$$$
