AV-unprocessed.smi:1830|AV-procd|sdf|7443|dock8
  -GOLD-   22720 9133D 1   1.00000     0.00000
 Structure written by MMmdl.
 52 55  0  0  0  0  0  0  0  0  1 V2000
  149.2035  138.5664  156.5244 O   0  0  0  0  0  0  0  0  0  0  0  0
  149.3319  138.5913  157.7482 C   0  0  0  0  0  0  0  0  0  0  0  0
  150.4717  138.9305  158.3666 N   0  0  0  0  0  0  0  0  0  0  0  0
  151.7179  139.3103  157.7062 C   0  0  0  0  0  0  0  0  0  0  0  0
  152.2611  140.6613  158.2059 C   0  0  1  0  0  0  0  0  0  0  0  0
  151.4271  141.8854  157.7550 C   0  0  0  0  0  0  0  0  0  0  0  0
  151.9811  143.0931  158.3353 N   0  0  0  0  0  0  0  0  0  0  0  0
  151.2769  144.3271  158.0758 C   0  0  0  0  0  0  0  0  0  0  0  0
  151.8375  145.3084  159.1202 C   0  0  0  0  0  0  0  0  0  0  0  0
  152.4303  144.4015  160.2218 C   0  0  0  0  0  0  0  0  0  0  0  0
  152.0116  143.0010  159.7703 C   0  0  2  0  0  0  0  0  0  0  0  0
  152.8823  141.8186  160.2214 C   0  0  0  0  0  0  0  0  0  0  0  0
  152.3548  140.6247  159.6360 O   0  0  0  0  0  0  0  0  0  0  0  0
  148.3755  138.2786  158.6385 N   0  0  0  0  0  0  0  0  0  0  0  0
  147.0402  137.8403  158.4003 C   0  0  0  0  0  0  0  0  0  0  0  0
  146.4150  137.9397  157.1329 C   0  0  0  0  0  0  0  0  0  0  0  0
  145.0903  137.4922  156.9826 C   0  0  0  0  0  0  0  0  0  0  0  0
  144.4307  136.9691  158.1080 C   0  0  0  0  0  0  0  0  0  0  0  0
  145.0045  136.8841  159.3248 N   0  0  0  0  0  0  0  0  0  0  0  0
  146.2829  137.3080  159.4791 C   0  0  0  0  0  0  0  0  0  0  0  0
  146.8416  137.2414  160.7726 N   0  0  0  0  0  0  0  0  0  0  0  0
  145.8558  136.9681  161.8154 C   0  0  0  0  0  0  0  0  0  0  0  0
  146.5338  136.0360  162.8218 C   0  0  0  0  0  0  0  0  0  0  0  0
  147.5737  135.3121  161.9755 C   0  0  0  0  0  0  0  0  0  0  0  0
  148.0154  136.3994  160.9982 C   0  0  0  0  0  0  0  0  0  0  0  0
  150.4819  138.9261  159.3761 H   0  0  0  0  0  0  0  0  0  0  0  0
  152.4515  138.5292  157.9068 H   0  0  0  0  0  0  0  0  0  0  0  0
  151.5950  139.3350  156.6223 H   0  0  0  0  0  0  0  0  0  0  0  0
  153.2735  140.7738  157.8137 H   0  0  0  0  0  0  0  0  0  0  0  0
  151.4249  141.9609  156.6673 H   0  0  0  0  0  0  0  0  0  0  0  0
  150.3886  141.7729  158.0679 H   0  0  0  0  0  0  0  0  0  0  0  0
  151.4283  144.6701  157.0519 H   0  0  0  0  0  0  0  0  0  0  0  0
  150.2057  144.1903  158.2326 H   0  0  0  0  0  0  0  0  0  0  0  0
  152.6179  145.9351  158.6869 H   0  0  0  0  0  0  0  0  0  0  0  0
  151.0555  145.9641  159.5042 H   0  0  0  0  0  0  0  0  0  0  0  0
  153.5171  144.4937  160.2398 H   0  0  0  0  0  0  0  0  0  0  0  0
  152.0524  144.6441  161.2154 H   0  0  0  0  0  0  0  0  0  0  0  0
  150.9961  142.8274  160.1336 H   0  0  0  0  0  0  0  0  0  0  0  0
  153.9206  141.9552  159.9148 H   0  0  0  0  0  0  0  0  0  0  0  0
  152.8719  141.7239  161.3072 H   0  0  0  0  0  0  0  0  0  0  0  0
  148.6617  138.2698  159.6065 H   0  0  0  0  0  0  0  0  0  0  0  0
  146.9178  138.3621  156.2770 H   0  0  0  0  0  0  0  0  0  0  0  0
  144.5904  137.5532  156.0274 H   0  0  0  0  0  0  0  0  0  0  0  0
  143.4126  136.6174  158.0321 H   0  0  0  0  0  0  0  0  0  0  0  0
  145.5226  137.8906  162.2910 H   0  0  0  0  0  0  0  0  0  0  0  0
  144.9789  136.4782  161.3879 H   0  0  0  0  0  0  0  0  0  0  0  0
  147.0318  136.6235  163.5946 H   0  0  0  0  0  0  0  0  0  0  0  0
  145.8331  135.3583  163.3102 H   0  0  0  0  0  0  0  0  0  0  0  0
  148.3985  134.9072  162.5626 H   0  0  0  0  0  0  0  0  0  0  0  0
  147.1055  134.4902  161.4317 H   0  0  0  0  0  0  0  0  0  0  0  0
  148.4504  135.9791  160.0912 H   0  0  0  0  0  0  0  0  0  0  0  0
  148.7842  137.0212  161.4581 H   0  0  0  0  0  0  0  0  0  0  0  0
  1  2  2  0  0  0  0
  2  3  1  0  0  0  0
  2 14  1  0  0  0  0
  3  4  1  0  0  0  0
  3 26  1  0  0  0  0
  4  5  1  0  0  0  0
  4 27  1  0  0  0  0
  4 28  1  0  0  0  0
  5 13  1  0  0  0  0
  5  6  1  0  0  0  0
  5 29  1  0  0  0  0
  6  7  1  0  0  0  0
  6 30  1  0  0  0  0
  6 31  1  0  0  0  0
  7 11  1  0  0  0  0
  7  8  1  0  0  0  0
  8  9  1  0  0  0  0
  8 32  1  0  0  0  0
  8 33  1  0  0  0  0
  9 10  1  0  0  0  0
  9 34  1  0  0  0  0
  9 35  1  0  0  0  0
 10 11  1  0  0  0  0
 10 36  1  0  0  0  0
 10 37  1  0  0  0  0
 11 12  1  0  0  0  0
 11 38  1  0  0  0  0
 12 13  1  0  0  0  0
 12 39  1  0  0  0  0
 12 40  1  0  0  0  0
 14 15  1  0  0  0  0
 14 41  1  0  0  0  0
 15 20  1  0  0  0  0
 15 16  2  0  0  0  0
 16 17  1  0  0  0  0
 16 42  1  0  0  0  0
 17 18  2  0  0  0  0
 17 43  1  0  0  0  0
 18 19  1  0  0  0  0
 18 44  1  0  0  0  0
 19 20  2  0  0  0  0
 20 21  1  0  0  0  0
 21 25  1  0  0  0  0
 21 22  1  0  0  0  0
 22 23  1  0  0  0  0
 22 45  1  0  0  0  0
 22 46  1  0  0  0  0
 23 24  1  0  0  0  0
 23 47  1  0  0  0  0
 23 48  1  0  0  0  0
 24 25  1  0  0  0  0
 24 49  1  0  0  0  0
 24 50  1  0  0  0  0
 25 51  1  0  0  0  0
 25 52  1  0  0  0  0
M  END
> <s_m_source_file>
AV-unprocessed.smi

> <i_m_source_file_index>
1830

> <i_lp_mmshare_version>
43012

> <i_f3d_flags>
0

> <s_epik_input>
W0NIMl0xW0NIMl1bQ0gyXVtDQEhdKE4xMilbQ0gyXU9bQ0BASF0oW0NIMl0yKVtDSDJdW05IXUMoPU8pW05IXWMzW2NIXVtjSF1bY0hdbmMzTjRbQ0gyXVtDSDJdW0NIMl1bQ0gyXTQ=

> <s_epik_cmdline>
J2VwaWtfcHl0aG9uJywgJy1waCcsICc3LjAnLCAnLXRuJywgJzgnLCAnLW1hJywgJzIwMCcsICctbWV0YWxfYmluZGluZycsICctaW1hZScsICc8aW5maWxlLm1hZT4nLCAnLW9tYWUnLCAnPG91dGZpbGUubWFlPic=

> <r_lp_tautomer_probability>
1

> <r_epik_Ionization_Penalty>
1.16487

> <r_epik_Ionization_Penalty_Charging>
0

> <r_epik_Ionization_Penalty_Neutral>
1.16487

> <r_epik_State_Penalty>
1.21807

> <r_epik_Charging_Adjusted_Penalty>
1.21807

> <i_epik_Tot_Q>
0

> <i_epik_Tot_abs_Q>
0

> <r_epik_Metal_State_Penalty>
1.19922

> <b_epik_Metal_Only>
0

> <s_lp_Force_Field>
OPLS_2005

> <r_lp_Energy>
78.4181

> <b_lp_Chiralities_Consistent>
1

> <s_lp_Variant>
AV-unprocessed.smi:1830-12

> <Gold.Version>
5.8.1

> <Gold.Id.Protein>
6NUR|6NUR_protein|mol2

> <Gold.PLP.Fitness>
40.2846

> <Gold.PLP.PLP>
-37.6695

> <Gold.PLP.part.hbond>
-1.0000

> <Gold.PLP.part.metal>
0.0000

> <Gold.PLP.part.buried>
-5.9803

> <Gold.PLP.part.nonpolar>
-31.5006

> <Gold.PLP.part.repulsive>
0.3365

> <Gold.PLP.ligand.clash>
0.0000

> <Gold.PLP.ligand.torsion>
0.2508

> <Gold.PLP.Chemscore.Hbond>
1.0000

> <Gold.PLP.Chemscore.CHOScore>
0.0000

> <Gold.PLP.Chemscore.Metal>
0.0000

> <Gold.Chemscore.Hbonds>
donor molecule, donor type, donor heavy atom, donor atom, acceptor molecule, acceptor atom, score
      P1  H  6934  6947       L1    21  0.80

> <Gold.PLP.Chemscore.Internal.Correction>
0.1168

> <Gold.Rescore>
     Score         DG    S(hbond)    S(metal)    S(lipo)     H(rot)  DE(clash)    DE(int)     intcor
     13.60     -15.18       0.01        0.00     112.82       1.37       0.03       1.55       ----

> <Gold.Chemscore.Fitness>
13.5970

> <Gold.Chemscore.DG>
-15.1824

> <Gold.Chemscore.ZeroCoef>
-5.4800

> <Gold.Chemscore.Hbond>
0.0066

> <Gold.Chemscore.Metal>
0.0000

> <Gold.Chemscore.Lipo>
112.8151

> <Gold.Chemscore.Internal_Hbond>
0.0000

> <Gold.Chemscore.DEClash>
0.0323

> <Gold.Chemscore.DEInternal>
1.5531

> <Gold.Chemscore.Rot>
1.3746

> <Gold.Chemscore.Internal.Correction>
   9.000000E+99

> <Gold.Chemscore.Hbonds>
donor molecule, donor type, donor heavy atom, donor atom, acceptor molecule, acceptor atom, score
      P1  H  6934  6947       L1    21  0.05

> <Gold.Chemscore.Hbond.Weighted>
-0.0219

> <Gold.Chemscore.Metal.Weighted>
-0.0000

> <Gold.Chemscore.Lipo.Weighted>
-13.1994

> <Gold.Chemscore.Internal_Hbond.Weighted>
0.0000

> <Gold.Chemscore.DEClash.Weighted>
0.0323

> <Gold.Chemscore.DEInternal.Weighted>
1.5531

> <Gold.Chemscore.Rot.Weighted>
3.5189

> <Gold.Chemscore.Internal.Correction.Weighted>
   9.000000E+99

> <Gold.Protein.RotatedTorsions>
[ 6907 6896 6895 6894 ] final  166.19 input  -60.11 | X-H torsion
[ 7974 7965 7964 7962 ] final  -57.44 input  175.53 | X-H torsion
[ 8008 7997 7996 7995 ] final  125.03 input   59.86 | X-H torsion
[ 10167 10162 10161 10158 ] final  -32.29 input  -65.29 | X-H torsion
[ 10718 10713 10712 10709 ] final   38.54 input   66.30 | X-H torsion
[ 10763 10752 10751 10750 ] final   19.08 input  -60.55 | X-H torsion
[ 11005 11000 10999 10996 ] final  117.17 input  -57.11 | X-H torsion

> <Gold.Protein.ActiveResidues>
 VAL166  LYS551  ARG553  GLY616  TRP617  ASP618  TYR619  PRO620  LYS621  CYS622 
 ASP623  PHE694  ASN695  SER759  ASP760  ASP761  ALA762  ILE779  LEU786  VAL792 
 PHE793  MET794  SER795  GLU796  ALA797  LYS798  CYS799  TRP800  GLU811  SER814 

> <Gold.Protein.RotatedAtoms>
  151.8827  133.3498  159.3771 H   0  0  0  0  0  0  0  0  0  0  0  0  # atno 6907 bound_to 6896
  150.7123  134.5003  159.5567 H   0  0  0  0  0  0  0  0  0  0  0  0  # atno 6908 bound_to 6896
  152.2557  134.8086  160.0490 H   0  0  0  0  0  0  0  0  0  0  0  0  # atno 6909 bound_to 6896
  145.8510  140.8352  142.9986 H   0  0  0  0  0  0  0  0  0  0  0  0  # atno 7974 bound_to 7965
  156.2821  140.2726  156.1883 H   0  0  0  0  0  0  0  0  0  0  0  0  # atno 8008 bound_to 7997
  155.0485  140.0386  157.2553 H   0  0  0  0  0  0  0  0  0  0  0  0  # atno 8009 bound_to 7997
  154.7215  140.2689  155.6542 H   0  0  0  0  0  0  0  0  0  0  0  0  # atno 8010 bound_to 7997
  140.7223  143.3706  151.1786 H   0  0  0  0  0  0  0  0  0  0  0  0  # atno 10167 bound_to 10162
  157.3600  130.7644  149.7040 H   0  0  0  0  0  0  0  0  0  0  0  0  # atno 10718 bound_to 10713
  153.1193  135.6715  153.9364 H   0  0  0  0  0  0  0  0  0  0  0  0  # atno 10763 bound_to 10752
  153.8884  135.3050  155.3448 H   0  0  0  0  0  0  0  0  0  0  0  0  # atno 10764 bound_to 10752
  154.7606  135.4990  153.9536 H   0  0  0  0  0  0  0  0  0  0  0  0  # atno 10765 bound_to 10752
  139.9065  134.9607  156.7311 H   0  0  0  0  0  0  0  0  0  0  0  0  # atno 11005 bound_to 11000
  144.6729  140.0953  143.7463 LP  0  0  0  0  0  0  0  0  0  0  0  0  # atno 17320 bound_to 7965
  145.9357  139.2636  143.1298 LP  0  0  0  0  0  0  0  0  0  0  0  0  # atno 17321 bound_to 7965
  139.7276  143.9123  152.3008 LP  0  0  0  0  0  0  0  0  0  0  0  0  # atno 17342 bound_to 10162
  139.8901  144.6970  150.8780 LP  0  0  0  0  0  0  0  0  0  0  0  0  # atno 17343 bound_to 10162
  155.9736  130.4116  150.3992 LP  0  0  0  0  0  0  0  0  0  0  0  0  # atno 17370 bound_to 10713
  157.2067  131.0451  151.2621 LP  0  0  0  0  0  0  0  0  0  0  0  0  # atno 17371 bound_to 10713
  140.6925  133.9378  155.7974 LP  0  0  0  0  0  0  0  0  0  0  0  0  # atno 17394 bound_to 11000
  141.0431  134.0592  157.3877 LP  0  0  0  0  0  0  0  0  0  0  0  0  # atno 17395 bound_to 11000

$$$$
