AV-unprocessed.smi:1247|AV-procd|sdf|5243|dock7
  -GOLD-   22720 4353D 1   1.00000     0.00000
 Structure written by MMmdl.
 46 47  0  0  0  0  0  0  0  0  1 V2000
  143.7724  142.9754  162.4088 C   0  0  0  0  0  0  0  0  0  0  0  0
  145.0531  143.2173  161.6657 C   0  0  0  0  0  0  0  0  0  0  0  0
  145.3884  142.8150  160.3402 C   0  0  0  0  0  0  0  0  0  0  0  0
  146.6600  143.2974  160.1914 C   0  0  0  0  0  0  0  0  0  0  0  0
  147.4867  143.2122  159.1153 N   0  0  0  0  0  0  0  0  0  0  0  0
  147.7485  142.1454  158.3396 C   0  0  0  0  0  0  0  0  0  0  0  0
  147.2716  141.0201  158.4880 O   0  0  0  0  0  0  0  0  0  0  0  0
  148.6116  142.4574  157.3621 N   0  0  0  0  0  0  0  0  0  0  0  0
  149.1041  141.5273  156.3528 C   0  0  0  0  0  0  0  0  0  0  0  0
  150.5770  141.1532  156.6048 C   0  0  0  0  0  0  0  0  0  0  0  0
  151.0537  141.4070  157.9633 N   0  0  0  0  0  0  0  0  0  0  0  0
  151.4848  142.7888  158.1601 C   0  0  0  0  0  0  0  0  0  0  0  0
  152.0064  143.0329  159.5895 C   0  0  2  0  0  0  0  0  0  0  0  0
  152.5407  144.4569  159.7758 C   0  0  0  0  0  0  0  0  0  0  0  0
  153.0639  142.1185  159.8646 O   0  0  0  0  0  0  0  0  0  0  0  0
  152.6765  140.7538  159.7327 C   0  0  2  0  0  0  0  0  0  0  0  0
  153.8876  139.8746  160.0621 C   0  0  0  0  0  0  0  0  0  0  0  0
  152.1578  140.5162  158.3020 C   0  0  0  0  0  0  0  0  0  0  0  0
  147.0318  143.9368  161.3531 N   0  0  0  0  0  0  0  0  0  0  0  0
  148.2759  144.6066  161.6785 C   0  0  0  0  0  0  0  0  0  0  0  0
  146.0346  143.8842  162.2626 N   0  0  0  0  0  0  0  0  0  0  0  0
  143.0576  142.4277  161.7942 H   0  0  0  0  0  0  0  0  0  0  0  0
  143.3051  143.9156  162.7023 H   0  0  0  0  0  0  0  0  0  0  0  0
  143.9476  142.3919  163.3129 H   0  0  0  0  0  0  0  0  0  0  0  0
  144.7818  142.2669  159.6352 H   0  0  0  0  0  0  0  0  0  0  0  0
  147.9657  144.0668  158.8729 H   0  0  0  0  0  0  0  0  0  0  0  0
  148.9551  143.4053  157.3123 H   0  0  0  0  0  0  0  0  0  0  0  0
  148.4679  140.6438  156.3911 H   0  0  0  0  0  0  0  0  0  0  0  0
  148.9837  141.9574  155.3571 H   0  0  0  0  0  0  0  0  0  0  0  0
  150.6927  140.0897  156.3910 H   0  0  0  0  0  0  0  0  0  0  0  0
  151.2147  141.6726  155.8878 H   0  0  0  0  0  0  0  0  0  0  0  0
  152.2666  143.0366  157.4403 H   0  0  0  0  0  0  0  0  0  0  0  0
  150.6576  143.4724  157.9714 H   0  0  0  0  0  0  0  0  0  0  0  0
  151.1996  142.8652  160.3052 H   0  0  0  0  0  0  0  0  0  0  0  0
  151.7624  145.1963  159.5852 H   0  0  0  0  0  0  0  0  0  0  0  0
  153.3693  144.6595  159.0968 H   0  0  0  0  0  0  0  0  0  0  0  0
  152.8999  144.6077  160.7940 H   0  0  0  0  0  0  0  0  0  0  0  0
  151.8822  140.5401  160.4501 H   0  0  0  0  0  0  0  0  0  0  0  0
  153.6369  138.8165  159.9843 H   0  0  0  0  0  0  0  0  0  0  0  0
  154.2385  140.0593  161.0777 H   0  0  0  0  0  0  0  0  0  0  0  0
  154.7162  140.0734  159.3818 H   0  0  0  0  0  0  0  0  0  0  0  0
  151.8362  139.4785  158.2044 H   0  0  0  0  0  0  0  0  0  0  0  0
  152.9747  140.6568  157.5922 H   0  0  0  0  0  0  0  0  0  0  0  0
  148.4249  145.4492  161.0027 H   0  0  0  0  0  0  0  0  0  0  0  0
  149.1070  143.9094  161.5691 H   0  0  0  0  0  0  0  0  0  0  0  0
  148.2571  144.9755  162.7052 H   0  0  0  0  0  0  0  0  0  0  0  0
  1  2  1  0  0  0  0
  1 22  1  0  0  0  0
  1 23  1  0  0  0  0
  1 24  1  0  0  0  0
  2 21  2  0  0  0  0
  2  3  1  0  0  0  0
  3  4  2  0  0  0  0
  3 25  1  0  0  0  0
  4  5  1  0  0  0  0
  4 19  1  0  0  0  0
  5  6  1  0  0  0  0
  5 26  1  0  0  0  0
  6  7  2  0  0  0  0
  6  8  1  0  0  0  0
  8  9  1  0  0  0  0
  8 27  1  0  0  0  0
  9 10  1  0  0  0  0
  9 28  1  0  0  0  0
  9 29  1  0  0  0  0
 10 11  1  0  0  0  0
 10 30  1  0  0  0  0
 10 31  1  0  0  0  0
 11 18  1  0  0  0  0
 11 12  1  0  0  0  0
 12 13  1  0  0  0  0
 12 32  1  0  0  0  0
 12 33  1  0  0  0  0
 13 14  1  0  0  0  0
 13 15  1  0  0  0  0
 13 34  1  0  0  0  0
 14 35  1  0  0  0  0
 14 36  1  0  0  0  0
 14 37  1  0  0  0  0
 15 16  1  0  0  0  0
 16 17  1  0  0  0  0
 16 18  1  0  0  0  0
 16 38  1  0  0  0  0
 17 39  1  0  0  0  0
 17 40  1  0  0  0  0
 17 41  1  0  0  0  0
 18 42  1  0  0  0  0
 18 43  1  0  0  0  0
 19 20  1  0  0  0  0
 19 21  1  0  0  0  0
 20 44  1  0  0  0  0
 20 45  1  0  0  0  0
 20 46  1  0  0  0  0
M  END
> <s_m_source_file>
AV-unprocessed.smi

> <i_m_source_file_index>
1247

> <i_lp_mmshare_version>
43012

> <i_f3d_flags>
0

> <s_epik_input>
W0NIM11jMVtjSF1jKG4objEpW0NIM10pW05IXUMoPU8pW05IXVtDSDJdW0NIMl1OMltDSDJdW0NAQEhdKFtDSDNdKU9bQ0BASF0oW0NIM10pW0NIMl0y

> <s_epik_cmdline>
J2VwaWtfcHl0aG9uJywgJy1waCcsICc3LjAnLCAnLXRuJywgJzgnLCAnLW1hJywgJzIwMCcsICctbWV0YWxfYmluZGluZycsICctaW1hZScsICc8aW5maWxlLm1hZT4nLCAnLW9tYWUnLCAnPG91dGZpbGUubWFlPic=

> <r_lp_tautomer_probability>
1

> <r_epik_Ionization_Penalty>
0.233972

> <r_epik_Ionization_Penalty_Charging>
0

> <r_epik_Ionization_Penalty_Neutral>
0.233972

> <r_epik_State_Penalty>
0.224627

> <r_epik_Charging_Adjusted_Penalty>
0.224627

> <i_epik_Tot_Q>
0

> <i_epik_Tot_abs_Q>
0

> <r_epik_Metal_State_Penalty>
0.224624

> <b_epik_Metal_Only>
0

> <s_lp_Force_Field>
OPLS_2005

> <r_lp_Energy>
19.816

> <b_lp_Chiralities_Consistent>
1

> <s_lp_Variant>
AV-unprocessed.smi:1247-1

> <Gold.Version>
5.8.1

> <Gold.Id.Protein>
6NUR|6NUR_protein|mol2

> <Gold.PLP.Fitness>
49.1882

> <Gold.PLP.PLP>
-44.8608

> <Gold.PLP.part.hbond>
-4.0000

> <Gold.PLP.part.metal>
0.0000

> <Gold.PLP.part.buried>
-8.3991

> <Gold.PLP.part.nonpolar>
-32.4315

> <Gold.PLP.part.repulsive>
0.2942

> <Gold.PLP.ligand.clash>
0.0000

> <Gold.PLP.ligand.torsion>
1.0120

> <Gold.PLP.Chemscore.Hbond>
2.1129

> <Gold.PLP.Chemscore.CHOScore>
0.0000

> <Gold.PLP.Chemscore.Metal>
0.0000

> <Gold.Chemscore.Hbonds>
donor molecule, donor type, donor heavy atom, donor atom, acceptor molecule, acceptor atom, score
      L1  H     8    27       P1  8028  0.46
      P1  H  6934  6946       L1     7  0.08

> <Gold.PLP.Chemscore.Internal.Correction>
0.0127

> <Gold.Rescore>
     Score         DG    S(hbond)    S(metal)    S(lipo)     H(rot)  DE(clash)    DE(int)     intcor
     15.74     -17.00       1.36        0.00      92.09       1.48       0.29       0.97       ----

> <Gold.Chemscore.Fitness>
15.7361

> <Gold.Chemscore.DG>
-16.9991

> <Gold.Chemscore.ZeroCoef>
-5.4800

> <Gold.Chemscore.Hbond>
1.3603

> <Gold.Chemscore.Metal>
0.0000

> <Gold.Chemscore.Lipo>
92.0854

> <Gold.Chemscore.Internal_Hbond>
0.0000

> <Gold.Chemscore.DEClash>
0.2946

> <Gold.Chemscore.DEInternal>
0.9684

> <Gold.Chemscore.Rot>
1.4838

> <Gold.Chemscore.Internal.Correction>
   9.000000E+99

> <Gold.Chemscore.Hbonds>
donor molecule, donor type, donor heavy atom, donor atom, acceptor molecule, acceptor atom, score
      L1  H     5    26       P1  8029  0.03
      L1  H     8    27       P1  8028  0.21
      P1  H  6934  6946       L1     7  0.04

> <Gold.Chemscore.Hbond.Weighted>
-4.5435

> <Gold.Chemscore.Metal.Weighted>
-0.0000

> <Gold.Chemscore.Lipo.Weighted>
-10.7740

> <Gold.Chemscore.Internal_Hbond.Weighted>
0.0000

> <Gold.Chemscore.DEClash.Weighted>
0.2946

> <Gold.Chemscore.DEInternal.Weighted>
0.9684

> <Gold.Chemscore.Rot.Weighted>
3.7985

> <Gold.Chemscore.Internal.Correction.Weighted>
   9.000000E+99

> <Gold.Protein.RotatedTorsions>
[ 6907 6896 6895 6894 ] final  -48.65 input  -60.11 | X-H torsion
[ 7974 7965 7964 7962 ] final  -11.52 input  175.53 | X-H torsion
[ 8008 7997 7996 7995 ] final   65.86 input   59.86 | X-H torsion
[ 10167 10162 10161 10158 ] final  -10.78 input  -65.29 | X-H torsion
[ 10718 10713 10712 10709 ] final   63.06 input   66.30 | X-H torsion
[ 10763 10752 10751 10750 ] final  -21.40 input  -60.55 | X-H torsion
[ 11005 11000 10999 10996 ] final -107.70 input  -57.11 | X-H torsion

> <Gold.Protein.ActiveResidues>
 VAL166  LYS551  ARG553  GLY616  TRP617  ASP618  TYR619  PRO620  LYS621  CYS622 
 ASP623  PHE694  ASN695  SER759  ASP760  ASP761  ALA762  ILE779  LEU786  VAL792 
 PHE793  MET794  SER795  GLU796  ALA797  LYS798  CYS799  TRP800  GLU811  SER814 

> <Gold.Protein.RotatedAtoms>
  150.8884  134.8285  159.7275 H   0  0  0  0  0  0  0  0  0  0  0  0  # atno 6907 bound_to 6896
  152.4822  134.4686  159.9638 H   0  0  0  0  0  0  0  0  0  0  0  0  # atno 6908 bound_to 6896
  151.4751  133.3521  159.2865 H   0  0  0  0  0  0  0  0  0  0  0  0  # atno 6909 bound_to 6896
  146.2184  140.2923  142.8369 H   0  0  0  0  0  0  0  0  0  0  0  0  # atno 7974 bound_to 7965
  155.6684  140.3497  155.4809 H   0  0  0  0  0  0  0  0  0  0  0  0  # atno 8008 bound_to 7997
  155.9709  140.1155  157.0835 H   0  0  0  0  0  0  0  0  0  0  0  0  # atno 8009 bound_to 7997
  154.4166  140.1157  156.5292 H   0  0  0  0  0  0  0  0  0  0  0  0  # atno 8010 bound_to 7997
  140.7122  143.5710  150.9092 H   0  0  0  0  0  0  0  0  0  0  0  0  # atno 10167 bound_to 10162
  157.5945  130.9085  149.9668 H   0  0  0  0  0  0  0  0  0  0  0  0  # atno 10718 bound_to 10713
  153.6356  135.6987  153.5260 H   0  0  0  0  0  0  0  0  0  0  0  0  # atno 10763 bound_to 10752
  153.2824  135.4181  155.1090 H   0  0  0  0  0  0  0  0  0  0  0  0  # atno 10764 bound_to 10752
  154.8512  135.3605  154.5899 H   0  0  0  0  0  0  0  0  0  0  0  0  # atno 10765 bound_to 10752
  141.0940  133.9004  157.2007 H   0  0  0  0  0  0  0  0  0  0  0  0  # atno 11005 bound_to 11000
  144.9117  140.7765  143.5803 LP  0  0  0  0  0  0  0  0  0  0  0  0  # atno 17320 bound_to 7965
  145.2854  139.1903  143.4768 LP  0  0  0  0  0  0  0  0  0  0  0  0  # atno 17321 bound_to 7965
  139.9436  143.6353  152.3047 LP  0  0  0  0  0  0  0  0  0  0  0  0  # atno 17342 bound_to 10162
  139.6846  144.7652  151.1546 LP  0  0  0  0  0  0  0  0  0  0  0  0  # atno 17343 bound_to 10162
  156.1005  130.3656  150.0227 LP  0  0  0  0  0  0  0  0  0  0  0  0  # atno 17370 bound_to 10713
  156.8343  130.9403  151.3635 LP  0  0  0  0  0  0  0  0  0  0  0  0  # atno 17371 bound_to 10713
  139.9773  135.0110  156.9662 LP  0  0  0  0  0  0  0  0  0  0  0  0  # atno 17394 bound_to 11000
  140.5184  134.0932  155.7286 LP  0  0  0  0  0  0  0  0  0  0  0  0  # atno 17395 bound_to 11000

$$$$
