AV-unprocessed.smi:157|AV-procd|sdf|1304|dock1
  -GOLD-   2262018593D 1   1.00000     0.00000
 Structure written by MMmdl.
 35 37  0  0  0  0  0  0  0  0  1 V2000
  147.5934  140.3041  153.1133 O   0  0  0  0  0  0  0  0  0  0  0  0
  148.2918  141.0637  154.0768 C   0  0  0  0  0  0  0  0  0  0  0  0
  148.9699  140.1422  155.1031 C   0  0  2  0  0  0  0  0  0  0  0  0
  149.7752  140.9280  155.9842 O   0  0  0  0  0  0  0  0  0  0  0  0
  151.0743  140.4233  156.0180 C   0  0  1  0  0  0  0  0  0  0  0  0
  151.5877  140.5003  157.4212 N   0  0  0  0  0  0  0  0  0  0  0  0
  151.9670  139.4653  158.1820 C   0  0  0  0  0  0  0  0  0  0  0  0
  152.3924  139.7975  159.3888 N   0  0  0  0  0  0  0  0  0  0  0  0
  152.2874  141.1871  159.4113 C   0  0  0  0  0  0  0  0  0  0  0  0
  151.7963  141.6446  158.1967 C   0  0  0  0  0  0  0  0  0  0  0  0
  151.4899  142.8743  157.6459 N   0  0  0  0  0  0  0  0  0  0  0  0
  151.9828  143.9341  158.2054 C   0  0  0  0  0  0  0  0  0  0  0  0
  152.7319  144.0700  159.3655 N   0  0  0  0  0  0  0  0  0  0  0  0
  152.3765  143.4411  160.6259 C   0  0  0  0  0  0  0  0  0  0  0  0
  152.6612  141.9347  160.6586 C   0  0  2  0  0  0  0  0  0  0  0  0
  154.0429  141.7248  160.8679 O   0  0  0  0  0  0  0  0  0  0  0  0
  150.9845  138.9749  155.5604 C   0  0  0  0  0  0  0  0  0  0  0  0
  149.9202  139.0982  154.4927 C   0  0  1  0  0  0  0  0  0  0  0  0
  149.2898  137.8540  154.2688 O   0  0  0  0  0  0  0  0  0  0  0  0
  148.2194  139.6540  155.7272 H   0  0  0  0  0  0  0  0  0  0  0  0
  151.7318  141.0413  155.4055 H   0  0  0  0  0  0  0  0  0  0  0  0
  152.1437  141.5050  161.5168 H   0  0  0  0  0  0  0  0  0  0  0  0
  150.3654  139.4668  153.5674 H   0  0  0  0  0  0  0  0  0  0  0  0
  148.1823  140.1082  152.4008 H   0  0  0  0  0  0  0  0  0  0  0  0
  149.0218  141.7055  153.5825 H   0  0  0  0  0  0  0  0  0  0  0  0
  147.5762  141.7165  154.5774 H   0  0  0  0  0  0  0  0  0  0  0  0
  151.9296  138.4408  157.8416 H   0  0  0  0  0  0  0  0  0  0  0  0
  151.8027  144.9001  157.7314 H   0  0  0  0  0  0  0  0  0  0  0  0
  153.2317  144.9344  159.5167 H   0  0  0  0  0  0  0  0  0  0  0  0
  152.8803  143.9491  161.4488 H   0  0  0  0  0  0  0  0  0  0  0  0
  151.3077  143.6007  160.7776 H   0  0  0  0  0  0  0  0  0  0  0  0
  154.1437  141.0056  161.4729 H   0  0  0  0  0  0  0  0  0  0  0  0
  151.9454  138.6101  155.1961 H   0  0  0  0  0  0  0  0  0  0  0  0
  150.6453  138.3492  156.3882 H   0  0  0  0  0  0  0  0  0  0  0  0
  149.2619  137.6947  153.3378 H   0  0  0  0  0  0  0  0  0  0  0  0
  1  2  1  0  0  0  0
  1 24  1  0  0  0  0
  2  3  1  0  0  0  0
  2 25  1  0  0  0  0
  2 26  1  0  0  0  0
  3 20  1  0  0  0  0
  3 18  1  0  0  0  0
  3  4  1  0  0  0  0
  4  5  1  0  0  0  0
  5 21  1  0  0  0  0
  5  6  1  0  0  0  0
  5 17  1  0  0  0  0
  6 10  1  0  0  0  0
  6  7  1  0  0  0  0
  7  8  2  0  0  0  0
  7 27  1  0  0  0  0
  8  9  1  0  0  0  0
  9 15  1  0  0  0  0
  9 10  2  0  0  0  0
 10 11  1  0  0  0  0
 11 12  2  0  0  0  0
 12 13  1  0  0  0  0
 12 28  1  0  0  0  0
 13 14  1  0  0  0  0
 13 29  1  0  0  0  0
 14 15  1  0  0  0  0
 14 30  1  0  0  0  0
 14 31  1  0  0  0  0
 15 22  1  0  0  0  0
 15 16  1  0  0  0  0
 16 32  1  0  0  0  0
 17 18  1  0  0  0  0
 17 33  1  0  0  0  0
 17 34  1  0  0  0  0
 18 23  1  0  0  0  0
 18 19  1  0  0  0  0
 19 35  1  0  0  0  0
M  END
> <s_m_source_file>
AV-unprocessed.smi

> <i_m_source_file_index>
157

> <i_lp_mmshare_version>
43012

> <i_f3d_flags>
0

> <s_epik_input>
W09IXVtDSDJdW0NASF0xT1tDQEhdKFtDSDJdW0NAQEhdMVtPSF0pbihbY0hdbjIpYyhjMjMpTj1bQ0hdW05IXVtDSDJdW0NASF0zW09IXQ==

> <s_epik_cmdline>
J2VwaWtfcHl0aG9uJywgJy1waCcsICc3LjAnLCAnLXRuJywgJzgnLCAnLW1hJywgJzIwMCcsICctbWV0YWxfYmluZGluZycsICctaW1hZScsICc8aW5maWxlLm1hZT4nLCAnLW9tYWUnLCAnPG91dGZpbGUubWFlPic=

> <r_lp_tautomer_probability>
1

> <r_epik_Ionization_Penalty>
0.0357149

> <r_epik_Ionization_Penalty_Charging>
0.0355056

> <r_epik_Ionization_Penalty_Neutral>
0.000209255

> <r_epik_State_Penalty>
0.0296046

> <r_epik_Charging_Adjusted_Penalty>
0.0651102

> <i_epik_Tot_Q>
0

> <i_epik_Tot_abs_Q>
0

> <r_epik_Metal_State_Penalty>
3.03559e-05

> <b_epik_Metal_Only>
0

> <s_epik_Chemistry_Notes>
This compound has an imine and may undergo hydrolysis. This compound contains an acetal/aminal-like group ( X-CH(R)-Y where X, Y are N, S, or O) that may be acid/base labile, releasing an aldehyde.

> <s_lp_Force_Field>
OPLS_2005

> <r_lp_Energy>
43.9106

> <b_lp_Chiralities_Consistent>
1

> <s_lp_Variant>
AV-unprocessed.smi:157-14

> <Gold.Version>
5.8.1

> <Gold.Id.Protein>
6NUR|6NUR_protein|mol2

> <Gold.PLP.Fitness>
42.3609

> <Gold.PLP.PLP>
-37.8408

> <Gold.PLP.part.hbond>
-2.3279

> <Gold.PLP.part.metal>
0.0000

> <Gold.PLP.part.buried>
-5.2294

> <Gold.PLP.part.nonpolar>
-30.4573

> <Gold.PLP.part.repulsive>
0.1399

> <Gold.PLP.ligand.clash>
0.0000

> <Gold.PLP.ligand.torsion>
0.0195

> <Gold.PLP.Chemscore.Hbond>
1.5148

> <Gold.PLP.Chemscore.CHOScore>
0.0000

> <Gold.PLP.Chemscore.Metal>
0.0000

> <Gold.Chemscore.Hbonds>
donor molecule, donor type, donor heavy atom, donor atom, acceptor molecule, acceptor atom, score
      L1  H     1    24       P1  7957  1.00
      L1  H    19    35       P1  7948  0.82

> <Gold.PLP.Chemscore.Internal.Correction>
0.0148

> <Gold.Rescore>
     Score         DG    S(hbond)    S(metal)    S(lipo)     H(rot)  DE(clash)    DE(int)     intcor
      9.27      -9.33       1.94        0.00      56.95       3.64       0.02       0.04       ----

> <Gold.Chemscore.Fitness>
9.2702

> <Gold.Chemscore.DG>
-9.3262

> <Gold.Chemscore.ZeroCoef>
-5.4800

> <Gold.Chemscore.Hbond>
1.9435

> <Gold.Chemscore.Metal>
0.0000

> <Gold.Chemscore.Lipo>
56.9541

> <Gold.Chemscore.Internal_Hbond>
0.0000

> <Gold.Chemscore.DEClash>
0.0204

> <Gold.Chemscore.DEInternal>
0.0357

> <Gold.Chemscore.Rot>
3.6362

> <Gold.Chemscore.Internal.Correction>
   9.000000E+99

> <Gold.Chemscore.Hbonds>
donor molecule, donor type, donor heavy atom, donor atom, acceptor molecule, acceptor atom, score
      L1  H     1    24       P1  7957  1.00
      L1  H    19    35       P1  7948  0.75

> <Gold.Chemscore.Hbond.Weighted>
-6.4913

> <Gold.Chemscore.Metal.Weighted>
-0.0000

> <Gold.Chemscore.Lipo.Weighted>
-6.6636

> <Gold.Chemscore.Internal_Hbond.Weighted>
0.0000

> <Gold.Chemscore.DEClash.Weighted>
0.0204

> <Gold.Chemscore.DEInternal.Weighted>
0.0357

> <Gold.Chemscore.Rot.Weighted>
9.3087

> <Gold.Chemscore.Internal.Correction.Weighted>
   9.000000E+99

> <Gold.Protein.RotatedTorsions>
[ 6907 6896 6895 6894 ] final  140.29 input  -60.11 | X-H torsion
[ 7974 7965 7964 7962 ] final   43.75 input  175.53 | X-H torsion
[ 8008 7997 7996 7995 ] final  -31.59 input   59.86 | X-H torsion
[ 10167 10162 10161 10158 ] final  163.45 input  -65.29 | X-H torsion
[ 10718 10713 10712 10709 ] final   23.07 input   66.30 | X-H torsion
[ 10763 10752 10751 10750 ] final   11.51 input  -60.55 | X-H torsion
[ 11005 11000 10999 10996 ] final   97.46 input  -57.11 | X-H torsion

> <Gold.Protein.ActiveResidues>
 VAL166  LYS551  ARG553  GLY616  TRP617  ASP618  TYR619  PRO620  LYS621  CYS622 
 ASP623  PHE694  ASN695  SER759  ASP760  ASP761  ALA762  ILE779  LEU786  VAL792 
 PHE793  MET794  SER795  GLU796  ALA797  LYS798  CYS799  TRP800  GLU811  SER814 

> <Gold.Protein.RotatedAtoms>
  152.2448  133.5165  159.5290 H   0  0  0  0  0  0  0  0  0  0  0  0  # atno 6907 bound_to 6896
  150.7075  134.1040  159.3985 H   0  0  0  0  0  0  0  0  0  0  0  0  # atno 6908 bound_to 6896
  151.8961  135.0397  160.0553 H   0  0  0  0  0  0  0  0  0  0  0  0  # atno 6909 bound_to 6896
  146.0628  139.5151  142.9647 H   0  0  0  0  0  0  0  0  0  0  0  0  # atno 7974 bound_to 7965
  154.4208  140.1760  156.1591 H   0  0  0  0  0  0  0  0  0  0  0  0  # atno 8008 bound_to 7997
  155.9853  140.3374  155.6677 H   0  0  0  0  0  0  0  0  0  0  0  0  # atno 8009 bound_to 7997
  155.6446  140.0683  157.2598 H   0  0  0  0  0  0  0  0  0  0  0  0  # atno 8010 bound_to 7997
  139.4874  144.4336  151.9040 H   0  0  0  0  0  0  0  0  0  0  0  0  # atno 10167 bound_to 10162
  157.1611  130.6717  149.6044 H   0  0  0  0  0  0  0  0  0  0  0  0  # atno 10718 bound_to 10713
  153.1919  135.6843  153.8342 H   0  0  0  0  0  0  0  0  0  0  0  0  # atno 10763 bound_to 10752
  153.7638  135.3206  155.3342 H   0  0  0  0  0  0  0  0  0  0  0  0  # atno 10764 bound_to 10752
  154.8122  135.4710  154.0645 H   0  0  0  0  0  0  0  0  0  0  0  0  # atno 10765 bound_to 10752
  139.8776  134.9002  156.4311 H   0  0  0  0  0  0  0  0  0  0  0  0  # atno 11005 bound_to 11000
  145.6530  141.0259  143.1750 LP  0  0  0  0  0  0  0  0  0  0  0  0  # atno 17320 bound_to 7965
  144.7185  139.8113  143.7390 LP  0  0  0  0  0  0  0  0  0  0  0  0  # atno 17321 bound_to 7965
  140.3784  144.2767  150.5911 LP  0  0  0  0  0  0  0  0  0  0  0  0  # atno 17342 bound_to 10162
  140.5255  143.2255  151.8321 LP  0  0  0  0  0  0  0  0  0  0  0  0  # atno 17343 bound_to 10162
  155.9753  130.4711  150.6454 LP  0  0  0  0  0  0  0  0  0  0  0  0  # atno 17370 bound_to 10713
  157.4131  131.0826  151.1202 LP  0  0  0  0  0  0  0  0  0  0  0  0  # atno 17371 bound_to 10713
  140.9066  133.7741  155.9742 LP  0  0  0  0  0  0  0  0  0  0  0  0  # atno 17394 bound_to 11000
  140.8592  134.2860  157.5242 LP  0  0  0  0  0  0  0  0  0  0  0  0  # atno 17395 bound_to 11000

$$$$
