AV-unprocessed.smi:1044|AV-procd|sdf|4543|dock5
  -GOLD-   22720 2573D 1   1.00000     0.00000
 Structure written by MMmdl.
 45 46  0  0  0  0  0  0  0  0  1 V2000
  146.3027  132.6076  150.0644 C   0  0  0  0  0  0  0  0  0  0  0  0
  145.9464  133.5185  151.2418 C   0  0  0  0  0  0  0  0  0  0  0  0
  147.1171  133.7304  152.0248 O   0  0  0  0  0  0  0  0  0  0  0  0
  147.6260  132.6757  152.7586 C   0  0  0  0  0  0  0  0  0  0  0  0
  147.0740  131.4477  152.5917 N   0  0  0  0  0  0  0  0  0  0  0  0
  147.5733  130.4162  153.3026 C   0  0  0  0  0  0  0  0  0  0  0  0
  148.6437  130.5501  154.2053 C   0  0  0  0  0  0  0  0  0  0  0  0
  149.2176  131.8231  154.3812 C   0  0  0  0  0  0  0  0  0  0  0  0
  148.6954  132.9191  153.6519 C   0  0  0  0  0  0  0  0  0  0  0  0
  149.2096  134.2432  153.7346 N   0  0  0  0  0  0  0  0  0  0  0  0
  150.0070  134.7817  154.6727 C   0  0  0  0  0  0  0  0  0  0  0  0
  150.4208  134.2027  155.6769 O   0  0  0  0  0  0  0  0  0  0  0  0
  150.2899  136.0607  154.3876 N   0  0  0  0  0  0  0  0  0  0  0  0
  151.1276  136.9382  155.1990 C   0  0  1  0  0  0  0  0  0  0  0  0
  151.6060  138.1276  154.3549 C   0  0  0  0  0  0  0  0  0  0  0  0
  152.4620  139.0613  155.2176 C   0  0  0  0  0  0  0  0  0  0  0  0
  151.6932  139.5281  156.4658 C   0  0  0  0  0  0  0  0  0  0  0  0
  151.1545  138.3876  157.2354 N   0  0  0  0  0  0  0  0  0  0  0  0
  151.9607  137.8528  158.6819 S   0  0  0  0  0  0  0  0  0  0  0  0
  153.4395  136.9507  158.0642 C   0  0  0  0  0  0  0  0  0  0  0  0
  152.4199  139.0459  159.4092 O   0  0  0  0  0  0  0  0  0  0  0  0
  151.0814  136.8837  159.3536 O   0  0  0  0  0  0  0  0  0  0  0  0
  150.3566  137.4296  156.4435 C   0  0  0  0  0  0  0  0  0  0  0  0
  145.4295  132.4207  149.4390 H   0  0  0  0  0  0  0  0  0  0  0  0
  146.6767  131.6446  150.4132 H   0  0  0  0  0  0  0  0  0  0  0  0
  147.0719  133.0604  149.4382 H   0  0  0  0  0  0  0  0  0  0  0  0
  145.5616  134.4678  150.8656 H   0  0  0  0  0  0  0  0  0  0  0  0
  145.1655  133.0505  151.8433 H   0  0  0  0  0  0  0  0  0  0  0  0
  147.1095  129.4541  153.1423 H   0  0  0  0  0  0  0  0  0  0  0  0
  149.0196  129.6951  154.7474 H   0  0  0  0  0  0  0  0  0  0  0  0
  150.0519  131.9269  155.0573 H   0  0  0  0  0  0  0  0  0  0  0  0
  148.8855  134.8729  153.0151 H   0  0  0  0  0  0  0  0  0  0  0  0
  149.9000  136.4570  153.5450 H   0  0  0  0  0  0  0  0  0  0  0  0
  152.0081  136.3782  155.5144 H   0  0  0  0  0  0  0  0  0  0  0  0
  152.1844  137.7785  153.4987 H   0  0  0  0  0  0  0  0  0  0  0  0
  150.7512  138.6754  153.9555 H   0  0  0  0  0  0  0  0  0  0  0  0
  153.3795  138.5524  155.5106 H   0  0  0  0  0  0  0  0  0  0  0  0
  152.7692  139.9269  154.6303 H   0  0  0  0  0  0  0  0  0  0  0  0
  152.3326  140.1458  157.0958 H   0  0  0  0  0  0  0  0  0  0  0  0
  150.8589  140.1613  156.1625 H   0  0  0  0  0  0  0  0  0  0  0  0
  154.0236  136.6018  158.9151 H   0  0  0  0  0  0  0  0  0  0  0  0
  154.0556  137.6146  157.4603 H   0  0  0  0  0  0  0  0  0  0  0  0
  153.1283  136.0894  157.4748 H   0  0  0  0  0  0  0  0  0  0  0  0
  149.4349  137.9252  156.1358 H   0  0  0  0  0  0  0  0  0  0  0  0
  150.0572  136.5876  157.0678 H   0  0  0  0  0  0  0  0  0  0  0  0
  1  2  1  0  0  0  0
  1 24  1  0  0  0  0
  1 25  1  0  0  0  0
  1 26  1  0  0  0  0
  2  3  1  0  0  0  0
  2 27  1  0  0  0  0
  2 28  1  0  0  0  0
  3  4  1  0  0  0  0
  4  9  1  0  0  0  0
  4  5  2  0  0  0  0
  5  6  1  0  0  0  0
  6  7  2  0  0  0  0
  6 29  1  0  0  0  0
  7  8  1  0  0  0  0
  7 30  1  0  0  0  0
  8  9  2  0  0  0  0
  8 31  1  0  0  0  0
  9 10  1  0  0  0  0
 10 11  1  0  0  0  0
 10 32  1  0  0  0  0
 11 12  2  0  0  0  0
 11 13  1  0  0  0  0
 13 14  1  0  0  0  0
 13 33  1  0  0  0  0
 14 23  1  0  0  0  0
 14 15  1  0  0  0  0
 14 34  1  0  0  0  0
 15 16  1  0  0  0  0
 15 35  1  0  0  0  0
 15 36  1  0  0  0  0
 16 17  1  0  0  0  0
 16 37  1  0  0  0  0
 16 38  1  0  0  0  0
 17 18  1  0  0  0  0
 17 39  1  0  0  0  0
 17 40  1  0  0  0  0
 18 19  1  0  0  0  0
 18 23  1  0  0  0  0
 19 20  1  0  0  0  0
 19 21  2  0  0  0  0
 19 22  2  0  0  0  0
 20 41  1  0  0  0  0
 20 42  1  0  0  0  0
 20 43  1  0  0  0  0
 23 44  1  0  0  0  0
 23 45  1  0  0  0  0
M  END
> <s_m_source_file>
AV-unprocessed.smi

> <i_m_source_file_index>
1044

> <i_lp_mmshare_version>
43012

> <i_f3d_flags>
0

> <s_epik_input>
W0NIM11bQ0gyXU9jMW5bY0hdW2NIXVtjSF1jMVtOSF1DKD1PKVtOSF1bQ0BASF0yW0NIMl1bQ0gyXVtDSDJdTihbQ0gyXTIpUyg9TykoPU8pW0NIM10=

> <s_epik_cmdline>
J2VwaWtfcHl0aG9uJywgJy1waCcsICc3LjAnLCAnLXRuJywgJzgnLCAnLW1hJywgJzIwMCcsICctbWV0YWxfYmluZGluZycsICctaW1hZScsICc8aW5maWxlLm1hZT4nLCAnLW9tYWUnLCAnPG91dGZpbGUubWFlPic=

> <r_lp_tautomer_probability>
1

> <r_epik_Ionization_Penalty>
0.000106941

> <r_epik_Ionization_Penalty_Charging>
0

> <r_epik_Ionization_Penalty_Neutral>
0.000106941

> <r_epik_State_Penalty>
-0

> <r_epik_Charging_Adjusted_Penalty>
0

> <i_epik_Tot_Q>
0

> <i_epik_Tot_abs_Q>
0

> <r_epik_Metal_State_Penalty>
-0

> <b_epik_Metal_Only>
0

> <s_lp_Force_Field>
OPLS_2005

> <r_lp_Energy>
2.58549

> <b_lp_Chiralities_Consistent>
1

> <s_lp_Variant>
AV-unprocessed.smi:1044-2

> <Gold.Version>
5.8.1

> <Gold.Id.Protein>
6NUR|6NUR_protein|mol2

> <Gold.PLP.Fitness>
43.6740

> <Gold.PLP.PLP>
-35.3765

> <Gold.PLP.part.hbond>
-3.9180

> <Gold.PLP.part.metal>
0.0000

> <Gold.PLP.part.buried>
-4.8951

> <Gold.PLP.part.nonpolar>
-27.4945

> <Gold.PLP.part.repulsive>
0.5885

> <Gold.PLP.ligand.clash>
0.0000

> <Gold.PLP.ligand.torsion>
1.3986

> <Gold.PLP.Chemscore.Hbond>
3.0000

> <Gold.PLP.Chemscore.CHOScore>
0.0000

> <Gold.PLP.Chemscore.Metal>
0.0000

> <Gold.Chemscore.Hbonds>
donor molecule, donor type, donor heavy atom, donor atom, acceptor molecule, acceptor atom, score
      L1  H    10    32       P1  7948  0.85
      L1  H    13    33       P1  7948  0.89
      P1  H  6896  6908       L1    22  1.00

> <Gold.PLP.Chemscore.Internal.Correction>
2.0947

> <Gold.Rescore>
     Score         DG    S(hbond)    S(metal)    S(lipo)     H(rot)  DE(clash)    DE(int)     intcor
     14.96     -17.56       2.39        0.00      66.73       1.45       0.05       2.55       ----

> <Gold.Chemscore.Fitness>
14.9604

> <Gold.Chemscore.DG>
-17.5599

> <Gold.Chemscore.ZeroCoef>
-5.4800

> <Gold.Chemscore.Hbond>
2.3943

> <Gold.Chemscore.Metal>
0.0000

> <Gold.Chemscore.Lipo>
66.7308

> <Gold.Chemscore.Internal_Hbond>
0.0000

> <Gold.Chemscore.DEClash>
0.0506

> <Gold.Chemscore.DEInternal>
2.5489

> <Gold.Chemscore.Rot>
1.4549

> <Gold.Chemscore.Internal.Correction>
   9.000000E+99

> <Gold.Chemscore.Hbonds>
donor molecule, donor type, donor heavy atom, donor atom, acceptor molecule, acceptor atom, score
      L1  H    10    32       P1  7948  0.14
      L1  H    13    33       P1  7948  0.17
      P1  H  6896  6908       L1    22  0.97

> <Gold.Chemscore.Hbond.Weighted>
-7.9968

> <Gold.Chemscore.Metal.Weighted>
-0.0000

> <Gold.Chemscore.Lipo.Weighted>
-7.8075

> <Gold.Chemscore.Internal_Hbond.Weighted>
0.0000

> <Gold.Chemscore.DEClash.Weighted>
0.0506

> <Gold.Chemscore.DEInternal.Weighted>
2.5489

> <Gold.Chemscore.Rot.Weighted>
3.7244

> <Gold.Chemscore.Internal.Correction.Weighted>
   9.000000E+99

> <Gold.Protein.RotatedTorsions>
[ 6907 6896 6895 6894 ] final -151.18 input  -60.11 | X-H torsion
[ 7974 7965 7964 7962 ] final  -84.33 input  175.53 | X-H torsion
[ 8008 7997 7996 7995 ] final   61.57 input   59.86 | X-H torsion
[ 10167 10162 10161 10158 ] final  -26.31 input  -65.29 | X-H torsion
[ 10718 10713 10712 10709 ] final  156.07 input   66.30 | X-H torsion
[ 10763 10752 10751 10750 ] final   15.41 input  -60.55 | X-H torsion
[ 11005 11000 10999 10996 ] final -165.52 input  -57.11 | X-H torsion

> <Gold.Protein.ActiveResidues>
 VAL166  LYS551  ARG553  GLY616  TRP617  ASP618  TYR619  PRO620  LYS621  CYS622 
 ASP623  PHE694  ASN695  SER759  ASP760  ASP761  ALA762  ILE779  LEU786  VAL792 
 PHE793  MET794  SER795  GLU796  ALA797  LYS798  CYS799  TRP800  GLU811  SER814 

> <Gold.Protein.RotatedAtoms>
  151.2093  133.4565  159.2597 H   0  0  0  0  0  0  0  0  0  0  0  0  # atno 6907 bound_to 6896
  151.0992  134.9962  159.8450 H   0  0  0  0  0  0  0  0  0  0  0  0  # atno 6908 bound_to 6896
  152.5442  134.2021  159.8769 H   0  0  0  0  0  0  0  0  0  0  0  0  # atno 6909 bound_to 6896
  145.5080  140.9542  143.1723 H   0  0  0  0  0  0  0  0  0  0  0  0  # atno 7974 bound_to 7965
  155.6005  140.3494  155.4592 H   0  0  0  0  0  0  0  0  0  0  0  0  # atno 8008 bound_to 7997
  156.0232  140.1258  157.0360 H   0  0  0  0  0  0  0  0  0  0  0  0  # atno 8009 bound_to 7997
  154.4323  140.1058  156.5979 H   0  0  0  0  0  0  0  0  0  0  0  0  # atno 8010 bound_to 7997
  140.7283  143.4189  151.0983 H   0  0  0  0  0  0  0  0  0  0  0  0  # atno 10167 bound_to 10162
  157.2098  131.0695  151.1976 H   0  0  0  0  0  0  0  0  0  0  0  0  # atno 10718 bound_to 10713
  153.1528  135.6781  153.8856 H   0  0  0  0  0  0  0  0  0  0  0  0  # atno 10763 bound_to 10752
  153.8277  135.3122  155.3417 H   0  0  0  0  0  0  0  0  0  0  0  0  # atno 10764 bound_to 10752
  154.7875  135.4853  154.0066 H   0  0  0  0  0  0  0  0  0  0  0  0  # atno 10765 bound_to 10752
  140.5748  134.5201  157.5168 H   0  0  0  0  0  0  0  0  0  0  0  0  # atno 11005 bound_to 11000
  144.7743  139.6665  143.7181 LP  0  0  0  0  0  0  0  0  0  0  0  0  # atno 17320 bound_to 7965
  146.2184  139.5591  142.9634 LP  0  0  0  0  0  0  0  0  0  0  0  0  # atno 17321 bound_to 7965
  139.7833  143.8324  152.3141 LP  0  0  0  0  0  0  0  0  0  0  0  0  # atno 17342 bound_to 10162
  139.8283  144.7265  150.9483 LP  0  0  0  0  0  0  0  0  0  0  0  0  # atno 17343 bound_to 10162
  157.3683  130.7167  149.6548 LP  0  0  0  0  0  0  0  0  0  0  0  0  # atno 17370 bound_to 10713
  155.9692  130.4206  150.4430 LP  0  0  0  0  0  0  0  0  0  0  0  0  # atno 17371 bound_to 10713
  139.9345  134.7902  156.0841 LP  0  0  0  0  0  0  0  0  0  0  0  0  # atno 17394 bound_to 11000
  141.1033  133.6669  156.2806 LP  0  0  0  0  0  0  0  0  0  0  0  0  # atno 17395 bound_to 11000

$$$$
