AV-unprocessed.smi:467|AV-procd|sdf|2644|dock10
  -GOLD-   2262023 53D 1   1.00000     0.00000
 Structure written by MMmdl.
 44 46  0  0  0  0  0  0  0  0  1 V2000
  153.1013  142.9158  161.5267 C   0  0  0  0  0  0  0  0  0  0  0  0
  152.5625  142.5949  160.1438 C   0  0  0  0  0  0  0  0  0  0  0  0
  152.8554  141.3388  159.5661 C   0  0  0  0  0  0  0  0  0  0  0  0
  152.3677  140.9994  158.2849 C   0  0  0  0  0  0  0  0  0  0  0  0
  152.5236  139.8420  157.5412 N   0  0  0  0  0  0  0  0  0  0  0  0
  151.8349  140.1354  156.4419 C   0  0  0  0  0  0  0  0  0  0  0  0
  151.2521  141.3481  156.3841 N   0  0  0  0  0  0  0  0  0  0  0  0
  150.4565  141.8834  155.2933 C   0  0  0  0  0  0  0  0  0  0  0  0
  149.5178  140.8307  154.6732 C   0  0  1  0  0  0  0  0  0  0  0  0
  150.2758  139.9318  153.8874 O   0  0  0  0  0  0  0  0  0  0  0  0
  148.7806  140.0223  155.7593 C   0  0  0  0  0  0  0  0  0  0  0  0
  147.6313  140.6898  156.3737 N   0  0  0  0  0  0  0  0  0  0  0  0
  147.9970  141.9134  157.0857 C   0  0  0  0  0  0  0  0  0  0  0  0
  146.7769  142.5795  157.7461 C   0  0  0  0  0  0  0  0  0  0  0  0
  146.1395  141.6541  158.6202 O   0  0  0  0  0  0  0  0  0  0  0  0
  145.7248  140.4668  157.9531 C   0  0  0  0  0  0  0  0  0  0  0  0
  146.9431  139.7942  157.2978 C   0  0  0  0  0  0  0  0  0  0  0  0
  151.5777  141.9610  157.5894 C   0  0  0  0  0  0  0  0  0  0  0  0
  151.2820  143.2148  158.1525 C   0  0  0  0  0  0  0  0  0  0  0  0
  151.7716  143.5355  159.4359 C   0  0  0  0  0  0  0  0  0  0  0  0
  151.4362  144.8878  160.0394 C   0  0  0  0  0  0  0  0  0  0  0  0
  153.7321  142.1110  161.9053 H   0  0  0  0  0  0  0  0  0  0  0  0
  152.2812  143.0587  162.2307 H   0  0  0  0  0  0  0  0  0  0  0  0
  153.7007  143.8259  161.5035 H   0  0  0  0  0  0  0  0  0  0  0  0
  153.4561  140.6213  160.1054 H   0  0  0  0  0  0  0  0  0  0  0  0
  151.7480  139.4276  155.6304 H   0  0  0  0  0  0  0  0  0  0  0  0
  149.8868  142.7372  155.6629 H   0  0  0  0  0  0  0  0  0  0  0  0
  151.1381  142.2708  154.5346 H   0  0  0  0  0  0  0  0  0  0  0  0
  148.8087  141.3440  154.0249 H   0  0  0  0  0  0  0  0  0  0  0  0
  149.9294  139.9420  153.0079 H   0  0  0  0  0  0  0  0  0  0  0  0
  148.4520  139.0828  155.3117 H   0  0  0  0  0  0  0  0  0  0  0  0
  149.4890  139.7436  156.5410 H   0  0  0  0  0  0  0  0  0  0  0  0
  148.7427  141.6887  157.8497 H   0  0  0  0  0  0  0  0  0  0  0  0
  148.4527  142.6308  156.4049 H   0  0  0  0  0  0  0  0  0  0  0  0
  147.0854  143.4553  158.3170 H   0  0  0  0  0  0  0  0  0  0  0  0
  146.0687  142.9228  156.9901 H   0  0  0  0  0  0  0  0  0  0  0  0
  145.2627  139.7939  158.6754 H   0  0  0  0  0  0  0  0  0  0  0  0
  144.9666  140.7060  157.2056 H   0  0  0  0  0  0  0  0  0  0  0  0
  146.6160  138.8974  156.7700 H   0  0  0  0  0  0  0  0  0  0  0  0
  147.6330  139.4634  158.0760 H   0  0  0  0  0  0  0  0  0  0  0  0
  150.6764  143.9200  157.6025 H   0  0  0  0  0  0  0  0  0  0  0  0
  150.8037  145.4747  159.3727 H   0  0  0  0  0  0  0  0  0  0  0  0
  152.3453  145.4589  160.2280 H   0  0  0  0  0  0  0  0  0  0  0  0
  150.9022  144.7633  160.9818 H   0  0  0  0  0  0  0  0  0  0  0  0
  1  2  1  0  0  0  0
  1 22  1  0  0  0  0
  1 23  1  0  0  0  0
  1 24  1  0  0  0  0
  2 20  1  0  0  0  0
  2  3  2  0  0  0  0
  3  4  1  0  0  0  0
  3 25  1  0  0  0  0
  4 18  2  0  0  0  0
  4  5  1  0  0  0  0
  5  6  2  0  0  0  0
  6  7  1  0  0  0  0
  6 26  1  0  0  0  0
  7  8  1  0  0  0  0
  7 18  1  0  0  0  0
  8  9  1  0  0  0  0
  8 27  1  0  0  0  0
  8 28  1  0  0  0  0
  9 10  1  0  0  0  0
  9 11  1  0  0  0  0
  9 29  1  0  0  0  0
 10 30  1  0  0  0  0
 11 12  1  0  0  0  0
 11 31  1  0  0  0  0
 11 32  1  0  0  0  0
 12 17  1  0  0  0  0
 12 13  1  0  0  0  0
 13 14  1  0  0  0  0
 13 33  1  0  0  0  0
 13 34  1  0  0  0  0
 14 15  1  0  0  0  0
 14 35  1  0  0  0  0
 14 36  1  0  0  0  0
 15 16  1  0  0  0  0
 16 17  1  0  0  0  0
 16 37  1  0  0  0  0
 16 38  1  0  0  0  0
 17 39  1  0  0  0  0
 17 40  1  0  0  0  0
 18 19  1  0  0  0  0
 19 20  2  0  0  0  0
 19 41  1  0  0  0  0
 20 21  1  0  0  0  0
 21 42  1  0  0  0  0
 21 43  1  0  0  0  0
 21 44  1  0  0  0  0
M  END
> <s_m_source_file>
AV-unprocessed.smi

> <i_m_source_file_index>
467

> <i_lp_mmshare_version>
43012

> <i_f3d_flags>
0

> <s_epik_input>
W0NIM11jKFtjSF0xKWMoW0NIM10pW2NIXWMoYzEyKW4oW2NIXW4yKVtDSDJdW0NASF0oW09IXSlbQ0gyXU4zW0NIMl1bQ0gyXU9bQ0gyXVtDSDJdMw==

> <s_epik_cmdline>
J2VwaWtfcHl0aG9uJywgJy1waCcsICc3LjAnLCAnLXRuJywgJzgnLCAnLW1hJywgJzIwMCcsICctbWV0YWxfYmluZGluZycsICctaW1hZScsICc8aW5maWxlLm1hZT4nLCAnLW9tYWUnLCAnPG91dGZpbGUubWFlPic=

> <r_epik_Ionization_Penalty>
0.345029

> <r_epik_Ionization_Penalty_Charging>
0

> <r_epik_Ionization_Penalty_Neutral>
0.345029

> <r_epik_State_Penalty>
0.314465

> <r_epik_Charging_Adjusted_Penalty>
0.314465

> <i_epik_Tot_Q>
0

> <i_epik_Tot_abs_Q>
0

> <r_epik_Metal_State_Penalty>
0.239717

> <b_epik_Metal_Only>
0

> <s_lp_Force_Field>
OPLS_2005

> <r_lp_Energy>
29.8688

> <b_lp_Chiralities_Consistent>
1

> <s_lp_Variant>
AV-unprocessed.smi:467-2

> <Gold.Version>
5.8.1

> <Gold.Id.Protein>
6NUR|6NUR_protein|mol2

> <Gold.PLP.Fitness>
48.0001

> <Gold.PLP.PLP>
-38.8200

> <Gold.PLP.part.hbond>
-4.0000

> <Gold.PLP.part.metal>
0.0000

> <Gold.PLP.part.buried>
-4.7578

> <Gold.PLP.part.nonpolar>
-29.8929

> <Gold.PLP.part.repulsive>
0.0097

> <Gold.PLP.ligand.clash>
0.0117

> <Gold.PLP.ligand.torsion>
0.5586

> <Gold.PLP.Chemscore.Hbond>
3.4240

> <Gold.PLP.Chemscore.CHOScore>
0.0000

> <Gold.PLP.Chemscore.Metal>
0.0000

> <Gold.Chemscore.Hbonds>
donor molecule, donor type, donor heavy atom, donor atom, acceptor molecule, acceptor atom, score
      L1  H    10    30       P1  7957  1.00
      P1  H  6934  6946       L1    15  0.15
      P1  H  7989  7998       L1    10  0.62
      P1  H  7997  8010       L1     5  0.67

> <Gold.PLP.Chemscore.Internal.Correction>
0.0370

> <Gold.Rescore>
     Score         DG    S(hbond)    S(metal)    S(lipo)     H(rot)  DE(clash)    DE(int)     intcor
     17.04     -18.89       2.24        0.00      94.81       2.02       0.24       1.61       ----

> <Gold.Chemscore.Fitness>
17.0362

> <Gold.Chemscore.DG>
-18.8867

> <Gold.Chemscore.ZeroCoef>
-5.4800

> <Gold.Chemscore.Hbond>
2.2430

> <Gold.Chemscore.Metal>
0.0000

> <Gold.Chemscore.Lipo>
94.8130

> <Gold.Chemscore.Internal_Hbond>
0.0000

> <Gold.Chemscore.DEClash>
0.2444

> <Gold.Chemscore.DEInternal>
1.6060

> <Gold.Chemscore.Rot>
2.0227

> <Gold.Chemscore.Internal.Correction>
   9.000000E+99

> <Gold.Chemscore.Hbonds>
donor molecule, donor type, donor heavy atom, donor atom, acceptor molecule, acceptor atom, score
      L1  H    10    30       P1  7957  1.00
      P1  H  6934  6946       L1    15  0.05
      P1  H  7989  7998       L1    10  0.02
      P1  H  7997  8010       L1     5  0.03

> <Gold.Chemscore.Hbond.Weighted>
-7.4916

> <Gold.Chemscore.Metal.Weighted>
-0.0000

> <Gold.Chemscore.Lipo.Weighted>
-11.0931

> <Gold.Chemscore.Internal_Hbond.Weighted>
0.0000

> <Gold.Chemscore.DEClash.Weighted>
0.2444

> <Gold.Chemscore.DEInternal.Weighted>
1.6060

> <Gold.Chemscore.Rot.Weighted>
5.1780

> <Gold.Chemscore.Internal.Correction.Weighted>
   9.000000E+99

> <Gold.Protein.RotatedTorsions>
[ 6907 6896 6895 6894 ] final   33.42 input  -60.11 | X-H torsion
[ 7974 7965 7964 7962 ] final   81.93 input  175.53 | X-H torsion
[ 8008 7997 7996 7995 ] final   60.28 input   59.86 | X-H torsion
[ 10167 10162 10161 10158 ] final  -30.82 input  -65.29 | X-H torsion
[ 10718 10713 10712 10709 ] final  130.79 input   66.30 | X-H torsion
[ 10763 10752 10751 10750 ] final   26.05 input  -60.55 | X-H torsion
[ 11005 11000 10999 10996 ] final -102.05 input  -57.11 | X-H torsion

> <Gold.Protein.ActiveResidues>
 VAL166  LYS551  ARG553  GLY616  TRP617  ASP618  TYR619  PRO620  LYS621  CYS622 
 ASP623  PHE694  ASN695  SER759  ASP760  ASP761  ALA762  ILE779  LEU786  VAL792 
 PHE793  MET794  SER795  GLU796  ALA797  LYS798  CYS799  TRP800  GLU811  SER814 

> <Gold.Protein.RotatedAtoms>
  152.0882  134.9425  160.0572 H   0  0  0  0  0  0  0  0  0  0  0  0  # atno 6907 bound_to 6896
  152.0687  133.4091  159.4458 H   0  0  0  0  0  0  0  0  0  0  0  0  # atno 6908 bound_to 6896
  150.6836  134.3037  159.4760 H   0  0  0  0  0  0  0  0  0  0  0  0  # atno 6909 bound_to 6896
  145.6317  139.2406  143.2081 H   0  0  0  0  0  0  0  0  0  0  0  0  # atno 7974 bound_to 7965
  155.5798  140.3491  155.4537 H   0  0  0  0  0  0  0  0  0  0  0  0  # atno 8008 bound_to 7997
  156.0382  140.1290  157.0210 H   0  0  0  0  0  0  0  0  0  0  0  0  # atno 8009 bound_to 7997
  154.4380  140.1029  156.6183 H   0  0  0  0  0  0  0  0  0  0  0  0  # atno 8010 bound_to 7997
  140.7244  143.3819  151.1585 H   0  0  0  0  0  0  0  0  0  0  0  0  # atno 10167 bound_to 10162
  157.5029  131.1094  150.9402 H   0  0  0  0  0  0  0  0  0  0  0  0  # atno 10718 bound_to 10713
  153.0649  135.6569  154.0378 H   0  0  0  0  0  0  0  0  0  0  0  0  # atno 10763 bound_to 10752
  154.0037  135.2935  155.3401 H   0  0  0  0  0  0  0  0  0  0  0  0  # atno 10764 bound_to 10752
  154.7002  135.5247  153.8585 H   0  0  0  0  0  0  0  0  0  0  0  0  # atno 10765 bound_to 10752
  141.1205  133.8527  157.1311 H   0  0  0  0  0  0  0  0  0  0  0  0  # atno 11005 bound_to 11000
  146.1351  140.7133  142.9393 LP  0  0  0  0  0  0  0  0  0  0  0  0  # atno 17320 bound_to 7965
  144.7191  140.4312  143.7022 LP  0  0  0  0  0  0  0  0  0  0  0  0  # atno 17321 bound_to 7965
  139.7409  143.8925  152.3049 LP  0  0  0  0  0  0  0  0  0  0  0  0  # atno 17342 bound_to 10162
  139.8746  144.7050  150.8947 LP  0  0  0  0  0  0  0  0  0  0  0  0  # atno 17343 bound_to 10162
  157.0067  130.5621  149.5316 LP  0  0  0  0  0  0  0  0  0  0  0  0  # atno 17370 bound_to 10713
  156.0240  130.5334  150.8355 LP  0  0  0  0  0  0  0  0  0  0  0  0  # atno 17371 bound_to 10713
  140.0159  134.9967  157.0492 LP  0  0  0  0  0  0  0  0  0  0  0  0  # atno 17394 bound_to 11000
  140.4521  134.1572  155.7182 LP  0  0  0  0  0  0  0  0  0  0  0  0  # atno 17395 bound_to 11000

$$$$
