AV-unprocessed.smi:1199|AV-procd|sdf|5014|dock10
  -GOLD-   22720 4 33D 1   1.00000     0.00000
 Structure written by MMmdl.
 40 41  0  0  0  0  0  0  0  0  2 V2000
  148.9115  140.1437  155.6864 C   0  0  0  0  0  0  0  0  0  0  0  0
  149.5424  140.4490  157.0549 C   0  0  2  0  0  0  0  0  0  0  0  0
  150.8229  141.2996  156.9059 C   0  0  0  0  0  0  0  0  0  0  0  0
  151.2304  142.0480  158.0970 N   0  0  0  0  0  0  0  0  0  0  0  0
  152.3028  141.3896  158.8409 C   0  0  0  0  0  0  0  0  0  0  0  0
  152.7529  142.2101  160.0614 C   0  0  0  0  0  0  0  0  0  0  0  0
  153.1426  143.5153  159.6479 O   0  0  0  0  0  0  0  0  0  0  0  0
  152.1003  144.2075  158.9692 C   0  0  0  0  0  0  0  0  0  0  0  0
  151.6628  143.3949  157.7388 C   0  0  0  0  0  0  0  0  0  0  0  0
  149.8686  139.1954  157.7265 N   0  0  0  0  0  0  0  0  0  0  0  0
  149.0292  138.4422  158.4562 C   0  0  0  0  0  0  0  0  0  0  0  0
  147.8349  138.7080  158.5904 O   0  0  0  0  0  0  0  0  0  0  0  0
  149.6156  137.2105  159.1679 C   0  0  0  0  0  0  0  0  0  0  0  0
  148.6377  136.4468  159.9609 N   0  0  0  0  0  0  0  0  0  0  0  0
  148.0006  137.2206  161.0227 N   0  5  0  0  0  0  0  0  0  0  0  0
  147.0302  136.6381  161.7759 C   0  0  0  0  0  0  0  0  0  0  0  0
  146.4340  137.2331  162.6704 O   0  0  0  0  0  0  0  0  0  0  0  0
  146.6931  135.2508  161.5035 C   0  0  0  0  0  0  0  0  0  0  0  0
  147.3118  134.5544  160.5299 C   0  0  0  0  0  0  0  0  0  0  0  0
  148.3452  135.1431  159.6873 C   0  0  0  0  0  0  0  0  0  0  0  0
  148.9010  134.5177  158.7846 O   0  0  0  0  0  0  0  0  0  0  0  0
  148.6418  141.0622  155.1649 H   0  0  0  0  0  0  0  0  0  0  0  0
  148.0018  139.5518  155.7924 H   0  0  0  0  0  0  0  0  0  0  0  0
  149.5985  139.5871  155.0482 H   0  0  0  0  0  0  0  0  0  0  0  0
  148.8141  141.0072  157.6464 H   0  0  0  0  0  0  0  0  0  0  0  0
  151.6472  140.6808  156.5470 H   0  0  0  0  0  0  0  0  0  0  0  0
  150.6411  142.0241  156.1110 H   0  0  0  0  0  0  0  0  0  0  0  0
  151.9725  140.4128  159.1916 H   0  0  0  0  0  0  0  0  0  0  0  0
  153.1575  141.2175  158.1850 H   0  0  0  0  0  0  0  0  0  0  0  0
  151.9498  142.2790  160.7965 H   0  0  0  0  0  0  0  0  0  0  0  0
  153.5959  141.7236  160.5528 H   0  0  0  0  0  0  0  0  0  0  0  0
  151.2595  144.3697  159.6448 H   0  0  0  0  0  0  0  0  0  0  0  0
  152.4629  145.1897  158.6663 H   0  0  0  0  0  0  0  0  0  0  0  0
  152.4918  143.3415  157.0312 H   0  0  0  0  0  0  0  0  0  0  0  0
  150.8536  143.9209  157.2309 H   0  0  0  0  0  0  0  0  0  0  0  0
  150.8283  138.8844  157.6667 H   0  0  0  0  0  0  0  0  0  0  0  0
  150.0826  136.5615  158.4252 H   0  0  0  0  0  0  0  0  0  0  0  0
  150.4316  137.5507  159.8077 H   0  0  0  0  0  0  0  0  0  0  0  0
  145.9314  134.7669  162.0967 H   0  0  0  0  0  0  0  0  0  0  0  0
  147.0300  133.5254  160.3633 H   0  0  0  0  0  0  0  0  0  0  0  0
  1  2  1  0  0  0  0
  1 22  1  0  0  0  0
  1 23  1  0  0  0  0
  1 24  1  0  0  0  0
  2  3  1  0  0  0  0
  2 10  1  0  0  0  0
  2 25  1  0  0  0  0
  3  4  1  0  0  0  0
  3 26  1  0  0  0  0
  3 27  1  0  0  0  0
  4  9  1  0  0  0  0
  4  5  1  0  0  0  0
  5  6  1  0  0  0  0
  5 28  1  0  0  0  0
  5 29  1  0  0  0  0
  6  7  1  0  0  0  0
  6 30  1  0  0  0  0
  6 31  1  0  0  0  0
  7  8  1  0  0  0  0
  8  9  1  0  0  0  0
  8 32  1  0  0  0  0
  8 33  1  0  0  0  0
  9 34  1  0  0  0  0
  9 35  1  0  0  0  0
 10 11  1  0  0  0  0
 10 36  1  0  0  0  0
 11 12  2  0  0  0  0
 11 13  1  0  0  0  0
 13 37  1  0  0  0  0
 13 38  1  0  0  0  0
 13 14  1  0  0  0  0
 14 15  1  0  0  0  0
 14 20  1  0  0  0  0
 15 16  1  0  0  0  0
 16 17  2  0  0  0  0
 16 18  1  0  0  0  0
 18 39  1  0  0  0  0
 18 19  2  0  0  0  0
 19 40  1  0  0  0  0
 19 20  1  0  0  0  0
 20 21  2  0  0  0  0
M  CHG  1  15  -1
M  END
> <s_m_source_file>
AV-unprocessed.smi

> <i_m_source_file_index>
1199

> <i_lp_mmshare_version>
43012

> <i_f3d_flags>
0

> <s_epik_input>
W0NIMl0xW0NIMl1PW0NIMl1bQ0gyXU4xW0NIMl1bQ0BASF0oW0NIM10pW05IXUMoPU8pW0NIMl1uMltuSF1jKD1PKVtjSF1bY0hdYzI9Tw==

> <s_epik_cmdline>
J2VwaWtfcHl0aG9uJywgJy1waCcsICc3LjAnLCAnLXRuJywgJzgnLCAnLW1hJywgJzIwMCcsICctbWV0YWxfYmluZGluZycsICctaW1hZScsICc8aW5maWxlLm1hZT4nLCAnLW9tYWUnLCAnPG91dGZpbGUubWFlPic=

> <r_lp_tautomer_probability>
1

> <r_epik_Ionization_Penalty>
0.334996

> <r_epik_Ionization_Penalty_Charging>
0.0976136

> <r_epik_Ionization_Penalty_Neutral>
0.237382

> <r_epik_State_Penalty>
0.26804

> <r_epik_Charging_Adjusted_Penalty>
0.365653

> <i_epik_Tot_Q>
-1

> <i_epik_Tot_abs_Q>
1

> <r_epik_Metal_State_Penalty>
0.26804

> <b_epik_Metal_Only>
0

> <s_lp_Force_Field>
OPLS_2005

> <r_lp_Energy>
38.5668

> <b_lp_Chiralities_Consistent>
1

> <s_lp_Variant>
AV-unprocessed.smi:1199-1

> <Gold.Version>
5.8.1

> <Gold.Id.Protein>
6NUR|6NUR_protein|mol2

> <Gold.PLP.Fitness>
44.1419

> <Gold.PLP.PLP>
-33.6931

> <Gold.PLP.part.hbond>
-4.0000

> <Gold.PLP.part.metal>
0.0000

> <Gold.PLP.part.buried>
-5.9576

> <Gold.PLP.part.nonpolar>
-24.8730

> <Gold.PLP.part.repulsive>
0.1223

> <Gold.PLP.ligand.clash>
0.0000

> <Gold.PLP.ligand.torsion>
1.1330

> <Gold.PLP.Chemscore.Hbond>
4.2352

> <Gold.PLP.Chemscore.CHOScore>
0.0000

> <Gold.PLP.Chemscore.Metal>
0.0000

> <Gold.Chemscore.Hbonds>
donor molecule, donor type, donor heavy atom, donor atom, acceptor molecule, acceptor atom, score
      P1  H  6896  6907       L1    21  0.94
      P1  H  6931  6943       L1    15  1.89
      P1  H  6934  6947       L1    15  1.22

> <Gold.PLP.Chemscore.Internal.Correction>
0.0093

> <Gold.Rescore>
     Score         DG    S(hbond)    S(metal)    S(lipo)     H(rot)  DE(clash)    DE(int)     intcor
     11.64     -14.09       1.81        0.00      72.22       2.30       0.01       2.44       ----

> <Gold.Chemscore.Fitness>
11.6354

> <Gold.Chemscore.DG>
-14.0923

> <Gold.Chemscore.ZeroCoef>
-5.4800

> <Gold.Chemscore.Hbond>
1.8082

> <Gold.Chemscore.Metal>
0.0000

> <Gold.Chemscore.Lipo>
72.2190

> <Gold.Chemscore.Internal_Hbond>
0.0000

> <Gold.Chemscore.DEClash>
0.0127

> <Gold.Chemscore.DEInternal>
2.4443

> <Gold.Chemscore.Rot>
2.2955

> <Gold.Chemscore.Internal.Correction>
   9.000000E+99

> <Gold.Chemscore.Hbonds>
donor molecule, donor type, donor heavy atom, donor atom, acceptor molecule, acceptor atom, score
      P1  H  6896  6907       L1    21  0.71
      P1  H  6931  6943       L1    15  0.73
      P1  H  6934  6947       L1    15  0.10

> <Gold.Chemscore.Hbond.Weighted>
-6.0393

> <Gold.Chemscore.Metal.Weighted>
-0.0000

> <Gold.Chemscore.Lipo.Weighted>
-8.4496

> <Gold.Chemscore.Internal_Hbond.Weighted>
0.0000

> <Gold.Chemscore.DEClash.Weighted>
0.0127

> <Gold.Chemscore.DEInternal.Weighted>
2.4443

> <Gold.Chemscore.Rot.Weighted>
5.8766

> <Gold.Chemscore.Internal.Correction.Weighted>
   9.000000E+99

> <Gold.Protein.RotatedTorsions>
[ 6907 6896 6895 6894 ] final -109.72 input  -60.11 | X-H torsion
[ 7974 7965 7964 7962 ] final  102.58 input  175.53 | X-H torsion
[ 8008 7997 7996 7995 ] final  118.46 input   59.86 | X-H torsion
[ 10167 10162 10161 10158 ] final -145.93 input  -65.29 | X-H torsion
[ 10718 10713 10712 10709 ] final  105.07 input   66.30 | X-H torsion
[ 10763 10752 10751 10750 ] final  147.46 input  -60.55 | X-H torsion
[ 11005 11000 10999 10996 ] final  104.51 input  -57.11 | X-H torsion

> <Gold.Protein.ActiveResidues>
 VAL166  LYS551  ARG553  GLY616  TRP617  ASP618  TYR619  PRO620  LYS621  CYS622 
 ASP623  PHE694  ASN695  SER759  ASP760  ASP761  ALA762  ILE779  LEU786  VAL792 
 PHE793  MET794  SER795  GLU796  ALA797  LYS798  CYS799  TRP800  GLU811  SER814 

> <Gold.Protein.RotatedAtoms>
  150.7580  133.9487  159.3478 H   0  0  0  0  0  0  0  0  0  0  0  0  # atno 6907 bound_to 6896
  151.7402  135.0854  160.0324 H   0  0  0  0  0  0  0  0  0  0  0  0  # atno 6908 bound_to 6896
  152.3533  133.6169  159.5997 H   0  0  0  0  0  0  0  0  0  0  0  0  # atno 6909 bound_to 6896
  145.3572  139.2426  143.3526 H   0  0  0  0  0  0  0  0  0  0  0  0  # atno 7974 bound_to 7965
  156.2547  140.2874  156.0838 H   0  0  0  0  0  0  0  0  0  0  0  0  # atno 8008 bound_to 7997
  155.1538  140.0398  157.2844 H   0  0  0  0  0  0  0  0  0  0  0  0  # atno 8009 bound_to 7997
  154.6442  140.2529  155.7294 H   0  0  0  0  0  0  0  0  0  0  0  0  # atno 8010 bound_to 7997
  139.7760  143.8170  152.2632 H   0  0  0  0  0  0  0  0  0  0  0  0  # atno 10167 bound_to 10162
  157.6718  131.0819  150.5801 H   0  0  0  0  0  0  0  0  0  0  0  0  # atno 10718 bound_to 10713
  154.0386  135.2891  155.3358 H   0  0  0  0  0  0  0  0  0  0  0  0  # atno 10763 bound_to 10752
  154.6943  135.5214  153.8439 H   0  0  0  0  0  0  0  0  0  0  0  0  # atno 10764 bound_to 10752
  153.0609  135.6613  154.0593 H   0  0  0  0  0  0  0  0  0  0  0  0  # atno 10765 bound_to 10752
  139.8792  134.9303  156.5373 H   0  0  0  0  0  0  0  0  0  0  0  0  # atno 11005 bound_to 11000
  146.2943  140.4199  142.8728 LP  0  0  0  0  0  0  0  0  0  0  0  0  # atno 17320 bound_to 7965
  144.8673  140.7224  143.6069 LP  0  0  0  0  0  0  0  0  0  0  0  0  # atno 17321 bound_to 7965
  139.8218  144.7292  150.9563 LP  0  0  0  0  0  0  0  0  0  0  0  0  # atno 17342 bound_to 10162
  140.7816  143.4152  151.0929 LP  0  0  0  0  0  0  0  0  0  0  0  0  # atno 17343 bound_to 10162
  156.6102  130.4378  149.5862 LP  0  0  0  0  0  0  0  0  0  0  0  0  # atno 17370 bound_to 10713
  156.2437  130.6866  151.1580 LP  0  0  0  0  0  0  0  0  0  0  0  0  # atno 17371 bound_to 10713
  140.8336  133.8259  155.9007 LP  0  0  0  0  0  0  0  0  0  0  0  0  # atno 17394 bound_to 11000
  140.9305  134.2028  157.4867 LP  0  0  0  0  0  0  0  0  0  0  0  0  # atno 17395 bound_to 11000

$$$$
