AV-unprocessed.smi:686|AV-procd|sdf|3338|dock2
  -GOLD-   22720 0313D 1   1.00000     0.00000
 Structure written by MMmdl.
 41 42  0  0  0  0  0  0  0  0  2 V2000
  151.6060  140.2384  155.5811 C   0  0  0  0  0  0  0  0  0  0  0  0
  150.8606  141.4224  156.2201 C   0  0  1  0  0  0  0  0  0  0  0  0
  149.3439  141.4005  156.0475 C   0  0  0  0  0  0  0  0  0  0  0  0
  148.8278  142.3877  157.0224 N   0  3  1  0  0  0  0  0  0  0  0  0
  147.4118  142.1932  157.4457 C   0  0  0  0  0  0  0  0  0  0  0  0
  146.4354  142.3323  156.2616 C   0  0  0  0  0  0  0  0  0  0  0  0
  147.0208  143.1940  158.5502 C   0  0  0  0  0  0  0  0  0  0  0  0
  149.8140  142.4614  158.1324 C   0  0  0  0  0  0  0  0  0  0  0  0
  151.0276  141.6013  157.7334 C   0  0  1  0  0  0  0  0  0  0  0  0
  150.9878  140.3069  158.4242 N   0  0  0  0  0  0  0  0  0  0  0  0
  152.4673  139.5320  158.8575 S   0  0  0  0  0  0  0  0  0  0  0  0
  153.2190  139.3121  157.6129 O   0  0  0  0  0  0  0  0  0  0  0  0
  153.0683  140.3048  159.9556 O   0  0  0  0  0  0  0  0  0  0  0  0
  151.8821  137.9028  159.4941 C   0  0  0  0  0  0  0  0  0  0  0  0
  152.9718  137.2434  160.2922 C   0  0  0  0  0  0  0  0  0  0  0  0
  153.5513  137.6699  161.5190 C   0  0  0  0  0  0  0  0  0  0  0  0
  154.4764  136.7026  161.7880 C   0  0  0  0  0  0  0  0  0  0  0  0
  154.4730  135.7579  160.8139 O   0  0  0  0  0  0  0  0  0  0  0  0
  153.5113  136.1131  159.8615 N   0  0  0  0  0  0  0  0  0  0  0  0
  151.2422  139.2795  155.9511 H   0  0  0  0  0  0  0  0  0  0  0  0
  152.6751  140.2932  155.7878 H   0  0  0  0  0  0  0  0  0  0  0  0
  151.4776  140.2398  154.4985 H   0  0  0  0  0  0  0  0  0  0  0  0
  151.2299  142.3336  155.7459 H   0  0  0  0  0  0  0  0  0  0  0  0
  149.0425  141.6455  155.0285 H   0  0  0  0  0  0  0  0  0  0  0  0
  148.9584  140.4077  156.2874 H   0  0  0  0  0  0  0  0  0  0  0  0
  147.3140  141.1824  157.8454 H   0  0  0  0  0  0  0  0  0  0  0  0
  145.4020  142.2386  156.5965 H   0  0  0  0  0  0  0  0  0  0  0  0
  146.5906  141.5608  155.5074 H   0  0  0  0  0  0  0  0  0  0  0  0
  146.5372  143.3030  155.7751 H   0  0  0  0  0  0  0  0  0  0  0  0
  145.9794  143.0619  158.8453 H   0  0  0  0  0  0  0  0  0  0  0  0
  147.1377  144.2235  158.2101 H   0  0  0  0  0  0  0  0  0  0  0  0
  147.6209  143.0727  159.4515 H   0  0  0  0  0  0  0  0  0  0  0  0
  150.1080  143.5038  158.2583 H   0  0  0  0  0  0  0  0  0  0  0  0
  149.3860  142.1324  159.0796 H   0  0  0  0  0  0  0  0  0  0  0  0
  151.9700  142.0987  157.9661 H   0  0  0  0  0  0  0  0  0  0  0  0
  150.3247  140.3038  159.1994 H   0  0  0  0  0  0  0  0  0  0  0  0
  150.9786  138.0575  160.0844 H   0  0  0  0  0  0  0  0  0  0  0  0
  151.6136  137.2865  158.6360 H   0  0  0  0  0  0  0  0  0  0  0  0
  153.3235  138.5450  162.1095 H   0  0  0  0  0  0  0  0  0  0  0  0
  155.1798  136.5514  162.5936 H   0  0  0  0  0  0  0  0  0  0  0  0
  148.8728  143.2819  156.5546 H   0  0  0  0  0  0  0  0  0  0  0  0
  1  2  1  0  0  0  0
  1 20  1  0  0  0  0
  1 21  1  0  0  0  0
  1 22  1  0  0  0  0
  2  9  1  0  0  0  0
  2  3  1  0  0  0  0
  2 23  1  0  0  0  0
  3  4  1  0  0  0  0
  3 24  1  0  0  0  0
  3 25  1  0  0  0  0
  4  5  1  0  0  0  0
  4  8  1  0  0  0  0
  4 41  1  0  0  0  0
  5  6  1  0  0  0  0
  5  7  1  0  0  0  0
  5 26  1  0  0  0  0
  6 27  1  0  0  0  0
  6 28  1  0  0  0  0
  6 29  1  0  0  0  0
  7 30  1  0  0  0  0
  7 31  1  0  0  0  0
  7 32  1  0  0  0  0
  8  9  1  0  0  0  0
  8 33  1  0  0  0  0
  8 34  1  0  0  0  0
  9 10  1  0  0  0  0
  9 35  1  0  0  0  0
 10 11  1  0  0  0  0
 10 36  1  0  0  0  0
 11 12  2  0  0  0  0
 11 13  2  0  0  0  0
 11 14  1  0  0  0  0
 14 15  1  0  0  0  0
 14 37  1  0  0  0  0
 14 38  1  0  0  0  0
 15 19  2  0  0  0  0
 15 16  1  0  0  0  0
 16 17  2  0  0  0  0
 16 39  1  0  0  0  0
 17 18  1  0  0  0  0
 17 40  1  0  0  0  0
 18 19  1  0  0  0  0
M  CHG  1   4   1
M  END
> <s_m_source_file>
AV-unprocessed.smi

> <i_m_source_file_index>
686

> <i_lp_mmshare_version>
43012

> <i_f3d_flags>
0

> <s_epik_input>
W0NIM11bQ0BASF0xW0NIMl1OKFtDSF0oW0NIM10pW0NIM10pW0NIMl1bQ0BIXTFbTkhdUyg9TykoPU8pW0NIMl1jMltjSF1bY0hdb24y

> <s_epik_cmdline>
J2VwaWtfcHl0aG9uJywgJy1waCcsICc3LjAnLCAnLXRuJywgJzgnLCAnLW1hJywgJzIwMCcsICctbWV0YWxfYmluZGluZycsICctaW1hZScsICc8aW5maWxlLm1hZT4nLCAnLW9tYWUnLCAnPG91dGZpbGUubWFlPic=

> <r_epik_Ionization_Penalty>
0.00200818

> <r_epik_Ionization_Penalty_Charging>
0.000701289

> <r_epik_Ionization_Penalty_Neutral>
0.00130689

> <r_epik_State_Penalty>
0.00131314

> <r_epik_Charging_Adjusted_Penalty>
0.00201443

> <i_epik_Tot_Q>
1

> <i_epik_Tot_abs_Q>
1

> <r_epik_Metal_State_Penalty>
0.310831

> <b_epik_Metal_Only>
0

> <s_lp_Force_Field>
OPLS_2005

> <r_lp_Energy>
21.3818

> <b_lp_Chiralities_Consistent>
1

> <s_lp_Variant>
AV-unprocessed.smi:686-2

> <Gold.Version>
5.8.1

> <Gold.Id.Protein>
6NUR|6NUR_protein|mol2

> <Gold.PLP.Fitness>
38.3706

> <Gold.PLP.PLP>
-28.1144

> <Gold.PLP.part.hbond>
-3.0000

> <Gold.PLP.part.metal>
0.0000

> <Gold.PLP.part.buried>
-3.6092

> <Gold.PLP.part.nonpolar>
-20.8357

> <Gold.PLP.part.repulsive>
0.0218

> <Gold.PLP.ligand.clash>
0.0000

> <Gold.PLP.ligand.torsion>
0.9591

> <Gold.PLP.Chemscore.Hbond>
4.0000

> <Gold.PLP.Chemscore.CHOScore>
0.0000

> <Gold.PLP.Chemscore.Metal>
0.0000

> <Gold.Chemscore.Hbonds>
donor molecule, donor type, donor heavy atom, donor atom, acceptor molecule, acceptor atom, score
      L1  H     4    41       P1  8028  2.00
      P1  H  6896  6908       L1    19  1.00
      P1  H  7997  8008       L1    12  1.00

> <Gold.PLP.Chemscore.Internal.Correction>
0.1744

> <Gold.Rescore>
     Score         DG    S(hbond)    S(metal)    S(lipo)     H(rot)  DE(clash)    DE(int)     intcor
     16.31     -17.44       2.89        0.00      61.57       1.91       0.24       0.89       ----

> <Gold.Chemscore.Fitness>
16.3069

> <Gold.Chemscore.DG>
-17.4369

> <Gold.Chemscore.ZeroCoef>
-5.4800

> <Gold.Chemscore.Hbond>
2.8881

> <Gold.Chemscore.Metal>
0.0000

> <Gold.Chemscore.Lipo>
61.5741

> <Gold.Chemscore.Internal_Hbond>
0.0000

> <Gold.Chemscore.DEClash>
0.2386

> <Gold.Chemscore.DEInternal>
0.8914

> <Gold.Chemscore.Rot>
1.9115

> <Gold.Chemscore.Internal.Correction>
   9.000000E+99

> <Gold.Chemscore.Hbonds>
donor molecule, donor type, donor heavy atom, donor atom, acceptor molecule, acceptor atom, score
      L1  H     4    41       P1  8028  0.93
      P1  H  6896  6908       L1    19  0.24
      P1  H  7997  8008       L1    12  1.00

> <Gold.Chemscore.Hbond.Weighted>
-9.6462

> <Gold.Chemscore.Metal.Weighted>
-0.0000

> <Gold.Chemscore.Lipo.Weighted>
-7.2042

> <Gold.Chemscore.Internal_Hbond.Weighted>
0.0000

> <Gold.Chemscore.DEClash.Weighted>
0.2386

> <Gold.Chemscore.DEInternal.Weighted>
0.8914

> <Gold.Chemscore.Rot.Weighted>
4.8935

> <Gold.Chemscore.Internal.Correction.Weighted>
   9.000000E+99

> <Gold.Protein.RotatedTorsions>
[ 6907 6896 6895 6894 ] final  -70.25 input  -60.11 | X-H torsion
[ 7974 7965 7964 7962 ] final  125.40 input  175.53 | X-H torsion
[ 8008 7997 7996 7995 ] final  -66.77 input   59.86 | X-H torsion
[ 10167 10162 10161 10158 ] final   62.09 input  -65.29 | X-H torsion
[ 10718 10713 10712 10709 ] final  -63.15 input   66.30 | X-H torsion
[ 10763 10752 10751 10750 ] final   43.07 input  -60.55 | X-H torsion
[ 11005 11000 10999 10996 ] final  -45.48 input  -57.11 | X-H torsion

> <Gold.Protein.ActiveResidues>
 VAL166  LYS551  ARG553  GLY616  TRP617  ASP618  TYR619  PRO620  LYS621  CYS622 
 ASP623  PHE694  ASN695  SER759  ASP760  ASP761  ALA762  ILE779  LEU786  VAL792 
 PHE793  MET794  SER795  GLU796  ALA797  LYS798  CYS799  TRP800  GLU811  SER814 

> <Gold.Protein.RotatedAtoms>
  150.7266  134.5480  159.5779 H   0  0  0  0  0  0  0  0  0  0  0  0  # atno 6907 bound_to 6896
  152.2974  134.7648  160.0374 H   0  0  0  0  0  0  0  0  0  0  0  0  # atno 6908 bound_to 6896
  151.8240  133.3363  159.3629 H   0  0  0  0  0  0  0  0  0  0  0  0  # atno 6909 bound_to 6896
  145.0734  139.3712  143.4946 H   0  0  0  0  0  0  0  0  0  0  0  0  # atno 7974 bound_to 7965
  154.4756  140.0906  156.7254 H   0  0  0  0  0  0  0  0  0  0  0  0  # atno 8008 bound_to 7997
  155.4605  140.3461  155.4294 H   0  0  0  0  0  0  0  0  0  0  0  0  # atno 8009 bound_to 7997
  156.1111  140.1448  156.9325 H   0  0  0  0  0  0  0  0  0  0  0  0  # atno 8010 bound_to 7997
  140.1477  144.4493  150.6776 H   0  0  0  0  0  0  0  0  0  0  0  0  # atno 10167 bound_to 10162
  156.0809  130.4217  150.1236 H   0  0  0  0  0  0  0  0  0  0  0  0  # atno 10718 bound_to 10713
  152.9869  135.6112  154.3051 H   0  0  0  0  0  0  0  0  0  0  0  0  # atno 10763 bound_to 10752
  154.2770  135.2778  155.2715 H   0  0  0  0  0  0  0  0  0  0  0  0  # atno 10764 bound_to 10752
  154.5072  135.5851  153.6633 H   0  0  0  0  0  0  0  0  0  0  0  0  # atno 10765 bound_to 10752
  141.0518  133.6740  156.3019 H   0  0  0  0  0  0  0  0  0  0  0  0  # atno 11005 bound_to 11000
  146.3529  140.0490  142.8637 LP  0  0  0  0  0  0  0  0  0  0  0  0  # atno 17320 bound_to 7965
  145.1264  140.9493  143.4570 LP  0  0  0  0  0  0  0  0  0  0  0  0  # atno 17321 bound_to 7965
  140.6722  143.2290  151.5597 LP  0  0  0  0  0  0  0  0  0  0  0  0  # atno 17342 bound_to 10162
  139.5441  144.2568  152.1408 LP  0  0  0  0  0  0  0  0  0  0  0  0  # atno 17343 bound_to 10162
  156.9267  130.9700  151.3539 LP  0  0  0  0  0  0  0  0  0  0  0  0  # atno 17370 bound_to 10713
  157.5925  130.8454  149.8681 LP  0  0  0  0  0  0  0  0  0  0  0  0  # atno 17371 bound_to 10713
  140.6040  134.5526  157.5522 LP  0  0  0  0  0  0  0  0  0  0  0  0  # atno 17394 bound_to 11000
  139.9357  134.7880  156.0810 LP  0  0  0  0  0  0  0  0  0  0  0  0  # atno 17395 bound_to 11000

$$$$
