AV-unprocessed.smi:1585|AV-procd|sdf|6370|dock1
  -GOLD-   22720 6593D 1   1.00000     0.00000
 Structure written by MMmdl.
 43 44  0  0  0  0  0  0  0  0  2 V2000
  153.1698  137.4663  157.1429 C   0  0  0  0  0  0  0  0  0  0  0  0
  152.3071  138.1676  156.1507 C   0  0  0  0  0  0  0  0  0  0  0  0
  151.2101  137.7802  155.4341 C   0  0  0  0  0  0  0  0  0  0  0  0
  150.8969  138.9455  154.6751 C   0  0  0  0  0  0  0  0  0  0  0  0
  149.8354  139.0825  153.7433 N   0  0  0  0  0  0  0  0  0  0  0  0
  148.5124  139.0452  153.9736 C   0  0  0  0  0  0  0  0  0  0  0  0
  147.9820  138.9358  155.0792 O   0  0  0  0  0  0  0  0  0  0  0  0
  147.8163  139.1482  152.8318 N   0  0  0  0  0  0  0  0  0  0  0  0
  146.3607  139.1015  152.7316 C   0  0  0  0  0  0  0  0  0  0  0  0
  145.8569  137.7551  152.1724 C   0  0  1  0  0  0  0  0  0  0  0  0
  146.6539  137.4196  151.0534 O   0  0  0  0  0  0  0  0  0  0  0  0
  146.0066  136.6245  153.2108 C   0  0  0  0  0  0  0  0  0  0  0  0
  146.1268  135.2817  152.5864 N   0  3  0  0  0  0  0  0  0  0  0  0
  146.2997  134.2057  153.5972 C   0  0  0  0  0  0  0  0  0  0  0  0
  146.5683  132.8478  152.9263 C   0  0  0  0  0  0  0  0  0  0  0  0
  145.4520  132.4915  151.9363 C   0  0  0  0  0  0  0  0  0  0  0  0
  145.2665  133.6297  150.9247 C   0  0  0  0  0  0  0  0  0  0  0  0
  145.0223  134.9694  151.6394 C   0  0  0  0  0  0  0  0  0  0  0  0
  151.7252  139.9456  154.9136 N   0  0  0  0  0  0  0  0  0  0  0  0
  152.6337  139.4552  155.8588 O   0  0  0  0  0  0  0  0  0  0  0  0
  152.7564  136.4900  157.3963 H   0  0  0  0  0  0  0  0  0  0  0  0
  153.2543  138.0468  158.0616 H   0  0  0  0  0  0  0  0  0  0  0  0
  154.1727  137.3155  156.7434 H   0  0  0  0  0  0  0  0  0  0  0  0
  150.7277  136.8149  155.4594 H   0  0  0  0  0  0  0  0  0  0  0  0
  150.1211  139.1952  152.7818 H   0  0  0  0  0  0  0  0  0  0  0  0
  148.3297  139.2349  151.9665 H   0  0  0  0  0  0  0  0  0  0  0  0
  145.9240  139.3061  153.7100 H   0  0  0  0  0  0  0  0  0  0  0  0
  146.0385  139.9192  152.0844 H   0  0  0  0  0  0  0  0  0  0  0  0
  144.8177  137.8463  151.8586 H   0  0  0  0  0  0  0  0  0  0  0  0
  147.4489  137.0118  151.3628 H   0  0  0  0  0  0  0  0  0  0  0  0
  146.8894  136.8309  153.8183 H   0  0  0  0  0  0  0  0  0  0  0  0
  145.1604  136.6213  153.8998 H   0  0  0  0  0  0  0  0  0  0  0  0
  147.1361  134.4480  154.2542 H   0  0  0  0  0  0  0  0  0  0  0  0
  145.4087  134.1478  154.2246 H   0  0  0  0  0  0  0  0  0  0  0  0
  147.5254  132.8804  152.4040 H   0  0  0  0  0  0  0  0  0  0  0  0
  146.6562  132.0687  153.6842 H   0  0  0  0  0  0  0  0  0  0  0  0
  145.6891  131.5614  151.4188 H   0  0  0  0  0  0  0  0  0  0  0  0
  144.5196  132.3213  152.4760 H   0  0  0  0  0  0  0  0  0  0  0  0
  146.1526  133.7078  150.2934 H   0  0  0  0  0  0  0  0  0  0  0  0
  144.4319  133.4040  150.2601 H   0  0  0  0  0  0  0  0  0  0  0  0
  144.0752  134.9371  152.1806 H   0  0  0  0  0  0  0  0  0  0  0  0
  144.9279  135.7541  150.8900 H   0  0  0  0  0  0  0  0  0  0  0  0
  146.9820  135.3001  152.0485 H   0  0  0  0  0  0  0  0  0  0  0  0
  1  2  1  0  0  0  0
  1 21  1  0  0  0  0
  1 22  1  0  0  0  0
  1 23  1  0  0  0  0
  2 20  1  0  0  0  0
  2  3  2  0  0  0  0
  3  4  1  0  0  0  0
  3 24  1  0  0  0  0
  4  5  1  0  0  0  0
  4 19  2  0  0  0  0
  5  6  1  0  0  0  0
  5 25  1  0  0  0  0
  6  7  2  0  0  0  0
  6  8  1  0  0  0  0
  8  9  1  0  0  0  0
  8 26  1  0  0  0  0
  9 10  1  0  0  0  0
  9 27  1  0  0  0  0
  9 28  1  0  0  0  0
 10 11  1  0  0  0  0
 10 12  1  0  0  0  0
 10 29  1  0  0  0  0
 11 30  1  0  0  0  0
 12 13  1  0  0  0  0
 12 31  1  0  0  0  0
 12 32  1  0  0  0  0
 13 18  1  0  0  0  0
 13 14  1  0  0  0  0
 13 43  1  0  0  0  0
 14 15  1  0  0  0  0
 14 33  1  0  0  0  0
 14 34  1  0  0  0  0
 15 16  1  0  0  0  0
 15 35  1  0  0  0  0
 15 36  1  0  0  0  0
 16 17  1  0  0  0  0
 16 37  1  0  0  0  0
 16 38  1  0  0  0  0
 17 18  1  0  0  0  0
 17 39  1  0  0  0  0
 17 40  1  0  0  0  0
 18 41  1  0  0  0  0
 18 42  1  0  0  0  0
 19 20  1  0  0  0  0
M  CHG  1  13   1
M  END
> <s_m_source_file>
AV-unprocessed.smi

> <i_m_source_file_index>
1585

> <i_lp_mmshare_version>
43012

> <i_f3d_flags>
0

> <s_epik_input>
W0NIM11jMVtjSF1jKG5vMSlbTkhdQyg9TylbTkhdW0NIMl1bQ0BIXShbT0hdKVtDSDJdTjJbQ0gyXVtDSDJdW0NIMl1bQ0gyXVtDSDJdMg==

> <s_epik_cmdline>
J2VwaWtfcHl0aG9uJywgJy1waCcsICc3LjAnLCAnLXRuJywgJzgnLCAnLW1hJywgJzIwMCcsICctbWV0YWxfYmluZGluZycsICctaW1hZScsICc8aW5maWxlLm1hZT4nLCAnLW9tYWUnLCAnPG91dGZpbGUubWFlPic=

> <r_epik_Ionization_Penalty>
0.00531443

> <r_epik_Ionization_Penalty_Charging>
0.0052814

> <r_epik_Ionization_Penalty_Neutral>
3.3027e-05

> <r_epik_State_Penalty>
0.00385383

> <r_epik_Charging_Adjusted_Penalty>
0.00913523

> <i_epik_Tot_Q>
1

> <i_epik_Tot_abs_Q>
1

> <r_epik_Metal_State_Penalty>
0.0139186

> <b_epik_Metal_Only>
0

> <s_lp_Force_Field>
OPLS_2005

> <r_lp_Energy>
18.0129

> <b_lp_Chiralities_Consistent>
1

> <s_lp_Variant>
AV-unprocessed.smi:1585-2

> <Gold.Version>
5.8.1

> <Gold.Id.Protein>
6NUR|6NUR_protein|mol2

> <Gold.PLP.Fitness>
50.5612

> <Gold.PLP.PLP>
-32.6796

> <Gold.PLP.part.hbond>
-7.5049

> <Gold.PLP.part.metal>
0.0000

> <Gold.PLP.part.buried>
-2.6760

> <Gold.PLP.part.nonpolar>
-23.4465

> <Gold.PLP.part.repulsive>
0.3086

> <Gold.PLP.ligand.clash>
0.0000

> <Gold.PLP.ligand.torsion>
1.0855

> <Gold.PLP.Chemscore.Hbond>
6.6640

> <Gold.PLP.Chemscore.CHOScore>
0.0000

> <Gold.PLP.Chemscore.Metal>
0.0000

> <Gold.Chemscore.Hbonds>
donor molecule, donor type, donor heavy atom, donor atom, acceptor molecule, acceptor atom, score
      L1  H     5    25       P1  7957  0.86
      L1  H     8    26       P1  7957  0.94
      L1  H    11    30       P1  7948  1.00
      L1  H    13    43       P1  7948  1.27
      P1  H  7989  7998       L1    19  1.00
      P1  H  7997  8009       L1    20  1.00

> <Gold.PLP.Chemscore.Internal.Correction>
0.0607

> <Gold.Rescore>
     Score         DG    S(hbond)    S(metal)    S(lipo)     H(rot)  DE(clash)    DE(int)     intcor
     21.82     -23.47       5.18        0.00      60.37       2.50       0.96       0.69       ----

> <Gold.Chemscore.Fitness>
21.8179

> <Gold.Chemscore.DG>
-23.4660

> <Gold.Chemscore.ZeroCoef>
-5.4800

> <Gold.Chemscore.Hbond>
5.1828

> <Gold.Chemscore.Metal>
0.0000

> <Gold.Chemscore.Lipo>
60.3714

> <Gold.Chemscore.Internal_Hbond>
0.0000

> <Gold.Chemscore.DEClash>
0.9621

> <Gold.Chemscore.DEInternal>
0.6860

> <Gold.Chemscore.Rot>
2.4953

> <Gold.Chemscore.Internal.Correction>
   9.000000E+99

> <Gold.Chemscore.Hbonds>
donor molecule, donor type, donor heavy atom, donor atom, acceptor molecule, acceptor atom, score
      L1  H     5    25       P1  7957  0.70
      L1  H     8    26       P1  7957  0.91
      L1  H    11    30       P1  7948  1.00
      L1  H    13    43       P1  7948  0.62
      P1  H  7989  7998       L1    19  0.43
      P1  H  7997  8009       L1    20  0.92

> <Gold.Chemscore.Hbond.Weighted>
-17.3105

> <Gold.Chemscore.Metal.Weighted>
-0.0000

> <Gold.Chemscore.Lipo.Weighted>
-7.0635

> <Gold.Chemscore.Internal_Hbond.Weighted>
0.0000

> <Gold.Chemscore.DEClash.Weighted>
0.9621

> <Gold.Chemscore.DEInternal.Weighted>
0.6860

> <Gold.Chemscore.Rot.Weighted>
6.3880

> <Gold.Chemscore.Internal.Correction.Weighted>
   9.000000E+99

> <Gold.Protein.RotatedTorsions>
[ 6907 6896 6895 6894 ] final -155.10 input  -60.11 | X-H torsion
[ 7974 7965 7964 7962 ] final -126.29 input  175.53 | X-H torsion
[ 8008 7997 7996 7995 ] final -173.35 input   59.86 | X-H torsion
[ 10167 10162 10161 10158 ] final  121.18 input  -65.29 | X-H torsion
[ 10718 10713 10712 10709 ] final -115.56 input   66.30 | X-H torsion
[ 10763 10752 10751 10750 ] final   28.73 input  -60.55 | X-H torsion
[ 11005 11000 10999 10996 ] final  -33.22 input  -57.11 | X-H torsion

> <Gold.Protein.ActiveResidues>
 VAL166  LYS551  ARG553  GLY616  TRP617  ASP618  TYR619  PRO620  LYS621  CYS622 
 ASP623  PHE694  ASN695  SER759  ASP760  ASP761  ALA762  ILE779  LEU786  VAL792 
 PHE793  MET794  SER795  GLU796  ALA797  LYS798  CYS799  TRP800  GLU811  SER814 

> <Gold.Protein.RotatedAtoms>
  151.2675  133.4271  159.2619 H   0  0  0  0  0  0  0  0  0  0  0  0  # atno 6907 bound_to 6896
  151.0475  134.9650  159.8204 H   0  0  0  0  0  0  0  0  0  0  0  0  # atno 6908 bound_to 6896
  152.5376  134.2630  159.8995 H   0  0  0  0  0  0  0  0  0  0  0  0  # atno 6909 bound_to 6896
  144.9887  140.7711  143.4567 H   0  0  0  0  0  0  0  0  0  0  0  0  # atno 7974 bound_to 7965
  155.9564  140.1136  157.0933 H   0  0  0  0  0  0  0  0  0  0  0  0  # atno 8008 bound_to 7997
  154.4121  140.1190  156.5187 H   0  0  0  0  0  0  0  0  0  0  0  0  # atno 8009 bound_to 7997
  155.6777  140.3473  155.4845 H   0  0  0  0  0  0  0  0  0  0  0  0  # atno 8010 bound_to 7997
  139.5936  144.7034  151.3231 H   0  0  0  0  0  0  0  0  0  0  0  0  # atno 10167 bound_to 10162
  156.0904  130.6087  150.8921 H   0  0  0  0  0  0  0  0  0  0  0  0  # atno 10718 bound_to 10713
  153.0474  135.6506  154.0782 H   0  0  0  0  0  0  0  0  0  0  0  0  # atno 10763 bound_to 10752
  154.0477  135.2898  155.3347 H   0  0  0  0  0  0  0  0  0  0  0  0  # atno 10764 bound_to 10752
  154.6740  135.5345  153.8241 H   0  0  0  0  0  0  0  0  0  0  0  0  # atno 10765 bound_to 10752
  140.9617  133.7161  156.1379 H   0  0  0  0  0  0  0  0  0  0  0  0  # atno 11005 bound_to 11000
  145.2316  139.2112  143.5040 LP  0  0  0  0  0  0  0  0  0  0  0  0  # atno 17320 bound_to 7965
  146.3426  140.2194  142.8591 LP  0  0  0  0  0  0  0  0  0  0  0  0  # atno 17321 bound_to 7965
  140.7193  143.7180  150.7718 LP  0  0  0  0  0  0  0  0  0  0  0  0  # atno 17342 bound_to 10162
  140.0741  143.5032  152.2564 LP  0  0  0  0  0  0  0  0  0  0  0  0  # atno 17343 bound_to 10162
  157.6051  131.0939  150.8893 LP  0  0  0  0  0  0  0  0  0  0  0  0  # atno 17370 bound_to 10713
  156.9043  130.5258  149.5282 LP  0  0  0  0  0  0  0  0  0  0  0  0  # atno 17371 bound_to 10713
  140.7458  134.4099  157.5548 LP  0  0  0  0  0  0  0  0  0  0  0  0  # atno 17394 bound_to 11000
  139.8880  134.8867  156.2497 LP  0  0  0  0  0  0  0  0  0  0  0  0  # atno 17395 bound_to 11000

$$$$
