AV-unprocessed.smi:2655|AV-procd|sdf|10301|dock9
  -GOLD-   2272014313D 1   1.00000     0.00000
 Structure written by MMmdl.
 32 33  0  0  0  0  0  0  0  0  3 V2000
  152.3459  141.6648  158.9270 C   0  0  0  0  0  0  0  0  0  0  0  0
  151.4632  141.7909  157.7190 C   0  0  0  0  0  0  0  0  0  0  0  0
  150.7598  142.9059  157.5488 N   0  0  0  0  0  0  0  0  0  0  0  0
  150.0903  142.7028  156.3986 N   0  0  0  0  0  0  0  0  0  0  0  0
  150.3693  141.4751  155.8560 C   0  0  0  0  0  0  0  0  0  0  0  0
  149.8019  141.0773  154.7026 O   0  5  0  0  0  0  0  0  0  0  0  0
  151.2557  140.8364  156.6748 C   0  0  0  0  0  0  0  0  0  0  0  0
  151.8716  139.4707  156.5269 C   0  0  0  0  0  0  0  0  0  0  0  0
  151.7371  138.6482  157.8188 C   0  0  0  0  0  0  0  0  0  0  0  0
  150.3413  138.3605  158.1330 N   0  0  0  0  0  0  0  0  0  0  0  0
  149.9038  137.4977  159.0614 C   0  0  0  0  0  0  0  0  0  0  0  0
  150.7129  136.8678  159.7465 O   0  0  0  0  0  0  0  0  0  0  0  0
  148.5546  137.4154  159.1363 N   0  5  0  0  0  0  0  0  0  0  0  0
  147.9749  136.7441  160.1431 C   0  0  0  0  0  0  0  0  0  0  0  0
  147.8864  135.3301  160.2614 C   0  0  0  0  0  0  0  0  0  0  0  0
  147.2060  135.1565  161.4330 C   0  0  0  0  0  0  0  0  0  0  0  0
  146.7656  133.9419  162.1764 C   0  0  0  0  0  0  0  0  0  0  0  0
  146.8937  136.3620  161.9804 O   0  0  0  0  0  0  0  0  0  0  0  0
  147.3838  137.3732  161.1453 N   0  0  0  0  0  0  0  0  0  0  0  0
  153.1482  140.9468  158.7574 H   0  0  0  0  0  0  0  0  0  0  0  0
  151.7755  141.3273  159.7921 H   0  0  0  0  0  0  0  0  0  0  0  0
  152.8082  142.6183  159.1825 H   0  0  0  0  0  0  0  0  0  0  0  0
  149.4651  143.3932  156.0089 H   0  0  0  0  0  0  0  0  0  0  0  0
  152.9252  139.5553  156.2584 H   0  0  0  0  0  0  0  0  0  0  0  0
  151.4026  138.9300  155.7043 H   0  0  0  0  0  0  0  0  0  0  0  0
  152.3087  137.7215  157.7459 H   0  0  0  0  0  0  0  0  0  0  0  0
  152.1558  139.2050  158.6574 H   0  0  0  0  0  0  0  0  0  0  0  0
  149.6441  138.8547  157.5961 H   0  0  0  0  0  0  0  0  0  0  0  0
  148.2660  134.5687  159.5966 H   0  0  0  0  0  0  0  0  0  0  0  0
  146.0388  133.3764  161.5935 H   0  0  0  0  0  0  0  0  0  0  0  0
  146.3027  134.2081  163.1268 H   0  0  0  0  0  0  0  0  0  0  0  0
  147.6135  133.2896  162.3851 H   0  0  0  0  0  0  0  0  0  0  0  0
  1 20  1  0  0  0  0
  1 21  1  0  0  0  0
  1 22  1  0  0  0  0
  1  2  1  0  0  0  0
  2  7  1  0  0  0  0
  2  3  2  0  0  0  0
  3  4  1  0  0  0  0
  4 23  1  0  0  0  0
  4  5  1  0  0  0  0
  5  7  2  0  0  0  0
  5  6  1  0  0  0  0
  7  8  1  0  0  0  0
  8  9  1  0  0  0  0
  8 24  1  0  0  0  0
  8 25  1  0  0  0  0
  9 10  1  0  0  0  0
  9 26  1  0  0  0  0
  9 27  1  0  0  0  0
 10 11  1  0  0  0  0
 10 28  1  0  0  0  0
 11 12  2  0  0  0  0
 11 13  1  0  0  0  0
 13 14  1  0  0  0  0
 14 19  2  0  0  0  0
 14 15  1  0  0  0  0
 15 16  2  0  0  0  0
 15 29  1  0  0  0  0
 16 17  1  0  0  0  0
 16 18  1  0  0  0  0
 17 30  1  0  0  0  0
 17 31  1  0  0  0  0
 17 32  1  0  0  0  0
 18 19  1  0  0  0  0
M  CHG  1   6  -1
M  CHG  1  13  -1
M  END
> <s_m_source_file>
AV-unprocessed.smi

> <i_m_source_file_index>
2655

> <i_lp_mmshare_version>
43012

> <i_f3d_flags>
0

> <s_epik_input>
W0NIM11DMT1OW05IXUMoPU8pW0NASF0xW0NIMl1bQ0gyXVtOSF1DKD1PKVtOSF1jMltjSF1jKFtDSDNdKW9uMg==

> <s_epik_cmdline>
J2VwaWtfcHl0aG9uJywgJy1waCcsICc3LjAnLCAnLXRuJywgJzgnLCAnLW1hJywgJzIwMCcsICctbWV0YWxfYmluZGluZycsICctaW1hZScsICc8aW5maWxlLm1hZT4nLCAnLW9tYWUnLCAnPG91dGZpbGUubWFlPic=

> <r_lp_tautomer_probability>
0.99495

> <r_epik_Ionization_Penalty>
8.09923

> <r_epik_Ionization_Penalty_Charging>
6.55729

> <r_epik_Ionization_Penalty_Neutral>
1.54195

> <r_epik_State_Penalty>
6.87174

> <r_epik_Charging_Adjusted_Penalty>
13.429

> <i_epik_Tot_Q>
-2

> <i_epik_Tot_abs_Q>
2

> <r_epik_Metal_State_Penalty>
4.19188

> <b_epik_Metal_Only>
1

> <s_lp_Force_Field>
OPLS_2005

> <r_lp_Energy>
-4.19881

> <b_lp_Chiralities_Consistent>
1

> <s_lp_Variant>
AV-unprocessed.smi:2655-4

> <Gold.Version>
5.8.1

> <Gold.Id.Protein>
6NUR|6NUR_protein|mol2

> <Gold.PLP.Fitness>
41.7954

> <Gold.PLP.PLP>
-30.0687

> <Gold.PLP.part.hbond>
-4.8601

> <Gold.PLP.part.metal>
0.0000

> <Gold.PLP.part.buried>
-5.5924

> <Gold.PLP.part.nonpolar>
-20.8266

> <Gold.PLP.part.repulsive>
0.5052

> <Gold.PLP.ligand.clash>
0.0000

> <Gold.PLP.ligand.torsion>
0.8810

> <Gold.PLP.Chemscore.Hbond>
4.4800

> <Gold.PLP.Chemscore.CHOScore>
0.0000

> <Gold.PLP.Chemscore.Metal>
0.0000

> <Gold.Chemscore.Hbonds>
donor molecule, donor type, donor heavy atom, donor atom, acceptor molecule, acceptor atom, score
      L1  H     4    23       P1  8028  0.89
      P1  H  6896  6908       L1    12  1.00
      P1  H  6931  6943       L1    19  0.69
      P1  H  6934  6947       L1    19  1.00
      P1  H  7989  7998       L1     6  0.35

> <Gold.PLP.Chemscore.Internal.Correction>
0.0486

> <Gold.Rescore>
     Score         DG    S(hbond)    S(metal)    S(lipo)     H(rot)  DE(clash)    DE(int)     intcor
     18.96     -19.85       3.82        0.00      53.61       1.82       0.00       0.88       ----

> <Gold.Chemscore.Fitness>
18.9650

> <Gold.Chemscore.DG>
-19.8492

> <Gold.Chemscore.ZeroCoef>
-5.4800

> <Gold.Chemscore.Hbond>
3.8203

> <Gold.Chemscore.Metal>
0.0000

> <Gold.Chemscore.Lipo>
53.6109

> <Gold.Chemscore.Internal_Hbond>
0.0000

> <Gold.Chemscore.DEClash>
0.0044

> <Gold.Chemscore.DEInternal>
0.8799

> <Gold.Chemscore.Rot>
1.8215

> <Gold.Chemscore.Internal.Correction>
   9.000000E+99

> <Gold.Chemscore.Hbonds>
donor molecule, donor type, donor heavy atom, donor atom, acceptor molecule, acceptor atom, score
      L1  H     4    23       P1  8028  0.87
      P1  H  6896  6908       L1    12  1.00
      P1  H  6931  6943       L1    19  0.11
      P1  H  6934  6947       L1    19  0.85
      P1  H  7989  7998       L1     6  0.08

> <Gold.Chemscore.Hbond.Weighted>
-12.7598

> <Gold.Chemscore.Metal.Weighted>
-0.0000

> <Gold.Chemscore.Lipo.Weighted>
-6.2725

> <Gold.Chemscore.Internal_Hbond.Weighted>
0.0000

> <Gold.Chemscore.DEClash.Weighted>
0.0044

> <Gold.Chemscore.DEInternal.Weighted>
0.8799

> <Gold.Chemscore.Rot.Weighted>
4.6631

> <Gold.Chemscore.Internal.Correction.Weighted>
   9.000000E+99

> <Gold.Protein.RotatedTorsions>
[ 6907 6896 6895 6894 ] final -132.59 input  -60.11 | X-H torsion
[ 7974 7965 7964 7962 ] final  -75.88 input  175.53 | X-H torsion
[ 8008 7997 7996 7995 ] final -148.58 input   59.86 | X-H torsion
[ 10167 10162 10161 10158 ] final -142.19 input  -65.29 | X-H torsion
[ 10718 10713 10712 10709 ] final  -74.30 input   66.30 | X-H torsion
[ 10763 10752 10751 10750 ] final -115.73 input  -60.55 | X-H torsion
[ 11005 11000 10999 10996 ] final   12.82 input  -57.11 | X-H torsion

> <Gold.Protein.ActiveResidues>
 VAL166  LYS551  ARG553  GLY616  TRP617  ASP618  TYR619  PRO620  LYS621  CYS622 
 ASP623  PHE694  ASN695  SER759  ASP760  ASP761  ALA762  ILE779  LEU786  VAL792 
 PHE793  MET794  SER795  GLU796  ALA797  LYS798  CYS799  TRP800  GLU811  SER814 

> <Gold.Protein.RotatedAtoms>
  150.9642  133.6412  159.2748 H   0  0  0  0  0  0  0  0  0  0  0  0  # atno 6907 bound_to 6896
  151.3724  135.0924  159.9479 H   0  0  0  0  0  0  0  0  0  0  0  0  # atno 6908 bound_to 6896
  152.5159  133.9193  159.7581 H   0  0  0  0  0  0  0  0  0  0  0  0  # atno 6909 bound_to 6896
  145.6202  140.9365  143.1142 H   0  0  0  0  0  0  0  0  0  0  0  0  # atno 7974 bound_to 7965
  155.5939  140.0655  157.2751 H   0  0  0  0  0  0  0  0  0  0  0  0  # atno 8008 bound_to 7997
  154.4297  140.1830  156.1150 H   0  0  0  0  0  0  0  0  0  0  0  0  # atno 8009 bound_to 7997
  156.0211  140.3316  155.7043 H   0  0  0  0  0  0  0  0  0  0  0  0  # atno 8010 bound_to 7997
  139.8112  143.7699  152.2663 H   0  0  0  0  0  0  0  0  0  0  0  0  # atno 10167 bound_to 10162
  156.0247  130.4414  150.2872 H   0  0  0  0  0  0  0  0  0  0  0  0  # atno 10718 bound_to 10713
  154.8492  135.4371  154.1708 H   0  0  0  0  0  0  0  0  0  0  0  0  # atno 10763 bound_to 10752
  153.2822  135.6954  153.7380 H   0  0  0  0  0  0  0  0  0  0  0  0  # atno 10764 bound_to 10752
  153.6579  135.3440  155.3094 H   0  0  0  0  0  0  0  0  0  0  0  0  # atno 10765 bound_to 10752
  140.4876  134.0872  155.7764 H   0  0  0  0  0  0  0  0  0  0  0  0  # atno 11005 bound_to 11000
  144.7234  139.7955  143.7374 LP  0  0  0  0  0  0  0  0  0  0  0  0  # atno 17320 bound_to 7965
  146.1437  139.4500  143.0093 LP  0  0  0  0  0  0  0  0  0  0  0  0  # atno 17321 bound_to 7965
  139.7849  144.7431  151.0036 LP  0  0  0  0  0  0  0  0  0  0  0  0  # atno 17342 bound_to 10162
  140.7817  143.4503  151.0423 LP  0  0  0  0  0  0  0  0  0  0  0  0  # atno 17343 bound_to 10162
  157.0976  131.0187  151.3098 LP  0  0  0  0  0  0  0  0  0  0  0  0  # atno 17370 bound_to 10713
  157.4805  130.7762  149.7410 LP  0  0  0  0  0  0  0  0  0  0  0  0  # atno 17371 bound_to 10713
  141.1500  133.8986  157.2121 LP  0  0  0  0  0  0  0  0  0  0  0  0  # atno 17394 bound_to 11000
  139.9788  135.0105  156.9699 LP  0  0  0  0  0  0  0  0  0  0  0  0  # atno 17395 bound_to 11000

$$$$
