AV-unprocessed.smi:3314|AV-procd|sdf|12742|dock7
  -GOLD-   2272019 83D 1   1.00000     0.00000
 Structure written by MMmdl.
 38 39  0  0  0  0  0  0  0  0  2 V2000
  153.9147  142.4591  162.6636 C   0  0  0  0  0  0  0  0  0  0  0  0
  153.2055  142.5295  161.3270 C   0  0  0  0  0  0  0  0  0  0  0  0
  152.4648  143.6738  160.9646 C   0  0  0  0  0  0  0  0  0  0  0  0
  151.8267  143.7065  159.7084 C   0  0  0  0  0  0  0  0  0  0  0  0
  151.0212  144.9003  159.2408 C   0  0  0  0  0  0  0  0  0  0  0  0
  151.9293  142.6450  158.8782 N   0  3  0  0  0  0  0  0  0  0  0  0
  152.6165  141.5184  159.1778 C   0  0  0  0  0  0  0  0  0  0  0  0
  152.6410  140.4993  158.1869 N   0  0  0  0  0  0  0  0  0  0  0  0
  153.0956  139.2354  158.2774 C   0  0  0  0  0  0  0  0  0  0  0  0
  153.5701  138.7341  159.2970 O   0  0  0  0  0  0  0  0  0  0  0  0
  152.9829  138.4119  156.9881 C   0  0  1  0  0  0  0  0  0  0  0  0
  151.9032  137.3078  157.0560 C   0  0  0  0  0  0  0  0  0  0  0  0
  151.7875  136.5921  155.7925 N   0  0  0  0  0  0  0  0  0  0  0  0
  150.7759  135.5484  155.8570 C   0  0  0  0  0  0  0  0  0  0  0  0
  151.5168  137.5375  154.7182 C   0  0  0  0  0  0  0  0  0  0  0  0
  152.5860  138.6413  154.6518 C   0  0  0  0  0  0  0  0  0  0  0  0
  152.6767  139.2992  155.9128 O   0  0  0  0  0  0  0  0  0  0  0  0
  153.2858  141.4461  160.4262 C   0  0  0  0  0  0  0  0  0  0  0  0
  153.7430  143.3596  163.2542 H   0  0  0  0  0  0  0  0  0  0  0  0
  154.9892  142.3486  162.5159 H   0  0  0  0  0  0  0  0  0  0  0  0
  153.5569  141.6033  163.2369 H   0  0  0  0  0  0  0  0  0  0  0  0
  152.3908  144.5161  161.6373 H   0  0  0  0  0  0  0  0  0  0  0  0
  150.9866  145.6754  160.0068 H   0  0  0  0  0  0  0  0  0  0  0  0
  149.9975  144.6030  159.0114 H   0  0  0  0  0  0  0  0  0  0  0  0
  151.4652  145.3295  158.3422 H   0  0  0  0  0  0  0  0  0  0  0  0
  152.2156  140.7436  157.3042 H   0  0  0  0  0  0  0  0  0  0  0  0
  153.9567  137.9549  156.8020 H   0  0  0  0  0  0  0  0  0  0  0  0
  152.1490  136.6033  157.8518 H   0  0  0  0  0  0  0  0  0  0  0  0
  150.9395  137.7497  157.3162 H   0  0  0  0  0  0  0  0  0  0  0  0
  150.7278  134.9990  154.9163 H   0  0  0  0  0  0  0  0  0  0  0  0
  149.7889  135.9676  156.0568 H   0  0  0  0  0  0  0  0  0  0  0  0
  151.0080  134.8334  156.6469 H   0  0  0  0  0  0  0  0  0  0  0  0
  151.4767  137.0120  153.7634 H   0  0  0  0  0  0  0  0  0  0  0  0
  150.5365  137.9937  154.8655 H   0  0  0  0  0  0  0  0  0  0  0  0
  153.5568  138.2225  154.3828 H   0  0  0  0  0  0  0  0  0  0  0  0
  152.3292  139.3724  153.8852 H   0  0  0  0  0  0  0  0  0  0  0  0
  153.8717  140.5854  160.7091 H   0  0  0  0  0  0  0  0  0  0  0  0
  151.4578  142.6987  157.9749 H   0  0  0  0  0  0  0  0  0  0  0  0
  1  2  1  0  0  0  0
  1 19  1  0  0  0  0
  1 20  1  0  0  0  0
  1 21  1  0  0  0  0
  2 18  1  0  0  0  0
  2  3  2  0  0  0  0
  3  4  1  0  0  0  0
  3 22  1  0  0  0  0
  4  5  1  0  0  0  0
  4  6  2  0  0  0  0
  5 23  1  0  0  0  0
  5 24  1  0  0  0  0
  5 25  1  0  0  0  0
  6  7  1  0  0  0  0
  6 38  1  0  0  0  0
  7  8  1  0  0  0  0
  7 18  2  0  0  0  0
  8  9  1  0  0  0  0
  8 26  1  0  0  0  0
  9 10  2  0  0  0  0
  9 11  1  0  0  0  0
 11 17  1  0  0  0  0
 11 12  1  0  0  0  0
 11 27  1  0  0  0  0
 12 13  1  0  0  0  0
 12 28  1  0  0  0  0
 12 29  1  0  0  0  0
 13 14  1  0  0  0  0
 13 15  1  0  0  0  0
 14 30  1  0  0  0  0
 14 31  1  0  0  0  0
 14 32  1  0  0  0  0
 15 16  1  0  0  0  0
 15 33  1  0  0  0  0
 15 34  1  0  0  0  0
 16 17  1  0  0  0  0
 16 35  1  0  0  0  0
 16 36  1  0  0  0  0
 18 37  1  0  0  0  0
M  CHG  1   6   1
M  END
> <s_m_source_file>
AV-unprocessed.smi

> <i_m_source_file_index>
3314

> <i_lp_mmshare_version>
43012

> <i_f3d_flags>
0

> <s_epik_input>
W0NIM11jMVtjSF1jKFtDSDNdKW5jKFtjSF0xKVtOSF1DKD1PKVtDQEBIXTJbQ0gyXU4oW0NIM10pW0NIMl1bQ0gyXU8y

> <s_epik_cmdline>
J2VwaWtfcHl0aG9uJywgJy1waCcsICc3LjAnLCAnLXRuJywgJzgnLCAnLW1hJywgJzIwMCcsICctbWV0YWxfYmluZGluZycsICctaW1hZScsICc8aW5maWxlLm1hZT4nLCAnLW9tYWUnLCAnPG91dGZpbGUubWFlPic=

> <r_epik_Ionization_Penalty>
2.57421

> <r_epik_Ionization_Penalty_Charging>
1.80498

> <r_epik_Ionization_Penalty_Neutral>
0.76923

> <r_epik_State_Penalty>
2.63884

> <r_epik_Charging_Adjusted_Penalty>
4.44382

> <i_epik_Tot_Q>
1

> <i_epik_Tot_abs_Q>
1

> <r_epik_Metal_State_Penalty>
6.15142

> <b_epik_Metal_Only>
0

> <s_lp_Force_Field>
OPLS_2005

> <r_lp_Energy>
30.3211

> <b_lp_Chiralities_Consistent>
1

> <s_lp_Variant>
AV-unprocessed.smi:3314-12

> <Gold.Version>
5.8.1

> <Gold.Id.Protein>
6NUR|6NUR_protein|mol2

> <Gold.PLP.Fitness>
44.5395

> <Gold.PLP.PLP>
-39.0701

> <Gold.PLP.part.hbond>
-2.0000

> <Gold.PLP.part.metal>
0.0000

> <Gold.PLP.part.buried>
-4.8287

> <Gold.PLP.part.nonpolar>
-32.2263

> <Gold.PLP.part.repulsive>
0.2061

> <Gold.PLP.ligand.clash>
0.0000

> <Gold.PLP.ligand.torsion>
0.2665

> <Gold.PLP.Chemscore.Hbond>
2.0000

> <Gold.PLP.Chemscore.CHOScore>
0.0000

> <Gold.PLP.Chemscore.Metal>
0.0000

> <Gold.Chemscore.Hbonds>
donor molecule, donor type, donor heavy atom, donor atom, acceptor molecule, acceptor atom, score
      P1  H  7997  8008       L1    17  0.65
      P1  H 10752 10763       L1    13  0.80

> <Gold.PLP.Chemscore.Internal.Correction>
0.0023

> <Gold.Rescore>
     Score         DG    S(hbond)    S(metal)    S(lipo)     H(rot)  DE(clash)    DE(int)     intcor
     15.81     -17.40       0.81        0.00     100.75       1.00       0.08       1.51       ----

> <Gold.Chemscore.Fitness>
15.8083

> <Gold.Chemscore.DG>
-17.3964

> <Gold.Chemscore.ZeroCoef>
-5.4800

> <Gold.Chemscore.Hbond>
0.8051

> <Gold.Chemscore.Metal>
0.0000

> <Gold.Chemscore.Lipo>
100.7460

> <Gold.Chemscore.Internal_Hbond>
0.0000

> <Gold.Chemscore.DEClash>
0.0787

> <Gold.Chemscore.DEInternal>
1.5094

> <Gold.Chemscore.Rot>
1.0000

> <Gold.Chemscore.Internal.Correction>
   9.000000E+99

> <Gold.Chemscore.Hbonds>
donor molecule, donor type, donor heavy atom, donor atom, acceptor molecule, acceptor atom, score
      P1  H  7997  8008       L1    17  0.04
      P1  H 10752 10763       L1    13  0.05

> <Gold.Chemscore.Hbond.Weighted>
-2.6892

> <Gold.Chemscore.Metal.Weighted>
-0.0000

> <Gold.Chemscore.Lipo.Weighted>
-11.7873

> <Gold.Chemscore.Internal_Hbond.Weighted>
0.0000

> <Gold.Chemscore.DEClash.Weighted>
0.0787

> <Gold.Chemscore.DEInternal.Weighted>
1.5094

> <Gold.Chemscore.Rot.Weighted>
2.5600

> <Gold.Chemscore.Internal.Correction.Weighted>
   9.000000E+99

> <Gold.Protein.RotatedTorsions>
[ 6907 6896 6895 6894 ] final   14.63 input  -60.11 | X-H torsion
[ 7974 7965 7964 7962 ] final  -43.74 input  175.53 | X-H torsion
[ 8008 7997 7996 7995 ] final  -21.48 input   59.86 | X-H torsion
[ 10167 10162 10161 10158 ] final -153.52 input  -65.29 | X-H torsion
[ 10718 10713 10712 10709 ] final  -97.81 input   66.30 | X-H torsion
[ 10763 10752 10751 10750 ] final   92.62 input  -60.55 | X-H torsion
[ 11005 11000 10999 10996 ] final   95.06 input  -57.11 | X-H torsion

> <Gold.Protein.ActiveResidues>
 VAL166  LYS551  ARG553  GLY616  TRP617  ASP618  TYR619  PRO620  LYS621  CYS622 
 ASP623  PHE694  ASN695  SER759  ASP760  ASP761  ALA762  ILE779  LEU786  VAL792 
 PHE793  MET794  SER795  GLU796  ALA797  LYS798  CYS799  TRP800  GLU811  SER814 

> <Gold.Protein.RotatedAtoms>
  151.8053  135.0697  160.0405 H   0  0  0  0  0  0  0  0  0  0  0  0  # atno 6907 bound_to 6896
  152.3059  133.5698  159.5657 H   0  0  0  0  0  0  0  0  0  0  0  0  # atno 6908 bound_to 6896
  150.7296  134.0139  159.3721 H   0  0  0  0  0  0  0  0  0  0  0  0  # atno 6909 bound_to 6896
  145.9989  140.7097  142.9280 H   0  0  0  0  0  0  0  0  0  0  0  0  # atno 7974 bound_to 7965
  154.4703  140.2033  156.0012 H   0  0  0  0  0  0  0  0  0  0  0  0  # atno 8008 bound_to 7997
  156.0999  140.3245  155.7898 H   0  0  0  0  0  0  0  0  0  0  0  0  # atno 8009 bound_to 7997
  155.4815  140.0539  157.2957 H   0  0  0  0  0  0  0  0  0  0  0  0  # atno 8010 bound_to 7997
  139.7089  143.9140  152.2460 H   0  0  0  0  0  0  0  0  0  0  0  0  # atno 10167 bound_to 10162
  156.0092  130.5210  150.6429 H   0  0  0  0  0  0  0  0  0  0  0  0  # atno 10718 bound_to 10713
  153.2212  135.4355  155.0491 H   0  0  0  0  0  0  0  0  0  0  0  0  # atno 10763 bound_to 10752
  154.8251  135.3356  154.6925 H   0  0  0  0  0  0  0  0  0  0  0  0  # atno 10764 bound_to 10752
  153.7357  135.7008  153.5035 H   0  0  0  0  0  0  0  0  0  0  0  0  # atno 10765 bound_to 10752
  139.8792  134.8878  156.3955 H   0  0  0  0  0  0  0  0  0  0  0  0  # atno 11005 bound_to 11000
  144.6913  140.3198  143.7234 LP  0  0  0  0  0  0  0  0  0  0  0  0  # atno 17320 bound_to 7965
  145.7518  139.1796  143.2317 LP  0  0  0  0  0  0  0  0  0  0  0  0  # atno 17321 bound_to 7965
  139.9004  144.6915  150.8672 LP  0  0  0  0  0  0  0  0  0  0  0  0  # atno 17342 bound_to 10162
  140.7728  143.3518  151.1999 LP  0  0  0  0  0  0  0  0  0  0  0  0  # atno 17343 bound_to 10162
  157.4206  131.0836  151.1135 LP  0  0  0  0  0  0  0  0  0  0  0  0  # atno 17370 bound_to 10713
  157.1738  130.6279  149.5649 LP  0  0  0  0  0  0  0  0  0  0  0  0  # atno 17371 bound_to 10713
  140.9303  133.7584  156.0017 LP  0  0  0  0  0  0  0  0  0  0  0  0  # atno 17394 bound_to 11000
  140.8338  134.3147  157.5339 LP  0  0  0  0  0  0  0  0  0  0  0  0  # atno 17395 bound_to 11000

$$$$
