AV-unprocessed.smi:266|AV-procd|sdf|2035|dock2
  -GOLD-   2262021243D 1   1.00000     0.00000
 Structure written by MMmdl.
 52 55  0  0  0  0  0  0  0  0  1 V2000
  145.6684  135.2104  152.3680 C   0  0  0  0  0  0  0  0  0  0  0  0
  145.7919  134.3235  151.1192 C   0  0  2  0  0  0  0  0  0  0  0  0
  144.6302  134.5331  150.3208 O   0  0  0  0  0  0  0  0  0  0  0  0
  144.3510  133.3453  149.6015 C   0  0  0  0  0  0  0  0  0  0  0  0
  144.6296  132.2656  150.6357 C   0  0  0  0  0  0  0  0  0  0  0  0
  145.8718  132.7879  151.3534 C   0  0  1  0  0  0  0  0  0  0  0  0
  147.0095  132.3072  150.6561 O   0  0  0  0  0  0  0  0  0  0  0  0
  145.9808  132.3195  152.8286 C   0  0  0  0  0  0  0  0  0  0  0  0
  147.3510  132.1050  153.2695 N   0  0  0  0  0  0  0  0  0  0  0  0
  148.3260  133.0639  153.4244 C   0  0  0  0  0  0  0  0  0  0  0  0
  149.4826  132.6196  153.8328 N   0  0  0  0  0  0  0  0  0  0  0  0
  149.2909  131.2508  153.9830 C   0  0  0  0  0  0  0  0  0  0  0  0
  150.1170  130.1634  154.3930 C   0  0  0  0  0  0  0  0  0  0  0  0
  151.4133  130.2610  154.7738 N   0  0  0  0  0  0  0  0  0  0  0  0
  151.5754  131.0687  155.9748 C   0  0  0  0  0  0  0  0  0  0  0  0
  152.2786  129.0892  154.6398 C   0  0  0  0  0  0  0  0  0  0  0  0
  153.7373  129.3335  155.0834 C   0  0  1  0  0  0  0  0  0  0  0  0
  154.6996  128.2139  154.6368 C   0  0  0  0  0  0  0  0  0  0  0  0
  156.1384  128.6892  154.8593 C   0  0  0  0  0  0  0  0  0  0  0  0
  156.1154  130.4928  154.5440 S   0  0  0  0  0  0  0  0  0  0  0  0
  156.6761  131.1898  155.7113 O   0  0  0  0  0  0  0  0  0  0  0  0
  156.6182  130.7610  153.1880 O   0  0  0  0  0  0  0  0  0  0  0  0
  154.2900  130.6621  154.5462 C   0  0  0  0  0  0  0  0  0  0  0  0
  149.5705  128.9215  154.3933 N   0  0  0  0  0  0  0  0  0  0  0  0
  148.2939  128.7485  154.0395 C   0  0  0  0  0  0  0  0  0  0  0  0
  147.4044  129.6639  153.6511 N   0  0  0  0  0  0  0  0  0  0  0  0
  147.9533  130.9121  153.6308 C   0  0  0  0  0  0  0  0  0  0  0  0
  146.5335  135.1013  153.0223 H   0  0  0  0  0  0  0  0  0  0  0  0
  144.7722  134.9722  152.9412 H   0  0  0  0  0  0  0  0  0  0  0  0
  145.6046  136.2616  152.0862 H   0  0  0  0  0  0  0  0  0  0  0  0
  146.6527  134.6645  150.5407 H   0  0  0  0  0  0  0  0  0  0  0  0
  143.3241  133.3269  149.2363 H   0  0  0  0  0  0  0  0  0  0  0  0
  145.0266  133.2599  148.7490 H   0  0  0  0  0  0  0  0  0  0  0  0
  143.7868  132.2231  151.3263 H   0  0  0  0  0  0  0  0  0  0  0  0
  144.7533  131.2728  150.2009 H   0  0  0  0  0  0  0  0  0  0  0  0
  147.5027  131.7484  151.2369 H   0  0  0  0  0  0  0  0  0  0  0  0
  145.5222  133.0510  153.4954 H   0  0  0  0  0  0  0  0  0  0  0  0
  145.4370  131.3860  152.9743 H   0  0  0  0  0  0  0  0  0  0  0  0
  148.1530  134.1100  153.2171 H   0  0  0  0  0  0  0  0  0  0  0  0
  151.2308  132.0896  155.8071 H   0  0  0  0  0  0  0  0  0  0  0  0
  152.6236  131.1169  156.2708 H   0  0  0  0  0  0  0  0  0  0  0  0
  151.0080  130.6449  156.8044 H   0  0  0  0  0  0  0  0  0  0  0  0
  151.8580  128.2829  155.2419 H   0  0  0  0  0  0  0  0  0  0  0  0
  152.2495  128.7327  153.6105 H   0  0  0  0  0  0  0  0  0  0  0  0
  153.7902  129.3941  156.1707 H   0  0  0  0  0  0  0  0  0  0  0  0
  154.5072  127.2786  155.1635 H   0  0  0  0  0  0  0  0  0  0  0  0
  154.5528  128.0165  153.5741 H   0  0  0  0  0  0  0  0  0  0  0  0
  156.4418  128.5309  155.8945 H   0  0  0  0  0  0  0  0  0  0  0  0
  156.8581  128.1983  154.2042 H   0  0  0  0  0  0  0  0  0  0  0  0
  153.9714  130.8345  153.5179 H   0  0  0  0  0  0  0  0  0  0  0  0
  153.9922  131.5198  155.1497 H   0  0  0  0  0  0  0  0  0  0  0  0
  147.9330  127.7310  154.0729 H   0  0  0  0  0  0  0  0  0  0  0  0
  1  2  1  0  0  0  0
  1 28  1  0  0  0  0
  1 29  1  0  0  0  0
  1 30  1  0  0  0  0
  2  6  1  0  0  0  0
  2  3  1  0  0  0  0
  2 31  1  0  0  0  0
  3  4  1  0  0  0  0
  4  5  1  0  0  0  0
  4 32  1  0  0  0  0
  4 33  1  0  0  0  0
  5  6  1  0  0  0  0
  5 34  1  0  0  0  0
  5 35  1  0  0  0  0
  6  7  1  0  0  0  0
  6  8  1  0  0  0  0
  7 36  1  0  0  0  0
  8  9  1  0  0  0  0
  8 37  1  0  0  0  0
  8 38  1  0  0  0  0
  9 27  1  0  0  0  0
  9 10  1  0  0  0  0
 10 11  2  0  0  0  0
 10 39  1  0  0  0  0
 11 12  1  0  0  0  0
 12 27  2  0  0  0  0
 12 13  1  0  0  0  0
 13 14  1  0  0  0  0
 13 24  2  0  0  0  0
 14 15  1  0  0  0  0
 14 16  1  0  0  0  0
 15 40  1  0  0  0  0
 15 41  1  0  0  0  0
 15 42  1  0  0  0  0
 16 17  1  0  0  0  0
 16 43  1  0  0  0  0
 16 44  1  0  0  0  0
 17 23  1  0  0  0  0
 17 18  1  0  0  0  0
 17 45  1  0  0  0  0
 18 19  1  0  0  0  0
 18 46  1  0  0  0  0
 18 47  1  0  0  0  0
 19 20  1  0  0  0  0
 19 48  1  0  0  0  0
 19 49  1  0  0  0  0
 20 21  2  0  0  0  0
 20 22  2  0  0  0  0
 20 23  1  0  0  0  0
 23 50  1  0  0  0  0
 23 51  1  0  0  0  0
 24 25  1  0  0  0  0
 25 26  2  0  0  0  0
 25 52  1  0  0  0  0
 26 27  1  0  0  0  0
M  END
> <s_m_source_file>
AV-unprocessed.smi

> <i_m_source_file_index>
266

> <i_lp_mmshare_version>
43012

> <i_f3d_flags>
0

> <s_epik_input>
W0NIMl0xW0NIMl1PW0NAQEhdKFtDSDNdKVtDQEBdMShbT0hdKVtDSDJdbihbY0hdbjIpYyhjMjMpbltjSF1uYzNOKFtDSDNdKVtDSDJdW0NAQEhdKFtDSDJdNClbQ0gyXVtDSDJdUzQoPU8pPU8=

> <s_epik_cmdline>
J2VwaWtfcHl0aG9uJywgJy1waCcsICc3LjAnLCAnLXRuJywgJzgnLCAnLW1hJywgJzIwMCcsICctbWV0YWxfYmluZGluZycsICctaW1hZScsICc8aW5maWxlLm1hZT4nLCAnLW9tYWUnLCAnPG91dGZpbGUubWFlPic=

> <r_lp_tautomer_probability>
1

> <r_epik_Ionization_Penalty>
0.00155497

> <r_epik_Ionization_Penalty_Charging>
0

> <r_epik_Ionization_Penalty_Neutral>
0.00155497

> <r_epik_State_Penalty>
-0

> <r_epik_Charging_Adjusted_Penalty>
0

> <i_epik_Tot_Q>
0

> <i_epik_Tot_abs_Q>
0

> <r_epik_Metal_State_Penalty>
-0

> <b_epik_Metal_Only>
0

> <s_lp_Force_Field>
OPLS_2005

> <r_lp_Energy>
31.7586

> <b_lp_Chiralities_Consistent>
1

> <s_lp_Variant>
AV-unprocessed.smi:266-5

> <Gold.Version>
5.8.1

> <Gold.Id.Protein>
6NUR|6NUR_protein|mol2

> <Gold.PLP.Fitness>
43.6780

> <Gold.PLP.PLP>
-39.2158

> <Gold.PLP.part.hbond>
-1.5667

> <Gold.PLP.part.metal>
0.0000

> <Gold.PLP.part.buried>
-5.5246

> <Gold.PLP.part.nonpolar>
-31.5514

> <Gold.PLP.part.repulsive>
1.3844

> <Gold.PLP.ligand.clash>
0.0000

> <Gold.PLP.ligand.torsion>
1.2486

> <Gold.PLP.Chemscore.Hbond>
1.1440

> <Gold.PLP.Chemscore.CHOScore>
0.9767

> <Gold.PLP.Chemscore.Metal>
0.0000

> <Gold.Chemscore.Hbonds>
donor molecule, donor type, donor heavy atom, donor atom, acceptor molecule, acceptor atom, score
      L1  H     7    36       P1 10747  0.22
      P1  H 10713 10718       L1    22  1.00
      L1  C    10    39       P1  7948  0.83

> <Gold.PLP.Chemscore.Internal.Correction>
0.5972

> <Gold.Rescore>
     Score         DG    S(hbond)    S(metal)    S(lipo)     H(rot)  DE(clash)    DE(int)     intcor
      9.34     -11.06       1.10        0.00      76.65       2.76       0.47       1.26       ----

> <Gold.Chemscore.Fitness>
9.3375

> <Gold.Chemscore.DG>
-11.0611

> <Gold.Chemscore.ZeroCoef>
-5.4800

> <Gold.Chemscore.Hbond>
1.1042

> <Gold.Chemscore.Metal>
0.0000

> <Gold.Chemscore.Lipo>
76.6519

> <Gold.Chemscore.Internal_Hbond>
0.0000

> <Gold.Chemscore.DEClash>
0.4660

> <Gold.Chemscore.DEInternal>
1.2576

> <Gold.Chemscore.Rot>
2.7637

> <Gold.Chemscore.Internal.Correction>
   9.000000E+99

> <Gold.Chemscore.Hbonds>
donor molecule, donor type, donor heavy atom, donor atom, acceptor molecule, acceptor atom, score
      L1  H     7    36       P1 10747  0.22
      P1  H 10713 10718       L1    22  1.00

> <Gold.Chemscore.Hbond.Weighted>
-3.6879

> <Gold.Chemscore.Metal.Weighted>
-0.0000

> <Gold.Chemscore.Lipo.Weighted>
-8.9683

> <Gold.Chemscore.Internal_Hbond.Weighted>
0.0000

> <Gold.Chemscore.DEClash.Weighted>
0.4660

> <Gold.Chemscore.DEInternal.Weighted>
1.2576

> <Gold.Chemscore.Rot.Weighted>
7.0750

> <Gold.Chemscore.Internal.Correction.Weighted>
   9.000000E+99

> <Gold.Protein.RotatedTorsions>
[ 6907 6896 6895 6894 ] final  128.41 input  -60.11 | X-H torsion
[ 7974 7965 7964 7962 ] final   95.16 input  175.53 | X-H torsion
[ 8008 7997 7996 7995 ] final   89.99 input   59.86 | X-H torsion
[ 10167 10162 10161 10158 ] final -161.13 input  -65.29 | X-H torsion
[ 10718 10713 10712 10709 ] final -158.55 input   66.30 | X-H torsion
[ 10763 10752 10751 10750 ] final -133.21 input  -60.55 | X-H torsion
[ 11005 11000 10999 10996 ] final  -75.58 input  -57.11 | X-H torsion

> <Gold.Protein.ActiveResidues>
 VAL166  LYS551  ARG553  GLY616  TRP617  ASP618  TYR619  PRO620  LYS621  CYS622 
 ASP623  PHE694  ASN695  SER759  ASP760  ASP761  ALA762  ILE779  LEU786  VAL792 
 PHE793  MET794  SER795  GLU796  ALA797  LYS798  CYS799  TRP800  GLU811  SER814 

> <Gold.Protein.RotatedAtoms>
  152.3722  133.6434  159.6095 H   0  0  0  0  0  0  0  0  0  0  0  0  # atno 6907 bound_to 6896
  150.7677  133.9252  159.3419 H   0  0  0  0  0  0  0  0  0  0  0  0  # atno 6908 bound_to 6896
  151.7072  135.0920  160.0312 H   0  0  0  0  0  0  0  0  0  0  0  0  # atno 6909 bound_to 6896
  145.4558  139.2290  143.3014 H   0  0  0  0  0  0  0  0  0  0  0  0  # atno 7974 bound_to 7965
  156.0066  140.3354  155.6898 H   0  0  0  0  0  0  0  0  0  0  0  0  # atno 8008 bound_to 7997
  155.6216  140.0675  157.2694 H   0  0  0  0  0  0  0  0  0  0  0  0  # atno 8009 bound_to 7997
  154.4267  140.1775  156.1366 H   0  0  0  0  0  0  0  0  0  0  0  0  # atno 8010 bound_to 7997
  139.6487  144.0123  152.2146 H   0  0  0  0  0  0  0  0  0  0  0  0  # atno 10167 bound_to 10162
  156.5558  130.8625  151.2794 H   0  0  0  0  0  0  0  0  0  0  0  0  # atno 10718 bound_to 10713
  154.8735  135.3773  154.4536 H   0  0  0  0  0  0  0  0  0  0  0  0  # atno 10763 bound_to 10752
  153.5210  135.7029  153.5736 H   0  0  0  0  0  0  0  0  0  0  0  0  # atno 10764 bound_to 10752
  153.3983  135.3954  155.1936 H   0  0  0  0  0  0  0  0  0  0  0  0  # atno 10765 bound_to 10752
  141.1647  133.6952  156.7538 H   0  0  0  0  0  0  0  0  0  0  0  0  # atno 11005 bound_to 11000
  146.2479  140.5322  142.8906 LP  0  0  0  0  0  0  0  0  0  0  0  0  # atno 17320 bound_to 7965
  144.8033  140.6253  143.6464 LP  0  0  0  0  0  0  0  0  0  0  0  0  # atno 17321 bound_to 7965
  139.9832  144.6414  150.7882 LP  0  0  0  0  0  0  0  0  0  0  0  0  # atno 17342 bound_to 10162
  140.7527  143.2996  151.3116 LP  0  0  0  0  0  0  0  0  0  0  0  0  # atno 17343 bound_to 10162
  157.7378  130.9803  150.2217 LP  0  0  0  0  0  0  0  0  0  0  0  0  # atno 17370 bound_to 10713
  156.2844  130.3737  149.7903 LP  0  0  0  0  0  0  0  0  0  0  0  0  # atno 17371 bound_to 10713
  140.2584  134.8486  157.3735 LP  0  0  0  0  0  0  0  0  0  0  0  0  # atno 17394 bound_to 11000
  140.1635  134.4699  155.7879 LP  0  0  0  0  0  0  0  0  0  0  0  0  # atno 17395 bound_to 11000

$$$$
