AV-unprocessed.smi:2801|AV-procd|sdf|10802|dock4
  -GOLD-   2272015233D 1   1.00000     0.00000
 Structure written by MMmdl.
 31 31  0  0  0  0  0  0  0  0  2 V2000
  151.9001  138.3121  154.4871 C   0  0  0  0  0  0  0  0  0  0  0  0
  151.7854  139.6350  155.2474 C   0  0  0  0  0  0  0  0  0  0  0  0
  150.4108  139.8887  155.5125 O   0  0  0  0  0  0  0  0  0  0  0  0
  150.0662  141.2608  155.6932 C   0  0  1  0  0  0  0  0  0  0  0  0
  148.5725  141.4219  155.3524 C   0  0  0  0  0  0  0  0  0  0  0  0
  148.2787  141.2247  153.8599 C   0  0  0  0  0  0  0  0  0  0  0  0
  150.3567  141.6934  157.1401 C   0  0  0  0  0  0  0  0  0  0  0  0
  149.4331  142.0881  157.8517 O   0  0  0  0  0  0  0  0  0  0  0  0
  151.6378  141.5730  157.5339 N   0  0  0  0  0  0  0  0  0  0  0  0
  152.2400  141.8798  158.7871 C   0  0  0  0  0  0  0  0  0  0  0  0
  151.8873  142.9974  159.5823 C   0  0  0  0  0  0  0  0  0  0  0  0
  152.5698  143.2060  160.7969 C   0  0  0  0  0  0  0  0  0  0  0  0
  153.5535  142.4009  161.2482 N   0  0  0  0  0  0  0  0  0  0  0  0
  153.8970  141.3429  160.4842 C   0  0  0  0  0  0  0  0  0  0  0  0
  153.2797  141.0397  159.2528 C   0  0  0  0  0  0  0  0  0  0  0  0
  153.6930  139.9484  158.5389 O   0  5  0  0  0  0  0  0  0  0  0  0
  152.9417  138.0798  154.2649 H   0  0  0  0  0  0  0  0  0  0  0  0
  151.3573  138.3550  153.5427 H   0  0  0  0  0  0  0  0  0  0  0  0
  151.4907  137.4885  155.0723 H   0  0  0  0  0  0  0  0  0  0  0  0
  152.3615  139.5750  156.1713 H   0  0  0  0  0  0  0  0  0  0  0  0
  152.2064  140.4434  154.6479 H   0  0  0  0  0  0  0  0  0  0  0  0
  150.6474  141.8774  155.0041 H   0  0  0  0  0  0  0  0  0  0  0  0
  147.9782  140.7143  155.9327 H   0  0  0  0  0  0  0  0  0  0  0  0
  148.2340  142.4173  155.6439 H   0  0  0  0  0  0  0  0  0  0  0  0
  147.2169  141.3572  153.6527 H   0  0  0  0  0  0  0  0  0  0  0  0
  148.5585  140.2237  153.5304 H   0  0  0  0  0  0  0  0  0  0  0  0
  148.8285  141.9439  153.2522 H   0  0  0  0  0  0  0  0  0  0  0  0
  152.2683  141.1616  156.8605 H   0  0  0  0  0  0  0  0  0  0  0  0
  151.1258  143.7012  159.2883 H   0  0  0  0  0  0  0  0  0  0  0  0
  152.3212  144.0506  161.4221 H   0  0  0  0  0  0  0  0  0  0  0  0
  154.6919  140.7204  160.8682 H   0  0  0  0  0  0  0  0  0  0  0  0
  1  2  1  0  0  0  0
  1 17  1  0  0  0  0
  1 18  1  0  0  0  0
  1 19  1  0  0  0  0
  2  3  1  0  0  0  0
  2 20  1  0  0  0  0
  2 21  1  0  0  0  0
  3  4  1  0  0  0  0
  4  5  1  0  0  0  0
  4  7  1  0  0  0  0
  4 22  1  0  0  0  0
  5  6  1  0  0  0  0
  5 23  1  0  0  0  0
  5 24  1  0  0  0  0
  6 25  1  0  0  0  0
  6 26  1  0  0  0  0
  6 27  1  0  0  0  0
  7  8  2  0  0  0  0
  7  9  1  0  0  0  0
  9 28  1  0  0  0  0
  9 10  1  0  0  0  0
 10 11  2  0  0  0  0
 10 15  1  0  0  0  0
 11 12  1  0  0  0  0
 11 29  1  0  0  0  0
 12 13  2  0  0  0  0
 12 30  1  0  0  0  0
 13 14  1  0  0  0  0
 14 15  2  0  0  0  0
 14 31  1  0  0  0  0
 15 16  1  0  0  0  0
M  CHG  1  16  -1
M  END
> <s_m_source_file>
AV-unprocessed.smi

> <i_m_source_file_index>
2801

> <i_lp_mmshare_version>
43012

> <i_f3d_flags>
0

> <s_epik_input>
W0NIM11bQ0gyXU9bQ0BIXShbQ0gyXVtDSDNdKUMoPU8pW05IXWMxW2NIXVtjSF1uW2NIXWMxW09IXQ==

> <s_epik_cmdline>
J2VwaWtfcHl0aG9uJywgJy1waCcsICc3LjAnLCAnLXRuJywgJzgnLCAnLW1hJywgJzIwMCcsICctbWV0YWxfYmluZGluZycsICctaW1hZScsICc8aW5maWxlLm1hZT4nLCAnLW9tYWUnLCAnPG91dGZpbGUubWFlPic=

> <r_lp_tautomer_probability>
0.56342

> <r_epik_Ionization_Penalty>
4.38321

> <r_epik_Ionization_Penalty_Charging>
2.0641

> <r_epik_Ionization_Penalty_Neutral>
2.31912

> <r_epik_State_Penalty>
2.63873

> <r_epik_Charging_Adjusted_Penalty>
4.70283

> <i_epik_Tot_Q>
-1

> <i_epik_Tot_abs_Q>
1

> <r_epik_Metal_State_Penalty>
0.606608

> <b_epik_Metal_Only>
1

> <s_lp_Force_Field>
OPLS_2005

> <r_lp_Energy>
9.76409

> <b_lp_Chiralities_Consistent>
1

> <s_lp_Variant>
AV-unprocessed.smi:2801-6

> <Gold.Version>
5.8.1

> <Gold.Id.Protein>
6NUR|6NUR_protein|mol2

> <Gold.PLP.Fitness>
37.6451

> <Gold.PLP.PLP>
-32.9771

> <Gold.PLP.part.hbond>
-1.0000

> <Gold.PLP.part.metal>
0.0000

> <Gold.PLP.part.buried>
-3.0224

> <Gold.PLP.part.nonpolar>
-28.9941

> <Gold.PLP.part.repulsive>
0.2323

> <Gold.PLP.ligand.clash>
0.0000

> <Gold.PLP.ligand.torsion>
0.7095

> <Gold.PLP.Chemscore.Hbond>
2.0000

> <Gold.PLP.Chemscore.CHOScore>
0.0000

> <Gold.PLP.Chemscore.Metal>
0.0000

> <Gold.Chemscore.Hbonds>
donor molecule, donor type, donor heavy atom, donor atom, acceptor molecule, acceptor atom, score
      P1  H  7997  8008       L1    16  2.00

> <Gold.PLP.Chemscore.Internal.Correction>
0.0871

> <Gold.Rescore>
     Score         DG    S(hbond)    S(metal)    S(lipo)     H(rot)  DE(clash)    DE(int)     intcor
     13.88     -14.72       0.97        0.00      85.10       1.55       0.01       0.83       ----

> <Gold.Chemscore.Fitness>
13.8849

> <Gold.Chemscore.DG>
-14.7182

> <Gold.Chemscore.ZeroCoef>
-5.4800

> <Gold.Chemscore.Hbond>
0.9700

> <Gold.Chemscore.Metal>
0.0000

> <Gold.Chemscore.Lipo>
85.0994

> <Gold.Chemscore.Internal_Hbond>
0.0000

> <Gold.Chemscore.DEClash>
0.0073

> <Gold.Chemscore.DEInternal>
0.8260

> <Gold.Chemscore.Rot>
1.5462

> <Gold.Chemscore.Internal.Correction>
   9.000000E+99

> <Gold.Chemscore.Hbonds>
donor molecule, donor type, donor heavy atom, donor atom, acceptor molecule, acceptor atom, score
      P1  H  7997  8008       L1    16  0.97

> <Gold.Chemscore.Hbond.Weighted>
-3.2399

> <Gold.Chemscore.Metal.Weighted>
-0.0000

> <Gold.Chemscore.Lipo.Weighted>
-9.9566

> <Gold.Chemscore.Internal_Hbond.Weighted>
0.0000

> <Gold.Chemscore.DEClash.Weighted>
0.0073

> <Gold.Chemscore.DEInternal.Weighted>
0.8260

> <Gold.Chemscore.Rot.Weighted>
3.9583

> <Gold.Chemscore.Internal.Correction.Weighted>
   9.000000E+99

> <Gold.Protein.RotatedTorsions>
[ 6907 6896 6895 6894 ] final -127.84 input  -60.11 | X-H torsion
[ 7974 7965 7964 7962 ] final -156.29 input  175.53 | X-H torsion
[ 8008 7997 7996 7995 ] final  -99.26 input   59.86 | X-H torsion
[ 10167 10162 10161 10158 ] final  -11.86 input  -65.29 | X-H torsion
[ 10718 10713 10712 10709 ] final  156.63 input   66.30 | X-H torsion
[ 10763 10752 10751 10750 ] final  137.55 input  -60.55 | X-H torsion
[ 11005 11000 10999 10996 ] final  -60.07 input  -57.11 | X-H torsion

> <Gold.Protein.ActiveResidues>
 VAL166  LYS551  ARG553  GLY616  TRP617  ASP618  TYR619  PRO620  LYS621  CYS622 
 ASP623  PHE694  ASN695  SER759  ASP760  ASP761  ALA762  ILE779  LEU786  VAL792 
 PHE793  MET794  SER795  GLU796  ALA797  LYS798  CYS799  TRP800  GLU811  SER814 

> <Gold.Protein.RotatedAtoms>
  150.9116  133.6991  159.2853 H   0  0  0  0  0  0  0  0  0  0  0  0  # atno 6907 bound_to 6896
  151.4476  135.1025  159.9698 H   0  0  0  0  0  0  0  0  0  0  0  0  # atno 6908 bound_to 6896
  152.4932  133.8509  159.7256 H   0  0  0  0  0  0  0  0  0  0  0  0  # atno 6909 bound_to 6896
  144.7600  140.4130  143.5984 H   0  0  0  0  0  0  0  0  0  0  0  0  # atno 7974 bound_to 7965
  154.8123  140.0449  157.1352 H   0  0  0  0  0  0  0  0  0  0  0  0  # atno 8008 bound_to 7997
  154.9354  140.3045  155.5127 H   0  0  0  0  0  0  0  0  0  0  0  0  # atno 8009 bound_to 7997
  156.2973  140.2315  156.4418 H   0  0  0  0  0  0  0  0  0  0  0  0  # atno 8010 bound_to 7997
  140.7148  143.5594  150.9212 H   0  0  0  0  0  0  0  0  0  0  0  0  # atno 10167 bound_to 10162
  157.2023  131.0679  151.2018 H   0  0  0  0  0  0  0  0  0  0  0  0  # atno 10718 bound_to 10713
  153.8748  135.3051  155.3443 H   0  0  0  0  0  0  0  0  0  0  0  0  # atno 10763 bound_to 10752
  154.7789  135.4846  153.9805 H   0  0  0  0  0  0  0  0  0  0  0  0  # atno 10764 bound_to 10752
  153.1385  135.6819  153.9161 H   0  0  0  0  0  0  0  0  0  0  0  0  # atno 10765 bound_to 10752
  141.1273  133.6620  156.5168 H   0  0  0  0  0  0  0  0  0  0  0  0  # atno 11005 bound_to 11000
  145.6652  139.1588  143.2786 LP  0  0  0  0  0  0  0  0  0  0  0  0  # atno 17320 bound_to 7965
  146.1652  140.6728  142.9259 LP  0  0  0  0  0  0  0  0  0  0  0  0  # atno 17321 bound_to 7965
  139.9320  143.6482  152.3074 LP  0  0  0  0  0  0  0  0  0  0  0  0  # atno 17342 bound_to 10162
  139.6936  144.7644  151.1395 LP  0  0  0  0  0  0  0  0  0  0  0  0  # atno 17343 bound_to 10162
  157.3754  130.7203  149.6594 LP  0  0  0  0  0  0  0  0  0  0  0  0  # atno 17370 bound_to 10713
  155.9699  130.4187  150.4340 LP  0  0  0  0  0  0  0  0  0  0  0  0  # atno 17371 bound_to 10713
  140.4324  134.7089  157.4949 LP  0  0  0  0  0  0  0  0  0  0  0  0  # atno 17394 bound_to 11000
  140.0284  134.6442  155.9140 LP  0  0  0  0  0  0  0  0  0  0  0  0  # atno 17395 bound_to 11000

$$$$
