AV-unprocessed.smi:1499|AV-procd|sdf|6061|dock6
  -GOLD-   22720 6183D 1   1.00000     0.00000
 Structure written by MMmdl.
 41 42  0  0  0  0  0  0  0  0  2 V2000
  145.4707  132.1356  149.2164 C   0  0  0  0  0  0  0  0  0  0  0  0
  144.1146  132.7986  148.9347 C   0  0  0  0  0  0  0  0  0  0  0  0
  143.6227  133.6060  150.0795 N   0  3  0  0  0  0  0  0  0  0  0  0
  144.3432  134.9028  150.1999 C   0  0  0  0  0  0  0  0  0  0  0  0
  143.8225  135.7347  151.3875 C   0  0  0  0  0  0  0  0  0  0  0  0
  143.9212  134.9301  152.6137 N   0  0  0  0  0  0  0  0  0  0  0  0
  144.8694  135.0642  153.5746 C   0  0  0  0  0  0  0  0  0  0  0  0
  144.9208  134.3307  154.5622 O   0  0  0  0  0  0  0  0  0  0  0  0
  145.6845  136.1216  153.3978 N   0  0  0  0  0  0  0  0  0  0  0  0
  146.7987  136.4988  154.1895 C   0  0  0  0  0  0  0  0  0  0  0  0
  147.5108  135.6246  155.0512 C   0  0  0  0  0  0  0  0  0  0  0  0
  148.4955  136.2581  155.6698 N   0  0  0  0  0  0  0  0  0  0  0  0
  148.4300  137.5365  155.2195 N   0  0  0  0  0  0  0  0  0  0  0  0
  149.3784  138.5216  155.7083 C   0  0  0  0  0  0  0  0  0  0  0  0
  150.3132  138.9897  154.5917 C   0  0  0  0  0  0  0  0  0  0  0  0
  150.1980  138.3844  153.4067 N   0  0  0  0  0  0  0  0  0  0  0  0
  151.1282  139.8866  154.7963 O   0  0  0  0  0  0  0  0  0  0  0  0
  147.4046  137.7176  154.3119 C   0  0  0  0  0  0  0  0  0  0  0  0
  143.0792  133.7343  152.5184 C   0  0  0  0  0  0  0  0  0  0  0  0
  143.5814  132.8500  151.3623 C   0  0  0  0  0  0  0  0  0  0  0  0
  145.7503  131.4732  148.3967 H   0  0  0  0  0  0  0  0  0  0  0  0
  145.4357  131.5368  150.1267 H   0  0  0  0  0  0  0  0  0  0  0  0
  146.2707  132.8677  149.3232 H   0  0  0  0  0  0  0  0  0  0  0  0
  144.1675  133.4160  148.0365 H   0  0  0  0  0  0  0  0  0  0  0  0
  143.3945  132.0068  148.7230 H   0  0  0  0  0  0  0  0  0  0  0  0
  145.4108  134.7122  150.3233 H   0  0  0  0  0  0  0  0  0  0  0  0
  144.2276  135.4729  149.2774 H   0  0  0  0  0  0  0  0  0  0  0  0
  144.3643  136.6793  151.4342 H   0  0  0  0  0  0  0  0  0  0  0  0
  142.7785  136.0060  151.2231 H   0  0  0  0  0  0  0  0  0  0  0  0
  145.5048  136.7008  152.5907 H   0  0  0  0  0  0  0  0  0  0  0  0
  147.3492  134.5746  155.2462 H   0  0  0  0  0  0  0  0  0  0  0  0
  148.8416  139.3725  156.1313 H   0  0  0  0  0  0  0  0  0  0  0  0
  149.9589  138.0752  156.5168 H   0  0  0  0  0  0  0  0  0  0  0  0
  150.7896  138.6658  152.6380 H   0  0  0  0  0  0  0  0  0  0  0  0
  149.5141  137.6521  153.2819 H   0  0  0  0  0  0  0  0  0  0  0  0
  147.2080  138.6769  153.8564 H   0  0  0  0  0  0  0  0  0  0  0  0
  143.0564  133.1627  153.4476 H   0  0  0  0  0  0  0  0  0  0  0  0
  142.0469  134.0371  152.3363 H   0  0  0  0  0  0  0  0  0  0  0  0
  142.9274  131.9837  151.2691 H   0  0  0  0  0  0  0  0  0  0  0  0
  144.5788  132.4720  151.5935 H   0  0  0  0  0  0  0  0  0  0  0  0
  142.6661  133.8488  149.8648 H   0  0  0  0  0  0  0  0  0  0  0  0
  1  2  1  0  0  0  0
  1 21  1  0  0  0  0
  1 22  1  0  0  0  0
  1 23  1  0  0  0  0
  2  3  1  0  0  0  0
  2 24  1  0  0  0  0
  2 25  1  0  0  0  0
  3 20  1  0  0  0  0
  3  4  1  0  0  0  0
  3 41  1  0  0  0  0
  4  5  1  0  0  0  0
  4 26  1  0  0  0  0
  4 27  1  0  0  0  0
  5  6  1  0  0  0  0
  5 28  1  0  0  0  0
  5 29  1  0  0  0  0
  6  7  1  0  0  0  0
  6 19  1  0  0  0  0
  7  8  2  0  0  0  0
  7  9  1  0  0  0  0
  9 10  1  0  0  0  0
  9 30  1  0  0  0  0
 10 18  2  0  0  0  0
 10 11  1  0  0  0  0
 11 12  2  0  0  0  0
 11 31  1  0  0  0  0
 12 13  1  0  0  0  0
 13 14  1  0  0  0  0
 13 18  1  0  0  0  0
 14 15  1  0  0  0  0
 14 32  1  0  0  0  0
 14 33  1  0  0  0  0
 15 16  1  0  0  0  0
 15 17  2  0  0  0  0
 16 34  1  0  0  0  0
 16 35  1  0  0  0  0
 18 36  1  0  0  0  0
 19 20  1  0  0  0  0
 19 37  1  0  0  0  0
 19 38  1  0  0  0  0
 20 39  1  0  0  0  0
 20 40  1  0  0  0  0
M  CHG  1   3   1
M  END
> <s_m_source_file>
AV-unprocessed.smi

> <i_m_source_file_index>
1499

> <i_lp_mmshare_version>
43012

> <i_f3d_flags>
0

> <s_epik_input>
W0NIM11bQ0gyXU4xW0NIMl1bQ0gyXU4oW0NIMl1bQ0gyXTEpQyg9TylbTkhdYzJbY0hdbm4oW2NIXTIpW0NIMl1DKD1PKVtOSDJd

> <s_epik_cmdline>
J2VwaWtfcHl0aG9uJywgJy1waCcsICc3LjAnLCAnLXRuJywgJzgnLCAnLW1hJywgJzIwMCcsICctbWV0YWxfYmluZGluZycsICctaW1hZScsICc8aW5maWxlLm1hZT4nLCAnLW9tYWUnLCAnPG91dGZpbGUubWFlPic=

> <r_lp_tautomer_probability>
1

> <r_epik_Ionization_Penalty>
0.390351

> <r_epik_Ionization_Penalty_Charging>
0.390326

> <r_epik_Ionization_Penalty_Neutral>
2.46507e-05

> <r_epik_State_Penalty>
0.388987

> <r_epik_Charging_Adjusted_Penalty>
0.779313

> <i_epik_Tot_Q>
1

> <i_epik_Tot_abs_Q>
1

> <r_epik_Metal_State_Penalty>
0.388988

> <b_epik_Metal_Only>
0

> <s_lp_Force_Field>
OPLS_2005

> <r_lp_Energy>
52.2824

> <b_lp_Chiralities_Consistent>
1

> <s_lp_Variant>
AV-unprocessed.smi:1499-1

> <Gold.Version>
5.8.1

> <Gold.Id.Protein>
6NUR|6NUR_protein|mol2

> <Gold.PLP.Fitness>
37.3446

> <Gold.PLP.PLP>
-26.4273

> <Gold.PLP.part.hbond>
-4.4612

> <Gold.PLP.part.metal>
0.0000

> <Gold.PLP.part.buried>
0.5010

> <Gold.PLP.part.nonpolar>
-21.2746

> <Gold.PLP.part.repulsive>
0.3459

> <Gold.PLP.ligand.clash>
0.0000

> <Gold.PLP.ligand.torsion>
0.2744

> <Gold.PLP.Chemscore.Hbond>
3.7900

> <Gold.PLP.Chemscore.CHOScore>
0.0000

> <Gold.PLP.Chemscore.Metal>
0.0000

> <Gold.Chemscore.Hbonds>
donor molecule, donor type, donor heavy atom, donor atom, acceptor molecule, acceptor atom, score
      L1  H     3    41       P1 10186  2.00
      L1  H    16    34       P1  7957  0.04
      L1  H    16    35       P1  7948  0.71
      P1  H  7989  7998       L1    17  1.00

> <Gold.PLP.Chemscore.Internal.Correction>
0.0958

> <Gold.Rescore>
     Score         DG    S(hbond)    S(metal)    S(lipo)     H(rot)  DE(clash)    DE(int)     intcor
     14.35     -16.16       2.53        0.00      59.48       1.85       0.16       1.66       ----

> <Gold.Chemscore.Fitness>
14.3463

> <Gold.Chemscore.DG>
-16.1611

> <Gold.Chemscore.ZeroCoef>
-5.4800

> <Gold.Chemscore.Hbond>
2.5348

> <Gold.Chemscore.Metal>
0.0000

> <Gold.Chemscore.Lipo>
59.4792

> <Gold.Chemscore.Internal_Hbond>
0.0000

> <Gold.Chemscore.DEClash>
0.1569

> <Gold.Chemscore.DEInternal>
1.6580

> <Gold.Chemscore.Rot>
1.8532

> <Gold.Chemscore.Internal.Correction>
   9.000000E+99

> <Gold.Chemscore.Hbonds>
donor molecule, donor type, donor heavy atom, donor atom, acceptor molecule, acceptor atom, score
      L1  H     3    41       P1 10186  1.00
      L1  H    16    35       P1  7948  0.62
      P1  H  7989  7998       L1    17  0.98

> <Gold.Chemscore.Hbond.Weighted>
-8.4662

> <Gold.Chemscore.Metal.Weighted>
-0.0000

> <Gold.Chemscore.Lipo.Weighted>
-6.9591

> <Gold.Chemscore.Internal_Hbond.Weighted>
0.0000

> <Gold.Chemscore.DEClash.Weighted>
0.1569

> <Gold.Chemscore.DEInternal.Weighted>
1.6580

> <Gold.Chemscore.Rot.Weighted>
4.7441

> <Gold.Chemscore.Internal.Correction.Weighted>
   9.000000E+99

> <Gold.Protein.RotatedTorsions>
[ 6907 6896 6895 6894 ] final  175.36 input  -60.11 | X-H torsion
[ 7974 7965 7964 7962 ] final -100.17 input  175.53 | X-H torsion
[ 8008 7997 7996 7995 ] final   10.64 input   59.86 | X-H torsion
[ 10167 10162 10161 10158 ] final -132.48 input  -65.29 | X-H torsion
[ 10718 10713 10712 10709 ] final  142.01 input   66.30 | X-H torsion
[ 10763 10752 10751 10750 ] final   61.46 input  -60.55 | X-H torsion
[ 11005 11000 10999 10996 ] final  136.56 input  -57.11 | X-H torsion

> <Gold.Protein.ActiveResidues>
 VAL166  LYS551  ARG553  GLY616  TRP617  ASP618  TYR619  PRO620  LYS621  CYS622 
 ASP623  PHE694  ASN695  SER759  ASP760  ASP761  ALA762  ILE779  LEU786  VAL792 
 PHE793  MET794  SER795  GLU796  ALA797  LYS798  CYS799  TRP800  GLU811  SER814 

> <Gold.Protein.RotatedAtoms>
  151.7375  133.3320  159.3356 H   0  0  0  0  0  0  0  0  0  0  0  0  # atno 6907 bound_to 6896
  150.7587  134.6308  159.6195 H   0  0  0  0  0  0  0  0  0  0  0  0  # atno 6908 bound_to 6896
  152.3552  134.6952  160.0276 H   0  0  0  0  0  0  0  0  0  0  0  0  # atno 6909 bound_to 6896
  145.2980  140.9370  143.2840 H   0  0  0  0  0  0  0  0  0  0  0  0  # atno 7974 bound_to 7965
  154.7961  140.2844  155.5956 H   0  0  0  0  0  0  0  0  0  0  0  0  # atno 8008 bound_to 7997
  156.2971  140.2595  156.2748 H   0  0  0  0  0  0  0  0  0  0  0  0  # atno 8009 bound_to 7997
  154.9613  140.0377  157.2181 H   0  0  0  0  0  0  0  0  0  0  0  0  # atno 8010 bound_to 7997
  139.9081  143.6527  152.2581 H   0  0  0  0  0  0  0  0  0  0  0  0  # atno 10167 bound_to 10162
  157.3855  131.0998  151.0697 H   0  0  0  0  0  0  0  0  0  0  0  0  # atno 10718 bound_to 10713
  152.9951  135.5500  154.6037 H   0  0  0  0  0  0  0  0  0  0  0  0  # atno 10763 bound_to 10752
  154.5373  135.2817  155.1129 H   0  0  0  0  0  0  0  0  0  0  0  0  # atno 10764 bound_to 10752
  154.2421  135.6414  153.5263 H   0  0  0  0  0  0  0  0  0  0  0  0  # atno 10765 bound_to 10752
  140.0054  134.9461  157.0164 H   0  0  0  0  0  0  0  0  0  0  0  0  # atno 11005 bound_to 11000
  144.9117  139.4520  143.6583 LP  0  0  0  0  0  0  0  0  0  0  0  0  # atno 17320 bound_to 7965
  146.3162  139.7929  142.8981 LP  0  0  0  0  0  0  0  0  0  0  0  0  # atno 17321 bound_to 7965
  139.6966  144.7640  151.1345 LP  0  0  0  0  0  0  0  0  0  0  0  0  # atno 17342 bound_to 10162
  140.7692  143.5514  150.9200 LP  0  0  0  0  0  0  0  0  0  0  0  0  # atno 17343 bound_to 10162
  157.1750  130.6284  149.5653 LP  0  0  0  0  0  0  0  0  0  0  0  0  # atno 17370 bound_to 10713
  155.9786  130.4772  150.6663 LP  0  0  0  0  0  0  0  0  0  0  0  0  # atno 17371 bound_to 10713
  140.4651  134.1444  155.7196 LP  0  0  0  0  0  0  0  0  0  0  0  0  # atno 17394 bound_to 11000
  141.1673  133.8678  157.1677 LP  0  0  0  0  0  0  0  0  0  0  0  0  # atno 17395 bound_to 11000

$$$$
