#       Name:                AV-unprocessed.smi:658
#       Creating user name   scv26
#       Creation time:       Fri Mar 27 00:17:50 2020


#       File generated by GOLD software.
#

@<TRIPOS>MOLECULE
AV-unprocessed.smi:658
    40    40     1
SMALL
NO_CHARGES


@<TRIPOS>ATOM
      1 ****        -2.0848  -1.6046   1.9589 C.3            1 S1                 0.0000
      2 ****        -1.6641  -0.8584   0.6820 C.3            1 S1                 0.0000
      3 ****        -0.1857  -0.7717   0.6432 N.4            1 S1                 1.0000
      4 ****         0.3588   0.5916   0.7981 C.3            1 S1                 0.0000
      5 ****         1.8866   0.5896   0.6732 C.3            1 S1                 0.0000
      6 ****         2.4848   1.9982   0.7909 C.3            1 S1                 0.0000
      7 ****         4.3267   1.9629   0.7050 S.o2           1 S1                 0.0000
      8 ****         4.7554   1.5380   2.3151 N.3            1 S1                 0.0000
      9 ****         4.7498   0.8583  -0.1691 O.2            1 S1                 0.0000
     10 ****         4.8088   3.3329   0.4759 O.2            1 S1                 0.0000
     11 ****        -2.1925  -1.5239  -0.6147 C.3            1 S1                 0.0000
     12 ****        -3.7281  -1.6347  -0.6630 C.3            1 S1                 0.0000
     13 ****        -1.7070  -0.8114  -1.7920 N.pl3          1 S1                 0.0000
     14 ****        -2.1077   0.4121  -2.2924 C.2            1 S1                 0.0000
     15 ****        -1.3275   0.6852  -3.3789 C.2            1 S1                 0.0000
     16 ****        -0.4594  -0.4383  -3.4628 C.2            1 S1                 0.0000
     17 ****        -0.6819  -1.3259  -2.5069 N.2            1 S1                 0.0000
     18 ****        -3.1661  -1.5964   2.0935 H              1 S1                 0.0000
     19 ****        -1.6519  -1.1379   2.8444 H              1 S1                 0.0000
     20 ****        -1.7570  -2.6446   1.9385 H              1 S1                 0.0000
     21 ****        -2.0789   0.1499   0.7366 H              1 S1                 0.0000
     22 ****         0.1958  -1.3651   1.3660 H              1 S1                 0.0000
     23 ****        -0.0721   1.2372   0.0313 H              1 S1                 0.0000
     24 ****         0.0586   0.9911   1.7676 H              1 S1                 0.0000
     25 ****         2.3143  -0.0514   1.4451 H              1 S1                 0.0000
     26 ****         2.1697   0.1539  -0.2859 H              1 S1                 0.0000
     27 ****         2.1309   2.6199  -0.0321 H              1 S1                 0.0000
     28 ****         2.1929   2.4887   1.7199 H              1 S1                 0.0000
     29 ****         5.2301   2.2896   2.8151 H              1 S1                 0.0000
     30 ****         5.2022   0.6237   2.3839 H              1 S1                 0.0000
     31 ****        -1.7972  -2.5408  -0.6611 H              1 S1                 0.0000
     32 ****        -4.1066  -2.3081   0.1056 H              1 S1                 0.0000
     33 ****        -4.0609  -2.0309  -1.6231 H              1 S1                 0.0000
     34 ****        -4.2061  -0.6651  -0.5206 H              1 S1                 0.0000
     35 ****        -2.9032   0.9837  -1.8376 H              1 S1                 0.0000
     36 ****        -1.3679   1.5572  -4.0149 H              1 S1                 0.0000
     37 ****         0.3245  -0.6308  -4.1806 H              1 S1                 0.0000
     38 ****         0.1185  -1.1250  -0.2536 H              1 S1                 0.0000
     39 ****         3.8957   1.4229   2.8127 LP             1 S1                 0.0000
     40 ****        -0.1986  -2.1868  -2.3485 LP             1 S1                 0.0000
@<TRIPOS>BOND
    1    1    2 1     
    2    1   18 1     
    3    1   19 1     
    4    1   20 1     
    5    2    3 1     
    6    2   11 1     
    7    2   21 1     
    8    3    4 1     
    9    3   22 1     
   10    3   38 1     
   11    4    5 1     
   12    4   23 1     
   13    4   24 1     
   14    5    6 1     
   15    5   25 1     
   16    5   26 1     
   17    6    7 1     
   18    6   27 1     
   19    6   28 1     
   20    7    8 1     
   21    7    9 2     
   22    7   10 2     
   23    8   29 1     
   24    8   30 1     
   25   11   12 1     
   26   11   13 1     
   27   11   31 1     
   28   12   32 1     
   29   12   33 1     
   30   12   34 1     
   31   13   17 1     
   32   13   14 1     
   33   14   15 2     
   34   14   35 1     
   35   15   16 1     
   36   15   36 1     
   37   16   17 2     
   38   16   37 1     
   39    8   39 1     
   40   17   40 1     
@<TRIPOS>SUBSTRUCTURE
      1 S1             1
@<TRIPOS>SET
LONE_PAIRS      STATIC     ATOMS    <user>   **** ""
4 39 9 10 40
DONOR_HYDROGENS      STATIC     ATOMS    <user>   **** ""
4 22 38 29 30
ATOM$BLUE        STATIC     ATOMS    COLORGROUP SYSTEM
4 39 9 10 40
ATOM$RED        STATIC     ATOMS    COLORGROUP SYSTEM
4 22 38 29 30
