#       Name:                AV-unprocessed.smi:937
#       Creating user name   scv26
#       Creation time:       Fri Mar 27 02:12:27 2020


#       File generated by GOLD software.
#

@<TRIPOS>MOLECULE
AV-unprocessed.smi:937
    48    49     1
SMALL
NO_CHARGES


@<TRIPOS>ATOM
      1 ****        -3.3981   7.1727   0.6245 C.3            1 S1                 0.0000
      2 ****        -2.8763   5.7537   0.7032 C.ar           1 S1                 0.0000
      3 ****        -2.5734   5.1276   1.9316 C.ar           1 S1                 0.0000
      4 ****        -2.0912   3.8021   1.9283 C.ar           1 S1                 0.0000
      5 ****        -1.9225   3.1296   0.6980 C.ar           1 S1                 0.0000
      6 ****        -1.4051   1.7051   0.6624 C.3            1 S1                 0.0000
      7 ****         0.1212   1.6465   0.4882 C.3            1 S1                 0.0000
      8 ****         0.5999   0.2704   0.4574 N.am           1 S1                 0.0000
      9 ****         0.8030  -0.4987   1.5403 C.2            1 S1                 0.0000
     10 ****         0.6213  -0.1061   2.6913 O.2            1 S1                 0.0000
     11 ****         1.2168  -1.7507   1.2741 N.am           1 S1                 0.0000
     12 ****         1.5246  -2.8274   2.2175 C.3            1 S1                 0.0000
     13 ****         2.9352  -2.6471   2.8145 C.3            1 S1                 0.0000
     14 ****         3.2964  -3.8119   3.7478 C.3            1 S1                 0.0000
     15 ****         3.1763  -5.1627   3.0255 C.3            1 S1                 0.0000
     16 ****         1.7689  -5.3652   2.4250 C.3            1 S1                 0.0000
     17 ****         1.6369  -6.7244   1.7074 C.3            1 S1                 0.0000
     18 ****         2.4853  -6.8044   0.6818 F              1 S1                 0.0000
     19 ****         1.8952  -7.7170   2.5588 F              1 S1                 0.0000
     20 ****         0.3939  -6.8812   1.2519 F              1 S1                 0.0000
     21 ****         1.4139  -4.1840   1.4959 C.3            1 S1                 0.0000
     22 ****        -2.2401   3.8063  -0.4988 C.ar           1 S1                 0.0000
     23 ****        -2.6993   5.0761  -0.4534 N.pl3          1 S1                 1.0000
     24 ****        -3.5461   7.5927   1.6199 H              1 S1                 0.0000
     25 ****        -4.3534   7.1986   0.0991 H              1 S1                 0.0000
     26 ****        -2.6919   7.8075   0.0886 H              1 S1                 0.0000
     27 ****        -2.7076   5.6529   2.8662 H              1 S1                 0.0000
     28 ****        -1.8538   3.3099   2.8604 H              1 S1                 0.0000
     29 ****        -1.7022   1.1998   1.5825 H              1 S1                 0.0000
     30 ****        -1.8952   1.1701  -0.1522 H              1 S1                 0.0000
     31 ****         0.4091   2.1262  -0.4476 H              1 S1                 0.0000
     32 ****         0.6210   2.1968   1.2873 H              1 S1                 0.0000
     33 ****         0.7774  -0.1332  -0.4510 H              1 S1                 0.0000
     34 ****         1.3332  -1.9822   0.2979 H              1 S1                 0.0000
     35 ****         0.7901  -2.8215   3.0249 H              1 S1                 0.0000
     36 ****         3.6710  -2.5859   2.0112 H              1 S1                 0.0000
     37 ****         3.0020  -1.7079   3.3645 H              1 S1                 0.0000
     38 ****         4.3108  -3.6826   4.1259 H              1 S1                 0.0000
     39 ****         2.6389  -3.8016   4.6179 H              1 S1                 0.0000
     40 ****         3.9263  -5.2182   2.2356 H              1 S1                 0.0000
     41 ****         3.4058  -5.9671   3.7248 H              1 S1                 0.0000
     42 ****         1.0540  -5.3629   3.2494 H              1 S1                 0.0000
     43 ****         0.4011  -4.3083   1.1110 H              1 S1                 0.0000
     44 ****         2.0746  -4.1919   0.6274 H              1 S1                 0.0000
     45 ****        -2.1411   3.3746  -1.4842 H              1 S1                 0.0000
     46 ****        -2.9231   5.5443  -1.3317 H              1 S1                 0.0000
     47 ****         0.3066   0.8285   2.8569 LP             1 S1                 0.0000
     48 ****         0.7882  -0.7215   3.4616 LP             1 S1                 0.0000
@<TRIPOS>BOND
    1    1    2 1     
    2    1   24 1     
    3    1   25 1     
    4    1   26 1     
    5    2   23 ar    
    6    2    3 ar    
    7    3    4 ar    
    8    3   27 1     
    9    4    5 ar    
   10    4   28 1     
   11    5    6 1     
   12    5   22 ar    
   13    6    7 1     
   14    6   29 1     
   15    6   30 1     
   16    7    8 1     
   17    7   31 1     
   18    7   32 1     
   19    8    9 am    
   20    8   33 1     
   21    9   10 2     
   22    9   11 am    
   23   11   12 1     
   24   11   34 1     
   25   12   21 1     
   26   12   13 1     
   27   12   35 1     
   28   13   14 1     
   29   13   36 1     
   30   13   37 1     
   31   14   15 1     
   32   14   38 1     
   33   14   39 1     
   34   15   16 1     
   35   15   40 1     
   36   15   41 1     
   37   16   17 1     
   38   16   21 1     
   39   16   42 1     
   40   17   18 1     
   41   17   19 1     
   42   17   20 1     
   43   21   43 1     
   44   21   44 1     
   45   22   23 ar    
   46   22   45 1     
   47   23   46 1     
   48   10   47 1     
   49   10   48 1     
@<TRIPOS>SUBSTRUCTURE
      1 S1             1
@<TRIPOS>SET
LONE_PAIRS      STATIC     ATOMS    <user>   **** ""
2 47 48
DONOR_HYDROGENS      STATIC     ATOMS    <user>   **** ""
3 33 34 46
ATOM$BLUE        STATIC     ATOMS    COLORGROUP SYSTEM
2 47 48
ATOM$RED        STATIC     ATOMS    COLORGROUP SYSTEM
3 33 34 46
