AV-unprocessed.smi:1543|AV-procd|sdf|6210|dock5
  -GOLD-   22720 6383D 1   1.00000     0.00000
 Structure written by MMmdl.
 49 50  0  0  0  0  0  0  0  0  2 V2000
  149.0000  141.7248  154.0766 C   0  0  0  0  0  0  0  0  0  0  0  0
  149.4833  140.2703  154.0837 C   0  0  2  0  0  0  0  0  0  0  0  0
  148.7535  139.4198  155.1404 C   0  0  0  0  0  0  0  0  0  0  0  0
  149.2939  138.0313  155.1612 N   0  3  2  0  0  0  0  0  0  0  0  0
  148.5409  137.0446  156.0173 C   0  0  0  0  0  0  0  0  0  0  0  0
  149.0208  137.1492  157.4869 C   0  0  0  0  0  0  0  0  0  0  0  0
  147.0372  137.4192  156.0302 C   0  0  0  0  0  0  0  0  0  0  0  0
  148.7365  135.5855  155.5048 C   0  0  0  0  0  0  0  0  0  0  0  0
  148.1698  135.3527  154.1768 N   0  0  0  0  0  0  0  0  0  0  0  0
  147.0826  134.6144  153.9111 C   0  0  0  0  0  0  0  0  0  0  0  0
  146.4304  134.0317  154.7769 O   0  0  0  0  0  0  0  0  0  0  0  0
  146.8068  134.6125  152.5959 N   0  0  0  0  0  0  0  0  0  0  0  0
  145.7595  133.9372  151.9127 C   0  0  0  0  0  0  0  0  0  0  0  0
  145.2952  132.6413  152.2452 C   0  0  0  0  0  0  0  0  0  0  0  0
  144.2605  132.0725  151.4781 C   0  0  0  0  0  0  0  0  0  0  0  0
  143.7331  132.8149  150.4039 C   0  0  0  0  0  0  0  0  0  0  0  0
  144.1749  134.0448  150.0670 N   0  0  0  0  0  0  0  0  0  0  0  0
  145.1680  134.5833  150.8063 C   0  0  0  0  0  0  0  0  0  0  0  0
  150.7695  138.0773  155.3682 C   0  0  0  0  0  0  0  0  0  0  0  0
  151.4398  138.9652  154.3032 C   0  0  2  0  0  0  0  0  0  0  0  0
  152.9522  139.0887  154.5204 C   0  0  0  0  0  0  0  0  0  0  0  0
  150.8768  140.2691  154.3654 O   0  0  0  0  0  0  0  0  0  0  0  0
  147.9351  141.7842  153.8499 H   0  0  0  0  0  0  0  0  0  0  0  0
  149.5316  142.3078  153.3241 H   0  0  0  0  0  0  0  0  0  0  0  0
  149.1641  142.2009  155.0435 H   0  0  0  0  0  0  0  0  0  0  0  0
  149.3160  139.8466  153.0919 H   0  0  0  0  0  0  0  0  0  0  0  0
  148.8661  139.8811  156.1219 H   0  0  0  0  0  0  0  0  0  0  0  0
  147.6921  139.4302  154.8999 H   0  0  0  0  0  0  0  0  0  0  0  0
  148.3608  136.6094  158.1667 H   0  0  0  0  0  0  0  0  0  0  0  0
  149.0467  138.1858  157.8247 H   0  0  0  0  0  0  0  0  0  0  0  0
  150.0135  136.7230  157.6303 H   0  0  0  0  0  0  0  0  0  0  0  0
  146.4893  136.8717  156.7978 H   0  0  0  0  0  0  0  0  0  0  0  0
  146.5440  137.1888  155.0861 H   0  0  0  0  0  0  0  0  0  0  0  0
  146.8928  138.4806  156.2351 H   0  0  0  0  0  0  0  0  0  0  0  0
  149.7907  135.3072  155.5054 H   0  0  0  0  0  0  0  0  0  0  0  0
  148.2443  134.8791  156.1724 H   0  0  0  0  0  0  0  0  0  0  0  0
  148.6387  135.7972  153.4011 H   0  0  0  0  0  0  0  0  0  0  0  0
  147.3834  135.2077  152.0192 H   0  0  0  0  0  0  0  0  0  0  0  0
  145.7171  132.0695  153.0568 H   0  0  0  0  0  0  0  0  0  0  0  0
  143.8829  131.0867  151.7058 H   0  0  0  0  0  0  0  0  0  0  0  0
  142.9394  132.4074  149.7955 H   0  0  0  0  0  0  0  0  0  0  0  0
  145.4987  135.5666  150.5051 H   0  0  0  0  0  0  0  0  0  0  0  0
  150.9982  138.4667  156.3605 H   0  0  0  0  0  0  0  0  0  0  0  0
  151.2125  137.0856  155.3021 H   0  0  0  0  0  0  0  0  0  0  0  0
  151.2667  138.5444  153.3109 H   0  0  0  0  0  0  0  0  0  0  0  0
  153.4375  138.1136  154.4712 H   0  0  0  0  0  0  0  0  0  0  0  0
  153.1786  139.5263  155.4932 H   0  0  0  0  0  0  0  0  0  0  0  0
  153.4046  139.7225  153.7573 H   0  0  0  0  0  0  0  0  0  0  0  0
  149.1727  137.6898  154.2183 H   0  0  0  0  0  0  0  0  0  0  0  0
  1  2  1  0  0  0  0
  1 23  1  0  0  0  0
  1 24  1  0  0  0  0
  1 25  1  0  0  0  0
  2 22  1  0  0  0  0
  2  3  1  0  0  0  0
  2 26  1  0  0  0  0
  3  4  1  0  0  0  0
  3 27  1  0  0  0  0
  3 28  1  0  0  0  0
  4  5  1  0  0  0  0
  4 19  1  0  0  0  0
  4 49  1  0  0  0  0
  5  6  1  0  0  0  0
  5  7  1  0  0  0  0
  5  8  1  0  0  0  0
  6 29  1  0  0  0  0
  6 30  1  0  0  0  0
  6 31  1  0  0  0  0
  7 32  1  0  0  0  0
  7 33  1  0  0  0  0
  7 34  1  0  0  0  0
  8  9  1  0  0  0  0
  8 35  1  0  0  0  0
  8 36  1  0  0  0  0
  9 10  1  0  0  0  0
  9 37  1  0  0  0  0
 10 11  2  0  0  0  0
 10 12  1  0  0  0  0
 12 13  1  0  0  0  0
 12 38  1  0  0  0  0
 13 18  1  0  0  0  0
 13 14  2  0  0  0  0
 14 15  1  0  0  0  0
 14 39  1  0  0  0  0
 15 16  2  0  0  0  0
 15 40  1  0  0  0  0
 16 17  1  0  0  0  0
 16 41  1  0  0  0  0
 17 18  2  0  0  0  0
 18 42  1  0  0  0  0
 19 20  1  0  0  0  0
 19 43  1  0  0  0  0
 19 44  1  0  0  0  0
 20 21  1  0  0  0  0
 20 22  1  0  0  0  0
 20 45  1  0  0  0  0
 21 46  1  0  0  0  0
 21 47  1  0  0  0  0
 21 48  1  0  0  0  0
M  CHG  1   4   1
M  END
> <s_m_source_file>
AV-unprocessed.smi

> <i_m_source_file_index>
1543

> <i_lp_mmshare_version>
43012

> <i_f3d_flags>
0

> <s_epik_input>
W0NIM11bQ0BASF0xW0NIMl1OKFtDSDJdW0NASF0oTzEpW0NIM10pQyhbQ0gzXSkoW0NIM10pW0NIMl1bTkhdQyg9TylbTkhdYzJbY0hdW2NIXVtjSF1uW2NIXTI=

> <s_epik_cmdline>
J2VwaWtfcHl0aG9uJywgJy1waCcsICc3LjAnLCAnLXRuJywgJzgnLCAnLW1hJywgJzIwMCcsICctbWV0YWxfYmluZGluZycsICctaW1hZScsICc8aW5maWxlLm1hZT4nLCAnLW9tYWUnLCAnPG91dGZpbGUubWFlPic=

> <r_epik_Ionization_Penalty>
0.60676

> <r_epik_Ionization_Penalty_Charging>
0.602531

> <r_epik_Ionization_Penalty_Neutral>
0.00422967

> <r_epik_State_Penalty>
0.607492

> <r_epik_Charging_Adjusted_Penalty>
1.21002

> <i_epik_Tot_Q>
1

> <i_epik_Tot_abs_Q>
1

> <r_epik_Metal_State_Penalty>
0.604589

> <b_epik_Metal_Only>
0

> <s_lp_Force_Field>
OPLS_2005

> <r_lp_Energy>
27.1707

> <b_lp_Chiralities_Consistent>
1

> <s_lp_Variant>
AV-unprocessed.smi:1543-6

> <Gold.Version>
5.8.1

> <Gold.Id.Protein>
6NUR|6NUR_protein|mol2

> <Gold.PLP.Fitness>
41.3939

> <Gold.PLP.PLP>
-32.3068

> <Gold.PLP.part.hbond>
-3.0000

> <Gold.PLP.part.metal>
0.0000

> <Gold.PLP.part.buried>
-4.5646

> <Gold.PLP.part.nonpolar>
-25.0096

> <Gold.PLP.part.repulsive>
0.3650

> <Gold.PLP.ligand.clash>
0.0000

> <Gold.PLP.ligand.torsion>
0.9699

> <Gold.PLP.Chemscore.Hbond>
2.9920

> <Gold.PLP.Chemscore.CHOScore>
0.6479

> <Gold.PLP.Chemscore.Metal>
0.0000

> <Gold.Chemscore.Hbonds>
donor molecule, donor type, donor heavy atom, donor atom, acceptor molecule, acceptor atom, score
      L1  H     9    37       P1  7948  1.00
      L1  H    12    38       P1  7948  0.98
      P1  H  7989  7998       L1    22  0.42
      L1  C    16    41       P1 10186  0.18

> <Gold.PLP.Chemscore.Internal.Correction>
0.1073

> <Gold.Rescore>
     Score         DG    S(hbond)    S(metal)    S(lipo)     H(rot)  DE(clash)    DE(int)     intcor
     17.29     -18.85       2.21        0.00      83.16       1.46       0.05       1.51       ----

> <Gold.Chemscore.Fitness>
17.2931

> <Gold.Chemscore.DG>
-18.8483

> <Gold.Chemscore.ZeroCoef>
-5.4800

> <Gold.Chemscore.Hbond>
2.2109

> <Gold.Chemscore.Metal>
0.0000

> <Gold.Chemscore.Lipo>
83.1616

> <Gold.Chemscore.Internal_Hbond>
0.0000

> <Gold.Chemscore.DEClash>
0.0469

> <Gold.Chemscore.DEInternal>
1.5083

> <Gold.Chemscore.Rot>
1.4632

> <Gold.Chemscore.Internal.Correction>
   9.000000E+99

> <Gold.Chemscore.Hbonds>
donor molecule, donor type, donor heavy atom, donor atom, acceptor molecule, acceptor atom, score
      L1  H     9    37       P1  7948  0.98
      L1  H    12    38       P1  7948  0.92
      P1  H  7989  7998       L1    22  0.10

> <Gold.Chemscore.Hbond.Weighted>
-7.3843

> <Gold.Chemscore.Metal.Weighted>
-0.0000

> <Gold.Chemscore.Lipo.Weighted>
-9.7299

> <Gold.Chemscore.Internal_Hbond.Weighted>
0.0000

> <Gold.Chemscore.DEClash.Weighted>
0.0469

> <Gold.Chemscore.DEInternal.Weighted>
1.5083

> <Gold.Chemscore.Rot.Weighted>
3.7459

> <Gold.Chemscore.Internal.Correction.Weighted>
   9.000000E+99

> <Gold.Protein.RotatedTorsions>
[ 6907 6896 6895 6894 ] final  -56.75 input  -60.11 | X-H torsion
[ 7974 7965 7964 7962 ] final   59.66 input  175.53 | X-H torsion
[ 8008 7997 7996 7995 ] final  120.16 input   59.86 | X-H torsion
[ 10167 10162 10161 10158 ] final   81.88 input  -65.29 | X-H torsion
[ 10718 10713 10712 10709 ] final -171.60 input   66.30 | X-H torsion
[ 10763 10752 10751 10750 ] final -162.38 input  -60.55 | X-H torsion
[ 11005 11000 10999 10996 ] final   69.09 input  -57.11 | X-H torsion

> <Gold.Protein.ActiveResidues>
 VAL166  LYS551  ARG553  GLY616  TRP617  ASP618  TYR619  PRO620  LYS621  CYS622 
 ASP623  PHE694  ASN695  SER759  ASP760  ASP761  ALA762  ILE779  LEU786  VAL792 
 PHE793  MET794  SER795  GLU796  ALA797  LYS798  CYS799  TRP800  GLU811  SER814 

> <Gold.Protein.RotatedAtoms>
  150.8142  134.7314  159.6714 H   0  0  0  0  0  0  0  0  0  0  0  0  # atno 6907 bound_to 6896
  152.4261  134.5862  159.9971 H   0  0  0  0  0  0  0  0  0  0  0  0  # atno 6908 bound_to 6896
  151.6063  133.3314  159.3094 H   0  0  0  0  0  0  0  0  0  0  0  0  # atno 6909 bound_to 6896
  145.9047  139.3608  143.0571 H   0  0  0  0  0  0  0  0  0  0  0  0  # atno 7974 bound_to 7965
  156.2630  140.2837  156.1105 H   0  0  0  0  0  0  0  0  0  0  0  0  # atno 8008 bound_to 7997
  155.1262  140.0393  157.2780 H   0  0  0  0  0  0  0  0  0  0  0  0  # atno 8009 bound_to 7997
  154.6633  140.2571  155.7091 H   0  0  0  0  0  0  0  0  0  0  0  0  # atno 8010 bound_to 7997
  139.9347  144.6129  150.8311 H   0  0  0  0  0  0  0  0  0  0  0  0  # atno 10167 bound_to 10162
  156.7432  130.9350  151.3111 H   0  0  0  0  0  0  0  0  0  0  0  0  # atno 10718 bound_to 10713
  154.7220  135.3027  154.9032 H   0  0  0  0  0  0  0  0  0  0  0  0  # atno 10763 bound_to 10752
  153.9902  135.6719  153.4758 H   0  0  0  0  0  0  0  0  0  0  0  0  # atno 10764 bound_to 10752
  153.0842  135.4993  154.8481 H   0  0  0  0  0  0  0  0  0  0  0  0  # atno 10765 bound_to 10752
  139.9673  134.6959  156.0518 H   0  0  0  0  0  0  0  0  0  0  0  0  # atno 11005 bound_to 11000
  145.8747  140.9399  143.0632 LP  0  0  0  0  0  0  0  0  0  0  0  0  # atno 17320 bound_to 7965
  144.6738  140.0701  143.7473 LP  0  0  0  0  0  0  0  0  0  0  0  0  # atno 17321 bound_to 7965
  140.7628  143.3207  151.2630 LP  0  0  0  0  0  0  0  0  0  0  0  0  # atno 17342 bound_to 10162
  139.6754  143.9947  152.2777 LP  0  0  0  0  0  0  0  0  0  0  0  0  # atno 17343 bound_to 10162
  157.6809  130.9139  150.0266 LP  0  0  0  0  0  0  0  0  0  0  0  0  # atno 17370 bound_to 10713
  156.1451  130.3642  149.9523 LP  0  0  0  0  0  0  0  0  0  0  0  0  # atno 17371 bound_to 10713
  141.1353  133.6576  156.3577 LP  0  0  0  0  0  0  0  0  0  0  0  0  # atno 17394 bound_to 11000
  140.5368  134.6159  157.5367 LP  0  0  0  0  0  0  0  0  0  0  0  0  # atno 17395 bound_to 11000

$$$$
