AV-unprocessed.smi:3263|AV-procd|sdf|12491|dock4
  -GOLD-   2272018393D 1   1.00000     0.00000
 Structure written by MMmdl.
 42 44  0  0  0  0  0  0  0  0  2 V2000
  151.6428  140.9392  156.7712 O   0  0  0  0  0  0  0  0  0  0  0  0
  150.9872  141.8845  156.3323 C   0  0  0  0  0  0  0  0  0  0  0  0
  151.2880  143.3247  156.7678 C   0  0  0  0  0  0  0  0  0  0  0  0
  151.0809  143.5844  158.2785 C   0  0  1  0  0  0  0  0  0  0  0  0
  151.4991  142.4077  159.1946 C   0  0  0  0  0  0  0  0  0  0  0  0
  152.4980  143.0580  160.1682 C   0  0  2  0  0  0  0  0  0  0  0  0
  151.7482  144.0189  161.1092 C   0  0  0  0  0  0  0  0  0  0  0  0
  151.3978  145.1971  160.1811 C   0  0  0  0  0  0  0  0  0  0  0  0
  151.9584  144.7364  158.8218 C   0  0  1  0  0  0  0  0  0  0  0  0
  153.2370  144.0222  159.2497 C   0  0  0  0  0  0  0  0  0  0  0  0
  149.9792  141.7301  155.4599 N   0  0  0  0  0  0  0  0  0  0  0  0
  149.5259  140.4518  154.9239 C   0  0  0  0  0  0  0  0  0  0  0  0
  148.4595  140.6395  153.8310 C   0  0  0  0  0  0  0  0  0  0  0  0
  147.1723  141.2243  154.3786 C   0  0  0  0  0  0  0  0  0  0  0  0
  146.2882  141.9763  153.5745 C   0  0  0  0  0  0  0  0  0  0  0  0
  145.1094  142.4972  154.1479 C   0  0  0  0  0  0  0  0  0  0  0  0
  144.8402  142.2568  155.5112 C   0  0  0  0  0  0  0  0  0  0  0  0
  145.7584  141.5006  156.2679 C   0  0  0  0  0  0  0  0  0  0  0  0
  146.8773  141.0191  155.6826 N   0  3  0  0  0  0  0  0  0  0  0  0
  152.3083  143.5708  156.4723 H   0  0  0  0  0  0  0  0  0  0  0  0
  150.6371  143.9943  156.2037 H   0  0  0  0  0  0  0  0  0  0  0  0
  150.0294  143.8274  158.4412 H   0  0  0  0  0  0  0  0  0  0  0  0
  150.6481  141.9610  159.7098 H   0  0  0  0  0  0  0  0  0  0  0  0
  151.9923  141.6175  158.6271 H   0  0  0  0  0  0  0  0  0  0  0  0
  153.1317  142.3395  160.6889 H   0  0  0  0  0  0  0  0  0  0  0  0
  150.8629  143.5576  161.5484 H   0  0  0  0  0  0  0  0  0  0  0  0
  152.3931  144.3507  161.9238 H   0  0  0  0  0  0  0  0  0  0  0  0
  150.3265  145.3982  160.1466 H   0  0  0  0  0  0  0  0  0  0  0  0
  151.8958  146.1081  160.5155 H   0  0  0  0  0  0  0  0  0  0  0  0
  152.1027  145.5563  158.1174 H   0  0  0  0  0  0  0  0  0  0  0  0
  153.9393  144.6699  159.7778 H   0  0  0  0  0  0  0  0  0  0  0  0
  153.7577  143.5270  158.4287 H   0  0  0  0  0  0  0  0  0  0  0  0
  149.4938  142.5581  155.1450 H   0  0  0  0  0  0  0  0  0  0  0  0
  150.3925  139.9306  154.5162 H   0  0  0  0  0  0  0  0  0  0  0  0
  149.1394  139.8275  155.7317 H   0  0  0  0  0  0  0  0  0  0  0  0
  148.8343  141.2952  153.0439 H   0  0  0  0  0  0  0  0  0  0  0  0
  148.2396  139.6834  153.3541 H   0  0  0  0  0  0  0  0  0  0  0  0
  146.5094  142.1536  152.5318 H   0  0  0  0  0  0  0  0  0  0  0  0
  144.4201  143.0746  153.5492 H   0  0  0  0  0  0  0  0  0  0  0  0
  143.9429  142.6466  155.9692 H   0  0  0  0  0  0  0  0  0  0  0  0
  145.6328  141.2682  157.3154 H   0  0  0  0  0  0  0  0  0  0  0  0
  147.5277  140.4748  156.2496 H   0  0  0  0  0  0  0  0  0  0  0  0
  1  2  2  0  0  0  0
  2  3  1  0  0  0  0
  2 11  1  0  0  0  0
  3  4  1  0  0  0  0
  3 20  1  0  0  0  0
  3 21  1  0  0  0  0
  4  9  1  0  0  0  0
  4  5  1  0  0  0  0
  4 22  1  0  0  0  0
  5  6  1  0  0  0  0
  5 23  1  0  0  0  0
  5 24  1  0  0  0  0
  6 10  1  0  0  0  0
  6  7  1  0  0  0  0
  6 25  1  0  0  0  0
  7  8  1  0  0  0  0
  7 26  1  0  0  0  0
  7 27  1  0  0  0  0
  8  9  1  0  0  0  0
  8 28  1  0  0  0  0
  8 29  1  0  0  0  0
  9 10  1  0  0  0  0
  9 30  1  0  0  0  0
 10 31  1  0  0  0  0
 10 32  1  0  0  0  0
 11 12  1  0  0  0  0
 11 33  1  0  0  0  0
 12 13  1  0  0  0  0
 12 34  1  0  0  0  0
 12 35  1  0  0  0  0
 13 14  1  0  0  0  0
 13 36  1  0  0  0  0
 13 37  1  0  0  0  0
 14 19  1  0  0  0  0
 14 15  2  0  0  0  0
 15 16  1  0  0  0  0
 15 38  1  0  0  0  0
 16 17  2  0  0  0  0
 16 39  1  0  0  0  0
 17 18  1  0  0  0  0
 17 40  1  0  0  0  0
 18 19  2  0  0  0  0
 18 41  1  0  0  0  0
 19 42  1  0  0  0  0
M  CHG  1  19   1
M  END
> <s_m_source_file>
AV-unprocessed.smi

> <i_m_source_file_index>
3263

> <i_lp_mmshare_version>
43012

> <i_f3d_flags>
0

> <s_epik_input>
W0NIMl0xW0NIMl1bQ0BASF0oW0NIMl0yKVtDQEBIXShbQ0gyXVtDQEhdMTIpW0NIMl1DKD1PKVtOSF1bQ0gyXVtDSDJdYzNbY0hdW2NIXVtjSF1bY0hdbjM=

> <s_epik_cmdline>
J2VwaWtfcHl0aG9uJywgJy1waCcsICc3LjAnLCAnLXRuJywgJzgnLCAnLW1hJywgJzIwMCcsICctbWV0YWxfYmluZGluZycsICctaW1hZScsICc8aW5maWxlLm1hZT4nLCAnLW9tYWUnLCAnPG91dGZpbGUubWFlPic=

> <r_epik_Ionization_Penalty>
1.83579

> <r_epik_Ionization_Penalty_Charging>
1.83579

> <r_epik_Ionization_Penalty_Neutral>
2.47288e-08

> <r_epik_State_Penalty>
1.95213

> <r_epik_Charging_Adjusted_Penalty>
3.78793

> <i_epik_Tot_Q>
1

> <i_epik_Tot_abs_Q>
1

> <r_epik_Metal_State_Penalty>
1.97847

> <b_epik_Metal_Only>
0

> <s_lp_Force_Field>
OPLS_2005

> <r_lp_Energy>
52.562

> <b_lp_Chiralities_Consistent>
1

> <s_lp_Variant>
AV-unprocessed.smi:3263-6

> <Gold.Version>
5.8.1

> <Gold.Id.Protein>
6NUR|6NUR_protein|mol2

> <Gold.PLP.Fitness>
50.1136

> <Gold.PLP.PLP>
-48.4023

> <Gold.PLP.part.hbond>
-1.0000

> <Gold.PLP.part.metal>
0.0000

> <Gold.PLP.part.buried>
-6.1502

> <Gold.PLP.part.nonpolar>
-41.6120

> <Gold.PLP.part.repulsive>
0.2081

> <Gold.PLP.ligand.clash>
0.0000

> <Gold.PLP.ligand.torsion>
0.6743

> <Gold.PLP.Chemscore.Hbond>
1.0000

> <Gold.PLP.Chemscore.CHOScore>
0.0000

> <Gold.PLP.Chemscore.Metal>
0.0000

> <Gold.Chemscore.Hbonds>
donor molecule, donor type, donor heavy atom, donor atom, acceptor molecule, acceptor atom, score
      L1  H    11    33       P1  8028  0.32

> <Gold.PLP.Chemscore.Internal.Correction>
0.0598

> <Gold.Rescore>
     Score         DG    S(hbond)    S(metal)    S(lipo)     H(rot)  DE(clash)    DE(int)     intcor
     17.75     -19.39       0.97        0.00     125.52       1.56       0.03       1.61       ----

> <Gold.Chemscore.Fitness>
17.7477

> <Gold.Chemscore.DG>
-19.3933

> <Gold.Chemscore.ZeroCoef>
-5.4800

> <Gold.Chemscore.Hbond>
0.9673

> <Gold.Chemscore.Metal>
0.0000

> <Gold.Chemscore.Lipo>
125.5249

> <Gold.Chemscore.Internal_Hbond>
0.0000

> <Gold.Chemscore.DEClash>
0.0314

> <Gold.Chemscore.DEInternal>
1.6142

> <Gold.Chemscore.Rot>
1.5640

> <Gold.Chemscore.Internal.Correction>
   9.000000E+99

> <Gold.Chemscore.Hbonds>
donor molecule, donor type, donor heavy atom, donor atom, acceptor molecule, acceptor atom, score
      L1  H    11    33       P1  8028  0.30

> <Gold.Chemscore.Hbond.Weighted>
-3.2307

> <Gold.Chemscore.Metal.Weighted>
-0.0000

> <Gold.Chemscore.Lipo.Weighted>
-14.6864

> <Gold.Chemscore.Internal_Hbond.Weighted>
0.0000

> <Gold.Chemscore.DEClash.Weighted>
0.0314

> <Gold.Chemscore.DEInternal.Weighted>
1.6142

> <Gold.Chemscore.Rot.Weighted>
4.0038

> <Gold.Chemscore.Internal.Correction.Weighted>
   9.000000E+99

> <Gold.Protein.RotatedTorsions>
[ 6907 6896 6895 6894 ] final -117.67 input  -60.11 | X-H torsion
[ 7974 7965 7964 7962 ] final -128.80 input  175.53 | X-H torsion
[ 8008 7997 7996 7995 ] final  168.07 input   59.86 | X-H torsion
[ 10167 10162 10161 10158 ] final   53.46 input  -65.29 | X-H torsion
[ 10718 10713 10712 10709 ] final   19.61 input   66.30 | X-H torsion
[ 10763 10752 10751 10750 ] final  -53.75 input  -60.55 | X-H torsion
[ 11005 11000 10999 10996 ] final  -32.63 input  -57.11 | X-H torsion

> <Gold.Protein.ActiveResidues>
 VAL166  LYS551  ARG553  GLY616  TRP617  ASP618  TYR619  PRO620  LYS621  CYS622 
 ASP623  PHE694  ASN695  SER759  ASP760  ASP761  ALA762  ILE779  LEU786  VAL792 
 PHE793  MET794  SER795  GLU796  ALA797  LYS798  CYS799  TRP800  GLU811  SER814 

> <Gold.Protein.RotatedAtoms>
  150.8156  133.8344  159.3162 H   0  0  0  0  0  0  0  0  0  0  0  0  # atno 6907 bound_to 6896
  151.6117  135.1038  160.0092 H   0  0  0  0  0  0  0  0  0  0  0  0  # atno 6908 bound_to 6896
  152.4247  133.7135  159.6549 H   0  0  0  0  0  0  0  0  0  0  0  0  # atno 6909 bound_to 6896
  144.9635  140.7471  143.4714 H   0  0  0  0  0  0  0  0  0  0  0  0  # atno 7974 bound_to 7965
  156.1578  140.1600  156.8662 H   0  0  0  0  0  0  0  0  0  0  0  0  # atno 8008 bound_to 7997
  154.5132  140.0796  156.8066 H   0  0  0  0  0  0  0  0  0  0  0  0  # atno 8009 bound_to 7997
  155.3767  140.3403  155.4247 H   0  0  0  0  0  0  0  0  0  0  0  0  # atno 8010 bound_to 7997
  140.2406  144.3588  150.6382 H   0  0  0  0  0  0  0  0  0  0  0  0  # atno 10167 bound_to 10162
  157.1129  130.6516  149.5902 H   0  0  0  0  0  0  0  0  0  0  0  0  # atno 10718 bound_to 10713
  154.1638  135.6470  153.4992 H   0  0  0  0  0  0  0  0  0  0  0  0  # atno 10763 bound_to 10752
  153.0103  135.5367  154.6683 H   0  0  0  0  0  0  0  0  0  0  0  0  # atno 10764 bound_to 10752
  154.6004  135.2943  155.0513 H   0  0  0  0  0  0  0  0  0  0  0  0  # atno 10765 bound_to 10752
  140.9568  133.7188  156.1306 H   0  0  0  0  0  0  0  0  0  0  0  0  # atno 11005 bound_to 11000
  145.2665  139.1971  143.4864 LP  0  0  0  0  0  0  0  0  0  0  0  0  # atno 17320 bound_to 7965
  146.3360  140.2604  142.8602 LP  0  0  0  0  0  0  0  0  0  0  0  0  # atno 17321 bound_to 7965
  140.6117  143.2170  151.6873 LP  0  0  0  0  0  0  0  0  0  0  0  0  # atno 17342 bound_to 10162
  139.5079  144.3631  152.0543 LP  0  0  0  0  0  0  0  0  0  0  0  0  # atno 17343 bound_to 10162
  155.9846  130.4872  150.6991 LP  0  0  0  0  0  0  0  0  0  0  0  0  # atno 17370 bound_to 10713
  157.4543  131.0876  151.0813 LP  0  0  0  0  0  0  0  0  0  0  0  0  # atno 17371 bound_to 10713
  140.7524  134.4030  157.5539 LP  0  0  0  0  0  0  0  0  0  0  0  0  # atno 17394 bound_to 11000
  139.8865  134.8908  156.2583 LP  0  0  0  0  0  0  0  0  0  0  0  0  # atno 17395 bound_to 11000

$$$$
