AV-unprocessed.smi:1762|AV-procd|sdf|7100|dock1
  -GOLD-   22720 8323D 1   1.00000     0.00000
 Structure written by MMmdl.
 52 53  0  0  0  0  0  0  0  0  1 V2000
  144.9848  143.3605  157.6553 C   0  0  0  0  0  0  0  0  0  0  0  0
  145.0266  142.7763  156.2387 C   0  0  2  0  0  0  0  0  0  0  0  0
  146.1571  141.7437  156.0631 C   0  0  0  0  0  0  0  0  0  0  0  0
  146.2543  141.2340  154.6899 N   0  0  0  0  0  0  0  0  0  0  0  0
  147.3289  140.2153  154.5213 C   0  0  2  0  0  0  0  0  0  0  0  0
  148.7517  140.8123  154.6371 C   0  0  0  0  0  0  0  0  0  0  0  0
  149.2638  141.3924  153.6791 O   0  0  0  0  0  0  0  0  0  0  0  0
  149.3602  140.6938  155.8280 N   0  0  0  0  0  0  0  0  0  0  0  0
  150.6732  141.2388  156.1511 C   0  0  0  0  0  0  0  0  0  0  0  0
  150.9351  141.2068  157.6665 C   0  0  0  0  0  0  0  0  0  0  0  0
  151.3716  142.5561  158.2042 C   0  0  0  0  0  0  0  0  0  0  0  0
  152.5658  142.6830  158.9452 C   0  0  0  0  0  0  0  0  0  0  0  0
  152.9253  143.9568  159.4262 C   0  0  0  0  0  0  0  0  0  0  0  0
  152.0799  145.0486  159.1507 C   0  0  0  0  0  0  0  0  0  0  0  0
  150.9080  144.8170  158.4034 C   0  0  0  0  0  0  0  0  0  0  0  0
  150.5544  143.5998  157.9369 N   0  0  0  0  0  0  0  0  0  0  0  0
  147.2026  139.3212  153.2420 C   0  0  0  0  0  0  0  0  0  0  0  0
  147.1119  140.1332  151.9342 C   0  0  0  0  0  0  0  0  0  0  0  0
  146.0624  138.2861  153.3109 C   0  0  0  0  0  0  0  0  0  0  0  0
  146.3620  142.3829  153.7731 C   0  0  0  0  0  0  0  0  0  0  0  0
  145.2334  143.4132  153.9684 C   0  0  2  0  0  0  0  0  0  0  0  0
  145.4104  144.6447  153.0729 C   0  0  0  0  0  0  0  0  0  0  0  0
  145.2233  143.8459  155.3228 O   0  0  0  0  0  0  0  0  0  0  0  0
  144.8199  142.5793  158.3977 H   0  0  0  0  0  0  0  0  0  0  0  0
  144.1776  144.0867  157.7529 H   0  0  0  0  0  0  0  0  0  0  0  0
  145.9192  143.8656  157.9019 H   0  0  0  0  0  0  0  0  0  0  0  0
  144.0653  142.3032  156.0298 H   0  0  0  0  0  0  0  0  0  0  0  0
  147.1083  142.1871  156.3624 H   0  0  0  0  0  0  0  0  0  0  0  0
  145.9534  140.9341  156.7610 H   0  0  0  0  0  0  0  0  0  0  0  0
  147.2343  139.5274  155.3645 H   0  0  0  0  0  0  0  0  0  0  0  0
  148.8711  140.2082  156.5659 H   0  0  0  0  0  0  0  0  0  0  0  0
  151.4249  140.6460  155.6291 H   0  0  0  0  0  0  0  0  0  0  0  0
  150.7600  142.2574  155.7690 H   0  0  0  0  0  0  0  0  0  0  0  0
  150.0375  140.8881  158.1987 H   0  0  0  0  0  0  0  0  0  0  0  0
  151.7039  140.4677  157.8971 H   0  0  0  0  0  0  0  0  0  0  0  0
  153.1922  141.8253  159.1425 H   0  0  0  0  0  0  0  0  0  0  0  0
  153.8323  144.0935  159.9964 H   0  0  0  0  0  0  0  0  0  0  0  0
  152.3232  146.0397  159.5040 H   0  0  0  0  0  0  0  0  0  0  0  0
  150.2368  145.6312  158.1742 H   0  0  0  0  0  0  0  0  0  0  0  0
  148.1304  138.7616  153.1362 H   0  0  0  0  0  0  0  0  0  0  0  0
  146.1677  140.6720  151.8491 H   0  0  0  0  0  0  0  0  0  0  0  0
  147.1884  139.4789  151.0654 H   0  0  0  0  0  0  0  0  0  0  0  0
  147.9210  140.8608  151.8658 H   0  0  0  0  0  0  0  0  0  0  0  0
  145.0809  138.7591  153.3105 H   0  0  0  0  0  0  0  0  0  0  0  0
  146.1347  137.6684  154.2062 H   0  0  0  0  0  0  0  0  0  0  0  0
  146.0975  137.6148  152.4526 H   0  0  0  0  0  0  0  0  0  0  0  0
  147.3287  142.8711  153.9093 H   0  0  0  0  0  0  0  0  0  0  0  0
  146.3172  142.0662  152.7316 H   0  0  0  0  0  0  0  0  0  0  0  0
  144.2728  142.9494  153.7367 H   0  0  0  0  0  0  0  0  0  0  0  0
  145.4138  144.3665  152.0188 H   0  0  0  0  0  0  0  0  0  0  0  0
  146.3489  145.1568  153.2873 H   0  0  0  0  0  0  0  0  0  0  0  0
  144.5997  145.3575  153.2257 H   0  0  0  0  0  0  0  0  0  0  0  0
  1  2  1  0  0  0  0
  1 24  1  0  0  0  0
  1 25  1  0  0  0  0
  1 26  1  0  0  0  0
  2 23  1  0  0  0  0
  2  3  1  0  0  0  0
  2 27  1  0  0  0  0
  3  4  1  0  0  0  0
  3 28  1  0  0  0  0
  3 29  1  0  0  0  0
  4  5  1  0  0  0  0
  4 20  1  0  0  0  0
  5  6  1  0  0  0  0
  5 17  1  0  0  0  0
  5 30  1  0  0  0  0
  6  7  2  0  0  0  0
  6  8  1  0  0  0  0
  8  9  1  0  0  0  0
  8 31  1  0  0  0  0
  9 10  1  0  0  0  0
  9 32  1  0  0  0  0
  9 33  1  0  0  0  0
 10 11  1  0  0  0  0
 10 34  1  0  0  0  0
 10 35  1  0  0  0  0
 11 16  1  0  0  0  0
 11 12  2  0  0  0  0
 12 13  1  0  0  0  0
 12 36  1  0  0  0  0
 13 14  2  0  0  0  0
 13 37  1  0  0  0  0
 14 15  1  0  0  0  0
 14 38  1  0  0  0  0
 15 16  2  0  0  0  0
 15 39  1  0  0  0  0
 17 18  1  0  0  0  0
 17 19  1  0  0  0  0
 17 40  1  0  0  0  0
 18 41  1  0  0  0  0
 18 42  1  0  0  0  0
 18 43  1  0  0  0  0
 19 44  1  0  0  0  0
 19 45  1  0  0  0  0
 19 46  1  0  0  0  0
 20 21  1  0  0  0  0
 20 47  1  0  0  0  0
 20 48  1  0  0  0  0
 21 22  1  0  0  0  0
 21 23  1  0  0  0  0
 21 49  1  0  0  0  0
 22 50  1  0  0  0  0
 22 51  1  0  0  0  0
 22 52  1  0  0  0  0
M  END
> <s_m_source_file>
AV-unprocessed.smi

> <i_m_source_file_index>
1762

> <i_lp_mmshare_version>
43012

> <i_f3d_flags>
0

> <s_epik_input>
W0NIM11bQ0BASF0xW0NIMl1OKFtDSDJdW0NASF0oTzEpW0NIM10pW0NAQEhdKFtDSF0oW0NIM10pW0NIM10pQyg9TylbTkhdW0NIMl1bQ0gyXWMyW2NIXVtjSF1bY0hdW2NIXW4y

> <s_epik_cmdline>
J2VwaWtfcHl0aG9uJywgJy1waCcsICc3LjAnLCAnLXRuJywgJzgnLCAnLW1hJywgJzIwMCcsICctbWV0YWxfYmluZGluZycsICctaW1hZScsICc8aW5maWxlLm1hZT4nLCAnLW9tYWUnLCAnPG91dGZpbGUubWFlPic=

> <r_epik_Ionization_Penalty>
0.0399736

> <r_epik_Ionization_Penalty_Charging>
0

> <r_epik_Ionization_Penalty_Neutral>
0.0399736

> <r_epik_State_Penalty>
0.0317634

> <r_epik_Charging_Adjusted_Penalty>
0.0317634

> <i_epik_Tot_Q>
0

> <i_epik_Tot_abs_Q>
0

> <r_epik_Metal_State_Penalty>
0.0307795

> <b_epik_Metal_Only>
0

> <s_lp_Force_Field>
OPLS_2005

> <r_lp_Energy>
25.9705

> <b_lp_Chiralities_Consistent>
1

> <s_lp_Variant>
AV-unprocessed.smi:1762-2

> <Gold.Version>
5.8.1

> <Gold.Id.Protein>
6NUR|6NUR_protein|mol2

> <Gold.PLP.Fitness>
45.3970

> <Gold.PLP.PLP>
-41.9972

> <Gold.PLP.part.hbond>
-2.0000

> <Gold.PLP.part.metal>
0.0000

> <Gold.PLP.part.buried>
-3.7921

> <Gold.PLP.part.nonpolar>
-39.8484

> <Gold.PLP.part.repulsive>
2.4395

> <Gold.PLP.ligand.clash>
0.0000

> <Gold.PLP.ligand.torsion>
1.2331

> <Gold.PLP.Chemscore.Hbond>
0.8320

> <Gold.PLP.Chemscore.CHOScore>
0.9832

> <Gold.PLP.Chemscore.Metal>
0.0000

> <Gold.Chemscore.Hbonds>
donor molecule, donor type, donor heavy atom, donor atom, acceptor molecule, acceptor atom, score
      P1  H  7989  7998       L1     7  0.02
      P1  H  8011  8017       L1     7  0.85
      L1  C    15    39       P1  8029  1.00

> <Gold.PLP.Chemscore.Internal.Correction>
0.4204

> <Gold.Rescore>
     Score         DG    S(hbond)    S(metal)    S(lipo)     H(rot)  DE(clash)    DE(int)     intcor
     13.44     -18.32       0.76        0.00     123.14       1.60       1.79       3.09       ----

> <Gold.Chemscore.Fitness>
13.4391

> <Gold.Chemscore.DG>
-18.3244

> <Gold.Chemscore.ZeroCoef>
-5.4800

> <Gold.Chemscore.Hbond>
0.7579

> <Gold.Chemscore.Metal>
0.0000

> <Gold.Chemscore.Lipo>
123.1386

> <Gold.Chemscore.Internal_Hbond>
0.0000

> <Gold.Chemscore.DEClash>
1.7923

> <Gold.Chemscore.DEInternal>
3.0930

> <Gold.Chemscore.Rot>
1.5993

> <Gold.Chemscore.Internal.Correction>
   9.000000E+99

> <Gold.Chemscore.Hbonds>
donor molecule, donor type, donor heavy atom, donor atom, acceptor molecule, acceptor atom, score
      P1  H  7989  7998       L1     7  0.02
      P1  H  8011  8017       L1     7  0.83

> <Gold.Chemscore.Hbond.Weighted>
-2.5313

> <Gold.Chemscore.Metal.Weighted>
-0.0000

> <Gold.Chemscore.Lipo.Weighted>
-14.4072

> <Gold.Chemscore.Internal_Hbond.Weighted>
0.0000

> <Gold.Chemscore.DEClash.Weighted>
1.7923

> <Gold.Chemscore.DEInternal.Weighted>
3.0930

> <Gold.Chemscore.Rot.Weighted>
4.0941

> <Gold.Chemscore.Internal.Correction.Weighted>
   9.000000E+99

> <Gold.Protein.RotatedTorsions>
[ 6907 6896 6895 6894 ] final -146.62 input  -60.11 | X-H torsion
[ 7974 7965 7964 7962 ] final -153.24 input  175.53 | X-H torsion
[ 8008 7997 7996 7995 ] final -116.88 input   59.86 | X-H torsion
[ 10167 10162 10161 10158 ] final   18.40 input  -65.29 | X-H torsion
[ 10718 10713 10712 10709 ] final  108.54 input   66.30 | X-H torsion
[ 10763 10752 10751 10750 ] final  -16.02 input  -60.55 | X-H torsion
[ 11005 11000 10999 10996 ] final -105.24 input  -57.11 | X-H torsion

> <Gold.Protein.ActiveResidues>
 VAL166  LYS551  ARG553  GLY616  TRP617  ASP618  TYR619  PRO620  LYS621  CYS622 
 ASP623  PHE694  ASN695  SER759  ASP760  ASP761  ALA762  ILE779  LEU786  VAL792 
 PHE793  MET794  SER795  GLU796  ALA797  LYS798  CYS799  TRP800  GLU811  SER814 

> <Gold.Protein.RotatedAtoms>
  151.1442  133.4950  159.2596 H   0  0  0  0  0  0  0  0  0  0  0  0  # atno 6907 bound_to 6896
  151.1622  135.0278  159.8725 H   0  0  0  0  0  0  0  0  0  0  0  0  # atno 6908 bound_to 6896
  152.5463  134.1315  159.8494 H   0  0  0  0  0  0  0  0  0  0  0  0  # atno 6909 bound_to 6896
  144.7751  140.4553  143.5879 H   0  0  0  0  0  0  0  0  0  0  0  0  # atno 7974 bound_to 7965
  155.0749  140.0394  157.2620 H   0  0  0  0  0  0  0  0  0  0  0  0  # atno 8008 bound_to 7997
  154.6953  140.2662  155.6748 H   0  0  0  0  0  0  0  0  0  0  0  0  # atno 8009 bound_to 7997
  156.2742  140.2751  156.1545 H   0  0  0  0  0  0  0  0  0  0  0  0  # atno 8010 bound_to 7997
  140.5656  143.9257  150.6674 H   0  0  0  0  0  0  0  0  0  0  0  0  # atno 10167 bound_to 10162
  157.6582  131.0895  150.6320 H   0  0  0  0  0  0  0  0  0  0  0  0  # atno 10718 bound_to 10713
  153.5523  135.7011  153.5586 H   0  0  0  0  0  0  0  0  0  0  0  0  # atno 10763 bound_to 10752
  153.3504  135.3996  155.1642 H   0  0  0  0  0  0  0  0  0  0  0  0  # atno 10764 bound_to 10752
  154.8659  135.3764  154.5034 H   0  0  0  0  0  0  0  0  0  0  0  0  # atno 10765 bound_to 10752
  141.1062  133.8791  157.1710 H   0  0  0  0  0  0  0  0  0  0  0  0  # atno 11005 bound_to 11000
  145.6209  139.1524  143.3023 LP  0  0  0  0  0  0  0  0  0  0  0  0  # atno 17320 bound_to 7965
  146.1925  140.6319  142.9139 LP  0  0  0  0  0  0  0  0  0  0  0  0  # atno 17321 bound_to 7965
  140.2719  143.3450  152.1230 LP  0  0  0  0  0  0  0  0  0  0  0  0  # atno 17342 bound_to 10162
  139.5091  144.6862  151.5882 LP  0  0  0  0  0  0  0  0  0  0  0  0  # atno 17343 bound_to 10162
  156.6625  130.4516  149.5683 LP  0  0  0  0  0  0  0  0  0  0  0  0  # atno 17370 bound_to 10713
  156.2057  130.6647  151.1215 LP  0  0  0  0  0  0  0  0  0  0  0  0  # atno 17371 bound_to 10713
  139.9934  135.0056  157.0027 LP  0  0  0  0  0  0  0  0  0  0  0  0  # atno 17394 bound_to 11000
  140.4895  134.1208  155.7230 LP  0  0  0  0  0  0  0  0  0  0  0  0  # atno 17395 bound_to 11000

$$$$
