#       Name:                AV-unprocessed.smi:1261
#       Creating user name   scv26
#       Creation time:       Fri Mar 27 04:42:30 2020


#       File generated by GOLD software.
#

@<TRIPOS>MOLECULE
AV-unprocessed.smi:1261
    56    57     1
SMALL
NO_CHARGES


@<TRIPOS>ATOM
      1 ****        -2.0753   4.2187  -2.1522 C.3            1 S1                 0.0000
      2 ****        -2.3629   3.4303  -0.8666 C.3            1 S1                 0.0000
      3 ****        -3.8465   3.5303  -0.4682 C.3            1 S1                 0.0000
      4 ****        -4.1601   2.6869   0.7815 C.3            1 S1                 0.0000
      5 ****        -3.6347   3.3220   2.0808 C.3            1 S1                 0.0000
      6 ****        -3.6636   1.2389   0.5967 C.3            1 S1                 0.0000
      7 ****        -2.2221   1.1906   0.2369 N.4            1 S1                 1.0000
      8 ****        -1.7006  -0.1996   0.2020 C.3            1 S1                 0.0000
      9 ****        -0.1732  -0.2618   0.3730 C.3            1 S1                 0.0000
     10 ****         0.3426  -1.7060   0.4765 C.3            1 S1                 0.0000
     11 ****         1.7902  -1.7476   0.6374 N.am           1 S1                 0.0000
     12 ****         2.6811  -1.6407  -0.3602 C.2            1 S1                 0.0000
     13 ****         2.3632  -1.4655  -1.5368 O.2            1 S1                 0.0000
     14 ****         4.1582  -1.7281   0.0381 C.3            1 S1                 0.0000
     15 ****         4.6592  -3.1065  -0.0265 N.am           1 S1                 0.0000
     16 ****         4.6345  -3.7966   1.2606 N.pl3          1 S1                -1.0000
     17 ****         5.0435  -5.0913   1.3261 C.2            1 S1                 0.0000
     18 ****         5.0378  -5.7397   2.3701 O.2            1 S1                 0.0000
     19 ****         5.5066  -5.7253   0.1028 C.2            1 S1                 0.0000
     20 ****         5.5296  -5.0602  -1.0691 C.2            1 S1                 0.0000
     21 ****         5.0920  -3.6746  -1.1882 C.2            1 S1                 0.0000
     22 ****         5.1081  -3.0633  -2.2565 O.2            1 S1                 0.0000
     23 ****        -1.9459   1.9542  -1.0089 C.3            1 S1                 0.0000
     24 ****        -2.6438   3.8250  -2.9954 H              1 S1                 0.0000
     25 ****        -1.0178   4.1720  -2.4136 H              1 S1                 0.0000
     26 ****        -2.3384   5.2704  -2.0355 H              1 S1                 0.0000
     27 ****        -1.7617   3.8769  -0.0737 H              1 S1                 0.0000
     28 ****        -4.1259   4.5713  -0.3007 H              1 S1                 0.0000
     29 ****        -4.4645   3.1802  -1.2964 H              1 S1                 0.0000
     30 ****        -5.2457   2.6482   0.8800 H              1 S1                 0.0000
     31 ****        -2.5464   3.3765   2.0983 H              1 S1                 0.0000
     32 ****        -3.9488   2.7449   2.9510 H              1 S1                 0.0000
     33 ****        -4.0199   4.3344   2.2058 H              1 S1                 0.0000
     34 ****        -3.8407   0.6759   1.5140 H              1 S1                 0.0000
     35 ****        -4.2412   0.7460  -0.1870 H              1 S1                 0.0000
     36 ****        -2.1511  -0.7689   1.0162 H              1 S1                 0.0000
     37 ****        -2.0076  -0.6897  -0.7233 H              1 S1                 0.0000
     38 ****         0.3192   0.2297  -0.4657 H              1 S1                 0.0000
     39 ****         0.1163   0.2891   1.2688 H              1 S1                 0.0000
     40 ****        -0.1058  -2.2028   1.3371 H              1 S1                 0.0000
     41 ****         0.0482  -2.2826  -0.4019 H              1 S1                 0.0000
     42 ****         2.1476  -1.9034   1.5694 H              1 S1                 0.0000
     43 ****         4.7435  -1.0788  -0.6153 H              1 S1                 0.0000
     44 ****         4.2895  -1.3192   1.0418 H              1 S1                 0.0000
     45 ****         5.8409  -6.7517   0.1344 H              1 S1                 0.0000
     46 ****         5.8824  -5.5709  -1.9527 H              1 S1                 0.0000
     47 ****        -2.4741   1.4899  -1.8434 H              1 S1                 0.0000
     48 ****        -0.8842   1.9127  -1.2483 H              1 S1                 0.0000
     49 ****        -1.7305   1.6590   0.9846 H              1 S1                 0.0000
     50 ****         1.3980  -1.3958  -1.7888 LP             1 S1                 0.0000
     51 ****         3.0702  -1.3929  -2.2402 LP             1 S1                 0.0000
     52 ****         4.3206  -3.3226   2.0833 LP             1 S1                 0.0000
     53 ****         4.7228  -5.3167   3.2198 LP             1 S1                 0.0000
     54 ****         5.3481  -6.6903   2.3700 LP             1 S1                 0.0000
     55 ****         4.7961  -2.1139  -2.2940 LP             1 S1                 0.0000
     56 ****         5.4331  -3.5160  -3.0867 LP             1 S1                 0.0000
@<TRIPOS>BOND
    1    1    2 1     
    2    1   24 1     
    3    1   25 1     
    4    1   26 1     
    5    2   23 1     
    6    2    3 1     
    7    2   27 1     
    8    3    4 1     
    9    3   28 1     
   10    3   29 1     
   11    4    5 1     
   12    4    6 1     
   13    4   30 1     
   14    5   31 1     
   15    5   32 1     
   16    5   33 1     
   17    6    7 1     
   18    6   34 1     
   19    6   35 1     
   20    7    8 1     
   21    7   23 1     
   22    7   49 1     
   23    8    9 1     
   24    8   36 1     
   25    8   37 1     
   26    9   10 1     
   27    9   38 1     
   28    9   39 1     
   29   10   11 1     
   30   10   40 1     
   31   10   41 1     
   32   11   12 am    
   33   11   42 1     
   34   12   13 2     
   35   12   14 1     
   36   14   43 1     
   37   14   44 1     
   38   14   15 1     
   39   15   16 1     
   40   15   21 am    
   41   16   17 1     
   42   17   18 2     
   43   17   19 1     
   44   19   45 1     
   45   19   20 2     
   46   20   46 1     
   47   20   21 1     
   48   21   22 2     
   49   23   47 1     
   50   23   48 1     
   51   13   50 1     
   52   13   51 1     
   53   16   52 1     
   54   18   53 1     
   55   18   54 1     
   56   22   55 1     
   57   22   56 1     
@<TRIPOS>SUBSTRUCTURE
      1 S1             1
@<TRIPOS>SET
LONE_PAIRS      STATIC     ATOMS    <user>   **** ""
7 50 51 52 53 54 55 56
DONOR_HYDROGENS      STATIC     ATOMS    <user>   **** ""
2 49 42
ATOM$BLUE        STATIC     ATOMS    COLORGROUP SYSTEM
7 50 51 52 53 54 55 56
ATOM$RED        STATIC     ATOMS    COLORGROUP SYSTEM
2 49 42
