AV-unprocessed.smi:3143|AV-procd|sdf|11974|dock8
  -GOLD-   2272017373D 1   1.00000     0.00000
 Structure written by MMmdl.
 38 39  0  0  0  0  0  0  0  0  2 V2000
  148.8177  141.7575  154.0982 C   0  0  0  0  0  0  0  0  0  0  0  0
  149.3719  141.5534  155.5171 C   0  0  2  0  0  0  0  0  0  0  0  0
  150.2729  142.6779  155.8610 N   0  3  0  0  0  0  0  0  0  0  0  0
  151.0066  142.5238  157.1351 C   0  0  0  0  0  0  0  0  0  0  0  0
  151.5885  143.8670  157.5998 C   0  0  0  0  0  0  0  0  0  0  0  0
  151.8076  143.8968  159.0335 N   0  0  0  0  0  0  0  0  0  0  0  0
  151.5354  144.9158  159.9223 C   0  0  0  0  0  0  0  0  0  0  0  0
  151.9233  144.4894  161.1603 C   0  0  0  0  0  0  0  0  0  0  0  0
  152.4347  143.1829  160.9233 C   0  0  0  0  0  0  0  0  0  0  0  0
  152.3673  142.8326  159.6487 N   0  0  0  0  0  0  0  0  0  0  0  0
  150.0996  140.1968  155.6080 C   0  0  0  0  0  0  0  0  0  0  0  0
  151.0101  139.9582  154.8130 O   0  0  0  0  0  0  0  0  0  0  0  0
  149.7155  139.3004  156.5423 N   0  0  0  0  0  0  0  0  0  0  0  0
  150.3508  137.9935  156.7056 C   0  0  0  0  0  0  0  0  0  0  0  0
  149.8058  137.4263  158.0162 C   0  0  0  0  0  0  0  0  0  0  0  0
  148.4547  138.1071  158.1799 C   0  0  0  0  0  0  0  0  0  0  0  0
  148.6442  139.4748  157.5237 C   0  0  0  0  0  0  0  0  0  0  0  0
  148.1354  140.9553  153.8147 H   0  0  0  0  0  0  0  0  0  0  0  0
  149.6168  141.7890  153.3563 H   0  0  0  0  0  0  0  0  0  0  0  0
  148.2638  142.6939  154.0265 H   0  0  0  0  0  0  0  0  0  0  0  0
  148.5362  141.5873  156.2160 H   0  0  0  0  0  0  0  0  0  0  0  0
  150.9372  142.7951  155.1086 H   0  0  0  0  0  0  0  0  0  0  0  0
  150.3287  142.1305  157.8938 H   0  0  0  0  0  0  0  0  0  0  0  0
  151.8070  141.7937  157.0092 H   0  0  0  0  0  0  0  0  0  0  0  0
  152.5386  144.0658  157.1018 H   0  0  0  0  0  0  0  0  0  0  0  0
  150.9143  144.6830  157.3359 H   0  0  0  0  0  0  0  0  0  0  0  0
  151.0928  145.8488  159.6054 H   0  0  0  0  0  0  0  0  0  0  0  0
  151.8551  145.0297  162.0929 H   0  0  0  0  0  0  0  0  0  0  0  0
  152.8511  142.4844  161.6342 H   0  0  0  0  0  0  0  0  0  0  0  0
  150.0699  137.3549  155.8670 H   0  0  0  0  0  0  0  0  0  0  0  0
  151.4394  138.0639  156.7283 H   0  0  0  0  0  0  0  0  0  0  0  0
  149.7346  136.3382  158.0097 H   0  0  0  0  0  0  0  0  0  0  0  0
  150.4612  137.7137  158.8396 H   0  0  0  0  0  0  0  0  0  0  0  0
  147.6943  137.5430  157.6381 H   0  0  0  0  0  0  0  0  0  0  0  0
  148.1391  138.1775  159.2213 H   0  0  0  0  0  0  0  0  0  0  0  0
  148.9587  140.2093  158.2667 H   0  0  0  0  0  0  0  0  0  0  0  0
  147.7145  139.8210  157.0712 H   0  0  0  0  0  0  0  0  0  0  0  0
  149.7137  143.5158  155.9312 H   0  0  0  0  0  0  0  0  0  0  0  0
  1  2  1  0  0  0  0
  1 18  1  0  0  0  0
  1 19  1  0  0  0  0
  1 20  1  0  0  0  0
  2  3  1  0  0  0  0
  2 11  1  0  0  0  0
  2 21  1  0  0  0  0
  3  4  1  0  0  0  0
  3 22  1  0  0  0  0
  3 38  1  0  0  0  0
  4  5  1  0  0  0  0
  4 23  1  0  0  0  0
  4 24  1  0  0  0  0
  5  6  1  0  0  0  0
  5 25  1  0  0  0  0
  5 26  1  0  0  0  0
  6 10  1  0  0  0  0
  6  7  1  0  0  0  0
  7  8  2  0  0  0  0
  7 27  1  0  0  0  0
  8  9  1  0  0  0  0
  8 28  1  0  0  0  0
  9 10  2  0  0  0  0
  9 29  1  0  0  0  0
 11 12  2  0  0  0  0
 11 13  1  0  0  0  0
 13 17  1  0  0  0  0
 13 14  1  0  0  0  0
 14 15  1  0  0  0  0
 14 30  1  0  0  0  0
 14 31  1  0  0  0  0
 15 16  1  0  0  0  0
 15 32  1  0  0  0  0
 15 33  1  0  0  0  0
 16 17  1  0  0  0  0
 16 34  1  0  0  0  0
 16 35  1  0  0  0  0
 17 36  1  0  0  0  0
 17 37  1  0  0  0  0
M  CHG  1   3   1
M  END
> <s_m_source_file>
AV-unprocessed.smi

> <i_m_source_file_index>
3143

> <i_lp_mmshare_version>
43012

> <i_f3d_flags>
0

> <s_epik_input>
W0NIMl0xW0NIMl1bQ0gyXVtDSDJdTjFDKD1PKVtDQEhdKFtDSDNdKVtOSF1bQ0gyXVtDSDJdbjJbY0hdW2NIXVtjSF1uMg==

> <s_epik_cmdline>
J2VwaWtfcHl0aG9uJywgJy1waCcsICc3LjAnLCAnLXRuJywgJzgnLCAnLW1hJywgJzIwMCcsICctbWV0YWxfYmluZGluZycsICctaW1hZScsICc8aW5maWxlLm1hZT4nLCAnLW9tYWUnLCAnPG91dGZpbGUubWFlPic=

> <r_lp_tautomer_probability>
1

> <r_epik_Ionization_Penalty>
0.203171

> <r_epik_Ionization_Penalty_Charging>
0.203168

> <r_epik_Ionization_Penalty_Neutral>
2.46932e-06

> <r_epik_State_Penalty>
0.193072

> <r_epik_Charging_Adjusted_Penalty>
0.39624

> <i_epik_Tot_Q>
1

> <i_epik_Tot_abs_Q>
1

> <r_epik_Metal_State_Penalty>
0.193323

> <b_epik_Metal_Only>
0

> <s_lp_Force_Field>
OPLS_2005

> <r_lp_Energy>
30.2015

> <b_lp_Chiralities_Consistent>
1

> <s_lp_Variant>
AV-unprocessed.smi:3143-1

> <Gold.Version>
5.8.1

> <Gold.Id.Protein>
6NUR|6NUR_protein|mol2

> <Gold.PLP.Fitness>
43.8860

> <Gold.PLP.PLP>
-35.8528

> <Gold.PLP.part.hbond>
-1.9939

> <Gold.PLP.part.metal>
0.0000

> <Gold.PLP.part.buried>
-5.8864

> <Gold.PLP.part.nonpolar>
-28.0265

> <Gold.PLP.part.repulsive>
0.2099

> <Gold.PLP.ligand.clash>
0.0000

> <Gold.PLP.ligand.torsion>
0.5003

> <Gold.PLP.Chemscore.Hbond>
3.0000

> <Gold.PLP.Chemscore.CHOScore>
0.0000

> <Gold.PLP.Chemscore.Metal>
0.0000

> <Gold.Chemscore.Hbonds>
donor molecule, donor type, donor heavy atom, donor atom, acceptor molecule, acceptor atom, score
      L1  H     3    38       P1  8028  1.76
      P1  H  7989  7998       L1    12  1.00

> <Gold.PLP.Chemscore.Internal.Correction>
0.0336

> <Gold.Rescore>
     Score         DG    S(hbond)    S(metal)    S(lipo)     H(rot)  DE(clash)    DE(int)     intcor
     16.74     -17.17       2.00        0.00      83.18       1.84       0.02       0.41       ----

> <Gold.Chemscore.Fitness>
16.7398

> <Gold.Chemscore.DG>
-17.1715

> <Gold.Chemscore.ZeroCoef>
-5.4800

> <Gold.Chemscore.Hbond>
1.9975

> <Gold.Chemscore.Metal>
0.0000

> <Gold.Chemscore.Lipo>
83.1759

> <Gold.Chemscore.Internal_Hbond>
0.0000

> <Gold.Chemscore.DEClash>
0.0246

> <Gold.Chemscore.DEInternal>
0.4071

> <Gold.Chemscore.Rot>
1.8405

> <Gold.Chemscore.Internal.Correction>
   9.000000E+99

> <Gold.Chemscore.Hbonds>
donor molecule, donor type, donor heavy atom, donor atom, acceptor molecule, acceptor atom, score
      L1  H     3    38       P1  8028  0.86
      P1  H  7989  7998       L1    12  1.00

> <Gold.Chemscore.Hbond.Weighted>
-6.6716

> <Gold.Chemscore.Metal.Weighted>
-0.0000

> <Gold.Chemscore.Lipo.Weighted>
-9.7316

> <Gold.Chemscore.Internal_Hbond.Weighted>
0.0000

> <Gold.Chemscore.DEClash.Weighted>
0.0246

> <Gold.Chemscore.DEInternal.Weighted>
0.4071

> <Gold.Chemscore.Rot.Weighted>
4.7117

> <Gold.Chemscore.Internal.Correction.Weighted>
   9.000000E+99

> <Gold.Protein.RotatedTorsions>
[ 6907 6896 6895 6894 ] final -102.56 input  -60.11 | X-H torsion
[ 7974 7965 7964 7962 ] final    0.09 input  175.53 | X-H torsion
[ 8008 7997 7996 7995 ] final    7.47 input   59.86 | X-H torsion
[ 10167 10162 10161 10158 ] final -141.56 input  -65.29 | X-H torsion
[ 10718 10713 10712 10709 ] final -134.04 input   66.30 | X-H torsion
[ 10763 10752 10751 10750 ] final   87.97 input  -60.55 | X-H torsion
[ 11005 11000 10999 10996 ] final   76.47 input  -57.11 | X-H torsion

> <Gold.Protein.ActiveResidues>
 VAL166  LYS551  ARG553  GLY616  TRP617  ASP618  TYR619  PRO620  LYS621  CYS622 
 ASP623  PHE694  ASN695  SER759  ASP760  ASP761  ALA762  ILE779  LEU786  VAL792 
 PHE793  MET794  SER795  GLU796  ALA797  LYS798  CYS799  TRP800  GLU811  SER814 

> <Gold.Protein.RotatedAtoms>
  150.7201  134.0563  159.3815 H   0  0  0  0  0  0  0  0  0  0  0  0  # atno 6907 bound_to 6896
  151.8541  135.0545  160.0471 H   0  0  0  0  0  0  0  0  0  0  0  0  # atno 6908 bound_to 6896
  152.2768  133.5397  159.5509 H   0  0  0  0  0  0  0  0  0  0  0  0  # atno 6909 bound_to 6896
  146.2432  140.1189  142.8341 H   0  0  0  0  0  0  0  0  0  0  0  0  # atno 7974 bound_to 7965
  154.7543  140.2773  155.6266 H   0  0  0  0  0  0  0  0  0  0  0  0  # atno 8008 bound_to 7997
  156.2902  140.2672  156.2231 H   0  0  0  0  0  0  0  0  0  0  0  0  # atno 8009 bound_to 7997
  155.0097  140.0372  157.2384 H   0  0  0  0  0  0  0  0  0  0  0  0  # atno 8010 bound_to 7997
  139.8173  143.7622  152.2665 H   0  0  0  0  0  0  0  0  0  0  0  0  # atno 10167 bound_to 10162
  156.2513  130.7154  151.1054 H   0  0  0  0  0  0  0  0  0  0  0  0  # atno 10718 bound_to 10713
  153.1721  135.4524  154.9917 H   0  0  0  0  0  0  0  0  0  0  0  0  # atno 10763 bound_to 10752
  154.7973  135.3242  154.7638 H   0  0  0  0  0  0  0  0  0  0  0  0  # atno 10764 bound_to 10752
  153.8113  135.6954  153.4895 H   0  0  0  0  0  0  0  0  0  0  0  0  # atno 10765 bound_to 10752
  139.9297  134.7603  156.1400 H   0  0  0  0  0  0  0  0  0  0  0  0  # atno 11005 bound_to 11000
  145.0423  140.8955  143.5045 LP  0  0  0  0  0  0  0  0  0  0  0  0  # atno 17320 bound_to 7965
  145.1272  139.2655  143.5558 LP  0  0  0  0  0  0  0  0  0  0  0  0  # atno 17321 bound_to 7965
  139.7789  144.7451  151.0117 LP  0  0  0  0  0  0  0  0  0  0  0  0  # atno 17342 bound_to 10162
  140.7815  143.4564  151.0340 LP  0  0  0  0  0  0  0  0  0  0  0  0  # atno 17343 bound_to 10162
  157.7215  131.0678  150.6114 LP  0  0  0  0  0  0  0  0  0  0  0  0  # atno 17370 bound_to 10713
  156.6194  130.4402  149.5828 LP  0  0  0  0  0  0  0  0  0  0  0  0  # atno 17371 bound_to 10713
  141.0877  133.6727  156.2473 LP  0  0  0  0  0  0  0  0  0  0  0  0  # atno 17394 bound_to 11000
  140.6237  134.5335  157.5551 LP  0  0  0  0  0  0  0  0  0  0  0  0  # atno 17395 bound_to 11000

$$$$
