AV-unprocessed.smi:2471|AV-procd|sdf|9738|dock6
  -GOLD-   2272013383D 1   1.00000     0.00000
 Structure written by MMmdl.
 40 41  0  0  0  0  0  0  0  0  1 V2000
  142.0227  134.0214  153.0735 C   0  0  0  0  0  0  0  0  0  0  0  0
  143.3471  133.9998  152.3396 C   0  0  0  0  0  0  0  0  0  0  0  0
  143.5950  133.0598  151.3203 C   0  0  0  0  0  0  0  0  0  0  0  0
  144.8443  133.0959  150.6753 C   0  0  0  0  0  0  0  0  0  0  0  0
  145.7869  134.0641  151.0725 C   0  0  0  0  0  0  0  0  0  0  0  0
  145.4577  134.9731  152.1030 C   0  0  0  0  0  0  0  0  0  0  0  0
  146.4730  135.9135  152.4244 N   0  0  0  0  0  0  0  0  0  0  0  0
  146.3809  136.9967  153.2164 C   0  0  0  0  0  0  0  0  0  0  0  0
  145.3752  137.3421  153.8377 O   0  0  0  0  0  0  0  0  0  0  0  0
  147.5382  137.6729  153.2531 N   0  0  0  0  0  0  0  0  0  0  0  0
  147.7666  138.8973  154.0150 C   0  0  0  0  0  0  0  0  0  0  0  0
  148.9535  138.7724  154.9973 C   0  0  1  0  0  0  0  0  0  0  0  0
  150.0249  137.7648  154.5220 C   0  0  0  0  0  0  0  0  0  0  0  0
  151.1683  137.6316  155.5405 C   0  0  0  0  0  0  0  0  0  0  0  0
  151.8069  138.9938  155.8489 C   0  0  0  0  0  0  0  0  0  0  0  0
  150.7532  140.0090  156.3238 C   0  0  0  0  0  0  0  0  0  0  0  0
  149.5875  140.1463  155.3250 C   0  0  1  0  0  0  0  0  0  0  0  0
  150.0519  140.7898  154.1526 O   0  0  0  0  0  0  0  0  0  0  0  0
  144.2502  134.9292  152.7196 N   0  0  0  0  0  0  0  0  0  0  0  0
  141.4543  133.1098  152.8871 H   0  0  0  0  0  0  0  0  0  0  0  0
  141.4242  134.8712  152.7447 H   0  0  0  0  0  0  0  0  0  0  0  0
  142.1809  134.1077  154.1491 H   0  0  0  0  0  0  0  0  0  0  0  0
  142.8496  132.3310  151.0377 H   0  0  0  0  0  0  0  0  0  0  0  0
  145.0761  132.3941  149.8877 H   0  0  0  0  0  0  0  0  0  0  0  0
  146.7505  134.1061  150.5857 H   0  0  0  0  0  0  0  0  0  0  0  0
  147.3676  135.7523  151.9864 H   0  0  0  0  0  0  0  0  0  0  0  0
  148.3163  137.3192  152.7158 H   0  0  0  0  0  0  0  0  0  0  0  0
  147.9504  139.7017  153.3025 H   0  0  0  0  0  0  0  0  0  0  0  0
  146.8562  139.1680  154.5525 H   0  0  0  0  0  0  0  0  0  0  0  0
  148.5515  138.3889  155.9367 H   0  0  0  0  0  0  0  0  0  0  0  0
  149.5785  136.7831  154.3618 H   0  0  0  0  0  0  0  0  0  0  0  0
  150.4279  138.0786  153.5582 H   0  0  0  0  0  0  0  0  0  0  0  0
  150.7863  137.1904  156.4619 H   0  0  0  0  0  0  0  0  0  0  0  0
  151.9255  136.9451  155.1603 H   0  0  0  0  0  0  0  0  0  0  0  0
  152.5790  138.8778  156.6099 H   0  0  0  0  0  0  0  0  0  0  0  0
  152.3090  139.3725  154.9579 H   0  0  0  0  0  0  0  0  0  0  0  0
  150.3590  139.6850  157.2878 H   0  0  0  0  0  0  0  0  0  0  0  0
  151.2196  140.9794  156.4983 H   0  0  0  0  0  0  0  0  0  0  0  0
  148.8279  140.7939  155.7644 H   0  0  0  0  0  0  0  0  0  0  0  0
  150.0747  140.1561  153.4521 H   0  0  0  0  0  0  0  0  0  0  0  0
  1  2  1  0  0  0  0
  1 20  1  0  0  0  0
  1 21  1  0  0  0  0
  1 22  1  0  0  0  0
  2 19  1  0  0  0  0
  2  3  2  0  0  0  0
  3  4  1  0  0  0  0
  3 23  1  0  0  0  0
  4  5  2  0  0  0  0
  4 24  1  0  0  0  0
  5  6  1  0  0  0  0
  5 25  1  0  0  0  0
  6  7  1  0  0  0  0
  6 19  2  0  0  0  0
  7  8  1  0  0  0  0
  7 26  1  0  0  0  0
  8  9  2  0  0  0  0
  8 10  1  0  0  0  0
 10 11  1  0  0  0  0
 10 27  1  0  0  0  0
 11 12  1  0  0  0  0
 11 28  1  0  0  0  0
 11 29  1  0  0  0  0
 12 17  1  0  0  0  0
 12 13  1  0  0  0  0
 12 30  1  0  0  0  0
 13 14  1  0  0  0  0
 13 31  1  0  0  0  0
 13 32  1  0  0  0  0
 14 15  1  0  0  0  0
 14 33  1  0  0  0  0
 14 34  1  0  0  0  0
 15 16  1  0  0  0  0
 15 35  1  0  0  0  0
 15 36  1  0  0  0  0
 16 17  1  0  0  0  0
 16 37  1  0  0  0  0
 16 38  1  0  0  0  0
 17 18  1  0  0  0  0
 17 39  1  0  0  0  0
 18 40  1  0  0  0  0
M  END
> <s_m_source_file>
AV-unprocessed.smi

> <i_m_source_file_index>
2471

> <i_lp_mmshare_version>
43012

> <i_f3d_flags>
0

> <s_epik_input>
W0NIM11jMVtjSF1bY0hdW2NIXWMobjEpW05IXUMoPU8pW05IXVtDSDJdW0NAQEhdMltDSDJdW0NIMl1bQ0gyXVtDSDJdW0NASF0yW09IXQ==

> <s_epik_cmdline>
J2VwaWtfcHl0aG9uJywgJy1waCcsICc3LjAnLCAnLXRuJywgJzgnLCAnLW1hJywgJzIwMCcsICctbWV0YWxfYmluZGluZycsICctaW1hZScsICc8aW5maWxlLm1hZT4nLCAnLW9tYWUnLCAnPG91dGZpbGUubWFlPic=

> <r_lp_tautomer_probability>
1

> <r_epik_Ionization_Penalty>
8.52237e-05

> <r_epik_Ionization_Penalty_Charging>
0

> <r_epik_Ionization_Penalty_Neutral>
8.52237e-05

> <r_epik_State_Penalty>
-0

> <r_epik_Charging_Adjusted_Penalty>
0

> <i_epik_Tot_Q>
0

> <i_epik_Tot_abs_Q>
0

> <r_epik_Metal_State_Penalty>
-0

> <b_epik_Metal_Only>
0

> <s_lp_Force_Field>
OPLS_2005

> <r_lp_Energy>
16.6086

> <b_lp_Chiralities_Consistent>
1

> <s_lp_Variant>
AV-unprocessed.smi:2471-2

> <Gold.Version>
5.8.1

> <Gold.Id.Protein>
6NUR|6NUR_protein|mol2

> <Gold.PLP.Fitness>
29.8876

> <Gold.PLP.PLP>
-24.2949

> <Gold.PLP.part.hbond>
-3.4106

> <Gold.PLP.part.metal>
0.0000

> <Gold.PLP.part.buried>
-0.8519

> <Gold.PLP.part.nonpolar>
-22.6231

> <Gold.PLP.part.repulsive>
0.2636

> <Gold.PLP.ligand.clash>
0.0000

> <Gold.PLP.ligand.torsion>
0.3742

> <Gold.PLP.Chemscore.Hbond>
2.1099

> <Gold.PLP.Chemscore.CHOScore>
0.0000

> <Gold.PLP.Chemscore.Metal>
0.0000

> <Gold.Chemscore.Hbonds>
donor molecule, donor type, donor heavy atom, donor atom, acceptor molecule, acceptor atom, score
      L1  H     7    26       P1  7948  0.96
      L1  H    10    27       P1  7948  0.96
      L1  H    18    40       P1  7957  0.19

> <Gold.PLP.Chemscore.Internal.Correction>
0.0115

> <Gold.Rescore>
     Score         DG    S(hbond)    S(metal)    S(lipo)     H(rot)  DE(clash)    DE(int)     intcor
     16.88     -19.15       2.73        0.00      76.79       1.73       0.60       1.67       ----

> <Gold.Chemscore.Fitness>
16.8806

> <Gold.Chemscore.DG>
-19.1519

> <Gold.Chemscore.ZeroCoef>
-5.4800

> <Gold.Chemscore.Hbond>
2.7323

> <Gold.Chemscore.Metal>
0.0000

> <Gold.Chemscore.Lipo>
76.7924

> <Gold.Chemscore.Internal_Hbond>
0.0000

> <Gold.Chemscore.DEClash>
0.5978

> <Gold.Chemscore.DEInternal>
1.6735

> <Gold.Chemscore.Rot>
1.7339

> <Gold.Chemscore.Internal.Correction>
   9.000000E+99

> <Gold.Chemscore.Hbonds>
donor molecule, donor type, donor heavy atom, donor atom, acceptor molecule, acceptor atom, score
      L1  H     7    26       P1  7948  0.92
      L1  H    10    27       P1  7948  0.87
      L1  H    18    40       P1  7957  0.19

> <Gold.Chemscore.Hbond.Weighted>
-9.1258

> <Gold.Chemscore.Metal.Weighted>
-0.0000

> <Gold.Chemscore.Lipo.Weighted>
-8.9847

> <Gold.Chemscore.Internal_Hbond.Weighted>
0.0000

> <Gold.Chemscore.DEClash.Weighted>
0.5978

> <Gold.Chemscore.DEInternal.Weighted>
1.6735

> <Gold.Chemscore.Rot.Weighted>
4.4387

> <Gold.Chemscore.Internal.Correction.Weighted>
   9.000000E+99

> <Gold.Protein.RotatedTorsions>
[ 6907 6896 6895 6894 ] final  173.32 input  -60.11 | X-H torsion
[ 7974 7965 7964 7962 ] final -111.35 input  175.53 | X-H torsion
[ 8008 7997 7996 7995 ] final  -55.45 input   59.86 | X-H torsion
[ 10167 10162 10161 10158 ] final   95.02 input  -65.29 | X-H torsion
[ 10718 10713 10712 10709 ] final  166.14 input   66.30 | X-H torsion
[ 10763 10752 10751 10750 ] final   21.01 input  -60.55 | X-H torsion
[ 11005 11000 10999 10996 ] final -109.14 input  -57.11 | X-H torsion

> <Gold.Protein.ActiveResidues>
 VAL166  LYS551  ARG553  GLY616  TRP617  ASP618  TYR619  PRO620  LYS621  CYS622 
 ASP623  PHE694  ASN695  SER759  ASP760  ASP761  ALA762  ILE779  LEU786  VAL792 
 PHE793  MET794  SER795  GLU796  ALA797  LYS798  CYS799  TRP800  GLU811  SER814 

> <Gold.Protein.RotatedAtoms>
  151.7701  133.3340  159.3441 H   0  0  0  0  0  0  0  0  0  0  0  0  # atno 6907 bound_to 6896
  150.7465  134.6026  159.6054 H   0  0  0  0  0  0  0  0  0  0  0  0  # atno 6908 bound_to 6896
  152.3347  134.7215  160.0331 H   0  0  0  0  0  0  0  0  0  0  0  0  # atno 6909 bound_to 6896
  145.1572  140.8859  143.3612 H   0  0  0  0  0  0  0  0  0  0  0  0  # atno 7974 bound_to 7965
  154.4195  140.1152  156.5479 H   0  0  0  0  0  0  0  0  0  0  0  0  # atno 8008 bound_to 7997
  155.6440  140.3496  155.4706 H   0  0  0  0  0  0  0  0  0  0  0  0  # atno 8009 bound_to 7997
  155.9847  140.1167  157.0684 H   0  0  0  0  0  0  0  0  0  0  0  0  # atno 8010 bound_to 7997
  139.8028  144.6806  150.9742 H   0  0  0  0  0  0  0  0  0  0  0  0  # atno 10167 bound_to 10162
  157.0701  131.0364  151.2615 H   0  0  0  0  0  0  0  0  0  0  0  0  # atno 10718 bound_to 10713
  153.1030  135.6677  153.9637 H   0  0  0  0  0  0  0  0  0  0  0  0  # atno 10763 bound_to 10752
  153.9203  135.3015  155.3449 H   0  0  0  0  0  0  0  0  0  0  0  0  # atno 10764 bound_to 10752
  154.7451  135.5061  153.9266 H   0  0  0  0  0  0  0  0  0  0  0  0  # atno 10765 bound_to 10752
  141.0864  133.9132  157.2176 H   0  0  0  0  0  0  0  0  0  0  0  0  # atno 11005 bound_to 11000
  145.0369  139.3293  143.5996 LP  0  0  0  0  0  0  0  0  0  0  0  0  # atno 17320 bound_to 7965
  146.3487  139.9728  142.8704 LP  0  0  0  0  0  0  0  0  0  0  0  0  # atno 17321 bound_to 7965
  140.7820  143.4264  151.0762 LP  0  0  0  0  0  0  0  0  0  0  0  0  # atno 17342 bound_to 10162
  139.7935  143.8185  152.3154 LP  0  0  0  0  0  0  0  0  0  0  0  0  # atno 17343 bound_to 10162
  157.4885  130.7807  149.7484 LP  0  0  0  0  0  0  0  0  0  0  0  0  # atno 17370 bound_to 10713
  155.9953  130.3913  150.2825 LP  0  0  0  0  0  0  0  0  0  0  0  0  # atno 17371 bound_to 10713
  139.9683  135.0136  156.9444 LP  0  0  0  0  0  0  0  0  0  0  0  0  # atno 17394 bound_to 11000
  140.5354  134.0772  155.7327 LP  0  0  0  0  0  0  0  0  0  0  0  0  # atno 17395 bound_to 11000

$$$$
