AV-unprocessed.smi:1543|AV-procd|sdf|6206|dock5
  -GOLD-   22720 6373D 1   1.00000     0.00000
 Structure written by MMmdl.
 48 49  0  0  0  0  0  0  0  0  1 V2000
  151.7976  145.1368  159.0925 C   0  0  0  0  0  0  0  0  0  0  0  0
  151.6180  143.6400  159.3664 C   0  0  1  0  0  0  0  0  0  0  0  0
  151.0738  142.8851  158.1395 C   0  0  0  0  0  0  0  0  0  0  0  0
  150.9637  141.4428  158.3832 N   0  0  0  0  0  0  0  0  0  0  0  0
  150.3230  140.6683  157.2826 C   0  0  0  0  0  0  0  0  0  0  0  0
  148.8202  140.9954  157.1075 C   0  0  0  0  0  0  0  0  0  0  0  0
  151.0130  140.9565  155.9248 C   0  0  0  0  0  0  0  0  0  0  0  0
  150.4320  139.1323  157.5177 C   0  0  0  0  0  0  0  0  0  0  0  0
  149.4718  138.6371  158.5042 N   0  0  0  0  0  0  0  0  0  0  0  0
  149.4153  137.3884  158.9878 C   0  0  0  0  0  0  0  0  0  0  0  0
  150.1831  136.4897  158.6452 O   0  0  0  0  0  0  0  0  0  0  0  0
  148.4339  137.2695  159.8984 N   0  0  0  0  0  0  0  0  0  0  0  0
  148.0330  136.1195  160.6311 C   0  0  0  0  0  0  0  0  0  0  0  0
  147.9256  134.8174  160.0840 C   0  0  0  0  0  0  0  0  0  0  0  0
  147.4975  133.7645  160.9155 C   0  0  0  0  0  0  0  0  0  0  0  0
  147.1868  134.0510  162.2589 C   0  0  0  0  0  0  0  0  0  0  0  0
  147.2733  135.2884  162.7905 N   0  0  0  0  0  0  0  0  0  0  0  0
  147.6839  136.2930  161.9874 C   0  0  0  0  0  0  0  0  0  0  0  0
  152.2749  140.9410  158.8091 C   0  0  0  0  0  0  0  0  0  0  0  0
  152.8238  141.7049  160.0290 C   0  0  1  0  0  0  0  0  0  0  0  0
  154.2304  141.2381  160.4188 C   0  0  0  0  0  0  0  0  0  0  0  0
  152.8828  143.0945  159.7251 O   0  0  0  0  0  0  0  0  0  0  0  0
  150.8488  145.6031  158.8261 H   0  0  0  0  0  0  0  0  0  0  0  0
  152.4963  145.3070  158.2729 H   0  0  0  0  0  0  0  0  0  0  0  0
  152.1847  145.6502  159.9730 H   0  0  0  0  0  0  0  0  0  0  0  0
  150.9292  143.5191  160.2043 H   0  0  0  0  0  0  0  0  0  0  0  0
  150.1036  143.3117  157.8923 H   0  0  0  0  0  0  0  0  0  0  0  0
  151.7284  143.0733  157.2883 H   0  0  0  0  0  0  0  0  0  0  0  0
  148.3872  140.4155  156.2916 H   0  0  0  0  0  0  0  0  0  0  0  0
  148.6507  142.0450  156.8683 H   0  0  0  0  0  0  0  0  0  0  0  0
  148.2407  140.7609  158.0001 H   0  0  0  0  0  0  0  0  0  0  0  0
  150.6763  140.2664  155.1504 H   0  0  0  0  0  0  0  0  0  0  0  0
  152.0971  140.8614  155.9949 H   0  0  0  0  0  0  0  0  0  0  0  0
  150.7948  141.9577  155.5537 H   0  0  0  0  0  0  0  0  0  0  0  0
  150.2658  138.5837  156.5909 H   0  0  0  0  0  0  0  0  0  0  0  0
  151.4504  138.8664  157.8072 H   0  0  0  0  0  0  0  0  0  0  0  0
  148.8075  139.3098  158.8577 H   0  0  0  0  0  0  0  0  0  0  0  0
  147.9416  138.1200  160.1297 H   0  0  0  0  0  0  0  0  0  0  0  0
  148.1468  134.6060  159.0497 H   0  0  0  0  0  0  0  0  0  0  0  0
  147.4054  132.7596  160.5306 H   0  0  0  0  0  0  0  0  0  0  0  0
  146.8547  133.2665  162.9225 H   0  0  0  0  0  0  0  0  0  0  0  0
  147.7388  137.2695  162.4465 H   0  0  0  0  0  0  0  0  0  0  0  0
  152.2174  139.8876  159.0775 H   0  0  0  0  0  0  0  0  0  0  0  0
  152.9909  141.0208  157.9909 H   0  0  0  0  0  0  0  0  0  0  0  0
  152.1580  141.5575  160.8811 H   0  0  0  0  0  0  0  0  0  0  0  0
  154.2358  140.1781  160.6741 H   0  0  0  0  0  0  0  0  0  0  0  0
  154.5980  141.7901  161.2841 H   0  0  0  0  0  0  0  0  0  0  0  0
  154.9372  141.3894  159.6022 H   0  0  0  0  0  0  0  0  0  0  0  0
  1  2  1  0  0  0  0
  1 23  1  0  0  0  0
  1 24  1  0  0  0  0
  1 25  1  0  0  0  0
  2 22  1  0  0  0  0
  2  3  1  0  0  0  0
  2 26  1  0  0  0  0
  3  4  1  0  0  0  0
  3 27  1  0  0  0  0
  3 28  1  0  0  0  0
  4  5  1  0  0  0  0
  4 19  1  0  0  0  0
  5  6  1  0  0  0  0
  5  7  1  0  0  0  0
  5  8  1  0  0  0  0
  6 29  1  0  0  0  0
  6 30  1  0  0  0  0
  6 31  1  0  0  0  0
  7 32  1  0  0  0  0
  7 33  1  0  0  0  0
  7 34  1  0  0  0  0
  8  9  1  0  0  0  0
  8 35  1  0  0  0  0
  8 36  1  0  0  0  0
  9 10  1  0  0  0  0
  9 37  1  0  0  0  0
 10 11  2  0  0  0  0
 10 12  1  0  0  0  0
 12 13  1  0  0  0  0
 12 38  1  0  0  0  0
 13 18  1  0  0  0  0
 13 14  2  0  0  0  0
 14 15  1  0  0  0  0
 14 39  1  0  0  0  0
 15 16  2  0  0  0  0
 15 40  1  0  0  0  0
 16 17  1  0  0  0  0
 16 41  1  0  0  0  0
 17 18  2  0  0  0  0
 18 42  1  0  0  0  0
 19 20  1  0  0  0  0
 19 43  1  0  0  0  0
 19 44  1  0  0  0  0
 20 21  1  0  0  0  0
 20 22  1  0  0  0  0
 20 45  1  0  0  0  0
 21 46  1  0  0  0  0
 21 47  1  0  0  0  0
 21 48  1  0  0  0  0
M  END
> <s_m_source_file>
AV-unprocessed.smi

> <i_m_source_file_index>
1543

> <i_lp_mmshare_version>
43012

> <i_f3d_flags>
0

> <s_epik_input>
W0NIM11bQ0BASF0xW0NIMl1OKFtDSDJdW0NASF0oTzEpW0NIM10pQyhbQ0gzXSkoW0NIM10pW0NIMl1bTkhdQyg9TylbTkhdYzJbY0hdW2NIXVtjSF1uW2NIXTI=

> <s_epik_cmdline>
J2VwaWtfcHl0aG9uJywgJy1waCcsICc3LjAnLCAnLXRuJywgJzgnLCAnLW1hJywgJzIwMCcsICctbWV0YWxfYmluZGluZycsICctaW1hZScsICc8aW5maWxlLm1hZT4nLCAnLW9tYWUnLCAnPG91dGZpbGUubWFlPic=

> <r_epik_Ionization_Penalty>
0.270794

> <r_epik_Ionization_Penalty_Charging>
0

> <r_epik_Ionization_Penalty_Neutral>
0.270794

> <r_epik_State_Penalty>
0.268291

> <r_epik_Charging_Adjusted_Penalty>
0.268291

> <i_epik_Tot_Q>
0

> <i_epik_Tot_abs_Q>
0

> <r_epik_Metal_State_Penalty>
0.264827

> <b_epik_Metal_Only>
0

> <s_lp_Force_Field>
OPLS_2005

> <r_lp_Energy>
43.3582

> <b_lp_Chiralities_Consistent>
1

> <s_lp_Variant>
AV-unprocessed.smi:1543-2

> <Gold.Version>
5.8.1

> <Gold.Id.Protein>
6NUR|6NUR_protein|mol2

> <Gold.PLP.Fitness>
45.2346

> <Gold.PLP.PLP>
-43.6575

> <Gold.PLP.part.hbond>
-1.0000

> <Gold.PLP.part.metal>
0.0000

> <Gold.PLP.part.buried>
-7.8065

> <Gold.PLP.part.nonpolar>
-36.3966

> <Gold.PLP.part.repulsive>
1.1622

> <Gold.PLP.ligand.clash>
0.0000

> <Gold.PLP.ligand.torsion>
0.7444

> <Gold.PLP.Chemscore.Hbond>
1.0000

> <Gold.PLP.Chemscore.CHOScore>
0.0000

> <Gold.PLP.Chemscore.Metal>
0.0000

> <Gold.Chemscore.Hbonds>
donor molecule, donor type, donor heavy atom, donor atom, acceptor molecule, acceptor atom, score
      P1  H  6896  6907       L1    11  0.99

> <Gold.PLP.Chemscore.Internal.Correction>
0.0659

> <Gold.Rescore>
     Score         DG    S(hbond)    S(metal)    S(lipo)     H(rot)  DE(clash)    DE(int)     intcor
     17.53     -18.37       1.00        0.00     112.92       1.43       0.12       0.72       ----

> <Gold.Chemscore.Fitness>
17.5322

> <Gold.Chemscore.DG>
-18.3735

> <Gold.Chemscore.ZeroCoef>
-5.4800

> <Gold.Chemscore.Hbond>
1.0000

> <Gold.Chemscore.Metal>
0.0000

> <Gold.Chemscore.Lipo>
112.9233

> <Gold.Chemscore.Internal_Hbond>
0.0000

> <Gold.Chemscore.DEClash>
0.1185

> <Gold.Chemscore.DEInternal>
0.7228

> <Gold.Chemscore.Rot>
1.4291

> <Gold.Chemscore.Internal.Correction>
   9.000000E+99

> <Gold.Chemscore.Hbonds>
donor molecule, donor type, donor heavy atom, donor atom, acceptor molecule, acceptor atom, score
      P1  H  6896  6907       L1    11  0.92

> <Gold.Chemscore.Hbond.Weighted>
-3.3400

> <Gold.Chemscore.Metal.Weighted>
-0.0000

> <Gold.Chemscore.Lipo.Weighted>
-13.2120

> <Gold.Chemscore.Internal_Hbond.Weighted>
0.0000

> <Gold.Chemscore.DEClash.Weighted>
0.1185

> <Gold.Chemscore.DEInternal.Weighted>
0.7228

> <Gold.Chemscore.Rot.Weighted>
3.6586

> <Gold.Chemscore.Internal.Correction.Weighted>
   9.000000E+99

> <Gold.Protein.RotatedTorsions>
[ 6907 6896 6895 6894 ] final  -39.79 input  -60.11 | X-H torsion
[ 7974 7965 7964 7962 ] final   28.13 input  175.53 | X-H torsion
[ 8008 7997 7996 7995 ] final   76.43 input   59.86 | X-H torsion
[ 10167 10162 10161 10158 ] final   93.41 input  -65.29 | X-H torsion
[ 10718 10713 10712 10709 ] final -165.06 input   66.30 | X-H torsion
[ 10763 10752 10751 10750 ] final  -25.07 input  -60.55 | X-H torsion
[ 11005 11000 10999 10996 ] final -114.34 input  -57.11 | X-H torsion

> <Gold.Protein.ActiveResidues>
 VAL166  LYS551  ARG553  GLY616  TRP617  ASP618  TYR619  PRO620  LYS621  CYS622 
 ASP623  PHE694  ASN695  SER759  ASP760  ASP761  ALA762  ILE779  LEU786  VAL792 
 PHE793  MET794  SER795  GLU796  ALA797  LYS798  CYS799  TRP800  GLU811  SER814 

> <Gold.Protein.RotatedAtoms>
  150.9862  134.9206  159.7872 H   0  0  0  0  0  0  0  0  0  0  0  0  # atno 6907 bound_to 6896
  152.5237  134.3344  159.9204 H   0  0  0  0  0  0  0  0  0  0  0  0  # atno 6908 bound_to 6896
  151.3350  133.3944  159.2700 H   0  0  0  0  0  0  0  0  0  0  0  0  # atno 6909 bound_to 6896
  146.1746  139.7098  142.8943 H   0  0  0  0  0  0  0  0  0  0  0  0  # atno 7974 bound_to 7965
  155.8273  140.3467  155.5550 H   0  0  0  0  0  0  0  0  0  0  0  0  # atno 8008 bound_to 7997
  155.8279  140.0922  157.1830 H   0  0  0  0  0  0  0  0  0  0  0  0  # atno 8009 bound_to 7997
  154.4004  140.1417  156.3566 H   0  0  0  0  0  0  0  0  0  0  0  0  # atno 8010 bound_to 7997
  139.8182  144.6743  150.9552 H   0  0  0  0  0  0  0  0  0  0  0  0  # atno 10167 bound_to 10162
  156.6479  130.8995  151.3008 H   0  0  0  0  0  0  0  0  0  0  0  0  # atno 10718 bound_to 10713
  153.6939  135.6960  153.5082 H   0  0  0  0  0  0  0  0  0  0  0  0  # atno 10763 bound_to 10752
  153.2392  135.4311  155.0679 H   0  0  0  0  0  0  0  0  0  0  0  0  # atno 10764 bound_to 10752
  154.8364  135.3503  154.6480 H   0  0  0  0  0  0  0  0  0  0  0  0  # atno 10765 bound_to 10752
  141.0558  133.9615  157.2757 H   0  0  0  0  0  0  0  0  0  0  0  0  # atno 11005 bound_to 11000
  145.4247  141.0410  143.2944 LP  0  0  0  0  0  0  0  0  0  0  0  0  # atno 17320 bound_to 7965
  144.8216  139.5782  143.6984 LP  0  0  0  0  0  0  0  0  0  0  0  0  # atno 17321 bound_to 7965
  140.7814  143.4117  151.0982 LP  0  0  0  0  0  0  0  0  0  0  0  0  # atno 17342 bound_to 10162
  139.7779  143.8398  152.3132 LP  0  0  0  0  0  0  0  0  0  0  0  0  # atno 17343 bound_to 10162
  157.7150  130.9486  150.1223 LP  0  0  0  0  0  0  0  0  0  0  0  0  # atno 17370 bound_to 10713
  156.2107  130.3666  149.8673 LP  0  0  0  0  0  0  0  0  0  0  0  0  # atno 17371 bound_to 10713
  139.9389  135.0193  156.8644 LP  0  0  0  0  0  0  0  0  0  0  0  0  # atno 17394 bound_to 11000
  140.5967  134.0210  155.7521 LP  0  0  0  0  0  0  0  0  0  0  0  0  # atno 17395 bound_to 11000

$$$$
