AV-unprocessed.smi:548|AV-procd|sdf|2891|dock1
  -GOLD-   2262023383D 1   1.00000     0.00000
 Structure written by MMmdl.
 24 24  0  0  0  0  0  0  0  0  2 V2000
  150.5837  137.6385  158.1578 C   0  0  0  0  0  0  0  0  0  0  0  0
  151.9012  138.4477  158.0702 C   0  0  0  0  0  0  0  0  0  0  0  0
  152.6915  138.2580  159.3883 C   0  0  0  0  0  0  0  0  0  0  0  0
  152.7512  137.8943  156.8916 C   0  0  0  0  0  0  0  0  0  0  0  0
  153.0868  138.6902  155.9856 O   0  0  0  0  0  0  0  0  0  0  0  0
  153.0272  136.6731  156.8897 O   0  5  0  0  0  0  0  0  0  0  0  0
  151.5846  139.9467  157.8589 C   0  0  0  0  0  0  0  0  0  0  0  0
  150.9031  140.4720  156.7286 C   0  0  0  0  0  0  0  0  0  0  0  0
  150.6684  141.8578  156.6407 C   0  0  0  0  0  0  0  0  0  0  0  0
  151.1213  142.6844  157.6855 C   0  0  0  0  0  0  0  0  0  0  0  0
  150.9074  144.0595  157.6337 N   0  0  0  0  0  0  0  0  0  0  0  0
  151.7700  142.2109  158.7671 N   0  0  0  0  0  0  0  0  0  0  0  0
  151.9903  140.8810  158.8421 C   0  0  0  0  0  0  0  0  0  0  0  0
  149.9489  137.8027  157.2861 H   0  0  0  0  0  0  0  0  0  0  0  0
  149.9978  137.9131  159.0350 H   0  0  0  0  0  0  0  0  0  0  0  0
  150.7772  136.5671  158.2296 H   0  0  0  0  0  0  0  0  0  0  0  0
  153.5928  138.8725  159.4120 H   0  0  0  0  0  0  0  0  0  0  0  0
  152.9950  137.2192  159.5261 H   0  0  0  0  0  0  0  0  0  0  0  0
  152.0964  138.5317  160.2594 H   0  0  0  0  0  0  0  0  0  0  0  0
  150.5507  139.8497  155.9204 H   0  0  0  0  0  0  0  0  0  0  0  0
  150.1514  142.2709  155.7872 H   0  0  0  0  0  0  0  0  0  0  0  0
  150.4289  144.4902  156.8561 H   0  0  0  0  0  0  0  0  0  0  0  0
  151.2237  144.6673  158.3752 H   0  0  0  0  0  0  0  0  0  0  0  0
  152.5138  140.5557  159.7285 H   0  0  0  0  0  0  0  0  0  0  0  0
  1  2  1  0  0  0  0
  1 14  1  0  0  0  0
  1 15  1  0  0  0  0
  1 16  1  0  0  0  0
  2  3  1  0  0  0  0
  2  4  1  0  0  0  0
  2  7  1  0  0  0  0
  3 17  1  0  0  0  0
  3 18  1  0  0  0  0
  3 19  1  0  0  0  0
  4  5  2  0  0  0  0
  4  6  1  0  0  0  0
  7 13  1  0  0  0  0
  7  8  2  0  0  0  0
  8  9  1  0  0  0  0
  8 20  1  0  0  0  0
  9 10  2  0  0  0  0
  9 21  1  0  0  0  0
 10 11  1  0  0  0  0
 10 12  1  0  0  0  0
 11 22  1  0  0  0  0
 11 23  1  0  0  0  0
 12 13  2  0  0  0  0
 13 24  1  0  0  0  0
M  CHG  1   6  -1
M  END
> <s_m_source_file>
AV-unprocessed.smi

> <i_m_source_file_index>
548

> <i_lp_mmshare_version>
43012

> <i_f3d_flags>
0

> <s_epik_input>
Tz1DKFtPSF0pQyhbQ0gzXSkoW0NIM10pYzFbY0hdW2NIXWMoW05IMl0pbltjSF0x

> <s_epik_cmdline>
J2VwaWtfcHl0aG9uJywgJy1waCcsICc3LjAnLCAnLXRuJywgJzgnLCAnLW1hJywgJzIwMCcsICctbWV0YWxfYmluZGluZycsICctaW1hZScsICc8aW5maWxlLm1hZT4nLCAnLW9tYWUnLCAnPG91dGZpbGUubWFlPic=

> <r_lp_tautomer_probability>
1

> <r_epik_Ionization_Penalty>
1.52711

> <r_epik_Ionization_Penalty_Charging>
0.000624596

> <r_epik_Ionization_Penalty_Neutral>
1.52649

> <r_epik_State_Penalty>
1.61852

> <r_epik_Charging_Adjusted_Penalty>
1.61914

> <i_epik_Tot_Q>
-1

> <i_epik_Tot_abs_Q>
1

> <r_epik_Metal_State_Penalty>
0.00844734

> <b_epik_Metal_Only>
0

> <s_lp_Force_Field>
OPLS_2005

> <r_lp_Energy>
9.30736

> <b_lp_Chiralities_Consistent>
1

> <s_lp_Variant>
AV-unprocessed.smi:548-2

> <Gold.Version>
5.8.1

> <Gold.Id.Protein>
6NUR|6NUR_protein|mol2

> <Gold.PLP.Fitness>
34.7528

> <Gold.PLP.PLP>
-19.8428

> <Gold.PLP.part.hbond>
-3.0000

> <Gold.PLP.part.metal>
0.0000

> <Gold.PLP.part.buried>
-4.7099

> <Gold.PLP.part.nonpolar>
-12.9435

> <Gold.PLP.part.repulsive>
0.0257

> <Gold.PLP.ligand.clash>
0.0000

> <Gold.PLP.ligand.torsion>
0.0373

> <Gold.PLP.Chemscore.Hbond>
4.9920

> <Gold.PLP.Chemscore.CHOScore>
0.0000

> <Gold.PLP.Chemscore.Metal>
0.0000

> <Gold.Chemscore.Hbonds>
donor molecule, donor type, donor heavy atom, donor atom, acceptor molecule, acceptor atom, score
      L1  H    11    22       P1  8028  1.00
      P1  H  7997  8009       L1     5  2.00
      P1  H 10752 10763       L1     6  1.72

> <Gold.PLP.Chemscore.Internal.Correction>
0.0087

> <Gold.Rescore>
     Score         DG    S(hbond)    S(metal)    S(lipo)     H(rot)  DE(clash)    DE(int)     intcor
     15.26     -15.61       2.86        0.00      37.20       1.48       0.00       0.34       ----

> <Gold.Chemscore.Fitness>
15.2627

> <Gold.Chemscore.DG>
-15.6070

> <Gold.Chemscore.ZeroCoef>
-5.4800

> <Gold.Chemscore.Hbond>
2.8603

> <Gold.Chemscore.Metal>
0.0000

> <Gold.Chemscore.Lipo>
37.2022

> <Gold.Chemscore.Internal_Hbond>
0.0000

> <Gold.Chemscore.DEClash>
0.0000

> <Gold.Chemscore.DEInternal>
0.3444

> <Gold.Chemscore.Rot>
1.4762

> <Gold.Chemscore.Internal.Correction>
   9.000000E+99

> <Gold.Chemscore.Hbonds>
donor molecule, donor type, donor heavy atom, donor atom, acceptor molecule, acceptor atom, score
      L1  H    11    22       P1  8028  0.88
      P1  H  7997  8009       L1     5  0.96
      P1  H 10752 10763       L1     6  0.81

> <Gold.Chemscore.Hbond.Weighted>
-9.5534

> <Gold.Chemscore.Metal.Weighted>
-0.0000

> <Gold.Chemscore.Lipo.Weighted>
-4.3527

> <Gold.Chemscore.Internal_Hbond.Weighted>
0.0000

> <Gold.Chemscore.DEClash.Weighted>
0.0000

> <Gold.Chemscore.DEInternal.Weighted>
0.3444

> <Gold.Chemscore.Rot.Weighted>
3.7790

> <Gold.Chemscore.Internal.Correction.Weighted>
   9.000000E+99

> <Gold.Protein.RotatedTorsions>
[ 6907 6896 6895 6894 ] final -128.17 input  -60.11 | X-H torsion
[ 7974 7965 7964 7962 ] final -133.18 input  175.53 | X-H torsion
[ 8008 7997 7996 7995 ] final -154.68 input   59.86 | X-H torsion
[ 10167 10162 10161 10158 ] final  -24.91 input  -65.29 | X-H torsion
[ 10718 10713 10712 10709 ] final  171.37 input   66.30 | X-H torsion
[ 10763 10752 10751 10750 ] final  120.98 input  -60.55 | X-H torsion
[ 11005 11000 10999 10996 ] final  160.15 input  -57.11 | X-H torsion

> <Gold.Protein.ActiveResidues>
 VAL166  LYS551  ARG553  GLY616  TRP617  ASP618  TYR619  PRO620  LYS621  CYS622 
 ASP623  PHE694  ASN695  SER759  ASP760  ASP761  ALA762  ILE779  LEU786  VAL792 
 PHE793  MET794  SER795  GLU796  ALA797  LYS798  CYS799  TRP800  GLU811  SER814 

> <Gold.Protein.RotatedAtoms>
  150.9150  133.6950  159.2845 H   0  0  0  0  0  0  0  0  0  0  0  0  # atno 6907 bound_to 6896
  151.4424  135.1020  159.9683 H   0  0  0  0  0  0  0  0  0  0  0  0  # atno 6908 bound_to 6896
  152.4950  133.8555  159.7279 H   0  0  0  0  0  0  0  0  0  0  0  0  # atno 6909 bound_to 6896
  144.9217  140.7022  143.4961 H   0  0  0  0  0  0  0  0  0  0  0  0  # atno 7974 bound_to 7965
  155.6902  140.0754  157.2451 H   0  0  0  0  0  0  0  0  0  0  0  0  # atno 8008 bound_to 7997
  154.4090  140.1666  156.2130 H   0  0  0  0  0  0  0  0  0  0  0  0  # atno 8009 bound_to 7997
  155.9459  140.3381  155.6369 H   0  0  0  0  0  0  0  0  0  0  0  0  # atno 8010 bound_to 7997
  140.7287  143.4311  151.0800 H   0  0  0  0  0  0  0  0  0  0  0  0  # atno 10167 bound_to 10162
  156.9945  131.0158  151.2847 H   0  0  0  0  0  0  0  0  0  0  0  0  # atno 10718 bound_to 10713
  153.6070  135.3437  155.2965 H   0  0  0  0  0  0  0  0  0  0  0  0  # atno 10763 bound_to 10752
  154.8625  135.4241  154.2351 H   0  0  0  0  0  0  0  0  0  0  0  0  # atno 10764 bound_to 10752
  153.3192  135.7037  153.7117 H   0  0  0  0  0  0  0  0  0  0  0  0  # atno 10765 bound_to 10752
  140.2031  134.8323  157.3039 H   0  0  0  0  0  0  0  0  0  0  0  0  # atno 11005 bound_to 11000
  145.3286  139.1766  143.4549 LP  0  0  0  0  0  0  0  0  0  0  0  0  # atno 17320 bound_to 7965
  146.3207  140.3312  142.8640 LP  0  0  0  0  0  0  0  0  0  0  0  0  # atno 17321 bound_to 7965
  139.7968  143.8139  152.3158 LP  0  0  0  0  0  0  0  0  0  0  0  0  # atno 17342 bound_to 10162
  139.8142  144.7323  150.9656 LP  0  0  0  0  0  0  0  0  0  0  0  0  # atno 17343 bound_to 10162
  157.5435  130.8135  149.8057 LP  0  0  0  0  0  0  0  0  0  0  0  0  # atno 17370 bound_to 10713
  156.0194  130.3801  150.2008 LP  0  0  0  0  0  0  0  0  0  0  0  0  # atno 17371 bound_to 10713
  140.2033  134.4228  155.7651 LP  0  0  0  0  0  0  0  0  0  0  0  0  # atno 17394 bound_to 11000
  141.2227  133.7082  156.8219 LP  0  0  0  0  0  0  0  0  0  0  0  0  # atno 17395 bound_to 11000

$$$$
