AV-unprocessed.smi:914|AV-procd|sdf|4153|dock3
  -GOLD-   22720 2 53D 1   1.00000     0.00000
 Structure written by MMmdl.
 32 33  0  0  0  0  0  0  0  0  2 V2000
  150.5636  134.8813  155.5874 O   0  0  0  0  0  0  0  0  0  0  0  0
  150.8795  136.0704  155.5853 C   0  0  0  0  0  0  0  0  0  0  0  0
  152.1541  136.4944  155.8288 N   0  5  0  0  0  0  0  0  0  0  0  0
  152.5262  137.8119  155.8250 C   0  0  0  0  0  0  0  0  0  0  0  0
  153.6828  138.1674  156.0521 O   0  0  0  0  0  0  0  0  0  0  0  0
  151.5804  138.7614  155.5576 N   0  0  0  0  0  0  0  0  0  0  0  0
  151.8829  140.1996  155.5307 C   0  0  0  0  0  0  0  0  0  0  0  0
  150.7784  141.0268  156.2070 C   0  0  0  0  0  0  0  0  0  0  0  0
  150.6558  140.6404  157.5652 O   0  0  0  0  0  0  0  0  0  0  0  0
  151.7499  141.0609  158.3607 C   0  0  0  0  0  0  0  0  0  0  0  0
  151.4585  142.4688  158.8930 C   0  0  1  0  0  0  0  0  0  0  0  0
  152.4958  142.9744  159.8916 C   0  0  0  0  0  0  0  0  0  0  0  0
  152.2899  144.4704  159.8108 C   0  0  0  0  0  0  0  0  0  0  0  0
  151.9662  144.6800  158.3320 C   0  0  0  0  0  0  0  0  0  0  0  0
  151.5187  143.4204  157.8361 O   0  0  0  0  0  0  0  0  0  0  0  0
  150.2517  138.3783  155.3092 C   0  0  0  0  0  0  0  0  0  0  0  0
  149.8661  137.0876  155.3127 C   0  0  0  0  0  0  0  0  0  0  0  0
  148.2239  136.6471  155.0063 Cl  0  0  0  0  0  0  0  0  0  0  0  0
  152.8483  140.4196  155.9891 H   0  0  0  0  0  0  0  0  0  0  0  0
  151.9853  140.5201  154.4930 H   0  0  0  0  0  0  0  0  0  0  0  0
  151.0311  142.0866  156.1508 H   0  0  0  0  0  0  0  0  0  0  0  0
  149.8294  140.8917  155.6858 H   0  0  0  0  0  0  0  0  0  0  0  0
  151.8705  140.3656  159.1931 H   0  0  0  0  0  0  0  0  0  0  0  0
  152.6789  141.0558  157.7884 H   0  0  0  0  0  0  0  0  0  0  0  0
  150.4684  142.5092  159.3508 H   0  0  0  0  0  0  0  0  0  0  0  0
  152.3494  142.5765  160.8962 H   0  0  0  0  0  0  0  0  0  0  0  0
  153.5037  142.7169  159.5626 H   0  0  0  0  0  0  0  0  0  0  0  0
  151.4362  144.7607  160.4246 H   0  0  0  0  0  0  0  0  0  0  0  0
  153.1575  145.0412  160.1426 H   0  0  0  0  0  0  0  0  0  0  0  0
  151.2076  145.4497  158.1883 H   0  0  0  0  0  0  0  0  0  0  0  0
  152.8567  144.9750  157.7763 H   0  0  0  0  0  0  0  0  0  0  0  0
  149.5702  139.1952  155.1218 H   0  0  0  0  0  0  0  0  0  0  0  0
  1  2  2  0  0  0  0
  2 17  1  0  0  0  0
  2  3  1  0  0  0  0
  3  4  1  0  0  0  0
  4  5  2  0  0  0  0
  4  6  1  0  0  0  0
  6  7  1  0  0  0  0
  6 16  1  0  0  0  0
  7  8  1  0  0  0  0
  7 19  1  0  0  0  0
  7 20  1  0  0  0  0
  8  9  1  0  0  0  0
  8 21  1  0  0  0  0
  8 22  1  0  0  0  0
  9 10  1  0  0  0  0
 10 11  1  0  0  0  0
 10 23  1  0  0  0  0
 10 24  1  0  0  0  0
 11 15  1  0  0  0  0
 11 12  1  0  0  0  0
 11 25  1  0  0  0  0
 12 13  1  0  0  0  0
 12 26  1  0  0  0  0
 12 27  1  0  0  0  0
 13 14  1  0  0  0  0
 13 28  1  0  0  0  0
 13 29  1  0  0  0  0
 14 15  1  0  0  0  0
 14 30  1  0  0  0  0
 14 31  1  0  0  0  0
 16 17  2  0  0  0  0
 16 32  1  0  0  0  0
 17 18  1  0  0  0  0
M  CHG  1   3  -1
M  END
> <s_m_source_file>
AV-unprocessed.smi

> <i_m_source_file_index>
914

> <i_lp_mmshare_version>
43012

> <i_f3d_flags>
0

> <s_epik_input>
Tz1jMVtuSF1jKD1PKW4oW2NIXWMxQ2wpW0NIMl1bQ0gyXU9bQ0gyXVtDQEBIXTJbQ0gyXVtDSDJdW0NIMl1PMg==

> <s_epik_cmdline>
J2VwaWtfcHl0aG9uJywgJy1waCcsICc3LjAnLCAnLXRuJywgJzgnLCAnLW1hJywgJzIwMCcsICctbWV0YWxfYmluZGluZycsICctaW1hZScsICc8aW5maWxlLm1hZT4nLCAnLW9tYWUnLCAnPG91dGZpbGUubWFlPic=

> <r_epik_Ionization_Penalty>
1.76812

> <r_epik_Ionization_Penalty_Charging>
1.60097e-08

> <r_epik_Ionization_Penalty_Neutral>
1.76812

> <r_epik_State_Penalty>
1.87929

> <r_epik_Charging_Adjusted_Penalty>
1.87929

> <i_epik_Tot_Q>
-1

> <i_epik_Tot_abs_Q>
1

> <r_epik_Metal_State_Penalty>
0.0133872

> <b_epik_Metal_Only>
0

> <s_lp_Force_Field>
OPLS_2005

> <r_lp_Energy>
30.6138

> <b_lp_Chiralities_Consistent>
1

> <s_lp_Variant>
AV-unprocessed.smi:914-4

> <Gold.Version>
5.8.1

> <Gold.Id.Protein>
6NUR|6NUR_protein|mol2

> <Gold.PLP.Fitness>
39.1688

> <Gold.PLP.PLP>
-32.1640

> <Gold.PLP.part.hbond>
-2.0000

> <Gold.PLP.part.metal>
0.0000

> <Gold.PLP.part.buried>
-3.2469

> <Gold.PLP.part.nonpolar>
-27.3068

> <Gold.PLP.part.repulsive>
0.2061

> <Gold.PLP.ligand.clash>
0.0000

> <Gold.PLP.ligand.torsion>
0.4989

> <Gold.PLP.Chemscore.Hbond>
2.6560

> <Gold.PLP.Chemscore.CHOScore>
0.0000

> <Gold.PLP.Chemscore.Metal>
0.0000

> <Gold.Chemscore.Hbonds>
donor molecule, donor type, donor heavy atom, donor atom, acceptor molecule, acceptor atom, score
      P1  H  7997  8010       L1     5  0.62
      P1  H 10752 10764       L1     3  2.00

> <Gold.PLP.Chemscore.Internal.Correction>
0.0345

> <Gold.Rescore>
     Score         DG    S(hbond)    S(metal)    S(lipo)     H(rot)  DE(clash)    DE(int)     intcor
     11.73     -13.30       1.31        0.00      74.81       2.07       0.02       1.55       ----

> <Gold.Chemscore.Fitness>
11.7311

> <Gold.Chemscore.DG>
-13.3039

> <Gold.Chemscore.ZeroCoef>
-5.4800

> <Gold.Chemscore.Hbond>
1.3066

> <Gold.Chemscore.Metal>
0.0000

> <Gold.Chemscore.Lipo>
74.8144

> <Gold.Chemscore.Internal_Hbond>
0.0000

> <Gold.Chemscore.DEClash>
0.0179

> <Gold.Chemscore.DEInternal>
1.5549

> <Gold.Chemscore.Rot>
2.0678

> <Gold.Chemscore.Internal.Correction>
   9.000000E+99

> <Gold.Chemscore.Hbonds>
donor molecule, donor type, donor heavy atom, donor atom, acceptor molecule, acceptor atom, score
      P1  H  7997  8010       L1     5  0.58
      P1  H 10752 10764       L1     3  0.40

> <Gold.Chemscore.Hbond.Weighted>
-4.3641

> <Gold.Chemscore.Metal.Weighted>
-0.0000

> <Gold.Chemscore.Lipo.Weighted>
-8.7533

> <Gold.Chemscore.Internal_Hbond.Weighted>
0.0000

> <Gold.Chemscore.DEClash.Weighted>
0.0179

> <Gold.Chemscore.DEInternal.Weighted>
1.5549

> <Gold.Chemscore.Rot.Weighted>
5.2935

> <Gold.Chemscore.Internal.Correction.Weighted>
   9.000000E+99

> <Gold.Protein.RotatedTorsions>
[ 6907 6896 6895 6894 ] final   31.72 input  -60.11 | X-H torsion
[ 7974 7965 7964 7962 ] final  105.91 input  175.53 | X-H torsion
[ 8008 7997 7996 7995 ] final   76.83 input   59.86 | X-H torsion
[ 10167 10162 10161 10158 ] final  -13.33 input  -65.29 | X-H torsion
[ 10718 10713 10712 10709 ] final  -61.92 input   66.30 | X-H torsion
[ 10763 10752 10751 10750 ] final  -38.85 input  -60.55 | X-H torsion
[ 11005 11000 10999 10996 ] final  105.28 input  -57.11 | X-H torsion

> <Gold.Protein.ActiveResidues>
 VAL166  LYS551  ARG553  GLY616  TRP617  ASP618  TYR619  PRO620  LYS621  CYS622 
 ASP623  PHE694  ASN695  SER759  ASP760  ASP761  ALA762  ILE779  LEU786  VAL792 
 PHE793  MET794  SER795  GLU796  ALA797  LYS798  CYS799  TRP800  GLU811  SER814 

> <Gold.Protein.RotatedAtoms>
  152.0643  134.9574  160.0574 H   0  0  0  0  0  0  0  0  0  0  0  0  # atno 6907 bound_to 6896
  152.0926  133.4203  159.4559 H   0  0  0  0  0  0  0  0  0  0  0  0  # atno 6908 bound_to 6896
  150.6837  134.2774  159.4656 H   0  0  0  0  0  0  0  0  0  0  0  0  # atno 6909 bound_to 6896
  145.3135  139.2533  143.3750 H   0  0  0  0  0  0  0  0  0  0  0  0  # atno 7974 bound_to 7965
  155.8330  140.3465  155.5584 H   0  0  0  0  0  0  0  0  0  0  0  0  # atno 8008 bound_to 7997
  155.8222  140.0914  157.1862 H   0  0  0  0  0  0  0  0  0  0  0  0  # atno 8009 bound_to 7997
  154.4004  140.1428  156.3501 H   0  0  0  0  0  0  0  0  0  0  0  0  # atno 8010 bound_to 7997
  140.7180  143.5438  150.9379 H   0  0  0  0  0  0  0  0  0  0  0  0  # atno 10167 bound_to 10162
  156.0890  130.4203  150.1061 H   0  0  0  0  0  0  0  0  0  0  0  0  # atno 10718 bound_to 10713
  153.9197  135.6783  153.4748 H   0  0  0  0  0  0  0  0  0  0  0  0  # atno 10763 bound_to 10752
  153.1035  135.4817  154.8906 H   0  0  0  0  0  0  0  0  0  0  0  0  # atno 10764 bound_to 10752
  154.7484  135.3178  154.8558 H   0  0  0  0  0  0  0  0  0  0  0  0  # atno 10765 bound_to 10752
  139.8800  134.9330  156.5490 H   0  0  0  0  0  0  0  0  0  0  0  0  # atno 11005 bound_to 11000
  146.3109  140.3676  142.8671 LP  0  0  0  0  0  0  0  0  0  0  0  0  # atno 17320 bound_to 7965
  144.8997  140.7627  143.5875 LP  0  0  0  0  0  0  0  0  0  0  0  0  # atno 17321 bound_to 7965
  139.9161  143.6662  152.3106 LP  0  0  0  0  0  0  0  0  0  0  0  0  # atno 17342 bound_to 10162
  139.7062  144.7627  151.1189 LP  0  0  0  0  0  0  0  0  0  0  0  0  # atno 17343 bound_to 10162
  156.9076  130.9641  151.3567 LP  0  0  0  0  0  0  0  0  0  0  0  0  # atno 17370 bound_to 10713
  157.6033  130.8528  149.8836 LP  0  0  0  0  0  0  0  0  0  0  0  0  # atno 17371 bound_to 10713
  140.8254  133.8320  155.8934 LP  0  0  0  0  0  0  0  0  0  0  0  0  # atno 17394 bound_to 11000
  140.9379  134.1939  157.4818 LP  0  0  0  0  0  0  0  0  0  0  0  0  # atno 17395 bound_to 11000

$$$$
