AV-unprocessed.smi:346|AV-procd|sdf|2393|dock2
  -GOLD-   2262022323D 1   1.00000     0.00000
 Structure written by MMmdl.
 34 35  0  0  0  0  0  0  0  0  2 V2000
  150.5462  136.9466  154.8189 C   0  0  0  0  0  0  0  0  0  0  0  0
  151.8891  137.3962  154.8533 O   0  0  0  0  0  0  0  0  0  0  0  0
  151.9889  138.7947  155.0675 C   0  0  0  0  0  0  0  0  0  0  0  0
  151.4916  139.1474  156.4764 C   0  0  0  0  0  0  0  0  0  0  0  0
  151.0340  140.5419  156.5750 N   0  0  0  0  0  0  0  0  0  0  0  0
  150.1781  141.2475  155.7841 C   0  0  0  0  0  0  0  0  0  0  0  0
  149.3488  140.6615  154.3461 S   0  0  0  0  0  0  0  0  0  0  0  0
  147.7856  139.9928  154.9730 C   0  0  0  0  0  0  0  0  0  0  0  0
  146.5783  140.5123  154.1976 C   0  0  0  0  0  0  0  0  0  0  0  0
  145.8332  139.6093  153.5550 N   0  0  0  0  0  0  0  0  0  0  0  0
  146.3224  141.7140  154.1763 O   0  0  0  0  0  0  0  0  0  0  0  0
  150.0672  142.5001  156.3040 N   0  3  0  0  0  0  0  0  0  0  0  0
  150.8630  142.6009  157.4466 C   0  0  0  0  0  0  0  0  0  0  0  0
  151.0793  143.6669  158.3142 C   0  0  0  0  0  0  0  0  0  0  0  0
  151.9506  143.4362  159.3994 C   0  0  0  0  0  0  0  0  0  0  0  0
  152.2646  144.7117  160.5174 Cl  0  0  0  0  0  0  0  0  0  0  0  0
  152.5684  142.1825  159.5876 C   0  0  0  0  0  0  0  0  0  0  0  0
  152.3452  141.1096  158.7000 C   0  0  0  0  0  0  0  0  0  0  0  0
  151.4837  141.3468  157.6291 C   0  0  0  0  0  0  0  0  0  0  0  0
  150.5252  135.8697  154.6521 H   0  0  0  0  0  0  0  0  0  0  0  0
  149.9910  137.4239  154.0103 H   0  0  0  0  0  0  0  0  0  0  0  0
  150.0374  137.1515  155.7618 H   0  0  0  0  0  0  0  0  0  0  0  0
  153.0251  139.1162  154.9521 H   0  0  0  0  0  0  0  0  0  0  0  0
  151.3977  139.3286  154.3217 H   0  0  0  0  0  0  0  0  0  0  0  0
  150.6865  138.4814  156.7866 H   0  0  0  0  0  0  0  0  0  0  0  0
  152.2965  139.0075  157.1975 H   0  0  0  0  0  0  0  0  0  0  0  0
  147.8184  138.9046  154.9106 H   0  0  0  0  0  0  0  0  0  0  0  0
  147.6785  140.2460  156.0279 H   0  0  0  0  0  0  0  0  0  0  0  0
  145.0255  139.9034  153.0254 H   0  0  0  0  0  0  0  0  0  0  0  0
  146.0834  138.6319  153.5991 H   0  0  0  0  0  0  0  0  0  0  0  0
  150.6048  144.6269  158.1716 H   0  0  0  0  0  0  0  0  0  0  0  0
  153.2276  142.0385  160.4316 H   0  0  0  0  0  0  0  0  0  0  0  0
  152.8205  140.1531  158.8589 H   0  0  0  0  0  0  0  0  0  0  0  0
  149.4880  143.2281  155.9056 H   0  0  0  0  0  0  0  0  0  0  0  0
  1  2  1  0  0  0  0
  1 20  1  0  0  0  0
  1 21  1  0  0  0  0
  1 22  1  0  0  0  0
  2  3  1  0  0  0  0
  3  4  1  0  0  0  0
  3 23  1  0  0  0  0
  3 24  1  0  0  0  0
  4  5  1  0  0  0  0
  4 25  1  0  0  0  0
  4 26  1  0  0  0  0
  5 19  1  0  0  0  0
  5  6  1  0  0  0  0
  6  7  1  0  0  0  0
  6 12  2  0  0  0  0
  7  8  1  0  0  0  0
  8  9  1  0  0  0  0
  8 27  1  0  0  0  0
  8 28  1  0  0  0  0
  9 10  1  0  0  0  0
  9 11  2  0  0  0  0
 10 29  1  0  0  0  0
 10 30  1  0  0  0  0
 12 13  1  0  0  0  0
 12 34  1  0  0  0  0
 13 19  2  0  0  0  0
 13 14  1  0  0  0  0
 14 15  2  0  0  0  0
 14 31  1  0  0  0  0
 15 16  1  0  0  0  0
 15 17  1  0  0  0  0
 17 18  2  0  0  0  0
 17 32  1  0  0  0  0
 18 19  1  0  0  0  0
 18 33  1  0  0  0  0
M  CHG  1  12   1
M  END
> <s_m_source_file>
AV-unprocessed.smi

> <i_m_source_file_index>
346

> <i_lp_mmshare_version>
43012

> <i_f3d_flags>
0

> <s_epik_input>
W2NIXTFjKENsKVtjSF1bY0hdYyhjMTIpbihbQ0gyXVtDSDJdT1tDSDNdKWMobjIpU1tDSDJdQyg9TylbTkgyXQ==

> <s_epik_cmdline>
J2VwaWtfcHl0aG9uJywgJy1waCcsICc3LjAnLCAnLXRuJywgJzgnLCAnLW1hJywgJzIwMCcsICctbWV0YWxfYmluZGluZycsICctaW1hZScsICc8aW5maWxlLm1hZT4nLCAnLW9tYWUnLCAnPG91dGZpbGUubWFlPic=

> <r_epik_Ionization_Penalty>
2.55352

> <r_epik_Ionization_Penalty_Charging>
2.55352

> <r_epik_Ionization_Penalty_Neutral>
3.318e-07

> <r_epik_State_Penalty>
2.72228

> <r_epik_Charging_Adjusted_Penalty>
5.2758

> <i_epik_Tot_Q>
1

> <i_epik_Tot_abs_Q>
1

> <r_epik_Metal_State_Penalty>
2.73053

> <b_epik_Metal_Only>
0

> <s_lp_Force_Field>
OPLS_2005

> <r_lp_Energy>
7.77785

> <b_lp_Chiralities_Consistent>
1

> <s_lp_Variant>
AV-unprocessed.smi:346-2

> <Gold.Version>
5.8.1

> <Gold.Id.Protein>
6NUR|6NUR_protein|mol2

> <Gold.PLP.Fitness>
47.9327

> <Gold.PLP.PLP>
-38.3481

> <Gold.PLP.part.hbond>
-3.0000

> <Gold.PLP.part.metal>
0.0000

> <Gold.PLP.part.buried>
-5.4666

> <Gold.PLP.part.nonpolar>
-32.3702

> <Gold.PLP.part.repulsive>
0.3783

> <Gold.PLP.ligand.clash>
0.0000

> <Gold.PLP.ligand.torsion>
0.9762

> <Gold.PLP.Chemscore.Hbond>
3.8008

> <Gold.PLP.Chemscore.CHOScore>
0.0000

> <Gold.PLP.Chemscore.Metal>
0.0000

> <Gold.Chemscore.Hbonds>
donor molecule, donor type, donor heavy atom, donor atom, acceptor molecule, acceptor atom, score
      L1  H    10    29       P1 10175  1.00
      L1  H    12    34       P1  8028  2.00
      P1  H 10752 10765       L1     2  0.81

> <Gold.PLP.Chemscore.Internal.Correction>
0.1347

> <Gold.Rescore>
     Score         DG    S(hbond)    S(metal)    S(lipo)     H(rot)  DE(clash)    DE(int)     intcor
     17.69     -18.84       2.72        0.00      96.86       2.75       0.02       1.13       ----

> <Gold.Chemscore.Fitness>
17.6869

> <Gold.Chemscore.DG>
-18.8379

> <Gold.Chemscore.ZeroCoef>
-5.4800

> <Gold.Chemscore.Hbond>
2.7169

> <Gold.Chemscore.Metal>
0.0000

> <Gold.Chemscore.Lipo>
96.8630

> <Gold.Chemscore.Internal_Hbond>
0.0000

> <Gold.Chemscore.DEClash>
0.0177

> <Gold.Chemscore.DEInternal>
1.1333

> <Gold.Chemscore.Rot>
2.7537

> <Gold.Chemscore.Internal.Correction>
   9.000000E+99

> <Gold.Chemscore.Hbonds>
donor molecule, donor type, donor heavy atom, donor atom, acceptor molecule, acceptor atom, score
      L1  H    10    29       P1 10175  0.96
      L1  H    12    34       P1  8028  0.99
      P1  H 10752 10765       L1     2  0.27

> <Gold.Chemscore.Hbond.Weighted>
-9.0745

> <Gold.Chemscore.Metal.Weighted>
-0.0000

> <Gold.Chemscore.Lipo.Weighted>
-11.3330

> <Gold.Chemscore.Internal_Hbond.Weighted>
0.0000

> <Gold.Chemscore.DEClash.Weighted>
0.0177

> <Gold.Chemscore.DEInternal.Weighted>
1.1333

> <Gold.Chemscore.Rot.Weighted>
7.0496

> <Gold.Chemscore.Internal.Correction.Weighted>
   9.000000E+99

> <Gold.Protein.RotatedTorsions>
[ 6907 6896 6895 6894 ] final  -79.00 input  -60.11 | X-H torsion
[ 7974 7965 7964 7962 ] final   55.31 input  175.53 | X-H torsion
[ 8008 7997 7996 7995 ] final  129.80 input   59.86 | X-H torsion
[ 10167 10162 10161 10158 ] final  -34.91 input  -65.29 | X-H torsion
[ 10718 10713 10712 10709 ] final   59.99 input   66.30 | X-H torsion
[ 10763 10752 10751 10750 ] final  169.55 input  -60.55 | X-H torsion
[ 11005 11000 10999 10996 ] final  121.32 input  -57.11 | X-H torsion

> <Gold.Protein.ActiveResidues>
 VAL166  LYS551  ARG553  GLY616  TRP617  ASP618  TYR619  PRO620  LYS621  CYS622 
 ASP623  PHE694  ASN695  SER759  ASP760  ASP761  ALA762  ILE779  LEU786  VAL792 
 PHE793  MET794  SER795  GLU796  ALA797  LYS798  CYS799  TRP800  GLU811  SER814 

> <Gold.Protein.RotatedAtoms>
  150.6959  134.4187  159.5194 H   0  0  0  0  0  0  0  0  0  0  0  0  # atno 6907 bound_to 6896
  152.1934  134.8649  160.0524 H   0  0  0  0  0  0  0  0  0  0  0  0  # atno 6908 bound_to 6896
  151.9596  133.3656  159.4067 H   0  0  0  0  0  0  0  0  0  0  0  0  # atno 6909 bound_to 6896
  145.9517  139.3978  143.0302 H   0  0  0  0  0  0  0  0  0  0  0  0  # atno 7974 bound_to 7965
  156.2943  140.2611  156.2658 H   0  0  0  0  0  0  0  0  0  0  0  0  # atno 8008 bound_to 7997
  154.9744  140.0390  157.2267 H   0  0  0  0  0  0  0  0  0  0  0  0  # atno 8009 bound_to 7997
  154.7829  140.2798  155.6054 H   0  0  0  0  0  0  0  0  0  0  0  0  # atno 8010 bound_to 7997
  140.7176  143.3515  151.2147 H   0  0  0  0  0  0  0  0  0  0  0  0  # atno 10167 bound_to 10162
  157.5719  130.8914  149.9281 H   0  0  0  0  0  0  0  0  0  0  0  0  # atno 10718 bound_to 10713
  154.3848  135.2753  155.2190 H   0  0  0  0  0  0  0  0  0  0  0  0  # atno 10763 bound_to 10752
  154.4281  135.5984  153.6055 H   0  0  0  0  0  0  0  0  0  0  0  0  # atno 10764 bound_to 10752
  152.9833  135.5989  154.4095 H   0  0  0  0  0  0  0  0  0  0  0  0  # atno 10765 bound_to 10752
  139.9221  134.9638  156.7940 H   0  0  0  0  0  0  0  0  0  0  0  0  # atno 11005 bound_to 11000
  145.8162  140.9702  143.0923 LP  0  0  0  0  0  0  0  0  0  0  0  0  # atno 17320 bound_to 7965
  144.6797  139.9983  143.7484 LP  0  0  0  0  0  0  0  0  0  0  0  0  # atno 17321 bound_to 7965
  139.7046  143.9476  152.2921 LP  0  0  0  0  0  0  0  0  0  0  0  0  # atno 17342 bound_to 10162
  139.9181  144.6816  150.8491 LP  0  0  0  0  0  0  0  0  0  0  0  0  # atno 17343 bound_to 10162
  156.0764  130.3678  150.0669 LP  0  0  0  0  0  0  0  0  0  0  0  0  # atno 17370 bound_to 10713
  156.8821  130.9560  151.3598 LP  0  0  0  0  0  0  0  0  0  0  0  0  # atno 17371 bound_to 10713
  140.6444  133.9789  155.7723 LP  0  0  0  0  0  0  0  0  0  0  0  0  # atno 17394 bound_to 11000
  141.0750  134.0148  157.3471 LP  0  0  0  0  0  0  0  0  0  0  0  0  # atno 17395 bound_to 11000

$$$$
