AV-unprocessed.smi:3195|AV-procd|sdf|12213|dock3
  -GOLD-   2272018 53D 1   1.00000     0.00000
 Structure written by MMmdl.
 30 31  0  0  0  0  0  0  0  0  1 V2000
  149.3732  140.7578  155.0895 C   0  0  0  0  0  0  0  0  0  0  0  0
  150.4812  139.8305  155.6175 C   0  0  1  0  0  0  0  0  0  0  0  0
  151.3397  140.5632  156.6711 C   0  0  0  0  0  0  0  0  0  0  0  0
  152.4776  140.1538  156.9054 O   0  0  0  0  0  0  0  0  0  0  0  0
  150.7759  141.6216  157.2849 N   0  0  0  0  0  0  0  0  0  0  0  0
  151.3316  142.4755  158.2769 C   0  0  0  0  0  0  0  0  0  0  0  0
  151.7247  142.0340  159.4981 N   0  0  0  0  0  0  0  0  0  0  0  0
  152.2422  142.9099  160.3843 C   0  0  0  0  0  0  0  0  0  0  0  0
  152.4012  144.2796  160.1088 C   0  0  0  0  0  0  0  0  0  0  0  0
  151.9994  144.7519  158.8472 C   0  0  0  0  0  0  0  0  0  0  0  0
  151.4577  143.8418  157.9173 C   0  0  0  0  0  0  0  0  0  0  0  0
  151.0649  144.2950  156.6880 O   0  0  0  0  0  0  0  0  0  0  0  0
  149.9114  138.5015  156.1675 C   0  0  0  0  0  0  0  0  0  0  0  0
  150.4150  137.4438  155.2019 C   0  0  0  0  0  0  0  0  0  0  0  0
  151.6717  138.0845  154.6364 C   0  0  0  0  0  0  0  0  0  0  0  0
  151.2926  139.4459  154.5020 O   0  0  0  0  0  0  0  0  0  0  0  0
  148.6876  141.0562  155.8836 H   0  0  0  0  0  0  0  0  0  0  0  0
  148.7851  140.2624  154.3165 H   0  0  0  0  0  0  0  0  0  0  0  0
  149.7905  141.6655  154.6515 H   0  0  0  0  0  0  0  0  0  0  0  0
  149.8323  141.8460  157.0031 H   0  0  0  0  0  0  0  0  0  0  0  0
  152.5381  142.5058  161.3411 H   0  0  0  0  0  0  0  0  0  0  0  0
  152.8202  144.9484  160.8459 H   0  0  0  0  0  0  0  0  0  0  0  0
  152.1055  145.7975  158.5981 H   0  0  0  0  0  0  0  0  0  0  0  0
  150.1716  144.6034  156.6741 H   0  0  0  0  0  0  0  0  0  0  0  0
  150.2858  138.2817  157.1689 H   0  0  0  0  0  0  0  0  0  0  0  0
  148.8224  138.4992  156.2282 H   0  0  0  0  0  0  0  0  0  0  0  0
  150.6042  136.4823  155.6798 H   0  0  0  0  0  0  0  0  0  0  0  0
  149.6867  137.2919  154.4041 H   0  0  0  0  0  0  0  0  0  0  0  0
  152.5047  137.9970  155.3359 H   0  0  0  0  0  0  0  0  0  0  0  0
  151.9738  137.6539  153.6818 H   0  0  0  0  0  0  0  0  0  0  0  0
  1  2  1  0  0  0  0
  1 17  1  0  0  0  0
  1 18  1  0  0  0  0
  1 19  1  0  0  0  0
  2 16  1  0  0  0  0
  2  3  1  0  0  0  0
  2 13  1  0  0  0  0
  3  4  2  0  0  0  0
  3  5  1  0  0  0  0
  5  6  1  0  0  0  0
  5 20  1  0  0  0  0
  6 11  1  0  0  0  0
  6  7  2  0  0  0  0
  7  8  1  0  0  0  0
  8  9  2  0  0  0  0
  8 21  1  0  0  0  0
  9 10  1  0  0  0  0
  9 22  1  0  0  0  0
 10 11  2  0  0  0  0
 10 23  1  0  0  0  0
 11 12  1  0  0  0  0
 12 24  1  0  0  0  0
 13 14  1  0  0  0  0
 13 25  1  0  0  0  0
 13 26  1  0  0  0  0
 14 15  1  0  0  0  0
 14 27  1  0  0  0  0
 14 28  1  0  0  0  0
 15 16  1  0  0  0  0
 15 29  1  0  0  0  0
 15 30  1  0  0  0  0
M  END
> <s_m_source_file>
AV-unprocessed.smi

> <i_m_source_file_index>
3195

> <i_lp_mmshare_version>
43012

> <i_f3d_flags>
0

> <s_epik_input>
TzFbQ0gyXVtDSDJdW0NIMl1bQ0BAXTEoW0NIM10pQyg9TylbTkhdYzJuW2NIXVtjSF1bY0hdYzJbT0hd

> <s_epik_cmdline>
J2VwaWtfcHl0aG9uJywgJy1waCcsICc3LjAnLCAnLXRuJywgJzgnLCAnLW1hJywgJzIwMCcsICctbWV0YWxfYmluZGluZycsICctaW1hZScsICc8aW5maWxlLm1hZT4nLCAnLW9tYWUnLCAnPG91dGZpbGUubWFlPic=

> <r_lp_tautomer_probability>
0.43658

> <r_epik_Ionization_Penalty>
0.0203228

> <r_epik_Ionization_Penalty_Charging>
0

> <r_epik_Ionization_Penalty_Neutral>
0.0203228

> <r_epik_State_Penalty>
0.430346

> <r_epik_Charging_Adjusted_Penalty>
0.430346

> <i_epik_Tot_Q>
0

> <i_epik_Tot_abs_Q>
0

> <r_epik_Metal_State_Penalty>
0.387439

> <b_epik_Metal_Only>
0

> <s_lp_Force_Field>
OPLS_2005

> <r_lp_Energy>
21.434

> <b_lp_Chiralities_Consistent>
1

> <s_lp_Variant>
AV-unprocessed.smi:3195-1

> <Gold.Version>
5.8.1

> <Gold.Id.Protein>
6NUR|6NUR_protein|mol2

> <Gold.PLP.Fitness>
40.3027

> <Gold.PLP.PLP>
-34.2625

> <Gold.PLP.part.hbond>
-3.0000

> <Gold.PLP.part.metal>
0.0000

> <Gold.PLP.part.buried>
-3.3011

> <Gold.PLP.part.nonpolar>
-28.4381

> <Gold.PLP.part.repulsive>
0.1739

> <Gold.PLP.ligand.clash>
0.1914

> <Gold.PLP.ligand.torsion>
1.4001

> <Gold.PLP.Chemscore.Hbond>
3.0000

> <Gold.PLP.Chemscore.CHOScore>
0.0000

> <Gold.PLP.Chemscore.Metal>
0.0000

> <Gold.Chemscore.Hbonds>
donor molecule, donor type, donor heavy atom, donor atom, acceptor molecule, acceptor atom, score
      L1  H    12    24       P1  8028  0.83
      P1  H  7989  7998       L1    16  1.00
      P1  H  7997  8008       L1     4  1.00

> <Gold.PLP.Chemscore.Internal.Correction>
0.0318

> <Gold.Rescore>
     Score         DG    S(hbond)    S(metal)    S(lipo)     H(rot)  DE(clash)    DE(int)     intcor
     20.13     -20.92       2.90        0.00      81.20       1.46       0.12       0.67       ----

> <Gold.Chemscore.Fitness>
20.1310

> <Gold.Chemscore.DG>
-20.9199

> <Gold.Chemscore.ZeroCoef>
-5.4800

> <Gold.Chemscore.Hbond>
2.8994

> <Gold.Chemscore.Metal>
0.0000

> <Gold.Chemscore.Lipo>
81.1956

> <Gold.Chemscore.Internal_Hbond>
0.0000

> <Gold.Chemscore.DEClash>
0.1212

> <Gold.Chemscore.DEInternal>
0.6677

> <Gold.Chemscore.Rot>
1.4625

> <Gold.Chemscore.Internal.Correction>
   9.000000E+99

> <Gold.Chemscore.Hbonds>
donor molecule, donor type, donor heavy atom, donor atom, acceptor molecule, acceptor atom, score
      L1  H    12    24       P1  8028  0.69
      P1  H  7989  7998       L1    16  0.74
      P1  H  7997  8008       L1     4  0.94

> <Gold.Chemscore.Hbond.Weighted>
-9.6841

> <Gold.Chemscore.Metal.Weighted>
-0.0000

> <Gold.Chemscore.Lipo.Weighted>
-9.4999

> <Gold.Chemscore.Internal_Hbond.Weighted>
0.0000

> <Gold.Chemscore.DEClash.Weighted>
0.1212

> <Gold.Chemscore.DEInternal.Weighted>
0.6677

> <Gold.Chemscore.Rot.Weighted>
3.7440

> <Gold.Chemscore.Internal.Correction.Weighted>
   9.000000E+99

> <Gold.Protein.RotatedTorsions>
[ 6907 6896 6895 6894 ] final -164.92 input  -60.11 | X-H torsion
[ 7974 7965 7964 7962 ] final -106.67 input  175.53 | X-H torsion
[ 8008 7997 7996 7995 ] final  -65.36 input   59.86 | X-H torsion
[ 10167 10162 10161 10158 ] final -101.30 input  -65.29 | X-H torsion
[ 10718 10713 10712 10709 ] final   35.06 input   66.30 | X-H torsion
[ 10763 10752 10751 10750 ] final  -29.73 input  -60.55 | X-H torsion
[ 11005 11000 10999 10996 ] final   87.74 input  -57.11 | X-H torsion

> <Gold.Protein.ActiveResidues>
 VAL166  LYS551  ARG553  GLY616  TRP617  ASP618  TYR619  PRO620  LYS621  CYS622 
 ASP623  PHE694  ASN695  SER759  ASP760  ASP761  ALA762  ILE779  LEU786  VAL792 
 PHE793  MET794  SER795  GLU796  ALA797  LYS798  CYS799  TRP800  GLU811  SER814 

> <Gold.Protein.RotatedAtoms>
  151.4195  133.3702  159.2754 H   0  0  0  0  0  0  0  0  0  0  0  0  # atno 6907 bound_to 6896
  150.9304  134.8720  159.7558 H   0  0  0  0  0  0  0  0  0  0  0  0  # atno 6908 bound_to 6896
  152.5025  134.4139  159.9510 H   0  0  0  0  0  0  0  0  0  0  0  0  # atno 6909 bound_to 6896
  145.2149  140.9111  143.3293 H   0  0  0  0  0  0  0  0  0  0  0  0  # atno 7974 bound_to 7965
  154.4667  140.0935  156.7038 H   0  0  0  0  0  0  0  0  0  0  0  0  # atno 8008 bound_to 7997
  155.4838  140.3468  155.4325 H   0  0  0  0  0  0  0  0  0  0  0  0  # atno 8009 bound_to 7997
  156.0968  140.1411  156.9508 H   0  0  0  0  0  0  0  0  0  0  0  0  # atno 8010 bound_to 7997
  140.2428  143.3527  152.0786 H   0  0  0  0  0  0  0  0  0  0  0  0  # atno 10167 bound_to 10162
  157.3180  130.7433  149.6767 H   0  0  0  0  0  0  0  0  0  0  0  0  # atno 10718 bound_to 10713
  153.7694  135.6913  153.4909 H   0  0  0  0  0  0  0  0  0  0  0  0  # atno 10763 bound_to 10752
  153.1885  135.4480  155.0118 H   0  0  0  0  0  0  0  0  0  0  0  0  # atno 10764 bound_to 10752
  154.8123  135.3383  154.7204 H   0  0  0  0  0  0  0  0  0  0  0  0  # atno 10765 bound_to 10752
  139.8912  134.8442  156.2902 H   0  0  0  0  0  0  0  0  0  0  0  0  # atno 11005 bound_to 11000
  144.9820  139.3773  143.6257 LP  0  0  0  0  0  0  0  0  0  0  0  0  # atno 17320 bound_to 7965
  146.3389  139.8965  142.8801 LP  0  0  0  0  0  0  0  0  0  0  0  0  # atno 17321 bound_to 7965
  139.5072  144.6827  151.5967 LP  0  0  0  0  0  0  0  0  0  0  0  0  # atno 17342 bound_to 10162
  140.6101  143.9452  150.6447 LP  0  0  0  0  0  0  0  0  0  0  0  0  # atno 17343 bound_to 10162
  155.9683  130.4231  150.4548 LP  0  0  0  0  0  0  0  0  0  0  0  0  # atno 17370 bound_to 10713
  157.2559  131.0556  151.2350 LP  0  0  0  0  0  0  0  0  0  0  0  0  # atno 17371 bound_to 10713
  140.9981  133.7168  156.0917 LP  0  0  0  0  0  0  0  0  0  0  0  0  # atno 17394 bound_to 11000
  140.7535  134.4019  157.5537 LP  0  0  0  0  0  0  0  0  0  0  0  0  # atno 17395 bound_to 11000

$$$$
