AV-unprocessed.smi:3280|AV-procd|sdf|12554|dock6
  -GOLD-   2272018473D 1   1.00000     0.00000
 Structure written by MMmdl.
 38 39  0  0  0  0  0  0  0  0  1 V2000
  148.5014  136.2295  155.5541 C   0  0  0  0  0  0  0  0  0  0  0  0
  149.9154  136.4256  154.9877 C   0  0  0  0  0  0  0  0  0  0  0  0
  150.9633  135.5345  155.6713 C   0  0  0  0  0  0  0  0  0  0  0  0
  150.3194  137.8682  154.9984 C   0  0  0  0  0  0  0  0  0  0  0  0
  151.4777  138.2627  154.4820 N   0  0  0  0  0  0  0  0  0  0  0  0
  151.4596  139.6526  154.6657 O   0  0  0  0  0  0  0  0  0  0  0  0
  150.2904  139.9274  155.2921 C   0  0  0  0  0  0  0  0  0  0  0  0
  149.9453  141.3491  155.5839 C   0  0  0  0  0  0  0  0  0  0  0  0
  151.0330  142.0512  156.4065 C   0  0  0  0  0  0  0  0  0  0  0  0
  150.4145  142.9358  157.3845 N   0  0  0  0  0  0  0  0  0  0  0  0
  151.3910  143.4905  158.3156 C   0  0  2  0  0  0  0  0  0  0  0  0
  151.8587  142.4169  159.3251 C   0  0  0  0  0  0  0  0  0  0  0  0
  152.8938  142.9587  160.3243 C   0  0  0  0  0  0  0  0  0  0  0  0
  152.3456  144.1144  161.1720 C   0  0  0  0  0  0  0  0  0  0  0  0
  151.8908  145.5284  160.1330 S   0  0  0  0  0  0  0  0  0  0  0  0
  150.7268  144.6824  159.0292 C   0  0  0  0  0  0  0  0  0  0  0  0
  149.5323  138.8561  155.5102 N   0  0  0  0  0  0  0  0  0  0  0  0
  147.7722  136.8230  155.0014 H   0  0  0  0  0  0  0  0  0  0  0  0
  148.4482  136.5276  156.6018 H   0  0  0  0  0  0  0  0  0  0  0  0
  148.1940  135.1855  155.4901 H   0  0  0  0  0  0  0  0  0  0  0  0
  149.8754  136.1075  153.9445 H   0  0  0  0  0  0  0  0  0  0  0  0
  151.9406  135.6463  155.2003 H   0  0  0  0  0  0  0  0  0  0  0  0
  150.6846  134.4824  155.6077 H   0  0  0  0  0  0  0  0  0  0  0  0
  151.0711  135.7856  156.7270 H   0  0  0  0  0  0  0  0  0  0  0  0
  149.7891  141.8698  154.6382 H   0  0  0  0  0  0  0  0  0  0  0  0
  148.9938  141.3724  156.1170 H   0  0  0  0  0  0  0  0  0  0  0  0
  151.6533  141.3058  156.9033 H   0  0  0  0  0  0  0  0  0  0  0  0
  151.6796  142.6290  155.7448 H   0  0  0  0  0  0  0  0  0  0  0  0
  149.9644  143.6946  156.8924 H   0  0  0  0  0  0  0  0  0  0  0  0
  152.2461  143.8654  157.7508 H   0  0  0  0  0  0  0  0  0  0  0  0
  151.0009  142.0193  159.8692 H   0  0  0  0  0  0  0  0  0  0  0  0
  152.3061  141.5710  158.8044 H   0  0  0  0  0  0  0  0  0  0  0  0
  153.2120  142.1504  160.9834 H   0  0  0  0  0  0  0  0  0  0  0  0
  153.7865  143.2850  159.7895 H   0  0  0  0  0  0  0  0  0  0  0  0
  151.4704  143.7907  161.7364 H   0  0  0  0  0  0  0  0  0  0  0  0
  153.0925  144.4389  161.8968 H   0  0  0  0  0  0  0  0  0  0  0  0
  150.3614  145.4096  158.3030 H   0  0  0  0  0  0  0  0  0  0  0  0
  149.8660  144.3533  159.6129 H   0  0  0  0  0  0  0  0  0  0  0  0
  1  2  1  0  0  0  0
  1 18  1  0  0  0  0
  1 19  1  0  0  0  0
  1 20  1  0  0  0  0
  2  3  1  0  0  0  0
  2  4  1  0  0  0  0
  2 21  1  0  0  0  0
  3 22  1  0  0  0  0
  3 23  1  0  0  0  0
  3 24  1  0  0  0  0
  4 17  1  0  0  0  0
  4  5  2  0  0  0  0
  5  6  1  0  0  0  0
  6  7  1  0  0  0  0
  7  8  1  0  0  0  0
  7 17  2  0  0  0  0
  8  9  1  0  0  0  0
  8 25  1  0  0  0  0
  8 26  1  0  0  0  0
  9 10  1  0  0  0  0
  9 27  1  0  0  0  0
  9 28  1  0  0  0  0
 10 11  1  0  0  0  0
 10 29  1  0  0  0  0
 11 16  1  0  0  0  0
 11 12  1  0  0  0  0
 11 30  1  0  0  0  0
 12 13  1  0  0  0  0
 12 31  1  0  0  0  0
 12 32  1  0  0  0  0
 13 14  1  0  0  0  0
 13 33  1  0  0  0  0
 13 34  1  0  0  0  0
 14 15  1  0  0  0  0
 14 35  1  0  0  0  0
 14 36  1  0  0  0  0
 15 16  1  0  0  0  0
 16 37  1  0  0  0  0
 16 38  1  0  0  0  0
M  END
> <s_m_source_file>
AV-unprocessed.smi

> <i_m_source_file_index>
3280

> <i_lp_mmshare_version>
43012

> <i_f3d_flags>
0

> <s_epik_input>
W0NIM11bQ0hdKFtDSDNdKWMxbm9jKG4xKVtDSDJdW0NIMl1bTkhdW0NAQEhdMltDSDJdW0NIMl1bQ0gyXVNbQ0gyXTI=

> <s_epik_cmdline>
J2VwaWtfcHl0aG9uJywgJy1waCcsICc3LjAnLCAnLXRuJywgJzgnLCAnLW1hJywgJzIwMCcsICctbWV0YWxfYmluZGluZycsICctaW1hZScsICc8aW5maWxlLm1hZT4nLCAnLW9tYWUnLCAnPG91dGZpbGUubWFlPic=

> <r_lp_tautomer_probability>
1

> <r_epik_Ionization_Penalty>
2.40576

> <r_epik_Ionization_Penalty_Charging>
0

> <r_epik_Ionization_Penalty_Neutral>
2.40576

> <r_epik_State_Penalty>
2.56401

> <r_epik_Charging_Adjusted_Penalty>
2.56401

> <i_epik_Tot_Q>
0

> <i_epik_Tot_abs_Q>
0

> <r_epik_Metal_State_Penalty>
2.56401

> <b_epik_Metal_Only>
0

> <s_lp_Force_Field>
OPLS_2005

> <r_lp_Energy>
1.17925

> <b_lp_Chiralities_Consistent>
1

> <s_lp_Variant>
AV-unprocessed.smi:3280-3

> <Gold.Version>
5.8.1

> <Gold.Id.Protein>
6NUR|6NUR_protein|mol2

> <Gold.PLP.Fitness>
41.2126

> <Gold.PLP.PLP>
-36.0362

> <Gold.PLP.part.hbond>
-2.0000

> <Gold.PLP.part.metal>
0.0000

> <Gold.PLP.part.buried>
-6.7340

> <Gold.PLP.part.nonpolar>
-28.1871

> <Gold.PLP.part.repulsive>
0.2637

> <Gold.PLP.ligand.clash>
0.0000

> <Gold.PLP.ligand.torsion>
0.4615

> <Gold.PLP.Chemscore.Hbond>
2.0000

> <Gold.PLP.Chemscore.CHOScore>
0.0000

> <Gold.PLP.Chemscore.Metal>
0.0000

> <Gold.Chemscore.Hbonds>
donor molecule, donor type, donor heavy atom, donor atom, acceptor molecule, acceptor atom, score
      L1  H    10    29       P1  8028  1.00
      P1  H  7989  7998       L1     6  1.00

> <Gold.PLP.Chemscore.Internal.Correction>
0.0993

> <Gold.Rescore>
     Score         DG    S(hbond)    S(metal)    S(lipo)     H(rot)  DE(clash)    DE(int)     intcor
     18.13     -18.63       1.97        0.00      93.04       1.68       0.02       0.47       ----

> <Gold.Chemscore.Fitness>
18.1338

> <Gold.Chemscore.DG>
-18.6255

> <Gold.Chemscore.ZeroCoef>
-5.4800

> <Gold.Chemscore.Hbond>
1.9668

> <Gold.Chemscore.Metal>
0.0000

> <Gold.Chemscore.Lipo>
93.0375

> <Gold.Chemscore.Internal_Hbond>
0.0000

> <Gold.Chemscore.DEClash>
0.0186

> <Gold.Chemscore.DEInternal>
0.4731

> <Gold.Chemscore.Rot>
1.6833

> <Gold.Chemscore.Internal.Correction>
   9.000000E+99

> <Gold.Chemscore.Hbonds>
donor molecule, donor type, donor heavy atom, donor atom, acceptor molecule, acceptor atom, score
      L1  H    10    29       P1  8028  0.99
      P1  H  7989  7998       L1     6  0.55

> <Gold.Chemscore.Hbond.Weighted>
-6.5693

> <Gold.Chemscore.Metal.Weighted>
-0.0000

> <Gold.Chemscore.Lipo.Weighted>
-10.8854

> <Gold.Chemscore.Internal_Hbond.Weighted>
0.0000

> <Gold.Chemscore.DEClash.Weighted>
0.0186

> <Gold.Chemscore.DEInternal.Weighted>
0.4731

> <Gold.Chemscore.Rot.Weighted>
4.3092

> <Gold.Chemscore.Internal.Correction.Weighted>
   9.000000E+99

> <Gold.Protein.RotatedTorsions>
[ 6907 6896 6895 6894 ] final -123.38 input  -60.11 | X-H torsion
[ 7974 7965 7964 7962 ] final  100.74 input  175.53 | X-H torsion
[ 8008 7997 7996 7995 ] final -103.16 input   59.86 | X-H torsion
[ 10167 10162 10161 10158 ] final -122.34 input  -65.29 | X-H torsion
[ 10718 10713 10712 10709 ] final  -39.31 input   66.30 | X-H torsion
[ 10763 10752 10751 10750 ] final    4.46 input  -60.55 | X-H torsion
[ 11005 11000 10999 10996 ] final  138.48 input  -57.11 | X-H torsion

> <Gold.Protein.ActiveResidues>
 VAL166  LYS551  ARG553  GLY616  TRP617  ASP618  TYR619  PRO620  LYS621  CYS622 
 ASP623  PHE694  ASN695  SER759  ASP760  ASP761  ALA762  ILE779  LEU786  VAL792 
 PHE793  MET794  SER795  GLU796  ALA797  LYS798  CYS799  TRP800  GLU811  SER814 

> <Gold.Protein.RotatedAtoms>
  150.8666  133.7566  159.2974 H   0  0  0  0  0  0  0  0  0  0  0  0  # atno 6907 bound_to 6896
  151.5191  135.1065  159.9883 H   0  0  0  0  0  0  0  0  0  0  0  0  # atno 6908 bound_to 6896
  152.4665  133.7890  159.6947 H   0  0  0  0  0  0  0  0  0  0  0  0  # atno 6909 bound_to 6896
  145.3816  139.2379  143.3400 H   0  0  0  0  0  0  0  0  0  0  0  0  # atno 7974 bound_to 7965
  154.8669  140.0424  157.1700 H   0  0  0  0  0  0  0  0  0  0  0  0  # atno 8008 bound_to 7997
  154.8780  140.2968  155.5421 H   0  0  0  0  0  0  0  0  0  0  0  0  # atno 8009 bound_to 7997
  156.2999  140.2416  156.3778 H   0  0  0  0  0  0  0  0  0  0  0  0  # atno 8010 bound_to 7997
  140.0153  143.5400  152.2245 H   0  0  0  0  0  0  0  0  0  0  0  0  # atno 10167 bound_to 10162
  156.2939  130.4231  149.8211 H   0  0  0  0  0  0  0  0  0  0  0  0  # atno 10718 bound_to 10713
  153.2710  135.6932  153.7481 H   0  0  0  0  0  0  0  0  0  0  0  0  # atno 10763 bound_to 10752
  153.6504  135.3377  155.3099 H   0  0  0  0  0  0  0  0  0  0  0  0  # atno 10764 bound_to 10752
  154.8464  135.4453  154.1732 H   0  0  0  0  0  0  0  0  0  0  0  0  # atno 10765 bound_to 10752
  140.0187  134.9406  157.0429 H   0  0  0  0  0  0  0  0  0  0  0  0  # atno 11005 bound_to 11000
  146.2839  140.4484  142.8765 LP  0  0  0  0  0  0  0  0  0  0  0  0  # atno 17320 bound_to 7965
  144.8504  140.6992  143.6172 LP  0  0  0  0  0  0  0  0  0  0  0  0  # atno 17321 bound_to 7965
  139.6177  144.7623  151.2810 LP  0  0  0  0  0  0  0  0  0  0  0  0  # atno 17342 bound_to 10162
  140.7365  143.6706  150.8085 LP  0  0  0  0  0  0  0  0  0  0  0  0  # atno 17343 bound_to 10162
  156.5614  130.8385  151.3330 LP  0  0  0  0  0  0  0  0  0  0  0  0  # atno 17370 bound_to 10713
  157.7350  130.9755  150.2058 LP  0  0  0  0  0  0  0  0  0  0  0  0  # atno 17371 bound_to 10713
  140.4426  134.1665  155.7175 LP  0  0  0  0  0  0  0  0  0  0  0  0  # atno 17394 bound_to 11000
  141.1759  133.8514  157.1421 LP  0  0  0  0  0  0  0  0  0  0  0  0  # atno 17395 bound_to 11000

$$$$
