#       Name:                AV-unprocessed.smi:1605
#       Creating user name   scv26
#       Creation time:       Fri Mar 27 07:10:56 2020


#       File generated by GOLD software.
#

@<TRIPOS>MOLECULE
AV-unprocessed.smi:1605
    56    58     1
SMALL
NO_CHARGES


@<TRIPOS>ATOM
      1 ****        -5.7615   4.6598   1.6252 C.3            1 S1                 0.0000
      2 ****        -4.3732   4.3892   1.7444 O.3            1 S1                 0.0000
      3 ****        -4.0434   3.0065   1.7429 C.3            1 S1                 0.0000
      4 ****        -2.6265   2.8636   2.3176 C.3            1 S1                 0.0000
      5 ****        -2.1487   1.4032   2.2641 C.3            1 S1                 0.0000
      6 ****        -2.1921   0.8783   0.8734 N.4            1 S1                 1.0000
      7 ****        -1.6217  -0.4872   0.7385 C.3            1 S1                 0.0000
      8 ****        -0.0797  -0.4974   0.7548 C.3            1 S1                 0.0000
      9 ****         0.3873   0.2315  -0.3635 O.3            1 S1                 0.0000
     10 ****         0.4749  -1.9354   0.7063 C.3            1 S1                 0.0000
     11 ****         1.9441  -1.9915   0.7440 N.pl3          1 S1                 0.0000
     12 ****         2.7854  -2.0140   1.8139 C.2            1 S1                 0.0000
     13 ****         4.0582  -2.0828   1.3351 N.pl3          1 S1                 1.0000
     14 ****         4.0310  -2.1060  -0.0608 C.ar           1 S1                 0.0000
     15 ****         5.0625  -2.1706  -0.9901 C.ar           1 S1                 0.0000
     16 ****         4.7008  -2.1744  -2.3561 C.ar           1 S1                 0.0000
     17 ****         5.8041  -2.2429  -3.3983 C.3            1 S1                 0.0000
     18 ****         3.3390  -2.1165  -2.7505 C.ar           1 S1                 0.0000
     19 ****         2.9607  -2.1176  -4.2219 C.3            1 S1                 0.0000
     20 ****         2.3046  -2.0538  -1.7898 C.ar           1 S1                 0.0000
     21 ****         2.6778  -2.0490  -0.4477 C.ar           1 S1                 0.0000
     22 ****        -3.5591   0.9751   0.2992 C.3            1 S1                 0.0000
     23 ****        -4.0722   2.4249   0.3173 C.3            1 S1                 0.0000
     24 ****        -5.9260   5.7361   1.6749 H              1 S1                 0.0000
     25 ****        -6.3257   4.1987   2.4368 H              1 S1                 0.0000
     26 ****        -6.1644   4.3094   0.6753 H              1 S1                 0.0000
     27 ****        -4.7352   2.4576   2.3849 H              1 S1                 0.0000
     28 ****        -1.9347   3.4936   1.7562 H              1 S1                 0.0000
     29 ****        -2.6052   3.2225   3.3472 H              1 S1                 0.0000
     30 ****        -1.1356   1.3504   2.6604 H              1 S1                 0.0000
     31 ****        -2.7720   0.7819   2.9094 H              1 S1                 0.0000
     32 ****        -2.0187  -1.1222   1.5322 H              1 S1                 0.0000
     33 ****        -1.9558  -0.9331  -0.2000 H              1 S1                 0.0000
     34 ****         0.2975  -0.0138   1.6553 H              1 S1                 0.0000
     35 ****         1.3325   0.2394  -0.3443 H              1 S1                 0.0000
     36 ****         0.1144  -2.4974   1.5690 H              1 S1                 0.0000
     37 ****         0.1176  -2.4707  -0.1739 H              1 S1                 0.0000
     38 ****         2.4969  -1.9870   2.8549 H              1 S1                 0.0000
     39 ****         6.0971  -2.2159  -0.6826 H              1 S1                 0.0000
     40 ****         5.7227  -3.1616  -3.9794 H              1 S1                 0.0000
     41 ****         6.7914  -2.2273  -2.9358 H              1 S1                 0.0000
     42 ****         5.7432  -1.3940  -4.0797 H              1 S1                 0.0000
     43 ****         1.8785  -2.1201  -4.3555 H              1 S1                 0.0000
     44 ****         3.3582  -3.0014  -4.7216 H              1 S1                 0.0000
     45 ****         3.3560  -1.2307  -4.7176 H              1 S1                 0.0000
     46 ****         1.2693  -2.0063  -2.0932 H              1 S1                 0.0000
     47 ****        -3.5535   0.6143  -0.7300 H              1 S1                 0.0000
     48 ****        -4.2372   0.3284   0.8585 H              1 S1                 0.0000
     49 ****        -5.0828   2.4512  -0.0894 H              1 S1                 0.0000
     50 ****        -3.4566   3.0380  -0.3428 H              1 S1                 0.0000
     51 ****        -1.6089   1.4817   0.3104 H              1 S1                 0.0000
     52 ****         4.8834  -2.1148   1.9202 H              1 S1                 0.0000
     53 ****        -4.0493   4.7873   2.6027 LP             1 S1                 0.0000
     54 ****        -3.9025   4.8241   0.9767 LP             1 S1                 0.0000
     55 ****         0.0415   1.1689  -0.3231 LP             1 S1                 0.0000
     56 ****         0.0709  -0.2045  -1.2060 LP             1 S1                 0.0000
@<TRIPOS>BOND
    1    1    2 1     
    2    1   24 1     
    3    1   25 1     
    4    1   26 1     
    5    2    3 1     
    6    3   23 1     
    7    3    4 1     
    8    3   27 1     
    9    4    5 1     
   10    4   28 1     
   11    4   29 1     
   12    5    6 1     
   13    5   30 1     
   14    5   31 1     
   15    6    7 1     
   16    6   22 1     
   17    6   51 1     
   18    7    8 1     
   19    7   32 1     
   20    7   33 1     
   21    8    9 1     
   22    8   10 1     
   23    8   34 1     
   24    9   35 1     
   25   10   11 1     
   26   10   36 1     
   27   10   37 1     
   28   11   21 1     
   29   11   12 1     
   30   12   13 2     
   31   12   38 1     
   32   13   14 1     
   33   13   52 1     
   34   14   21 ar    
   35   14   15 ar    
   36   15   16 ar    
   37   15   39 1     
   38   16   17 1     
   39   16   18 ar    
   40   17   40 1     
   41   17   41 1     
   42   17   42 1     
   43   18   19 1     
   44   18   20 ar    
   45   19   43 1     
   46   19   44 1     
   47   19   45 1     
   48   20   21 ar    
   49   20   46 1     
   50   22   23 1     
   51   22   47 1     
   52   22   48 1     
   53   23   49 1     
   54   23   50 1     
   55    2   53 1     
   56    2   54 1     
   57    9   55 1     
   58    9   56 1     
@<TRIPOS>SUBSTRUCTURE
      1 S1             1
@<TRIPOS>SET
LONE_PAIRS      STATIC     ATOMS    <user>   **** ""
4 53 54 55 56
DONOR_HYDROGENS      STATIC     ATOMS    <user>   **** ""
3 51 35 52
ATOM$BLUE        STATIC     ATOMS    COLORGROUP SYSTEM
4 53 54 55 56
ATOM$RED        STATIC     ATOMS    COLORGROUP SYSTEM
3 51 35 52
