AV-unprocessed.smi:2078|AV-procd|sdf|8469|dock3
  -GOLD-   2272011173D 1   1.00000     0.00000
 Structure written by MMmdl.
 41 42  0  0  0  0  0  0  0  0  3 V2000
  152.2504  140.8520  159.2271 C   0  0  0  0  0  0  0  0  0  0  0  0
  151.9235  140.4751  157.8228 C   0  0  0  0  0  0  0  0  0  0  0  0
  150.9330  140.8608  156.9648 C   0  0  0  0  0  0  0  0  0  0  0  0
  151.2111  140.1106  155.7898 C   0  0  0  0  0  0  0  0  0  0  0  0
  150.5172  140.1527  154.6420 N   0  5  0  0  0  0  0  0  0  0  0  0
  149.1684  140.0601  154.6572 C   0  0  0  0  0  0  0  0  0  0  0  0
  148.4462  140.0367  155.6567 O   0  0  0  0  0  0  0  0  0  0  0  0
  148.6204  139.9847  153.4358 N   0  0  0  0  0  0  0  0  0  0  0  0
  147.1963  139.8615  153.1505 C   0  0  0  0  0  0  0  0  0  0  0  0
  146.8800  138.5290  152.4454 C   0  0  0  0  0  0  0  0  0  0  0  0
  145.5217  138.0282  152.7700 N   0  3  1  0  0  0  0  0  0  0  0  0
  145.1583  136.8328  151.9665 C   0  0  0  0  0  0  0  0  0  0  0  0
  143.6952  136.4282  152.2054 C   0  0  0  0  0  0  0  0  0  0  0  0
  143.4259  136.1906  153.6981 C   0  0  0  0  0  0  0  0  0  0  0  0
  143.8588  137.4027  154.5436 C   0  0  2  0  0  0  0  0  0  0  0  0
  142.8974  138.5967  154.4115 C   0  0  0  0  0  0  0  0  0  0  0  0
  145.3177  137.7912  154.2255 C   0  0  0  0  0  0  0  0  0  0  0  0
  152.2843  139.3488  155.9183 N   0  0  0  0  0  0  0  0  0  0  0  0
  152.7450  139.5736  157.2211 O   0  0  0  0  0  0  0  0  0  0  0  0
  152.7903  141.7986  159.2557 H   0  0  0  0  0  0  0  0  0  0  0  0
  152.8716  140.0925  159.7024 H   0  0  0  0  0  0  0  0  0  0  0  0
  151.3416  140.9621  159.8190 H   0  0  0  0  0  0  0  0  0  0  0  0
  150.1352  141.5648  157.1480 H   0  0  0  0  0  0  0  0  0  0  0  0
  149.2475  140.0096  152.6448 H   0  0  0  0  0  0  0  0  0  0  0  0
  146.6365  139.9721  154.0794 H   0  0  0  0  0  0  0  0  0  0  0  0
  146.9062  140.6966  152.5126 H   0  0  0  0  0  0  0  0  0  0  0  0
  146.9576  138.6947  151.3697 H   0  0  0  0  0  0  0  0  0  0  0  0
  147.6181  137.7639  152.6906 H   0  0  0  0  0  0  0  0  0  0  0  0
  145.2993  137.0421  150.9055 H   0  0  0  0  0  0  0  0  0  0  0  0
  145.8258  136.0073  152.2188 H   0  0  0  0  0  0  0  0  0  0  0  0
  143.0316  137.2053  151.8249 H   0  0  0  0  0  0  0  0  0  0  0  0
  143.4631  135.5253  151.6398 H   0  0  0  0  0  0  0  0  0  0  0  0
  142.3721  135.9636  153.8628 H   0  0  0  0  0  0  0  0  0  0  0  0
  143.9815  135.3098  154.0233 H   0  0  0  0  0  0  0  0  0  0  0  0
  143.8239  137.0960  155.5898 H   0  0  0  0  0  0  0  0  0  0  0  0
  142.8838  139.0000  153.3991 H   0  0  0  0  0  0  0  0  0  0  0  0
  143.1864  139.4059  155.0829 H   0  0  0  0  0  0  0  0  0  0  0  0
  141.8773  138.3092  154.6681 H   0  0  0  0  0  0  0  0  0  0  0  0
  145.9899  136.9962  154.5524 H   0  0  0  0  0  0  0  0  0  0  0  0
  145.5865  138.6752  154.8025 H   0  0  0  0  0  0  0  0  0  0  0  0
  144.8784  138.7572  152.4967 H   0  0  0  0  0  0  0  0  0  0  0  0
  1  2  1  0  0  0  0
  1 20  1  0  0  0  0
  1 21  1  0  0  0  0
  1 22  1  0  0  0  0
  2 19  1  0  0  0  0
  2  3  2  0  0  0  0
  3  4  1  0  0  0  0
  3 23  1  0  0  0  0
  4  5  1  0  0  0  0
  4 18  2  0  0  0  0
  5  6  1  0  0  0  0
  6  7  2  0  0  0  0
  6  8  1  0  0  0  0
  8  9  1  0  0  0  0
  8 24  1  0  0  0  0
  9 10  1  0  0  0  0
  9 25  1  0  0  0  0
  9 26  1  0  0  0  0
 10 11  1  0  0  0  0
 10 27  1  0  0  0  0
 10 28  1  0  0  0  0
 11 17  1  0  0  0  0
 11 12  1  0  0  0  0
 11 41  1  0  0  0  0
 12 13  1  0  0  0  0
 12 29  1  0  0  0  0
 12 30  1  0  0  0  0
 13 14  1  0  0  0  0
 13 31  1  0  0  0  0
 13 32  1  0  0  0  0
 14 15  1  0  0  0  0
 14 33  1  0  0  0  0
 14 34  1  0  0  0  0
 15 16  1  0  0  0  0
 15 17  1  0  0  0  0
 15 35  1  0  0  0  0
 16 36  1  0  0  0  0
 16 37  1  0  0  0  0
 16 38  1  0  0  0  0
 17 39  1  0  0  0  0
 17 40  1  0  0  0  0
 18 19  1  0  0  0  0
M  CHG  1   5  -1
M  CHG  1  11   1
M  END
> <s_m_source_file>
AV-unprocessed.smi

> <i_m_source_file_index>
2078

> <i_lp_mmshare_version>
43012

> <i_f3d_flags>
0

> <s_epik_input>
W0NIM11jMVtjSF1jKG5vMSlbTkhdQyg9TylbTkhdW0NIMl1bQ0gyXU4yW0NIMl1bQ0gyXVtDSDJdW0NAQEhdKFtDSDNdKVtDSDJdMg==

> <s_epik_cmdline>
J2VwaWtfcHl0aG9uJywgJy1waCcsICc3LjAnLCAnLXRuJywgJzgnLCAnLW1hJywgJzIwMCcsICctbWV0YWxfYmluZGluZycsICctaW1hZScsICc8aW5maWxlLm1hZT4nLCAnLW9tYWUnLCAnPG91dGZpbGUubWFlPic=

> <r_epik_Ionization_Penalty>
6.22434

> <r_epik_Ionization_Penalty_Charging>
6.22425

> <r_epik_Ionization_Penalty_Neutral>
9.37855e-05

> <r_epik_State_Penalty>
6.22423

> <r_epik_Charging_Adjusted_Penalty>
12.4485

> <i_epik_Tot_Q>
0

> <i_epik_Tot_abs_Q>
2

> <r_epik_Metal_State_Penalty>
2.16764

> <b_epik_Metal_Only>
1

> <s_lp_Force_Field>
OPLS_2005

> <r_lp_Energy>
5.82233

> <b_lp_Chiralities_Consistent>
1

> <s_lp_Variant>
AV-unprocessed.smi:2078-7

> <Gold.Version>
5.8.1

> <Gold.Id.Protein>
6NUR|6NUR_protein|mol2

> <Gold.PLP.Fitness>
41.3056

> <Gold.PLP.PLP>
-27.4425

> <Gold.PLP.part.hbond>
-4.7045

> <Gold.PLP.part.metal>
0.0000

> <Gold.PLP.part.buried>
-1.9983

> <Gold.PLP.part.nonpolar>
-20.3524

> <Gold.PLP.part.repulsive>
0.2479

> <Gold.PLP.ligand.clash>
0.0000

> <Gold.PLP.ligand.torsion>
0.6256

> <Gold.PLP.Chemscore.Hbond>
5.0000

> <Gold.PLP.Chemscore.CHOScore>
0.0000

> <Gold.PLP.Chemscore.Metal>
0.0000

> <Gold.Chemscore.Hbonds>
donor molecule, donor type, donor heavy atom, donor atom, acceptor molecule, acceptor atom, score
      L1  H     8    24       P1  7957  0.99
      L1  H    11    41       P1 10175  1.76
      P1  H  7989  7998       L1     5  1.00
      P1  H  7997  8009       L1    19  1.00

> <Gold.PLP.Chemscore.Internal.Correction>
0.1143

> <Gold.Rescore>
     Score         DG    S(hbond)    S(metal)    S(lipo)     H(rot)  DE(clash)    DE(int)     intcor
     15.29     -17.30       3.12        0.00      45.72       1.54       0.12       1.88       ----

> <Gold.Chemscore.Fitness>
15.2929

> <Gold.Chemscore.DG>
-17.2983

> <Gold.Chemscore.ZeroCoef>
-5.4800

> <Gold.Chemscore.Hbond>
3.1178

> <Gold.Chemscore.Metal>
0.0000

> <Gold.Chemscore.Lipo>
45.7214

> <Gold.Chemscore.Internal_Hbond>
0.0000

> <Gold.Chemscore.DEClash>
0.1219

> <Gold.Chemscore.DEInternal>
1.8835

> <Gold.Chemscore.Rot>
1.5409

> <Gold.Chemscore.Internal.Correction>
   9.000000E+99

> <Gold.Chemscore.Hbonds>
donor molecule, donor type, donor heavy atom, donor atom, acceptor molecule, acceptor atom, score
      L1  H     8    24       P1  7957  0.91
      L1  H    11    41       P1 10175  0.86
      P1  H  7989  7998       L1     5  0.45
      P1  H  7997  8009       L1    19  0.29

> <Gold.Chemscore.Hbond.Weighted>
-10.4135

> <Gold.Chemscore.Metal.Weighted>
-0.0000

> <Gold.Chemscore.Lipo.Weighted>
-5.3494

> <Gold.Chemscore.Internal_Hbond.Weighted>
0.0000

> <Gold.Chemscore.DEClash.Weighted>
0.1219

> <Gold.Chemscore.DEInternal.Weighted>
1.8835

> <Gold.Chemscore.Rot.Weighted>
3.9446

> <Gold.Chemscore.Internal.Correction.Weighted>
   9.000000E+99

> <Gold.Protein.RotatedTorsions>
[ 6907 6896 6895 6894 ] final   88.77 input  -60.11 | X-H torsion
[ 7974 7965 7964 7962 ] final -137.05 input  175.53 | X-H torsion
[ 8008 7997 7996 7995 ] final  163.32 input   59.86 | X-H torsion
[ 10167 10162 10161 10158 ] final  -10.32 input  -65.29 | X-H torsion
[ 10718 10713 10712 10709 ] final   75.00 input   66.30 | X-H torsion
[ 10763 10752 10751 10750 ] final -172.55 input  -60.55 | X-H torsion
[ 11005 11000 10999 10996 ] final  -66.12 input  -57.11 | X-H torsion

> <Gold.Protein.ActiveResidues>
 VAL166  LYS551  ARG553  GLY616  TRP617  ASP618  TYR619  PRO620  LYS621  CYS622 
 ASP623  PHE694  ASN695  SER759  ASP760  ASP761  ALA762  ILE779  LEU786  VAL792 
 PHE793  MET794  SER795  GLU796  ALA797  LYS798  CYS799  TRP800  GLU811  SER814 

> <Gold.Protein.RotatedAtoms>
  152.5429  134.2070  159.8734 H   0  0  0  0  0  0  0  0  0  0  0  0  # atno 6907 bound_to 6896
  151.2055  133.4579  159.2604 H   0  0  0  0  0  0  0  0  0  0  0  0  # atno 6908 bound_to 6896
  151.0947  134.9950  159.8475 H   0  0  0  0  0  0  0  0  0  0  0  0  # atno 6909 bound_to 6896
  144.8875  140.6595  143.5166 H   0  0  0  0  0  0  0  0  0  0  0  0  # atno 7974 bound_to 7965
  156.1966  140.1726  156.7986 H   0  0  0  0  0  0  0  0  0  0  0  0  # atno 8008 bound_to 7997
  154.5537  140.0712  156.8740 H   0  0  0  0  0  0  0  0  0  0  0  0  # atno 8009 bound_to 7997
  155.2979  140.3359  155.4251 H   0  0  0  0  0  0  0  0  0  0  0  0  # atno 8010 bound_to 7997
  140.7111  143.5761  150.9041 H   0  0  0  0  0  0  0  0  0  0  0  0  # atno 10167 bound_to 10162
  157.6616  130.9705  150.1291 H   0  0  0  0  0  0  0  0  0  0  0  0  # atno 10718 bound_to 10713
  154.6180  135.2872  155.0358 H   0  0  0  0  0  0  0  0  0  0  0  0  # atno 10763 bound_to 10752
  154.1563  135.6495  153.4979 H   0  0  0  0  0  0  0  0  0  0  0  0  # atno 10764 bound_to 10752
  153.0223  135.5367  154.6959 H   0  0  0  0  0  0  0  0  0  0  0  0  # atno 10765 bound_to 10752
  141.1473  133.6693  156.6090 H   0  0  0  0  0  0  0  0  0  0  0  0  # atno 11005 bound_to 11000
  145.3843  139.1630  143.4264 LP  0  0  0  0  0  0  0  0  0  0  0  0  # atno 17320 bound_to 7965
  146.3033  140.3926  142.8696 LP  0  0  0  0  0  0  0  0  0  0  0  0  # atno 17321 bound_to 7965
  139.9487  143.6298  152.3035 LP  0  0  0  0  0  0  0  0  0  0  0  0  # atno 17342 bound_to 10162
  139.6808  144.7655  151.1611 LP  0  0  0  0  0  0  0  0  0  0  0  0  # atno 17343 bound_to 10162
  156.2143  130.3669  149.8633 LP  0  0  0  0  0  0  0  0  0  0  0  0  # atno 17370 bound_to 10713
  156.6503  130.8741  151.3530 LP  0  0  0  0  0  0  0  0  0  0  0  0  # atno 17371 bound_to 10713
  140.3629  134.7672  157.4546 LP  0  0  0  0  0  0  0  0  0  0  0  0  # atno 17394 bound_to 11000
  140.0771  134.5782  155.8580 LP  0  0  0  0  0  0  0  0  0  0  0  0  # atno 17395 bound_to 11000

$$$$
