AV-unprocessed.smi:3111|AV-procd|sdf|11832|dock1
  -GOLD-   2272017203D 1   1.00000     0.00000
 Structure written by MMmdl.
 29 29  0  0  0  0  0  0  0  0  1 V2000
  147.5210  145.4004  161.1252 C   0  0  0  0  0  0  0  0  0  0  0  0
  147.5657  144.7045  159.8483 N   0  0  0  0  0  0  0  0  0  0  0  0
  147.1863  143.4314  159.6690 C   0  0  0  0  0  0  0  0  0  0  0  0
  146.7425  142.7267  160.5770 O   0  0  0  0  0  0  0  0  0  0  0  0
  147.3082  142.8851  158.2409 C   0  0  0  0  0  0  0  0  0  0  0  0
  148.6935  142.7798  157.7891 N   0  0  0  0  0  0  0  0  0  0  0  0
  149.4367  141.6618  157.8271 C   0  0  0  0  0  0  0  0  0  0  0  0
  149.0178  140.5917  158.2707 O   0  0  0  0  0  0  0  0  0  0  0  0
  150.8695  141.7781  157.2837 C   0  0  2  0  0  0  0  0  0  0  0  0
  151.5674  140.4118  157.1472 C   0  0  0  0  0  0  0  0  0  0  0  0
  151.6546  142.6909  158.1029 N   0  0  0  0  0  0  0  0  0  0  0  0
  151.5458  144.0758  158.1428 C   0  0  0  0  0  0  0  0  0  0  0  0
  152.4782  144.5206  159.0525 C   0  0  0  0  0  0  0  0  0  0  0  0
  153.1695  143.4353  159.5842 N   0  0  0  0  0  0  0  0  0  0  0  0
  152.6290  142.3877  158.9757 C   0  0  0  0  0  0  0  0  0  0  0  0
  147.9081  146.4129  161.0104 H   0  0  0  0  0  0  0  0  0  0  0  0
  148.1295  144.8855  161.8700 H   0  0  0  0  0  0  0  0  0  0  0  0
  146.4972  145.4664  161.4962 H   0  0  0  0  0  0  0  0  0  0  0  0
  147.9134  145.2198  159.0526 H   0  0  0  0  0  0  0  0  0  0  0  0
  146.8618  141.8909  158.2117 H   0  0  0  0  0  0  0  0  0  0  0  0
  146.7354  143.5057  157.5492 H   0  0  0  0  0  0  0  0  0  0  0  0
  149.1126  143.6156  157.4080 H   0  0  0  0  0  0  0  0  0  0  0  0
  150.8020  142.2098  156.2835 H   0  0  0  0  0  0  0  0  0  0  0  0
  150.9864  139.7320  156.5228 H   0  0  0  0  0  0  0  0  0  0  0  0
  151.7139  139.9312  158.1153 H   0  0  0  0  0  0  0  0  0  0  0  0
  152.5481  140.5223  156.6837 H   0  0  0  0  0  0  0  0  0  0  0  0
  150.8340  144.6166  157.5366 H   0  0  0  0  0  0  0  0  0  0  0  0
  152.7029  145.5304  159.3630 H   0  0  0  0  0  0  0  0  0  0  0  0
  152.9482  141.3741  159.1707 H   0  0  0  0  0  0  0  0  0  0  0  0
  1  2  1  0  0  0  0
  1 16  1  0  0  0  0
  1 17  1  0  0  0  0
  1 18  1  0  0  0  0
  2  3  1  0  0  0  0
  2 19  1  0  0  0  0
  3  4  2  0  0  0  0
  3  5  1  0  0  0  0
  5  6  1  0  0  0  0
  5 20  1  0  0  0  0
  5 21  1  0  0  0  0
  6  7  1  0  0  0  0
  6 22  1  0  0  0  0
  7  8  2  0  0  0  0
  7  9  1  0  0  0  0
  9 10  1  0  0  0  0
  9 11  1  0  0  0  0
  9 23  1  0  0  0  0
 10 24  1  0  0  0  0
 10 25  1  0  0  0  0
 10 26  1  0  0  0  0
 11 15  1  0  0  0  0
 11 12  1  0  0  0  0
 12 13  2  0  0  0  0
 12 27  1  0  0  0  0
 13 14  1  0  0  0  0
 13 28  1  0  0  0  0
 14 15  2  0  0  0  0
 15 29  1  0  0  0  0
M  END
> <s_m_source_file>
AV-unprocessed.smi

> <i_m_source_file_index>
3111

> <i_lp_mmshare_version>
43012

> <i_f3d_flags>
0

> <s_epik_input>
W0NIM11bTkhdQyg9TylbQ0gyXVtOSF1DKD1PKVtDQEhdKFtDSDNdKW4xW2NIXVtjSF1uW2NIXTE=

> <s_epik_cmdline>
J2VwaWtfcHl0aG9uJywgJy1waCcsICc3LjAnLCAnLXRuJywgJzgnLCAnLW1hJywgJzIwMCcsICctbWV0YWxfYmluZGluZycsICctaW1hZScsICc8aW5maWxlLm1hZT4nLCAnLW9tYWUnLCAnPG91dGZpbGUubWFlPic=

> <r_lp_tautomer_probability>
1

> <r_epik_Ionization_Penalty>
0.278299

> <r_epik_Ionization_Penalty_Charging>
0.278299

> <r_epik_Ionization_Penalty_Neutral>
1.78617e-07

> <r_epik_State_Penalty>
0.270759

> <r_epik_Charging_Adjusted_Penalty>
0.549058

> <i_epik_Tot_Q>
0

> <i_epik_Tot_abs_Q>
0

> <r_epik_Metal_State_Penalty>
0.183212

> <b_epik_Metal_Only>
0

> <s_lp_Force_Field>
OPLS_2005

> <r_lp_Energy>
5.209

> <b_lp_Chiralities_Consistent>
1

> <s_lp_Variant>
AV-unprocessed.smi:3111-1

> <Gold.Version>
5.8.1

> <Gold.Id.Protein>
6NUR|6NUR_protein|mol2

> <Gold.PLP.Fitness>
43.8608

> <Gold.PLP.PLP>
-30.9590

> <Gold.PLP.part.hbond>
-5.0553

> <Gold.PLP.part.metal>
0.0000

> <Gold.PLP.part.buried>
-3.9661

> <Gold.PLP.part.nonpolar>
-23.1824

> <Gold.PLP.part.repulsive>
0.1975

> <Gold.PLP.ligand.clash>
0.0000

> <Gold.PLP.ligand.torsion>
0.7273

> <Gold.PLP.Chemscore.Hbond>
3.7600

> <Gold.PLP.Chemscore.CHOScore>
1.0000

> <Gold.PLP.Chemscore.Metal>
0.0000

> <Gold.Chemscore.Hbonds>
donor molecule, donor type, donor heavy atom, donor atom, acceptor molecule, acceptor atom, score
      L1  H     2    19       P1  8029  1.00
      L1  H     6    22       P1  8028  0.67
      P1  H  6933  6944       L1     4  0.71
      P1  H  6934  6946       L1     4  0.94
      L1  C    12    27       P1  8028  0.65

> <Gold.PLP.Chemscore.Internal.Correction>
0.0763

> <Gold.Rescore>
     Score         DG    S(hbond)    S(metal)    S(lipo)     H(rot)  DE(clash)    DE(int)     intcor
     14.99     -15.91       3.31        0.00      44.47       2.27       0.04       0.88       ----

> <Gold.Chemscore.Fitness>
14.9931

> <Gold.Chemscore.DG>
-15.9149

> <Gold.Chemscore.ZeroCoef>
-5.4800

> <Gold.Chemscore.Hbond>
3.3070

> <Gold.Chemscore.Metal>
0.0000

> <Gold.Chemscore.Lipo>
44.4695

> <Gold.Chemscore.Internal_Hbond>
0.0000

> <Gold.Chemscore.DEClash>
0.0433

> <Gold.Chemscore.DEInternal>
0.8784

> <Gold.Chemscore.Rot>
2.2709

> <Gold.Chemscore.Internal.Correction>
   9.000000E+99

> <Gold.Chemscore.Hbonds>
donor molecule, donor type, donor heavy atom, donor atom, acceptor molecule, acceptor atom, score
      L1  H     2    19       P1  8029  0.98
      L1  H     6    22       P1  8028  0.22
      P1  H  6933  6944       L1     4  0.12
      P1  H  6934  6946       L1     4  0.91

> <Gold.Chemscore.Hbond.Weighted>
-11.0454

> <Gold.Chemscore.Metal.Weighted>
-0.0000

> <Gold.Chemscore.Lipo.Weighted>
-5.2029

> <Gold.Chemscore.Internal_Hbond.Weighted>
0.0000

> <Gold.Chemscore.DEClash.Weighted>
0.0433

> <Gold.Chemscore.DEInternal.Weighted>
0.8784

> <Gold.Chemscore.Rot.Weighted>
5.8135

> <Gold.Chemscore.Internal.Correction.Weighted>
   9.000000E+99

> <Gold.Protein.RotatedTorsions>
[ 6907 6896 6895 6894 ] final  -47.14 input  -60.11 | X-H torsion
[ 7974 7965 7964 7962 ] final  110.19 input  175.53 | X-H torsion
[ 8008 7997 7996 7995 ] final  153.37 input   59.86 | X-H torsion
[ 10167 10162 10161 10158 ] final  -56.01 input  -65.29 | X-H torsion
[ 10718 10713 10712 10709 ] final -124.98 input   66.30 | X-H torsion
[ 10763 10752 10751 10750 ] final -103.74 input  -60.55 | X-H torsion
[ 11005 11000 10999 10996 ] final   69.92 input  -57.11 | X-H torsion

> <Gold.Protein.ActiveResidues>
 VAL166  LYS551  ARG553  GLY616  TRP617  ASP618  TYR619  PRO620  LYS621  CYS622 
 ASP623  PHE694  ASN695  SER759  ASP760  ASP761  ALA762  ILE779  LEU786  VAL792 
 PHE793  MET794  SER795  GLU796  ALA797  LYS798  CYS799  TRP800  GLU811  SER814 

> <Gold.Protein.RotatedAtoms>
  150.9039  134.8452  159.7378 H   0  0  0  0  0  0  0  0  0  0  0  0  # atno 6907 bound_to 6896
  152.4907  134.4461  159.9569 H   0  0  0  0  0  0  0  0  0  0  0  0  # atno 6908 bound_to 6896
  151.4510  133.3578  159.2830 H   0  0  0  0  0  0  0  0  0  0  0  0  # atno 6909 bound_to 6896
  145.2582  139.2713  143.4031 H   0  0  0  0  0  0  0  0  0  0  0  0  # atno 7974 bound_to 7965
  156.2585  140.1995  156.6479 H   0  0  0  0  0  0  0  0  0  0  0  0  # atno 8008 bound_to 7997
  154.6559  140.0566  157.0033 H   0  0  0  0  0  0  0  0  0  0  0  0  # atno 8009 bound_to 7997
  155.1348  140.3237  155.4468 H   0  0  0  0  0  0  0  0  0  0  0  0  # atno 8010 bound_to 7997
  140.6342  143.2474  151.5162 H   0  0  0  0  0  0  0  0  0  0  0  0  # atno 10167 bound_to 10162
  156.1635  130.6618  151.0083 H   0  0  0  0  0  0  0  0  0  0  0  0  # atno 10718 bound_to 10713
  154.7829  135.4812  153.9883 H   0  0  0  0  0  0  0  0  0  0  0  0  # atno 10763 bound_to 10752
  153.1519  135.6792  153.8877 H   0  0  0  0  0  0  0  0  0  0  0  0  # atno 10764 bound_to 10752
  153.8519  135.3166  155.3411 H   0  0  0  0  0  0  0  0  0  0  0  0  # atno 10765 bound_to 10752
  139.9626  134.7035  156.0613 H   0  0  0  0  0  0  0  0  0  0  0  0  # atno 11005 bound_to 11000
  146.3283  140.2991  142.8619 LP  0  0  0  0  0  0  0  0  0  0  0  0  # atno 17320 bound_to 7965
  144.9442  140.8111  143.5611 LP  0  0  0  0  0  0  0  0  0  0  0  0  # atno 17321 bound_to 7965
  139.5554  144.2290  152.1602 LP  0  0  0  0  0  0  0  0  0  0  0  0  # atno 17342 bound_to 10162
  140.1542  144.5086  150.6670 LP  0  0  0  0  0  0  0  0  0  0  0  0  # atno 17343 bound_to 10162
  157.6750  131.0852  150.7516 LP  0  0  0  0  0  0  0  0  0  0  0  0  # atno 17370 bound_to 10713
  156.7578  130.4789  149.5443 LP  0  0  0  0  0  0  0  0  0  0  0  0  # atno 17371 bound_to 10713
  141.1304  133.6588  156.3450 LP  0  0  0  0  0  0  0  0  0  0  0  0  # atno 17394 bound_to 11000
  140.5466  134.6068  157.5395 LP  0  0  0  0  0  0  0  0  0  0  0  0  # atno 17395 bound_to 11000

$$$$
