AV-unprocessed.smi:381|AV-procd|sdf|2462|dock3
  -GOLD-   2262022403D 1   1.00000     0.00000
 Structure written by MMmdl.
 46 47  0  0  0  0  0  0  0  0  2 V2000
  145.7634  137.8603  154.2048 O   0  0  0  0  0  0  0  0  0  0  0  0
  146.6124  137.2743  153.5358 C   0  0  0  0  0  0  0  0  0  0  0  0
  146.3112  136.4872  152.4905 N   0  0  0  0  0  0  0  0  0  0  0  0
  144.9588  136.2430  152.0098 C   0  0  0  0  0  0  0  0  0  0  0  0
  144.5226  134.8049  152.3193 C   0  0  0  0  0  0  0  0  0  0  0  0
  144.9933  133.8274  151.2598 C   0  0  0  0  0  0  0  0  0  0  0  0
  144.0876  133.3141  150.3048 C   0  0  0  0  0  0  0  0  0  0  0  0
  144.5532  132.4144  149.3233 C   0  0  0  0  0  0  0  0  0  0  0  0
  145.9141  132.0464  149.3199 C   0  0  0  0  0  0  0  0  0  0  0  0
  146.7509  132.5568  150.2502 N   0  3  0  0  0  0  0  0  0  0  0  0
  146.3446  133.4221  151.2052 C   0  0  0  0  0  0  0  0  0  0  0  0
  147.9263  137.3845  153.8031 N   0  0  0  0  0  0  0  0  0  0  0  0
  148.5891  138.1543  154.8604 C   0  0  0  0  0  0  0  0  0  0  0  0
  149.6163  139.1001  154.1951 C   0  0  0  0  0  0  0  0  0  0  0  0
  150.5268  139.9012  155.1444 C   0  0  0  0  0  0  0  0  0  0  0  0
  151.9015  139.2590  155.4402 C   0  0  0  0  0  0  0  0  0  0  0  0
  151.9417  138.3044  156.6481 C   0  0  0  0  0  0  0  0  0  0  0  0
  151.6919  136.8102  156.3524 C   0  0  0  0  0  0  0  0  0  0  0  0
  150.4461  136.4619  155.5180 C   0  0  0  0  0  0  0  0  0  0  0  0
  149.1639  137.2067  155.9383 C   0  0  0  0  0  0  0  0  0  0  0  0
  147.0685  136.0424  151.9926 H   0  0  0  0  0  0  0  0  0  0  0  0
  144.2701  136.9495  152.4763 H   0  0  0  0  0  0  0  0  0  0  0  0
  144.9273  136.4236  150.9343 H   0  0  0  0  0  0  0  0  0  0  0  0
  144.9104  134.4968  153.2913 H   0  0  0  0  0  0  0  0  0  0  0  0
  143.4353  134.7501  152.3899 H   0  0  0  0  0  0  0  0  0  0  0  0
  143.0484  133.6095  150.3205 H   0  0  0  0  0  0  0  0  0  0  0  0
  143.8759  132.0142  148.5829 H   0  0  0  0  0  0  0  0  0  0  0  0
  146.3555  131.3662  148.6064 H   0  0  0  0  0  0  0  0  0  0  0  0
  147.1083  133.7625  151.8892 H   0  0  0  0  0  0  0  0  0  0  0  0
  148.5452  136.8655  153.1968 H   0  0  0  0  0  0  0  0  0  0  0  0
  147.8487  138.7915  155.3466 H   0  0  0  0  0  0  0  0  0  0  0  0
  150.2272  138.5687  153.4649 H   0  0  0  0  0  0  0  0  0  0  0  0
  149.0476  139.8175  153.6016 H   0  0  0  0  0  0  0  0  0  0  0  0
  150.7292  140.8532  154.6519 H   0  0  0  0  0  0  0  0  0  0  0  0
  150.0030  140.1644  156.0639 H   0  0  0  0  0  0  0  0  0  0  0  0
  152.3174  138.7824  154.5521 H   0  0  0  0  0  0  0  0  0  0  0  0
  152.5846  140.0784  155.6679 H   0  0  0  0  0  0  0  0  0  0  0  0
  152.9346  138.3723  157.0943 H   0  0  0  0  0  0  0  0  0  0  0  0
  151.2701  138.6631  157.4279 H   0  0  0  0  0  0  0  0  0  0  0  0
  152.5662  136.3962  155.8485 H   0  0  0  0  0  0  0  0  0  0  0  0
  151.6305  136.2855  157.3065 H   0  0  0  0  0  0  0  0  0  0  0  0
  150.6623  136.6197  154.4625 H   0  0  0  0  0  0  0  0  0  0  0  0
  150.2715  135.3885  155.5990 H   0  0  0  0  0  0  0  0  0  0  0  0
  149.3232  137.7662  156.8582 H   0  0  0  0  0  0  0  0  0  0  0  0
  148.4076  136.4706  156.2124 H   0  0  0  0  0  0  0  0  0  0  0  0
  147.7323  132.2783  150.2293 H   0  0  0  0  0  0  0  0  0  0  0  0
  1  2  2  0  0  0  0
  2  3  1  0  0  0  0
  2 12  1  0  0  0  0
  3  4  1  0  0  0  0
  3 21  1  0  0  0  0
  4  5  1  0  0  0  0
  4 22  1  0  0  0  0
  4 23  1  0  0  0  0
  5  6  1  0  0  0  0
  5 24  1  0  0  0  0
  5 25  1  0  0  0  0
  6 11  1  0  0  0  0
  6  7  2  0  0  0  0
  7  8  1  0  0  0  0
  7 26  1  0  0  0  0
  8  9  2  0  0  0  0
  8 27  1  0  0  0  0
  9 10  1  0  0  0  0
  9 28  1  0  0  0  0
 10 11  2  0  0  0  0
 10 46  1  0  0  0  0
 11 29  1  0  0  0  0
 12 13  1  0  0  0  0
 12 30  1  0  0  0  0
 13 20  1  0  0  0  0
 13 14  1  0  0  0  0
 13 31  1  0  0  0  0
 14 15  1  0  0  0  0
 14 32  1  0  0  0  0
 14 33  1  0  0  0  0
 15 16  1  0  0  0  0
 15 34  1  0  0  0  0
 15 35  1  0  0  0  0
 16 17  1  0  0  0  0
 16 36  1  0  0  0  0
 16 37  1  0  0  0  0
 17 18  1  0  0  0  0
 17 38  1  0  0  0  0
 17 39  1  0  0  0  0
 18 19  1  0  0  0  0
 18 40  1  0  0  0  0
 18 41  1  0  0  0  0
 19 20  1  0  0  0  0
 19 42  1  0  0  0  0
 19 43  1  0  0  0  0
 20 44  1  0  0  0  0
 20 45  1  0  0  0  0
M  CHG  1  10   1
M  END
> <s_m_source_file>
AV-unprocessed.smi

> <i_m_source_file_index>
381

> <i_lp_mmshare_version>
43012

> <i_f3d_flags>
0

> <s_epik_input>
W0NIMl0xW0NIMl1bQ0gyXVtDSDJdW0NIMl1bQ0gyXVtDSDJdW0NIXTFbTkhdQyg9TylbTkhdW0NIMl1bQ0gyXWMyW2NIXVtjSF1bY0hdbltjSF0y

> <s_epik_cmdline>
J2VwaWtfcHl0aG9uJywgJy1waCcsICc3LjAnLCAnLXRuJywgJzgnLCAnLW1hJywgJzIwMCcsICctbWV0YWxfYmluZGluZycsICctaW1hZScsICc8aW5maWxlLm1hZT4nLCAnLW9tYWUnLCAnPG91dGZpbGUubWFlPic=

> <r_epik_Ionization_Penalty>
2.21063

> <r_epik_Ionization_Penalty_Charging>
2.21057

> <r_epik_Ionization_Penalty_Neutral>
5.85974e-05

> <r_epik_State_Penalty>
2.35476

> <r_epik_Charging_Adjusted_Penalty>
4.56533

> <i_epik_Tot_Q>
1

> <i_epik_Tot_abs_Q>
1

> <r_epik_Metal_State_Penalty>
2.36886

> <b_epik_Metal_Only>
0

> <s_lp_Force_Field>
OPLS_2005

> <r_lp_Energy>
36.9097

> <b_lp_Chiralities_Consistent>
1

> <s_lp_Variant>
AV-unprocessed.smi:381-2

> <Gold.Version>
5.8.1

> <Gold.Id.Protein>
6NUR|6NUR_protein|mol2

> <Gold.PLP.Fitness>
40.7238

> <Gold.PLP.PLP>
-33.3110

> <Gold.PLP.part.hbond>
-2.8747

> <Gold.PLP.part.metal>
0.0000

> <Gold.PLP.part.buried>
-3.5491

> <Gold.PLP.part.nonpolar>
-26.8709

> <Gold.PLP.part.repulsive>
0.2582

> <Gold.PLP.ligand.clash>
0.0000

> <Gold.PLP.ligand.torsion>
0.4539

> <Gold.PLP.Chemscore.Hbond>
2.7600

> <Gold.PLP.Chemscore.CHOScore>
0.0000

> <Gold.PLP.Chemscore.Metal>
0.0000

> <Gold.Chemscore.Hbonds>
donor molecule, donor type, donor heavy atom, donor atom, acceptor molecule, acceptor atom, score
      L1  H     3    21       P1  7948  0.77
      L1  H    10    46       P1 10747  0.96
      L1  H    12    30       P1  7948  0.99

> <Gold.PLP.Chemscore.Internal.Correction>
0.0406

> <Gold.Rescore>
     Score         DG    S(hbond)    S(metal)    S(lipo)     H(rot)  DE(clash)    DE(int)     intcor
     20.77     -21.35       2.71        0.00      91.25       1.51       0.17       0.41       ----

> <Gold.Chemscore.Fitness>
20.7696

> <Gold.Chemscore.DG>
-21.3521

> <Gold.Chemscore.ZeroCoef>
-5.4800

> <Gold.Chemscore.Hbond>
2.7119

> <Gold.Chemscore.Metal>
0.0000

> <Gold.Chemscore.Lipo>
91.2471

> <Gold.Chemscore.Internal_Hbond>
0.0000

> <Gold.Chemscore.DEClash>
0.1716

> <Gold.Chemscore.DEInternal>
0.4108

> <Gold.Chemscore.Rot>
1.5085

> <Gold.Chemscore.Internal.Correction>
   9.000000E+99

> <Gold.Chemscore.Hbonds>
donor molecule, donor type, donor heavy atom, donor atom, acceptor molecule, acceptor atom, score
      L1  H     3    21       P1  7948  0.78
      L1  H    10    46       P1 10747  0.92
      L1  H    12    30       P1  7948  0.91

> <Gold.Chemscore.Hbond.Weighted>
-9.0579

> <Gold.Chemscore.Metal.Weighted>
-0.0000

> <Gold.Chemscore.Lipo.Weighted>
-10.6759

> <Gold.Chemscore.Internal_Hbond.Weighted>
0.0000

> <Gold.Chemscore.DEClash.Weighted>
0.1716

> <Gold.Chemscore.DEInternal.Weighted>
0.4108

> <Gold.Chemscore.Rot.Weighted>
3.8617

> <Gold.Chemscore.Internal.Correction.Weighted>
   9.000000E+99

> <Gold.Protein.RotatedTorsions>
[ 6907 6896 6895 6894 ] final -136.19 input  -60.11 | X-H torsion
[ 7974 7965 7964 7962 ] final  178.18 input  175.53 | X-H torsion
[ 8008 7997 7996 7995 ] final  -33.55 input   59.86 | X-H torsion
[ 10167 10162 10161 10158 ] final -178.40 input  -65.29 | X-H torsion
[ 10718 10713 10712 10709 ] final  -36.32 input   66.30 | X-H torsion
[ 10763 10752 10751 10750 ] final  -93.03 input  -60.55 | X-H torsion
[ 11005 11000 10999 10996 ] final  -11.75 input  -57.11 | X-H torsion

> <Gold.Protein.ActiveResidues>
 VAL166  LYS551  ARG553  GLY616  TRP617  ASP618  TYR619  PRO620  LYS621  CYS622 
 ASP623  PHE694  ASN695  SER759  ASP760  ASP761  ALA762  ILE779  LEU786  VAL792 
 PHE793  MET794  SER795  GLU796  ALA797  LYS798  CYS799  TRP800  GLU811  SER814 

> <Gold.Protein.RotatedAtoms>
  151.0070  133.6001  159.2687 H   0  0  0  0  0  0  0  0  0  0  0  0  # atno 6907 bound_to 6896
  151.3167  135.0807  159.9301 H   0  0  0  0  0  0  0  0  0  0  0  0  # atno 6908 bound_to 6896
  152.5289  133.9725  159.7823 H   0  0  0  0  0  0  0  0  0  0  0  0  # atno 6909 bound_to 6896
  144.7159  140.0358  143.6438 H   0  0  0  0  0  0  0  0  0  0  0  0  # atno 7974 bound_to 7965
  154.4146  140.1708  156.1906 H   0  0  0  0  0  0  0  0  0  0  0  0  # atno 8008 bound_to 7997
  155.9607  140.3393  155.6464 H   0  0  0  0  0  0  0  0  0  0  0  0  # atno 8009 bound_to 7997
  155.6752  140.0716  157.2496 H   0  0  0  0  0  0  0  0  0  0  0  0  # atno 8010 bound_to 7997
  139.5434  144.2301  152.0940 H   0  0  0  0  0  0  0  0  0  0  0  0  # atno 10167 bound_to 10162
  156.3282  130.4275  149.7897 H   0  0  0  0  0  0  0  0  0  0  0  0  # atno 10718 bound_to 10713
  154.6919  135.5209  153.8405 H   0  0  0  0  0  0  0  0  0  0  0  0  # atno 10763 bound_to 10752
  153.0639  135.6578  154.0409 H   0  0  0  0  0  0  0  0  0  0  0  0  # atno 10764 bound_to 10752
  154.0282  135.2987  155.3352 H   0  0  0  0  0  0  0  0  0  0  0  0  # atno 10765 bound_to 10752
  140.7585  133.8534  155.9105 H   0  0  0  0  0  0  0  0  0  0  0  0  # atno 11005 bound_to 11000
  146.0064  139.3134  143.0896 LP  0  0  0  0  0  0  0  0  0  0  0  0  # atno 17320 bound_to 7965
  145.8733  140.9407  143.0639 LP  0  0  0  0  0  0  0  0  0  0  0  0  # atno 17321 bound_to 7965
  140.1783  144.4869  150.6542 LP  0  0  0  0  0  0  0  0  0  0  0  0  # atno 17342 bound_to 10162
  140.6673  143.2272  151.5711 LP  0  0  0  0  0  0  0  0  0  0  0  0  # atno 17343 bound_to 10162
  156.5179  130.8201  151.3193 LP  0  0  0  0  0  0  0  0  0  0  0  0  # atno 17370 bound_to 10713
  157.7425  130.9892  150.2524 LP  0  0  0  0  0  0  0  0  0  0  0  0  # atno 17371 bound_to 10713
  140.9685  134.1562  157.4596 LP  0  0  0  0  0  0  0  0  0  0  0  0  # atno 17394 bound_to 11000
  139.8775  134.9970  156.5824 LP  0  0  0  0  0  0  0  0  0  0  0  0  # atno 17395 bound_to 11000

$$$$
