AV-unprocessed.smi:3047|AV-procd|sdf|11624|dock6
  -GOLD-   2272017 13D 1   1.00000     0.00000
 Structure written by MMmdl.
 37 38  0  0  0  0  0  0  0  0  1 V2000
  154.4119  139.3386  161.6563 C   0  0  0  0  0  0  0  0  0  0  0  0
  153.8502  139.7965  159.9643 S   0  0  0  0  0  0  0  0  0  0  0  0
  155.0354  139.8603  159.0957 O   0  0  0  0  0  0  0  0  0  0  0  0
  152.7133  138.9391  159.5953 O   0  0  0  0  0  0  0  0  0  0  0  0
  153.2638  141.4183  160.1598 N   0  0  0  0  0  0  0  0  0  0  0  0
  153.0745  142.0258  161.4745 C   0  0  0  0  0  0  0  0  0  0  0  0
  152.7867  143.4928  161.1695 C   0  0  0  0  0  0  0  0  0  0  0  0
  152.0717  143.4552  159.8211 C   0  0  0  0  0  0  0  0  0  0  0  0
  152.6664  142.2340  159.0867 C   0  0  2  0  0  0  0  0  0  0  0  0
  151.6235  141.5114  158.2194 C   0  0  0  0  0  0  0  0  0  0  0  0
  151.8574  140.3959  157.7526 O   0  0  0  0  0  0  0  0  0  0  0  0
  150.4826  142.1751  157.9862 N   0  0  0  0  0  0  0  0  0  0  0  0
  149.4088  141.6916  157.1313 C   0  0  0  0  0  0  0  0  0  0  0  0
  149.9198  141.4710  155.7017 C   0  0  0  0  0  0  0  0  0  0  0  0
  148.8663  140.9930  154.8297 N   0  0  0  0  0  0  0  0  0  0  0  0
  147.7221  141.6784  154.4432 C   0  0  0  0  0  0  0  0  0  0  0  0
  147.0162  140.8305  153.6196 C   0  0  0  0  0  0  0  0  0  0  0  0
  147.7027  139.6256  153.4876 N   0  0  0  0  0  0  0  0  0  0  0  0
  148.7876  139.7961  154.2322 C   0  0  0  0  0  0  0  0  0  0  0  0
  154.8870  138.3586  161.6235 H   0  0  0  0  0  0  0  0  0  0  0  0
  153.5629  139.2967  162.3362 H   0  0  0  0  0  0  0  0  0  0  0  0
  155.1303  140.0749  162.0151 H   0  0  0  0  0  0  0  0  0  0  0  0
  152.2260  141.5514  161.9686 H   0  0  0  0  0  0  0  0  0  0  0  0
  153.9591  141.9009  162.0994 H   0  0  0  0  0  0  0  0  0  0  0  0
  152.1981  143.9791  161.9478 H   0  0  0  0  0  0  0  0  0  0  0  0
  153.7266  144.0377  161.0713 H   0  0  0  0  0  0  0  0  0  0  0  0
  150.9995  143.3514  159.9936 H   0  0  0  0  0  0  0  0  0  0  0  0
  152.2202  144.3799  159.2625 H   0  0  0  0  0  0  0  0  0  0  0  0
  153.4847  142.5736  158.4496 H   0  0  0  0  0  0  0  0  0  0  0  0
  150.3703  143.0918  158.3949 H   0  0  0  0  0  0  0  0  0  0  0  0
  149.0184  140.7565  157.5364 H   0  0  0  0  0  0  0  0  0  0  0  0
  148.5903  142.4134  157.1338 H   0  0  0  0  0  0  0  0  0  0  0  0
  150.3174  142.3994  155.2893 H   0  0  0  0  0  0  0  0  0  0  0  0
  150.7334  140.7442  155.6941 H   0  0  0  0  0  0  0  0  0  0  0  0
  147.5103  142.6833  154.7777 H   0  0  0  0  0  0  0  0  0  0  0  0
  146.0743  140.9932  153.1165 H   0  0  0  0  0  0  0  0  0  0  0  0
  149.5419  139.0312  154.3472 H   0  0  0  0  0  0  0  0  0  0  0  0
  1  2  1  0  0  0  0
  1 20  1  0  0  0  0
  1 21  1  0  0  0  0
  1 22  1  0  0  0  0
  2  3  2  0  0  0  0
  2  4  2  0  0  0  0
  2  5  1  0  0  0  0
  5  9  1  0  0  0  0
  5  6  1  0  0  0  0
  6  7  1  0  0  0  0
  6 23  1  0  0  0  0
  6 24  1  0  0  0  0
  7  8  1  0  0  0  0
  7 25  1  0  0  0  0
  7 26  1  0  0  0  0
  8  9  1  0  0  0  0
  8 27  1  0  0  0  0
  8 28  1  0  0  0  0
  9 10  1  0  0  0  0
  9 29  1  0  0  0  0
 10 11  2  0  0  0  0
 10 12  1  0  0  0  0
 12 13  1  0  0  0  0
 12 30  1  0  0  0  0
 13 14  1  0  0  0  0
 13 31  1  0  0  0  0
 13 32  1  0  0  0  0
 14 15  1  0  0  0  0
 14 33  1  0  0  0  0
 14 34  1  0  0  0  0
 15 19  1  0  0  0  0
 15 16  1  0  0  0  0
 16 17  2  0  0  0  0
 16 35  1  0  0  0  0
 17 18  1  0  0  0  0
 17 36  1  0  0  0  0
 18 19  2  0  0  0  0
 19 37  1  0  0  0  0
M  END
> <s_m_source_file>
AV-unprocessed.smi

> <i_m_source_file_index>
3047

> <i_lp_mmshare_version>
43012

> <i_f3d_flags>
0

> <s_epik_input>
W0NIM11TKD1PKSg9TylOMVtDSDJdW0NIMl1bQ0gyXVtDQEhdMUMoPU8pW05IXVtDSDJdW0NIMl1uMltjSF1bY0hdbltjSF0y

> <s_epik_cmdline>
J2VwaWtfcHl0aG9uJywgJy1waCcsICc3LjAnLCAnLXRuJywgJzgnLCAnLW1hJywgJzIwMCcsICctbWV0YWxfYmluZGluZycsICctaW1hZScsICc8aW5maWxlLm1hZT4nLCAnLW9tYWUnLCAnPG91dGZpbGUubWFlPic=

> <r_lp_tautomer_probability>
1

> <r_epik_Ionization_Penalty>
0.575721

> <r_epik_Ionization_Penalty_Charging>
0.575721

> <r_epik_Ionization_Penalty_Neutral>
1.33078e-07

> <r_epik_State_Penalty>
0.588056

> <r_epik_Charging_Adjusted_Penalty>
1.16378

> <i_epik_Tot_Q>
0

> <i_epik_Tot_abs_Q>
0

> <r_epik_Metal_State_Penalty>
0.294357

> <b_epik_Metal_Only>
0

> <s_lp_Force_Field>
OPLS_2005

> <r_lp_Energy>
9.27481

> <b_lp_Chiralities_Consistent>
1

> <s_lp_Variant>
AV-unprocessed.smi:3047-4

> <Gold.Version>
5.8.1

> <Gold.Id.Protein>
6NUR|6NUR_protein|mol2

> <Gold.PLP.Fitness>
45.1239

> <Gold.PLP.PLP>
-37.4538

> <Gold.PLP.part.hbond>
-1.0000

> <Gold.PLP.part.metal>
0.0000

> <Gold.PLP.part.buried>
-4.9383

> <Gold.PLP.part.nonpolar>
-32.9605

> <Gold.PLP.part.repulsive>
1.0006

> <Gold.PLP.ligand.clash>
0.2104

> <Gold.PLP.ligand.torsion>
1.5712

> <Gold.PLP.Chemscore.Hbond>
1.0000

> <Gold.PLP.Chemscore.CHOScore>
1.9945

> <Gold.PLP.Chemscore.Metal>
0.0000

> <Gold.Chemscore.Hbonds>
donor molecule, donor type, donor heavy atom, donor atom, acceptor molecule, acceptor atom, score
      P1  H  7997  8010       L1     3  1.00
      L1  C    16    35       P1  8028  0.89
      L1  C    17    36       P1 10175  1.00

> <Gold.PLP.Chemscore.Internal.Correction>
2.0395

> <Gold.Rescore>
     Score         DG    S(hbond)    S(metal)    S(lipo)     H(rot)  DE(clash)    DE(int)     intcor
      8.93     -12.86       1.00        0.00      78.88       2.03       0.15       3.78       ----

> <Gold.Chemscore.Fitness>
8.9292

> <Gold.Chemscore.DG>
-12.8591

> <Gold.Chemscore.ZeroCoef>
-5.4800

> <Gold.Chemscore.Hbond>
0.9991

> <Gold.Chemscore.Metal>
0.0000

> <Gold.Chemscore.Lipo>
78.8758

> <Gold.Chemscore.Internal_Hbond>
0.0000

> <Gold.Chemscore.DEClash>
0.1528

> <Gold.Chemscore.DEInternal>
3.7771

> <Gold.Chemscore.Rot>
2.0259

> <Gold.Chemscore.Internal.Correction>
   9.000000E+99

> <Gold.Chemscore.Hbonds>
donor molecule, donor type, donor heavy atom, donor atom, acceptor molecule, acceptor atom, score
      P1  H  7997  8010       L1     3  0.99

> <Gold.Chemscore.Hbond.Weighted>
-3.3369

> <Gold.Chemscore.Metal.Weighted>
-0.0000

> <Gold.Chemscore.Lipo.Weighted>
-9.2285

> <Gold.Chemscore.Internal_Hbond.Weighted>
0.0000

> <Gold.Chemscore.DEClash.Weighted>
0.1528

> <Gold.Chemscore.DEInternal.Weighted>
3.7771

> <Gold.Chemscore.Rot.Weighted>
5.1863

> <Gold.Chemscore.Internal.Correction.Weighted>
   9.000000E+99

> <Gold.Protein.RotatedTorsions>
[ 6907 6896 6895 6894 ] final   -6.12 input  -60.11 | X-H torsion
[ 7974 7965 7964 7962 ] final  -21.83 input  175.53 | X-H torsion
[ 8008 7997 7996 7995 ] final   -8.14 input   59.86 | X-H torsion
[ 10167 10162 10161 10158 ] final -128.21 input  -65.29 | X-H torsion
[ 10718 10713 10712 10709 ] final  -16.81 input   66.30 | X-H torsion
[ 10763 10752 10751 10750 ] final  -74.93 input  -60.55 | X-H torsion
[ 11005 11000 10999 10996 ] final -175.74 input  -57.11 | X-H torsion

> <Gold.Protein.ActiveResidues>
 VAL166  LYS551  ARG553  GLY616  TRP617  ASP618  TYR619  PRO620  LYS621  CYS622 
 ASP623  PHE694  ASN695  SER759  ASP760  ASP761  ALA762  ILE779  LEU786  VAL792 
 PHE793  MET794  SER795  GLU796  ALA797  LYS798  CYS799  TRP800  GLU811  SER814 

> <Gold.Protein.RotatedAtoms>
  151.4706  135.1045  159.9750 H   0  0  0  0  0  0  0  0  0  0  0  0  # atno 6907 bound_to 6896
  152.4818  133.8269  159.7093 H   0  0  0  0  0  0  0  0  0  0  0  0  # atno 6908 bound_to 6896
  150.8895  133.7201  159.2935 H   0  0  0  0  0  0  0  0  0  0  0  0  # atno 6909 bound_to 6896
  146.1711  140.4395  142.8532 H   0  0  0  0  0  0  0  0  0  0  0  0  # atno 7974 bound_to 7965
  154.5770  140.2389  155.8108 H   0  0  0  0  0  0  0  0  0  0  0  0  # atno 8008 bound_to 7997
  156.2150  140.3015  155.9776 H   0  0  0  0  0  0  0  0  0  0  0  0  # atno 8009 bound_to 7997
  155.2609  140.0414  157.2988 H   0  0  0  0  0  0  0  0  0  0  0  0  # atno 8010 bound_to 7997
  139.9527  143.6038  152.2470 H   0  0  0  0  0  0  0  0  0  0  0  0  # atno 10167 bound_to 10162
  156.5824  130.4777  149.6314 H   0  0  0  0  0  0  0  0  0  0  0  0  # atno 10718 bound_to 10713
  154.4798  135.5848  153.6381 H   0  0  0  0  0  0  0  0  0  0  0  0  # atno 10763 bound_to 10752
  152.9846  135.6087  154.3261 H   0  0  0  0  0  0  0  0  0  0  0  0  # atno 10764 bound_to 10752
  154.3151  135.2844  155.2526 H   0  0  0  0  0  0  0  0  0  0  0  0  # atno 10765 bound_to 10752
  140.4599  134.6264  157.4838 H   0  0  0  0  0  0  0  0  0  0  0  0  # atno 11005 bound_to 11000
  144.8164  140.6475  143.6381 LP  0  0  0  0  0  0  0  0  0  0  0  0  # atno 17320 bound_to 7965
  145.4338  139.1545  143.4008 LP  0  0  0  0  0  0  0  0  0  0  0  0  # atno 17321 bound_to 7965
  139.6616  144.7662  151.1952 LP  0  0  0  0  0  0  0  0  0  0  0  0  # atno 17342 bound_to 10162
  140.7578  143.6002  150.8708 LP  0  0  0  0  0  0  0  0  0  0  0  0  # atno 17343 bound_to 10162
  156.2620  130.6968  151.1739 LP  0  0  0  0  0  0  0  0  0  0  0  0  # atno 17370 bound_to 10713
  157.7323  131.0600  150.5633 LP  0  0  0  0  0  0  0  0  0  0  0  0  # atno 17371 bound_to 10713
  139.9952  134.6923  155.9622 LP  0  0  0  0  0  0  0  0  0  0  0  0  # atno 17394 bound_to 11000
  141.1626  133.6538  156.4369 LP  0  0  0  0  0  0  0  0  0  0  0  0  # atno 17395 bound_to 11000

$$$$
