#       Name:                AV-unprocessed.smi:1000
#       Creating user name   scv26
#       Creation time:       Fri Mar 27 02:25:38 2020


#       File generated by GOLD software.
#

@<TRIPOS>MOLECULE
AV-unprocessed.smi:1000
    44    45     1
SMALL
NO_CHARGES


@<TRIPOS>ATOM
      1 ****        -3.2200   3.2119  -2.5721 C.3            1 S1                 0.0000
      2 ****        -1.4500   3.2676  -2.0197 S.o            1 S1                 0.0000
      3 ****        -0.8704   4.5992  -2.5015 O.2            1 S1                 0.0000
      4 ****        -1.8474   3.5540  -0.2589 C.2            1 S1                 0.0000
      5 ****        -2.0938   4.7593   0.2627 N.2            1 S1                 0.0000
      6 ****        -2.3448   4.5237   1.6014 N.2            1 S1                 0.0000
      7 ****        -2.2234   3.2022   1.7418 C.2            1 S1                 0.0000
      8 ****        -1.9165   2.5347   0.6182 N.pl3          1 S1                 0.0000
      9 ****        -1.7149   1.1088   0.4326 C.3            1 S1                 0.0000
     10 ****        -0.2290   0.7548   0.4830 C.2            1 S1                 0.0000
     11 ****         0.4168   0.6765  -0.5613 O.2            1 S1                 0.0000
     12 ****         0.2950   0.5438   1.7008 N.am           1 S1                 0.0000
     13 ****         1.6836   0.1885   1.9808 C.3            1 S1                 0.0000
     14 ****         1.8671  -1.3318   2.1498 C.3            1 S1                 0.0000
     15 ****         1.6564  -2.1188   0.8657 C.2            1 S1                 0.0000
     16 ****         0.5772  -2.9039   0.6801 C.2            1 S1                 0.0000
     17 ****         0.2949  -3.6764  -0.5958 C.3            1 S1                 0.0000
     18 ****         1.1653  -3.1991  -1.7701 C.3            1 S1                 0.0000
     19 ****         2.6208  -2.9975  -1.3308 C.3            1 S1                 0.0000
     20 ****         2.7275  -1.9514  -0.2069 C.3            1 S1                 0.0000
     21 ****        -3.8770   2.8924  -1.7630 H              1 S1                 0.0000
     22 ****        -3.3297   2.5101  -3.3987 H              1 S1                 0.0000
     23 ****        -3.5400   4.1975  -2.9105 H              1 S1                 0.0000
     24 ****        -2.3619   2.7080   2.6922 H              1 S1                 0.0000
     25 ****        -2.2577   0.5682   1.2092 H              1 S1                 0.0000
     26 ****        -2.1426   0.8059  -0.5238 H              1 S1                 0.0000
     27 ****        -0.3173   0.6327   2.4987 H              1 S1                 0.0000
     28 ****         2.3550   0.5834   1.2169 H              1 S1                 0.0000
     29 ****         1.9641   0.6855   2.9096 H              1 S1                 0.0000
     30 ****         2.8722  -1.5413   2.5169 H              1 S1                 0.0000
     31 ****         1.1850  -1.6956   2.9196 H              1 S1                 0.0000
     32 ****        -0.1537  -3.0072   1.4687 H              1 S1                 0.0000
     33 ****         0.4724  -4.7339  -0.3979 H              1 S1                 0.0000
     34 ****        -0.7598  -3.5731  -0.8519 H              1 S1                 0.0000
     35 ****         1.1105  -3.9146  -2.5911 H              1 S1                 0.0000
     36 ****         0.7743  -2.2558  -2.1543 H              1 S1                 0.0000
     37 ****         3.0234  -3.9493  -0.9817 H              1 S1                 0.0000
     38 ****         3.2355  -2.6955  -2.1792 H              1 S1                 0.0000
     39 ****         2.6375  -0.9508  -0.6293 H              1 S1                 0.0000
     40 ****         3.7154  -2.0108   0.2508 H              1 S1                 0.0000
     41 ****        -2.0961   5.6395  -0.2118 LP             1 S1                 0.0000
     42 ****        -2.5680   5.1949   2.3082 LP             1 S1                 0.0000
     43 ****        -0.0307   0.8442  -1.4397 LP             1 S1                 0.0000
     44 ****         1.3892   0.4450  -0.5317 LP             1 S1                 0.0000
@<TRIPOS>BOND
    1    1    2 1     
    2    1   21 1     
    3    1   22 1     
    4    1   23 1     
    5    2    3 2     
    6    2    4 1     
    7    4    8 1     
    8    4    5 2     
    9    5    6 1     
   10    6    7 2     
   11    7    8 1     
   12    7   24 1     
   13    8    9 1     
   14    9   10 1     
   15    9   25 1     
   16    9   26 1     
   17   10   11 2     
   18   10   12 am    
   19   12   13 1     
   20   12   27 1     
   21   13   14 1     
   22   13   28 1     
   23   13   29 1     
   24   14   15 1     
   25   14   30 1     
   26   14   31 1     
   27   15   20 1     
   28   15   16 2     
   29   16   17 1     
   30   16   32 1     
   31   17   18 1     
   32   17   33 1     
   33   17   34 1     
   34   18   19 1     
   35   18   35 1     
   36   18   36 1     
   37   19   20 1     
   38   19   37 1     
   39   19   38 1     
   40   20   39 1     
   41   20   40 1     
   42    5   41 1     
   43    6   42 1     
   44   11   43 1     
   45   11   44 1     
@<TRIPOS>SUBSTRUCTURE
      1 S1             1
@<TRIPOS>SET
LONE_PAIRS      STATIC     ATOMS    <user>   **** ""
5 3 41 42 43 44
DONOR_HYDROGENS      STATIC     ATOMS    <user>   **** ""
1 27
ATOM$BLUE        STATIC     ATOMS    COLORGROUP SYSTEM
5 3 41 42 43 44
ATOM$RED        STATIC     ATOMS    COLORGROUP SYSTEM
1 27
