AV-unprocessed.smi:1240|AV-procd|sdf|5209|dock9
  -GOLD-   22720 4303D 1   1.00000     0.00000
 Structure written by MMmdl.
 49 51  0  0  0  0  0  0  0  0  3 V2000
  144.2067  137.3063  152.8209 O   0  0  0  0  0  0  0  0  0  0  0  0
  145.4037  137.0275  152.8780 C   0  0  0  0  0  0  0  0  0  0  0  0
  146.2763  137.6912  153.6480 N   0  0  0  0  0  0  0  0  0  0  0  0
  145.9264  138.8410  154.4771 C   0  0  0  0  0  0  0  0  0  0  0  0
  146.8170  140.0716  154.1670 C   0  0  2  0  0  0  0  0  0  0  0  0
  148.1937  139.9818  154.9055 C   0  0  1  0  0  0  0  0  0  0  0  0
  148.8961  138.6356  154.7624 C   0  0  0  0  0  0  0  0  0  0  0  0
  150.3475  138.9838  155.0461 C   0  0  0  0  0  0  0  0  0  0  0  0
  150.5175  140.2077  154.3557 O   0  0  0  0  0  0  0  0  0  0  0  0
  149.2922  140.9322  154.3815 C   0  0  0  0  0  0  0  0  0  0  0  0
  146.0099  141.3106  154.4352 N   0  3  0  0  0  0  0  0  0  0  0  0
  145.5052  141.5339  155.8155 C   0  0  0  0  0  0  0  0  0  0  0  0
  144.6056  142.7811  155.8669 C   0  0  0  0  0  0  0  0  0  0  0  0
  145.3254  143.9138  155.4009 O   0  0  0  0  0  0  0  0  0  0  0  0
  145.7431  143.7549  154.0521 C   0  0  0  0  0  0  0  0  0  0  0  0
  146.6826  142.5427  153.9460 C   0  0  0  0  0  0  0  0  0  0  0  0
  146.0006  136.0266  152.2079 N   0  0  0  0  0  0  0  0  0  0  0  0
  145.4192  135.1219  151.2780 C   0  0  0  0  0  0  0  0  0  0  0  0
  144.1578  135.4563  150.7372 C   0  0  0  0  0  0  0  0  0  0  0  0
  143.5383  134.5792  149.8234 C   0  0  0  0  0  0  0  0  0  0  0  0
  144.1479  133.4238  149.4816 N   0  3  0  0  0  0  0  0  0  0  0  0
  145.3453  133.0536  149.9842 C   0  0  0  0  0  0  0  0  0  0  0  0
  146.0131  133.8903  150.9017 C   0  0  0  0  0  0  0  0  0  0  0  0
  147.2444  137.4055  153.6365 H   0  0  0  0  0  0  0  0  0  0  0  0
  144.8711  139.0777  154.3377 H   0  0  0  0  0  0  0  0  0  0  0  0
  146.0168  138.5562  155.5254 H   0  0  0  0  0  0  0  0  0  0  0  0
  147.0397  140.0450  153.0988 H   0  0  0  0  0  0  0  0  0  0  0  0
  148.0572  140.1495  155.9749 H   0  0  0  0  0  0  0  0  0  0  0  0
  148.5127  137.8753  155.4437 H   0  0  0  0  0  0  0  0  0  0  0  0
  148.8051  138.2592  153.7423 H   0  0  0  0  0  0  0  0  0  0  0  0
  150.5101  139.1396  156.1137 H   0  0  0  0  0  0  0  0  0  0  0  0
  151.0444  138.2222  154.6954 H   0  0  0  0  0  0  0  0  0  0  0  0
  149.0803  141.2862  153.3722 H   0  0  0  0  0  0  0  0  0  0  0  0
  149.4072  141.8038  155.0255 H   0  0  0  0  0  0  0  0  0  0  0  0
  144.9172  140.6838  156.1582 H   0  0  0  0  0  0  0  0  0  0  0  0
  146.3428  141.6657  156.5010 H   0  0  0  0  0  0  0  0  0  0  0  0
  143.7037  142.6369  155.2695 H   0  0  0  0  0  0  0  0  0  0  0  0
  144.2818  142.9677  156.8908 H   0  0  0  0  0  0  0  0  0  0  0  0
  144.8767  143.6371  153.3988 H   0  0  0  0  0  0  0  0  0  0  0  0
  146.2610  144.6601  153.7349 H   0  0  0  0  0  0  0  0  0  0  0  0
  147.5854  142.7215  154.5325 H   0  0  0  0  0  0  0  0  0  0  0  0
  146.9988  142.4266  152.9100 H   0  0  0  0  0  0  0  0  0  0  0  0
  146.9715  135.8588  152.4271 H   0  0  0  0  0  0  0  0  0  0  0  0
  143.6681  136.3795  151.0116 H   0  0  0  0  0  0  0  0  0  0  0  0
  142.5801  134.7651  149.3606 H   0  0  0  0  0  0  0  0  0  0  0  0
  145.7287  132.1026  149.6445 H   0  0  0  0  0  0  0  0  0  0  0  0
  146.9594  133.5656  151.3070 H   0  0  0  0  0  0  0  0  0  0  0  0
  145.1781  141.2045  153.8724 H   0  0  0  0  0  0  0  0  0  0  0  0
  143.6823  132.8022  148.8197 H   0  0  0  0  0  0  0  0  0  0  0  0
  1  2  2  0  0  0  0
  2  3  1  0  0  0  0
  2 17  1  0  0  0  0
  3  4  1  0  0  0  0
  3 24  1  0  0  0  0
  4  5  1  0  0  0  0
  4 25  1  0  0  0  0
  4 26  1  0  0  0  0
  5  6  1  0  0  0  0
  5 11  1  0  0  0  0
  5 27  1  0  0  0  0
  6 10  1  0  0  0  0
  6  7  1  0  0  0  0
  6 28  1  0  0  0  0
  7  8  1  0  0  0  0
  7 29  1  0  0  0  0
  7 30  1  0  0  0  0
  8  9  1  0  0  0  0
  8 31  1  0  0  0  0
  8 32  1  0  0  0  0
  9 10  1  0  0  0  0
 10 33  1  0  0  0  0
 10 34  1  0  0  0  0
 11 16  1  0  0  0  0
 11 12  1  0  0  0  0
 11 48  1  0  0  0  0
 12 13  1  0  0  0  0
 12 35  1  0  0  0  0
 12 36  1  0  0  0  0
 13 14  1  0  0  0  0
 13 37  1  0  0  0  0
 13 38  1  0  0  0  0
 14 15  1  0  0  0  0
 15 16  1  0  0  0  0
 15 39  1  0  0  0  0
 15 40  1  0  0  0  0
 16 41  1  0  0  0  0
 16 42  1  0  0  0  0
 17 18  1  0  0  0  0
 17 43  1  0  0  0  0
 18 23  1  0  0  0  0
 18 19  2  0  0  0  0
 19 20  1  0  0  0  0
 19 44  1  0  0  0  0
 20 21  2  0  0  0  0
 20 45  1  0  0  0  0
 21 22  1  0  0  0  0
 21 49  1  0  0  0  0
 22 23  2  0  0  0  0
 22 46  1  0  0  0  0
 23 47  1  0  0  0  0
M  CHG  1  11   1
M  CHG  1  21   1
M  END
> <s_m_source_file>
AV-unprocessed.smi

> <i_m_source_file_index>
1240

> <i_lp_mmshare_version>
43012

> <i_f3d_flags>
0

> <s_epik_input>
W2NIXTFbY0hdbltjSF1bY0hdYzFbTkhdQyg9TylbTkhdW0NIMl1bQ0BIXShbQ0BASF0yW0NIMl1bQ0gyXU9bQ0gyXTIpTjNbQ0gyXVtDSDJdT1tDSDJdW0NIMl0z

> <s_epik_cmdline>
J2VwaWtfcHl0aG9uJywgJy1waCcsICc3LjAnLCAnLXRuJywgJzgnLCAnLW1hJywgJzIwMCcsICctbWV0YWxfYmluZGluZycsICctaW1hZScsICc8aW5maWxlLm1hZT4nLCAnLW9tYWUnLCAnPG91dGZpbGUubWFlPic=

> <r_epik_Ionization_Penalty>
2.08105

> <r_epik_Ionization_Penalty_Charging>
2.08103

> <r_epik_Ionization_Penalty_Neutral>
2.04144e-05

> <r_epik_State_Penalty>
2.15598

> <r_epik_Charging_Adjusted_Penalty>
4.23701

> <i_epik_Tot_Q>
2

> <i_epik_Tot_abs_Q>
2

> <r_epik_Metal_State_Penalty>
2.25158

> <b_epik_Metal_Only>
0

> <s_lp_Force_Field>
OPLS_2005

> <r_lp_Energy>
62.0114

> <b_lp_Chiralities_Consistent>
1

> <s_lp_Variant>
AV-unprocessed.smi:1240-15

> <Gold.Version>
5.8.1

> <Gold.Id.Protein>
6NUR|6NUR_protein|mol2

> <Gold.PLP.Fitness>
45.5571

> <Gold.PLP.PLP>
-35.3475

> <Gold.PLP.part.hbond>
-3.7703

> <Gold.PLP.part.metal>
0.0000

> <Gold.PLP.part.buried>
-4.7279

> <Gold.PLP.part.nonpolar>
-27.2093

> <Gold.PLP.part.repulsive>
0.6376

> <Gold.PLP.ligand.clash>
0.0161

> <Gold.PLP.ligand.torsion>
0.5589

> <Gold.PLP.Chemscore.Hbond>
3.7280

> <Gold.PLP.Chemscore.CHOScore>
0.0000

> <Gold.PLP.Chemscore.Metal>
0.0000

> <Gold.Chemscore.Hbonds>
donor molecule, donor type, donor heavy atom, donor atom, acceptor molecule, acceptor atom, score
      L1  H    11    48       P1 10175  1.37
      L1  H    17    43       P1  7948  0.79
      P1  H  7989  7998       L1     9  1.00

> <Gold.PLP.Chemscore.Internal.Correction>
0.1594

> <Gold.Rescore>
     Score         DG    S(hbond)    S(metal)    S(lipo)     H(rot)  DE(clash)    DE(int)     intcor
     19.25     -22.26       3.39        0.00      84.74       1.74       0.52       2.49       ----

> <Gold.Chemscore.Fitness>
19.2489

> <Gold.Chemscore.DG>
-22.2598

> <Gold.Chemscore.ZeroCoef>
-5.4800

> <Gold.Chemscore.Hbond>
3.3907

> <Gold.Chemscore.Metal>
0.0000

> <Gold.Chemscore.Lipo>
84.7392

> <Gold.Chemscore.Internal_Hbond>
0.0000

> <Gold.Chemscore.DEClash>
0.5220

> <Gold.Chemscore.DEInternal>
2.4888

> <Gold.Chemscore.Rot>
1.7421

> <Gold.Chemscore.Internal.Correction>
   9.000000E+99

> <Gold.Chemscore.Hbonds>
donor molecule, donor type, donor heavy atom, donor atom, acceptor molecule, acceptor atom, score
      L1  H    11    48       P1 10175  0.41
      L1  H    17    43       P1  7948  0.75
      P1  H  7989  7998       L1     9  0.83

> <Gold.Chemscore.Hbond.Weighted>
-11.3250

> <Gold.Chemscore.Metal.Weighted>
-0.0000

> <Gold.Chemscore.Lipo.Weighted>
-9.9145

> <Gold.Chemscore.Internal_Hbond.Weighted>
0.0000

> <Gold.Chemscore.DEClash.Weighted>
0.5220

> <Gold.Chemscore.DEInternal.Weighted>
2.4888

> <Gold.Chemscore.Rot.Weighted>
4.4597

> <Gold.Chemscore.Internal.Correction.Weighted>
   9.000000E+99

> <Gold.Protein.RotatedTorsions>
[ 6907 6896 6895 6894 ] final  -85.56 input  -60.11 | X-H torsion
[ 7974 7965 7964 7962 ] final  153.04 input  175.53 | X-H torsion
[ 8008 7997 7996 7995 ] final  102.09 input   59.86 | X-H torsion
[ 10167 10162 10161 10158 ] final  -44.29 input  -65.29 | X-H torsion
[ 10718 10713 10712 10709 ] final -167.59 input   66.30 | X-H torsion
[ 10763 10752 10751 10750 ] final   -3.54 input  -60.55 | X-H torsion
[ 11005 11000 10999 10996 ] final  -23.16 input  -57.11 | X-H torsion

> <Gold.Protein.ActiveResidues>
 VAL166  LYS551  ARG553  GLY616  TRP617  ASP618  TYR619  PRO620  LYS621  CYS622 
 ASP623  PHE694  ASN695  SER759  ASP760  ASP761  ALA762  ILE779  LEU786  VAL792 
 PHE793  MET794  SER795  GLU796  ALA797  LYS798  CYS799  TRP800  GLU811  SER814 

> <Gold.Protein.RotatedAtoms>
  150.6870  134.3186  159.4776 H   0  0  0  0  0  0  0  0  0  0  0  0  # atno 6907 bound_to 6896
  152.1064  134.9303  160.0577 H   0  0  0  0  0  0  0  0  0  0  0  0  # atno 6908 bound_to 6896
  152.0562  133.4006  159.4435 H   0  0  0  0  0  0  0  0  0  0  0  0  # atno 6909 bound_to 6896
  144.8181  139.6747  143.6112 H   0  0  0  0  0  0  0  0  0  0  0  0  # atno 7974 bound_to 7965
  156.1360  140.3187  155.8422 H   0  0  0  0  0  0  0  0  0  0  0  0  # atno 8008 bound_to 7997
  155.4243  140.0514  157.3040 H   0  0  0  0  0  0  0  0  0  0  0  0  # atno 8009 bound_to 7997
  154.4937  140.2102  155.9505 H   0  0  0  0  0  0  0  0  0  0  0  0  # atno 8010 bound_to 7997
  140.6902  143.2938  151.3474 H   0  0  0  0  0  0  0  0  0  0  0  0  # atno 10167 bound_to 10162
  156.6846  130.9135  151.3061 H   0  0  0  0  0  0  0  0  0  0  0  0  # atno 10718 bound_to 10713
  153.3727  135.6995  153.6625 H   0  0  0  0  0  0  0  0  0  0  0  0  # atno 10763 bound_to 10752
  153.5268  135.3600  155.2658 H   0  0  0  0  0  0  0  0  0  0  0  0  # atno 10764 bound_to 10752
  154.8683  135.4171  154.3009 H   0  0  0  0  0  0  0  0  0  0  0  0  # atno 10765 bound_to 10752
  140.8725  133.7710  156.0204 H   0  0  0  0  0  0  0  0  0  0  0  0  # atno 11005 bound_to 11000
  146.2486  139.6150  142.9443 LP  0  0  0  0  0  0  0  0  0  0  0  0  # atno 17320 bound_to 7965
  145.5167  141.0433  143.2458 LP  0  0  0  0  0  0  0  0  0  0  0  0  # atno 17321 bound_to 7965
  139.6298  144.0743  152.2466 LP  0  0  0  0  0  0  0  0  0  0  0  0  # atno 17342 bound_to 10162
  140.0214  144.6150  150.7564 LP  0  0  0  0  0  0  0  0  0  0  0  0  # atno 17343 bound_to 10162
  157.7031  130.9355  150.0847 LP  0  0  0  0  0  0  0  0  0  0  0  0  # atno 17370 bound_to 10713
  156.1842  130.3651  149.8994 LP  0  0  0  0  0  0  0  0  0  0  0  0  # atno 17371 bound_to 10713
  140.8556  134.2901  157.5256 LP  0  0  0  0  0  0  0  0  0  0  0  0  # atno 17394 bound_to 11000
  139.8713  134.9491  156.4016 LP  0  0  0  0  0  0  0  0  0  0  0  0  # atno 17395 bound_to 11000

$$$$
