#       Name:                AV-unprocessed.smi:1261
#       Creating user name   scv26
#       Creation time:       Fri Mar 27 04:42:15 2020


#       File generated by GOLD software.
#

@<TRIPOS>MOLECULE
AV-unprocessed.smi:1261
    56    57     1
SMALL
NO_CHARGES


@<TRIPOS>ATOM
      1 ****        -1.8872   4.3045  -2.0482 C.3            1 S1                 0.0000
      2 ****        -2.2118   3.4908  -0.7876 C.3            1 S1                 0.0000
      3 ****        -3.7095   3.5582  -0.4456 C.3            1 S1                 0.0000
      4 ****        -4.0166   2.7234   0.8085 C.3            1 S1                 0.0000
      5 ****        -5.5117   2.7623   1.1552 C.3            1 S1                 0.0000
      6 ****        -3.5178   1.2777   0.6198 C.3            1 S1                 0.0000
      7 ****        -2.0682   1.2398   0.2944 N.4            1 S1                 1.0000
      8 ****        -1.5430  -0.1487   0.2494 C.3            1 S1                 0.0000
      9 ****        -0.0189  -0.2125   0.4493 C.3            1 S1                 0.0000
     10 ****         0.4942  -1.6585   0.5421 C.3            1 S1                 0.0000
     11 ****         1.9386  -1.7045   0.7311 N.am           1 S1                 0.0000
     12 ****         2.8491  -1.6022  -0.2490 C.2            1 S1                 0.0000
     13 ****         2.5545  -1.4272  -1.4318 O.2            1 S1                 0.0000
     14 ****         4.3182  -1.6921   0.1782 C.3            1 S1                 0.0000
     15 ****         4.8266  -3.0672   0.1007 N.am           1 S1                 0.0000
     16 ****         4.7736  -3.7809   1.3742 N.pl3          1 S1                -1.0000
     17 ****         5.1939  -5.0726   1.4280 C.2            1 S1                 0.0000
     18 ****         5.1689  -5.7386   2.4604 O.2            1 S1                 0.0000
     19 ****         5.6935  -5.6811   0.2062 C.2            1 S1                 0.0000
     20 ****         5.7406  -4.9952  -0.9528 C.2            1 S1                 0.0000
     21 ****         5.2942  -3.6112  -1.0590 C.2            1 S1                 0.0000
     22 ****         5.3339  -2.9807  -2.1154 O.2            1 S1                 0.0000
     23 ****        -1.7638   2.0236  -0.9324 C.3            1 S1                 0.0000
     24 ****        -2.4139   3.9140  -2.9195 H              1 S1                 0.0000
     25 ****        -0.8193   4.2815  -2.2671 H              1 S1                 0.0000
     26 ****        -2.1747   5.3492  -1.9262 H              1 S1                 0.0000
     27 ****        -1.6555   3.9338   0.0400 H              1 S1                 0.0000
     28 ****        -4.0086   4.5949  -0.2850 H              1 S1                 0.0000
     29 ****        -4.2984   3.1917  -1.2880 H              1 S1                 0.0000
     30 ****        -3.4739   3.1612   1.6479 H              1 S1                 0.0000
     31 ****        -6.1166   2.3401   0.3521 H              1 S1                 0.0000
     32 ****        -5.8491   3.7855   1.3232 H              1 S1                 0.0000
     33 ****        -5.7203   2.1948   2.0626 H              1 S1                 0.0000
     34 ****        -3.6991   0.7160   1.5373 H              1 S1                 0.0000
     35 ****        -4.0808   0.7809  -0.1723 H              1 S1                 0.0000
     36 ****        -2.0090  -0.7303   1.0460 H              1 S1                 0.0000
     37 ****        -1.8313  -0.6259  -0.6886 H              1 S1                 0.0000
     38 ****         0.4897   0.2914  -0.3722 H              1 S1                 0.0000
     39 ****         0.2525   0.3251   1.3588 H              1 S1                 0.0000
     40 ****         0.0288  -2.1665   1.3870 H              1 S1                 0.0000
     41 ****         0.2161  -2.2224  -0.3500 H              1 S1                 0.0000
     42 ****         2.2770  -1.8608   1.6702 H              1 S1                 0.0000
     43 ****         4.9143  -1.0295  -0.4515 H              1 S1                 0.0000
     44 ****         4.4281  -1.3003   1.1913 H              1 S1                 0.0000
     45 ****         6.0356  -6.7052   0.2285 H              1 S1                 0.0000
     46 ****         6.1206  -5.4872  -1.8357 H              1 S1                 0.0000
     47 ****        -2.2551   1.5607  -1.7900 H              1 S1                 0.0000
     48 ****        -0.6937   2.0024  -1.1347 H              1 S1                 0.0000
     49 ****        -1.5965   1.6976   1.0613 H              1 S1                 0.0000
     50 ****         1.5946  -1.3541  -1.7025 LP             1 S1                 0.0000
     51 ****         3.2752  -1.3581  -2.1217 LP             1 S1                 0.0000
     52 ****         4.4324  -3.3249   2.1962 LP             1 S1                 0.0000
     53 ****         4.8288  -5.3331   3.3088 LP             1 S1                 0.0000
     54 ****         5.4887  -6.6860   2.4521 LP             1 S1                 0.0000
     55 ****         5.0159  -2.0331  -2.1444 LP             1 S1                 0.0000
     56 ****         5.6842  -3.4161  -2.9447 LP             1 S1                 0.0000
@<TRIPOS>BOND
    1    1    2 1     
    2    1   24 1     
    3    1   25 1     
    4    1   26 1     
    5    2   23 1     
    6    2    3 1     
    7    2   27 1     
    8    3    4 1     
    9    3   28 1     
   10    3   29 1     
   11    4    5 1     
   12    4    6 1     
   13    4   30 1     
   14    5   31 1     
   15    5   32 1     
   16    5   33 1     
   17    6    7 1     
   18    6   34 1     
   19    6   35 1     
   20    7    8 1     
   21    7   23 1     
   22    7   49 1     
   23    8    9 1     
   24    8   36 1     
   25    8   37 1     
   26    9   10 1     
   27    9   38 1     
   28    9   39 1     
   29   10   11 1     
   30   10   40 1     
   31   10   41 1     
   32   11   12 am    
   33   11   42 1     
   34   12   13 2     
   35   12   14 1     
   36   14   43 1     
   37   14   44 1     
   38   14   15 1     
   39   15   16 1     
   40   15   21 am    
   41   16   17 1     
   42   17   18 2     
   43   17   19 1     
   44   19   45 1     
   45   19   20 2     
   46   20   46 1     
   47   20   21 1     
   48   21   22 2     
   49   23   47 1     
   50   23   48 1     
   51   13   50 1     
   52   13   51 1     
   53   16   52 1     
   54   18   53 1     
   55   18   54 1     
   56   22   55 1     
   57   22   56 1     
@<TRIPOS>SUBSTRUCTURE
      1 S1             1
@<TRIPOS>SET
LONE_PAIRS      STATIC     ATOMS    <user>   **** ""
7 50 51 52 53 54 55 56
DONOR_HYDROGENS      STATIC     ATOMS    <user>   **** ""
2 49 42
ATOM$BLUE        STATIC     ATOMS    COLORGROUP SYSTEM
7 50 51 52 53 54 55 56
ATOM$RED        STATIC     ATOMS    COLORGROUP SYSTEM
2 49 42
