AV-unprocessed.smi:671|AV-procd|sdf|3279|dock10
  -GOLD-   22720 0243D 1   1.00000     0.00000
 Structure written by MMmdl.
 49 50  0  0  0  0  0  0  0  0  1 V2000
  146.7823  138.5945  153.2381 C   0  0  0  0  0  0  0  0  0  0  0  0
  146.4330  139.5703  154.3257 C   0  0  0  0  0  0  0  0  0  0  0  0
  145.3555  139.3645  155.0644 N   0  0  0  0  0  0  0  0  0  0  0  0
  145.3291  140.3988  155.9289 N   0  0  0  0  0  0  0  0  0  0  0  0
  144.2572  140.4845  156.9019 C   0  0  0  0  0  0  0  0  0  0  0  0
  146.3944  141.2577  155.7390 C   0  0  0  0  0  0  0  0  0  0  0  0
  146.5914  142.4786  156.5787 C   0  0  0  0  0  0  0  0  0  0  0  0
  147.1353  140.7512  154.7049 C   0  0  0  0  0  0  0  0  0  0  0  0
  148.4002  141.2873  154.0872 C   0  0  0  0  0  0  0  0  0  0  0  0
  149.6444  140.9802  154.9489 C   0  0  2  0  0  0  0  0  0  0  0  0
  149.4157  139.8037  155.9101 C   0  0  0  0  0  0  0  0  0  0  0  0
  150.0263  142.1614  155.7265 N   0  0  0  0  0  0  0  0  0  0  0  0
  151.0248  142.2786  156.6217 C   0  0  0  0  0  0  0  0  0  0  0  0
  151.7657  141.3360  156.8934 O   0  0  0  0  0  0  0  0  0  0  0  0
  151.1348  143.4954  157.1813 N   0  0  0  0  0  0  0  0  0  0  0  0
  152.0992  143.8758  158.2086 C   0  0  1  0  0  0  0  0  0  0  0  0
  151.8562  145.3276  158.6655 C   0  0  0  0  0  0  0  0  0  0  0  0
  151.4093  145.2518  160.1266 C   0  0  0  0  0  0  0  0  0  0  0  0
  152.0434  143.9673  160.6492 C   0  0  0  0  0  0  0  0  0  0  0  0
  151.9473  142.9963  159.4695 C   0  0  2  0  0  0  0  0  0  0  0  0
  152.9523  141.8388  159.5465 C   0  0  0  0  0  0  0  0  0  0  0  0
  147.6126  137.9561  153.5396 H   0  0  0  0  0  0  0  0  0  0  0  0
  147.0789  139.1146  152.3272 H   0  0  0  0  0  0  0  0  0  0  0  0
  145.9400  137.9486  152.9877 H   0  0  0  0  0  0  0  0  0  0  0  0
  144.6546  140.2998  157.9002 H   0  0  0  0  0  0  0  0  0  0  0  0
  143.4820  139.7473  156.6870 H   0  0  0  0  0  0  0  0  0  0  0  0
  143.8121  141.4794  156.8735 H   0  0  0  0  0  0  0  0  0  0  0  0
  147.5444  142.9605  156.3618 H   0  0  0  0  0  0  0  0  0  0  0  0
  146.5824  142.2258  157.6391 H   0  0  0  0  0  0  0  0  0  0  0  0
  145.7993  143.2049  156.3962 H   0  0  0  0  0  0  0  0  0  0  0  0
  148.5261  140.8532  153.0949 H   0  0  0  0  0  0  0  0  0  0  0  0
  148.3316  142.3617  153.9144 H   0  0  0  0  0  0  0  0  0  0  0  0
  150.4749  140.7069  154.2958 H   0  0  0  0  0  0  0  0  0  0  0  0
  149.1949  138.8843  155.3674 H   0  0  0  0  0  0  0  0  0  0  0  0
  148.5833  139.9984  156.5871 H   0  0  0  0  0  0  0  0  0  0  0  0
  150.3019  139.6159  156.5172 H   0  0  0  0  0  0  0  0  0  0  0  0
  149.4863  142.9955  155.5469 H   0  0  0  0  0  0  0  0  0  0  0  0
  150.4826  144.2077  156.8877 H   0  0  0  0  0  0  0  0  0  0  0  0
  153.1158  143.8096  157.8158 H   0  0  0  0  0  0  0  0  0  0  0  0
  152.7920  145.8847  158.6028 H   0  0  0  0  0  0  0  0  0  0  0  0
  151.1286  145.8588  158.0500 H   0  0  0  0  0  0  0  0  0  0  0  0
  151.7045  146.1299  160.7013 H   0  0  0  0  0  0  0  0  0  0  0  0
  150.3231  145.1717  160.1774 H   0  0  0  0  0  0  0  0  0  0  0  0
  153.0885  144.1537  160.9006 H   0  0  0  0  0  0  0  0  0  0  0  0
  151.5473  143.5900  161.5441 H   0  0  0  0  0  0  0  0  0  0  0  0
  150.9401  142.5750  159.4861 H   0  0  0  0  0  0  0  0  0  0  0  0
  153.9799  142.2032  159.5401 H   0  0  0  0  0  0  0  0  0  0  0  0
  152.8336  141.1614  158.7005 H   0  0  0  0  0  0  0  0  0  0  0  0
  152.8093  141.2579  160.4580 H   0  0  0  0  0  0  0  0  0  0  0  0
  1  2  1  0  0  0  0
  1 22  1  0  0  0  0
  1 23  1  0  0  0  0
  1 24  1  0  0  0  0
  2  8  1  0  0  0  0
  2  3  2  0  0  0  0
  3  4  1  0  0  0  0
  4  5  1  0  0  0  0
  4  6  1  0  0  0  0
  5 25  1  0  0  0  0
  5 26  1  0  0  0  0
  5 27  1  0  0  0  0
  6  7  1  0  0  0  0
  6  8  2  0  0  0  0
  7 28  1  0  0  0  0
  7 29  1  0  0  0  0
  7 30  1  0  0  0  0
  8  9  1  0  0  0  0
  9 10  1  0  0  0  0
  9 31  1  0  0  0  0
  9 32  1  0  0  0  0
 10 11  1  0  0  0  0
 10 12  1  0  0  0  0
 10 33  1  0  0  0  0
 11 34  1  0  0  0  0
 11 35  1  0  0  0  0
 11 36  1  0  0  0  0
 12 13  1  0  0  0  0
 12 37  1  0  0  0  0
 13 14  2  0  0  0  0
 13 15  1  0  0  0  0
 15 16  1  0  0  0  0
 15 38  1  0  0  0  0
 16 20  1  0  0  0  0
 16 17  1  0  0  0  0
 16 39  1  0  0  0  0
 17 18  1  0  0  0  0
 17 40  1  0  0  0  0
 17 41  1  0  0  0  0
 18 19  1  0  0  0  0
 18 42  1  0  0  0  0
 18 43  1  0  0  0  0
 19 20  1  0  0  0  0
 19 44  1  0  0  0  0
 19 45  1  0  0  0  0
 20 21  1  0  0  0  0
 20 46  1  0  0  0  0
 21 47  1  0  0  0  0
 21 48  1  0  0  0  0
 21 49  1  0  0  0  0
M  END
> <s_m_source_file>
AV-unprocessed.smi

> <i_m_source_file_index>
671

> <i_lp_mmshare_version>
43012

> <i_f3d_flags>
0

> <s_epik_input>
W0NIM11jMW5uKFtDSDNdKWMoW0NIM10pYzFbQ0gyXVtDQEhdKFtDSDNdKVtOSF1DKD1PKVtOSF1bQ0BASF0yW0NIMl1bQ0gyXVtDSDJdW0NASF0yW0NIM10=

> <s_epik_cmdline>
J2VwaWtfcHl0aG9uJywgJy1waCcsICc3LjAnLCAnLXRuJywgJzgnLCAnLW1hJywgJzIwMCcsICctbWV0YWxfYmluZGluZycsICctaW1hZScsICc8aW5maWxlLm1hZT4nLCAnLW9tYWUnLCAnPG91dGZpbGUubWFlPic=

> <r_lp_tautomer_probability>
1

> <r_epik_Ionization_Penalty>
0.0126855

> <r_epik_Ionization_Penalty_Charging>
0

> <r_epik_Ionization_Penalty_Neutral>
0.0126855

> <r_epik_State_Penalty>
0.00977547

> <r_epik_Charging_Adjusted_Penalty>
0.00977547

> <i_epik_Tot_Q>
0

> <i_epik_Tot_abs_Q>
0

> <r_epik_Metal_State_Penalty>
0.00957132

> <b_epik_Metal_Only>
0

> <s_lp_Force_Field>
OPLS_2005

> <r_lp_Energy>
21.5891

> <b_lp_Chiralities_Consistent>
1

> <s_lp_Variant>
AV-unprocessed.smi:671-7

> <Gold.Version>
5.8.1

> <Gold.Id.Protein>
6NUR|6NUR_protein|mol2

> <Gold.PLP.Fitness>
43.3082

> <Gold.PLP.PLP>
-39.1689

> <Gold.PLP.part.hbond>
-2.0000

> <Gold.PLP.part.metal>
0.0000

> <Gold.PLP.part.buried>
-3.2968

> <Gold.PLP.part.nonpolar>
-33.9547

> <Gold.PLP.part.repulsive>
0.2915

> <Gold.PLP.ligand.clash>
0.0794

> <Gold.PLP.ligand.torsion>
0.8281

> <Gold.PLP.Chemscore.Hbond>
1.9516

> <Gold.PLP.Chemscore.CHOScore>
0.0000

> <Gold.PLP.Chemscore.Metal>
0.0000

> <Gold.Chemscore.Hbonds>
donor molecule, donor type, donor heavy atom, donor atom, acceptor molecule, acceptor atom, score
      L1  H    12    37       P1  8028  1.00
      L1  H    15    38       P1  8028  0.92

> <Gold.PLP.Chemscore.Internal.Correction>
0.0202

> <Gold.Rescore>
     Score         DG    S(hbond)    S(metal)    S(lipo)     H(rot)  DE(clash)    DE(int)     intcor
     17.31     -21.10       1.91        0.00     110.53       1.45       0.63       3.15       ----

> <Gold.Chemscore.Fitness>
17.3101

> <Gold.Chemscore.DG>
-21.0962

> <Gold.Chemscore.ZeroCoef>
-5.4800

> <Gold.Chemscore.Hbond>
1.9150

> <Gold.Chemscore.Metal>
0.0000

> <Gold.Chemscore.Lipo>
110.5303

> <Gold.Chemscore.Internal_Hbond>
0.0000

> <Gold.Chemscore.DEClash>
0.6312

> <Gold.Chemscore.DEInternal>
3.1549

> <Gold.Chemscore.Rot>
1.4499

> <Gold.Chemscore.Internal.Correction>
   9.000000E+99

> <Gold.Chemscore.Hbonds>
donor molecule, donor type, donor heavy atom, donor atom, acceptor molecule, acceptor atom, score
      L1  H    12    37       P1  8028  1.00
      L1  H    15    38       P1  8028  0.82

> <Gold.Chemscore.Hbond.Weighted>
-6.3960

> <Gold.Chemscore.Metal.Weighted>
-0.0000

> <Gold.Chemscore.Lipo.Weighted>
-12.9321

> <Gold.Chemscore.Internal_Hbond.Weighted>
0.0000

> <Gold.Chemscore.DEClash.Weighted>
0.6312

> <Gold.Chemscore.DEInternal.Weighted>
3.1549

> <Gold.Chemscore.Rot.Weighted>
3.7118

> <Gold.Chemscore.Internal.Correction.Weighted>
   9.000000E+99

> <Gold.Protein.RotatedTorsions>
[ 6907 6896 6895 6894 ] final  -52.14 input  -60.11 | X-H torsion
[ 7974 7965 7964 7962 ] final   33.64 input  175.53 | X-H torsion
[ 8008 7997 7996 7995 ] final  150.81 input   59.86 | X-H torsion
[ 10167 10162 10161 10158 ] final -176.34 input  -65.29 | X-H torsion
[ 10718 10713 10712 10709 ] final    9.66 input   66.30 | X-H torsion
[ 10763 10752 10751 10750 ] final  112.55 input  -60.55 | X-H torsion
[ 11005 11000 10999 10996 ] final  163.18 input  -57.11 | X-H torsion

> <Gold.Protein.ActiveResidues>
 VAL166  LYS551  ARG553  GLY616  TRP617  ASP618  TYR619  PRO620  LYS621  CYS622 
 ASP623  PHE694  ASN695  SER759  ASP760  ASP761  ALA762  ILE779  LEU786  VAL792 
 PHE793  MET794  SER795  GLU796  ALA797  LYS798  CYS799  TRP800  GLU811  SER814 

> <Gold.Protein.RotatedAtoms>
  150.8546  134.7881  159.7035 H   0  0  0  0  0  0  0  0  0  0  0  0  # atno 6907 bound_to 6896
  152.4601  134.5200  159.9789 H   0  0  0  0  0  0  0  0  0  0  0  0  # atno 6908 bound_to 6896
  151.5315  133.3410  159.2954 H   0  0  0  0  0  0  0  0  0  0  0  0  # atno 6909 bound_to 6896
  146.1407  139.6370  142.9165 H   0  0  0  0  0  0  0  0  0  0  0  0  # atno 7974 bound_to 7965
  156.2700  140.2064  156.6077 H   0  0  0  0  0  0  0  0  0  0  0  0  # atno 8008 bound_to 7997
  154.6856  140.0535  157.0335 H   0  0  0  0  0  0  0  0  0  0  0  0  # atno 8009 bound_to 7997
  155.0938  140.3199  155.4569 H   0  0  0  0  0  0  0  0  0  0  0  0  # atno 8010 bound_to 7997
  139.5535  144.2049  152.1118 H   0  0  0  0  0  0  0  0  0  0  0  0  # atno 10167 bound_to 10162
  156.9696  130.5964  149.5668 H   0  0  0  0  0  0  0  0  0  0  0  0  # atno 10718 bound_to 10713
  153.4794  135.3683  155.2434 H   0  0  0  0  0  0  0  0  0  0  0  0  # atno 10763 bound_to 10752
  154.8755  135.3950  154.3717 H   0  0  0  0  0  0  0  0  0  0  0  0  # atno 10764 bound_to 10752
  153.4319  135.7082  153.6290 H   0  0  0  0  0  0  0  0  0  0  0  0  # atno 10765 bound_to 10752
  140.2332  134.8108  157.3338 H   0  0  0  0  0  0  0  0  0  0  0  0  # atno 11005 bound_to 11000
  145.5054  141.0437  143.2517 LP  0  0  0  0  0  0  0  0  0  0  0  0  # atno 17320 bound_to 7965
  144.7789  139.6569  143.7163 LP  0  0  0  0  0  0  0  0  0  0  0  0  # atno 17321 bound_to 7965
  140.1549  144.5080  150.6666 LP  0  0  0  0  0  0  0  0  0  0  0  0  # atno 17342 bound_to 10162
  140.6802  143.2323  151.5403 LP  0  0  0  0  0  0  0  0  0  0  0  0  # atno 17343 bound_to 10162
  156.0288  130.5381  150.8479 LP  0  0  0  0  0  0  0  0  0  0  0  0  # atno 17370 bound_to 10713
  157.5602  131.0945  150.9571 LP  0  0  0  0  0  0  0  0  0  0  0  0  # atno 17371 bound_to 10713
  140.1729  134.4586  155.7820 LP  0  0  0  0  0  0  0  0  0  0  0  0  # atno 17394 bound_to 11000
  141.2216  133.6949  156.7738 LP  0  0  0  0  0  0  0  0  0  0  0  0  # atno 17395 bound_to 11000

$$$$
