#       Name:                AV-unprocessed.smi:2194
#       Creating user name   scv26
#       Creation time:       Fri Mar 27 12:11:37 2020


#       File generated by GOLD software.
#

@<TRIPOS>MOLECULE
AV-unprocessed.smi:2194
    54    56     1
SMALL
NO_CHARGES


@<TRIPOS>ATOM
      1 ****        -7.7440   0.3908   0.1803 C.3            1 S1                 0.0000
      2 ****        -6.2487   0.1490   0.1620 C.ar           1 S1                 0.0000
      3 ****        -5.3493   1.2312   0.0873 C.ar           1 S1                 0.0000
      4 ****        -3.9611   0.9954   0.0706 C.ar           1 S1                 0.0000
      5 ****        -3.4497  -0.3172   0.1301 C.ar           1 S1                 0.0000
      6 ****        -2.0787  -0.4558   0.1101 O.3            1 S1                 0.0000
      7 ****        -1.5303  -1.7628   0.2294 C.3            1 S1                 0.0000
      8 ****         0.0053  -1.6926   0.1987 C.3            1 S1                 0.0000
      9 ****         0.4750  -1.2290   1.4494 O.3            1 S1                 0.0000
     10 ****         0.5635  -0.8607  -0.9743 C.3            1 S1                 0.0000
     11 ****         2.0184  -0.8552  -1.0084 N.pl3          1 S1                 0.0000
     12 ****         2.8017  -1.7962  -1.5737 C.2            1 S1                 0.0000
     13 ****         4.1151  -1.5869  -1.4770 N.2            1 S1                 0.0000
     14 ****         4.1660  -0.3855  -0.7792 C.2            1 S1                 0.0000
     15 ****         2.9235   0.0701  -0.4893 C.2            1 S1                 0.0000
     16 ****         2.6855   1.3155   0.2462 C.2            1 S1                 0.0000
     17 ****         1.5453   1.7040   0.5040 O.2            1 S1                 0.0000
     18 ****         3.8292   1.9773   0.6061 N.am           1 S1                 0.0000
     19 ****         3.6280   3.2394   1.3435 C.3            1 S1                 0.0000
     20 ****         5.1194   1.5523   0.3310 C.2            1 S1                 0.0000
     21 ****         6.0997   2.2087   0.6904 O.2            1 S1                 0.0000
     22 ****         5.2855   0.3733  -0.3561 N.am           1 S1                 0.0000
     23 ****         6.6128  -0.1571  -0.6830 C.3            1 S1                 0.0000
     24 ****        -4.3604  -1.4013   0.2042 C.ar           1 S1                 0.0000
     25 ****        -5.7491  -1.1667   0.2194 C.ar           1 S1                 0.0000
     26 ****        -7.9751   1.4565   0.1908 H              1 S1                 0.0000
     27 ****        -8.1893  -0.0624   1.0664 H              1 S1                 0.0000
     28 ****        -8.2084  -0.0503  -0.7020 H              1 S1                 0.0000
     29 ****        -5.7186   2.2452   0.0432 H              1 S1                 0.0000
     30 ****        -3.2805   1.8324   0.0139 H              1 S1                 0.0000
     31 ****        -1.8685  -2.2490   1.1464 H              1 S1                 0.0000
     32 ****        -1.8695  -2.3690  -0.6123 H              1 S1                 0.0000
     33 ****         0.3784  -2.7129   0.1019 H              1 S1                 0.0000
     34 ****         1.4198  -1.2399   1.4391 H              1 S1                 0.0000
     35 ****         0.2062  -1.2748  -1.9181 H              1 S1                 0.0000
     36 ****         0.1987   0.1648  -0.9445 H              1 S1                 0.0000
     37 ****         2.3947  -2.6654  -2.0696 H              1 S1                 0.0000
     38 ****         4.5421   3.7540   1.6399 H              1 S1                 0.0000
     39 ****         3.0660   3.0589   2.2615 H              1 S1                 0.0000
     40 ****         3.0587   3.9461   0.7373 H              1 S1                 0.0000
     41 ****         7.4430   0.4708  -0.3588 H              1 S1                 0.0000
     42 ****         6.7071  -0.2841  -1.7620 H              1 S1                 0.0000
     43 ****         6.7454  -1.1350  -0.2191 H              1 S1                 0.0000
     44 ****        -4.0194  -2.4242   0.2493 H              1 S1                 0.0000
     45 ****        -6.4315  -2.0020   0.2757 H              1 S1                 0.0000
     46 ****        -1.7153   0.0878   0.8667 LP             1 S1                 0.0000
     47 ****        -1.7557  -0.0774  -0.7574 LP             1 S1                 0.0000
     48 ****         0.1390  -1.8260   2.1779 LP             1 S1                 0.0000
     49 ****         0.1504  -0.2963   1.6066 LP             1 S1                 0.0000
     50 ****         4.8686  -2.1488  -1.8182 LP             1 S1                 0.0000
     51 ****         0.7553   1.1660   0.2100 LP             1 S1                 0.0000
     52 ****         1.4096   2.5574   1.0073 LP             1 S1                 0.0000
     53 ****         5.9719   3.0653   1.1904 LP             1 S1                 0.0000
     54 ****         7.0223   1.8844   0.4818 LP             1 S1                 0.0000
@<TRIPOS>BOND
    1    1    2 1     
    2    1   26 1     
    3    1   27 1     
    4    1   28 1     
    5    2   25 ar    
    6    2    3 ar    
    7    3    4 ar    
    8    3   29 1     
    9    4    5 ar    
   10    4   30 1     
   11    5    6 1     
   12    5   24 ar    
   13    6    7 1     
   14    7    8 1     
   15    7   31 1     
   16    7   32 1     
   17    8    9 1     
   18    8   10 1     
   19    8   33 1     
   20    9   34 1     
   21   10   11 1     
   22   10   35 1     
   23   10   36 1     
   24   11   15 1     
   25   11   12 1     
   26   12   13 2     
   27   12   37 1     
   28   13   14 1     
   29   14   22 1     
   30   14   15 2     
   31   15   16 1     
   32   16   17 2     
   33   16   18 am    
   34   18   19 1     
   35   18   20 am    
   36   19   38 1     
   37   19   39 1     
   38   19   40 1     
   39   20   21 2     
   40   20   22 am    
   41   22   23 1     
   42   23   41 1     
   43   23   42 1     
   44   23   43 1     
   45   24   25 ar    
   46   24   44 1     
   47   25   45 1     
   48    6   46 1     
   49    6   47 1     
   50    9   48 1     
   51    9   49 1     
   52   13   50 1     
   53   17   51 1     
   54   17   52 1     
   55   21   53 1     
   56   21   54 1     
@<TRIPOS>SUBSTRUCTURE
      1 S1             1
@<TRIPOS>SET
LONE_PAIRS      STATIC     ATOMS    <user>   **** ""
9 46 47 48 49 50 51 52 53 54
DONOR_HYDROGENS      STATIC     ATOMS    <user>   **** ""
1 34
ATOM$BLUE        STATIC     ATOMS    COLORGROUP SYSTEM
9 46 47 48 49 50 51 52 53 54
ATOM$RED        STATIC     ATOMS    COLORGROUP SYSTEM
1 34
