#       Name:                AV-unprocessed.smi:1145
#       Creating user name   scv26
#       Creation time:       Fri Mar 27 03:45:53 2020


#       File generated by GOLD software.
#

@<TRIPOS>MOLECULE
AV-unprocessed.smi:1145
    41    42     1
SMALL
NO_CHARGES


@<TRIPOS>ATOM
      1 ****         0.3996  -1.6966  -1.3964 C.3            1 S1                 0.0000
      2 ****         0.6487  -1.1640   0.0269 C.3            1 S1                 0.0000
      3 ****         2.0580  -1.4943   0.5583 C.3            1 S1                 0.0000
      4 ****         2.3370  -2.9187   0.5812 N.pl3          1 S1                 0.0000
      5 ****         3.1864  -3.6406  -0.2311 C.2            1 S1                 0.0000
      6 ****         3.1244  -4.9435   0.1728 C.2            1 S1                 0.0000
      7 ****         2.2013  -4.9183   1.2554 C.2            1 S1                 0.0000
      8 ****         1.7338  -3.7046   1.4990 N.2            1 S1                 0.0000
      9 ****         0.4544   0.2829   0.0646 N.am           1 S1                 0.0000
     10 ****        -0.7241   0.9090   0.2100 C.2            1 S1                 0.0000
     11 ****        -1.7929   0.3086   0.3255 O.2            1 S1                 0.0000
     12 ****        -0.6772   2.4488   0.2424 C.3            1 S1                 0.0000
     13 ****        -1.1345   3.0762  -1.0874 C.3            1 S1                 0.0000
     14 ****        -2.6466   2.9272  -1.3407 C.3            1 S1                 0.0000
     15 ****        -3.5119   3.1917  -0.0993 C.2            1 S1                 0.0000
     16 ****        -4.7172   3.3883  -0.2351 O.2            1 S1                 0.0000
     17 ****        -2.9387   3.1597   1.1167 N.am           1 S1                 0.0000
     18 ****        -1.5064   3.0494   1.3999 C.3            1 S1                 0.0000
     19 ****         0.4764  -2.7833  -1.4351 H              1 S1                 0.0000
     20 ****         1.1204  -1.2862  -2.1041 H              1 S1                 0.0000
     21 ****        -0.5983  -1.4330  -1.7479 H              1 S1                 0.0000
     22 ****        -0.0769  -1.6298   0.6965 H              1 S1                 0.0000
     23 ****         2.8167  -1.0061  -0.0552 H              1 S1                 0.0000
     24 ****         2.1808  -1.1070   1.5709 H              1 S1                 0.0000
     25 ****         3.7558  -3.1728  -1.0205 H              1 S1                 0.0000
     26 ****         3.6579  -5.7865  -0.2406 H              1 S1                 0.0000
     27 ****         1.8610  -5.7396   1.8688 H              1 S1                 0.0000
     28 ****         1.2828   0.8534  -0.0219 H              1 S1                 0.0000
     29 ****         0.3639   2.7318   0.4078 H              1 S1                 0.0000
     30 ****        -0.8785   4.1366  -1.0846 H              1 S1                 0.0000
     31 ****        -0.5800   2.6407  -1.9196 H              1 S1                 0.0000
     32 ****        -2.9545   3.5963  -2.1448 H              1 S1                 0.0000
     33 ****        -2.8641   1.9156  -1.6847 H              1 S1                 0.0000
     34 ****        -3.5434   3.2907   1.9146 H              1 S1                 0.0000
     35 ****        -1.3741   2.4675   2.3129 H              1 S1                 0.0000
     36 ****        -1.1386   4.0511   1.6246 H              1 S1                 0.0000
     37 ****         1.0802  -3.4307   2.2046 LP             1 S1                 0.0000
     38 ****        -1.8086  -0.6912   0.3133 LP             1 S1                 0.0000
     39 ****        -2.6452   0.8208   0.4315 LP             1 S1                 0.0000
     40 ****        -5.1263   3.3752  -1.1475 LP             1 S1                 0.0000
     41 ****        -5.2891   3.5614   0.5668 LP             1 S1                 0.0000
@<TRIPOS>BOND
    1    1    2 1     
    2    1   19 1     
    3    1   20 1     
    4    1   21 1     
    5    2    3 1     
    6    2    9 1     
    7    2   22 1     
    8    3    4 1     
    9    3   23 1     
   10    3   24 1     
   11    4    8 1     
   12    4    5 1     
   13    5    6 2     
   14    5   25 1     
   15    6    7 1     
   16    6   26 1     
   17    7    8 2     
   18    7   27 1     
   19    9   10 am    
   20    9   28 1     
   21   10   11 2     
   22   10   12 1     
   23   12   18 1     
   24   12   13 1     
   25   12   29 1     
   26   13   14 1     
   27   13   30 1     
   28   13   31 1     
   29   14   15 1     
   30   14   32 1     
   31   14   33 1     
   32   15   16 2     
   33   15   17 am    
   34   17   18 1     
   35   17   34 1     
   36   18   35 1     
   37   18   36 1     
   38    8   37 1     
   39   11   38 1     
   40   11   39 1     
   41   16   40 1     
   42   16   41 1     
@<TRIPOS>SUBSTRUCTURE
      1 S1             1
@<TRIPOS>SET
LONE_PAIRS      STATIC     ATOMS    <user>   **** ""
5 37 38 39 40 41
DONOR_HYDROGENS      STATIC     ATOMS    <user>   **** ""
2 28 34
ATOM$BLUE        STATIC     ATOMS    COLORGROUP SYSTEM
5 37 38 39 40 41
ATOM$RED        STATIC     ATOMS    COLORGROUP SYSTEM
2 28 34
