AV-unprocessed.smi:1261|AV-procd|sdf|5305|dock7
  -GOLD-   22720 4423D 1   1.00000     0.00000
 Structure written by MMmdl.
 50 51  0  0  0  0  0  0  0  0  2 V2000
  152.3863  142.3056  161.8891 C   0  0  0  0  0  0  0  0  0  0  0  0
  153.3183  142.1470  160.6745 C   0  0  2  0  0  0  0  0  0  0  0  0
  153.2144  143.3187  159.6802 C   0  0  0  0  0  0  0  0  0  0  0  0
  151.9112  143.2586  158.8628 C   0  0  1  0  0  0  0  0  0  0  0  0
  151.8463  144.3924  157.8297 C   0  0  0  0  0  0  0  0  0  0  0  0
  151.7625  141.8778  158.1950 C   0  0  0  0  0  0  0  0  0  0  0  0
  151.8220  140.7838  159.1984 N   0  3  1  0  0  0  0  0  0  0  0  0
  151.5088  139.4568  158.6104 C   0  0  0  0  0  0  0  0  0  0  0  0
  150.0177  139.3138  158.2618 C   0  0  0  0  0  0  0  0  0  0  0  0
  149.7336  138.0771  157.3942 C   0  0  0  0  0  0  0  0  0  0  0  0
  148.4666  137.4554  157.7579 N   0  0  0  0  0  0  0  0  0  0  0  0
  148.3339  136.3354  158.4894 C   0  0  0  0  0  0  0  0  0  0  0  0
  149.2994  135.7024  158.9151 O   0  0  0  0  0  0  0  0  0  0  0  0
  146.9132  135.8412  158.8142 C   0  0  0  0  0  0  0  0  0  0  0  0
  146.7670  135.1852  160.1240 N   0  0  0  0  0  0  0  0  0  0  0  0
  146.3257  133.8723  160.0539 N   0  0  0  0  0  0  0  0  0  0  0  0
  146.1570  133.1898  161.1358 C   0  0  0  0  0  0  0  0  0  0  0  0
  145.7151  131.8946  161.0208 O   0  0  0  0  0  0  0  0  0  0  0  0
  146.4234  133.7682  162.4348 C   0  0  0  0  0  0  0  0  0  0  0  0
  146.8519  135.0483  162.4933 C   0  0  0  0  0  0  0  0  0  0  0  0
  147.0483  135.8524  161.2856 C   0  0  0  0  0  0  0  0  0  0  0  0
  147.4212  137.0250  161.3098 O   0  0  0  0  0  0  0  0  0  0  0  0
  153.1059  140.8034  159.9497 C   0  0  0  0  0  0  0  0  0  0  0  0
  146.4872  131.3791  160.8454 H   0  0  0  0  0  0  0  0  0  0  0  0
  151.3346  142.2800  161.6044 H   0  0  0  0  0  0  0  0  0  0  0  0
  152.5684  143.2505  162.4021 H   0  0  0  0  0  0  0  0  0  0  0  0
  152.5493  141.5057  162.6119 H   0  0  0  0  0  0  0  0  0  0  0  0
  154.3354  142.1470  161.0685 H   0  0  0  0  0  0  0  0  0  0  0  0
  153.2891  144.2702  160.2085 H   0  0  0  0  0  0  0  0  0  0  0  0
  154.0664  143.2821  158.9996 H   0  0  0  0  0  0  0  0  0  0  0  0
  151.0708  143.3966  159.5439 H   0  0  0  0  0  0  0  0  0  0  0  0
  152.6626  144.3226  157.1101 H   0  0  0  0  0  0  0  0  0  0  0  0
  151.9115  145.3678  158.3128 H   0  0  0  0  0  0  0  0  0  0  0  0
  150.9091  144.3644  157.2729 H   0  0  0  0  0  0  0  0  0  0  0  0
  150.8077  141.8385  157.6689 H   0  0  0  0  0  0  0  0  0  0  0  0
  152.5431  141.7280  157.4472 H   0  0  0  0  0  0  0  0  0  0  0  0
  152.0803  139.3258  157.6904 H   0  0  0  0  0  0  0  0  0  0  0  0
  151.8299  138.6640  159.2877 H   0  0  0  0  0  0  0  0  0  0  0  0
  149.4227  139.2514  159.1726 H   0  0  0  0  0  0  0  0  0  0  0  0
  149.6809  140.2083  157.7357 H   0  0  0  0  0  0  0  0  0  0  0  0
  149.6805  138.3619  156.3430 H   0  0  0  0  0  0  0  0  0  0  0  0
  150.5454  137.3525  157.4798 H   0  0  0  0  0  0  0  0  0  0  0  0
  147.6239  137.9137  157.4415 H   0  0  0  0  0  0  0  0  0  0  0  0
  146.2412  136.6990  158.7530 H   0  0  0  0  0  0  0  0  0  0  0  0
  146.5881  135.1667  158.0199 H   0  0  0  0  0  0  0  0  0  0  0  0
  146.2811  133.1834  163.3318 H   0  0  0  0  0  0  0  0  0  0  0  0
  147.0555  135.4925  163.4565 H   0  0  0  0  0  0  0  0  0  0  0  0
  153.9274  140.6266  159.2535 H   0  0  0  0  0  0  0  0  0  0  0  0
  153.1412  139.9938  160.6779 H   0  0  0  0  0  0  0  0  0  0  0  0
  151.0883  140.9773  159.8648 H   0  0  0  0  0  0  0  0  0  0  0  0
  1  2  1  0  0  0  0
  1 25  1  0  0  0  0
  1 26  1  0  0  0  0
  1 27  1  0  0  0  0
  2 23  1  0  0  0  0
  2  3  1  0  0  0  0
  2 28  1  0  0  0  0
  3  4  1  0  0  0  0
  3 29  1  0  0  0  0
  3 30  1  0  0  0  0
  4  5  1  0  0  0  0
  4  6  1  0  0  0  0
  4 31  1  0  0  0  0
  5 32  1  0  0  0  0
  5 33  1  0  0  0  0
  5 34  1  0  0  0  0
  6  7  1  0  0  0  0
  6 35  1  0  0  0  0
  6 36  1  0  0  0  0
  7  8  1  0  0  0  0
  7 23  1  0  0  0  0
  7 50  1  0  0  0  0
  8  9  1  0  0  0  0
  8 37  1  0  0  0  0
  8 38  1  0  0  0  0
  9 10  1  0  0  0  0
  9 39  1  0  0  0  0
  9 40  1  0  0  0  0
 10 11  1  0  0  0  0
 10 41  1  0  0  0  0
 10 42  1  0  0  0  0
 11 12  1  0  0  0  0
 11 43  1  0  0  0  0
 12 13  2  0  0  0  0
 12 14  1  0  0  0  0
 14 44  1  0  0  0  0
 14 45  1  0  0  0  0
 14 15  1  0  0  0  0
 15 16  1  0  0  0  0
 15 21  1  0  0  0  0
 16 17  2  0  0  0  0
 17 18  1  0  0  0  0
 17 19  1  0  0  0  0
 18 24  1  0  0  0  0
 19 46  1  0  0  0  0
 19 20  2  0  0  0  0
 20 47  1  0  0  0  0
 20 21  1  0  0  0  0
 21 22  2  0  0  0  0
 23 48  1  0  0  0  0
 23 49  1  0  0  0  0
M  CHG  1   7   1
M  END
> <s_m_source_file>
AV-unprocessed.smi

> <i_m_source_file_index>
1261

> <i_lp_mmshare_version>
43012

> <i_f3d_flags>
0

> <s_epik_input>
W0NIM11bQ0BASF0xW0NIMl1bQ0BASF0oW0NIM10pW0NIMl1OKFtDSDJdMSlbQ0gyXVtDSDJdW0NIMl1bTkhdQyg9TylbQ0gyXW4yW25IXWMoPU8pW2NIXVtjSF1jMj1P

> <s_epik_cmdline>
J2VwaWtfcHl0aG9uJywgJy1waCcsICc3LjAnLCAnLXRuJywgJzgnLCAnLW1hJywgJzIwMCcsICctbWV0YWxfYmluZGluZycsICctaW1hZScsICc8aW5maWxlLm1hZT4nLCAnLW9tYWUnLCAnPG91dGZpbGUubWFlPic=

> <r_lp_tautomer_probability>
0.9996

> <r_epik_Ionization_Penalty>
2.1425

> <r_epik_Ionization_Penalty_Charging>
0.000312112

> <r_epik_Ionization_Penalty_Neutral>
2.14218

> <r_epik_State_Penalty>
1.71978

> <r_epik_Charging_Adjusted_Penalty>
1.72009

> <i_epik_Tot_Q>
1

> <i_epik_Tot_abs_Q>
1

> <r_epik_Metal_State_Penalty>
1.71978

> <b_epik_Metal_Only>
0

> <s_lp_Force_Field>
OPLS_2005

> <r_lp_Energy>
29.6525

> <b_lp_Chiralities_Consistent>
1

> <s_lp_Variant>
AV-unprocessed.smi:1261-5

> <Gold.Version>
5.8.1

> <Gold.Id.Protein>
6NUR|6NUR_protein|mol2

> <Gold.PLP.Fitness>
52.3066

> <Gold.PLP.PLP>
-45.6272

> <Gold.PLP.part.hbond>
-3.0000

> <Gold.PLP.part.metal>
0.0000

> <Gold.PLP.part.buried>
-5.5187

> <Gold.PLP.part.nonpolar>
-37.9088

> <Gold.PLP.part.repulsive>
0.2200

> <Gold.PLP.ligand.clash>
0.0000

> <Gold.PLP.ligand.torsion>
0.8883

> <Gold.PLP.Chemscore.Hbond>
2.8000

> <Gold.PLP.Chemscore.CHOScore>
0.0000

> <Gold.PLP.Chemscore.Metal>
0.0000

> <Gold.Chemscore.Hbonds>
donor molecule, donor type, donor heavy atom, donor atom, acceptor molecule, acceptor atom, score
      P1  H  6896  6908       L1    13  1.00
      P1  H  6931  6943       L1    22  0.79
      P1  H  6934  6947       L1    22  0.94

> <Gold.PLP.Chemscore.Internal.Correction>
0.0560

> <Gold.Rescore>
     Score         DG    S(hbond)    S(metal)    S(lipo)     H(rot)  DE(clash)    DE(int)     intcor
     18.74     -19.67       2.73        0.00     111.97       3.14       0.01       0.93       ----

> <Gold.Chemscore.Fitness>
18.7396

> <Gold.Chemscore.DG>
-19.6747

> <Gold.Chemscore.ZeroCoef>
-5.4800

> <Gold.Chemscore.Hbond>
2.7307

> <Gold.Chemscore.Metal>
0.0000

> <Gold.Chemscore.Lipo>
111.9666

> <Gold.Chemscore.Internal_Hbond>
0.0000

> <Gold.Chemscore.DEClash>
0.0077

> <Gold.Chemscore.DEInternal>
0.9273

> <Gold.Chemscore.Rot>
3.1352

> <Gold.Chemscore.Internal.Correction>
   9.000000E+99

> <Gold.Chemscore.Hbonds>
donor molecule, donor type, donor heavy atom, donor atom, acceptor molecule, acceptor atom, score
      P1  H  6896  6908       L1    13  1.00
      P1  H  6931  6943       L1    22  0.72
      P1  H  6934  6947       L1    22  0.85

> <Gold.Chemscore.Hbond.Weighted>
-9.1206

> <Gold.Chemscore.Metal.Weighted>
-0.0000

> <Gold.Chemscore.Lipo.Weighted>
-13.1001

> <Gold.Chemscore.Internal_Hbond.Weighted>
0.0000

> <Gold.Chemscore.DEClash.Weighted>
0.0077

> <Gold.Chemscore.DEInternal.Weighted>
0.9273

> <Gold.Chemscore.Rot.Weighted>
8.0260

> <Gold.Chemscore.Internal.Correction.Weighted>
   9.000000E+99

> <Gold.Protein.RotatedTorsions>
[ 6907 6896 6895 6894 ] final  176.57 input  -60.11 | X-H torsion
[ 7974 7965 7964 7962 ] final  120.27 input  175.53 | X-H torsion
[ 8008 7997 7996 7995 ] final   75.76 input   59.86 | X-H torsion
[ 10167 10162 10161 10158 ] final  121.03 input  -65.29 | X-H torsion
[ 10718 10713 10712 10709 ] final  115.64 input   66.30 | X-H torsion
[ 10763 10752 10751 10750 ] final -127.77 input  -60.55 | X-H torsion
[ 11005 11000 10999 10996 ] final -126.35 input  -57.11 | X-H torsion

> <Gold.Protein.ActiveResidues>
 VAL166  LYS551  ARG553  GLY616  TRP617  ASP618  TYR619  PRO620  LYS621  CYS622 
 ASP623  PHE694  ASN695  SER759  ASP760  ASP761  ALA762  ILE779  LEU786  VAL792 
 PHE793  MET794  SER795  GLU796  ALA797  LYS798  CYS799  TRP800  GLU811  SER814 

> <Gold.Protein.RotatedAtoms>
  151.7181  133.3314  159.3307 H   0  0  0  0  0  0  0  0  0  0  0  0  # atno 6907 bound_to 6896
  150.7665  134.6473  159.6278 H   0  0  0  0  0  0  0  0  0  0  0  0  # atno 6908 bound_to 6896
  152.3669  134.6793  160.0240 H   0  0  0  0  0  0  0  0  0  0  0  0  # atno 6909 bound_to 6896
  145.1332  139.3314  143.4654 H   0  0  0  0  0  0  0  0  0  0  0  0  # atno 7974 bound_to 7965
  155.8176  140.3471  155.5495 H   0  0  0  0  0  0  0  0  0  0  0  0  # atno 8008 bound_to 7997
  155.8375  140.0936  157.1775 H   0  0  0  0  0  0  0  0  0  0  0  0  # atno 8009 bound_to 7997
  154.4004  140.1400  156.3676 H   0  0  0  0  0  0  0  0  0  0  0  0  # atno 8010 bound_to 7997
  139.5945  144.7037  151.3210 H   0  0  0  0  0  0  0  0  0  0  0  0  # atno 10167 bound_to 10162
  157.6209  131.1015  150.7359 H   0  0  0  0  0  0  0  0  0  0  0  0  # atno 10718 bound_to 10713
  154.8754  135.3950  154.3648 H   0  0  0  0  0  0  0  0  0  0  0  0  # atno 10763 bound_to 10752
  153.4416  135.7027  153.6171 H   0  0  0  0  0  0  0  0  0  0  0  0  # atno 10764 bound_to 10752
  153.4749  135.3782  155.2380 H   0  0  0  0  0  0  0  0  0  0  0  0  # atno 10765 bound_to 10752
  140.9689  134.0833  157.3891 H   0  0  0  0  0  0  0  0  0  0  0  0  # atno 11005 bound_to 11000
  146.3512  140.1339  142.8596 LP  0  0  0  0  0  0  0  0  0  0  0  0  # atno 17320 bound_to 7965
  145.0613  140.9089  143.4937 LP  0  0  0  0  0  0  0  0  0  0  0  0  # atno 17321 bound_to 7965
  140.7200  143.7161  150.7732 LP  0  0  0  0  0  0  0  0  0  0  0  0  # atno 17342 bound_to 10162
  140.0724  143.5048  152.2573 LP  0  0  0  0  0  0  0  0  0  0  0  0  # atno 17343 bound_to 10162
  156.7716  130.4831  149.5417 LP  0  0  0  0  0  0  0  0  0  0  0  0  # atno 17370 bound_to 10713
  156.1355  130.6208  151.0394 LP  0  0  0  0  0  0  0  0  0  0  0  0  # atno 17371 bound_to 10713
  139.8905  135.0112  156.6737 LP  0  0  0  0  0  0  0  0  0  0  0  0  # atno 17394 bound_to 11000
  140.7359  133.9019  155.8243 LP  0  0  0  0  0  0  0  0  0  0  0  0  # atno 17395 bound_to 11000

$$$$
