#       Name:                AV-unprocessed.smi:664
#       Creating user name   scv26
#       Creation time:       Fri Mar 27 00:20:22 2020


#       File generated by GOLD software.
#

@<TRIPOS>MOLECULE
AV-unprocessed.smi:664
    36    37     1
SMALL
NO_CHARGES


@<TRIPOS>ATOM
      1 ****        -2.6407   1.3785  -1.7544 C.3            1 S1                 0.0000
      2 ****        -1.8526   1.5180  -0.4860 C.2            1 S1                 0.0000
      3 ****        -1.3612   2.7924   0.0016 C.2            1 S1                 0.0000
      4 ****        -0.6586   2.8337   1.1541 C.2            1 S1                 0.0000
      5 ****        -0.3731   1.6245   1.9234 C.2            1 S1                 0.0000
      6 ****         0.2699   1.6272   2.9727 O.2            1 S1                 0.0000
      7 ****        -0.8767   0.4860   1.3632 N.am           1 S1                 0.0000
      8 ****        -0.6428  -0.8274   1.9793 C.3            1 S1                 0.0000
      9 ****         0.7812  -1.3699   1.7140 C.3            1 S1                 0.0000
     10 ****         0.8719  -2.6720   2.2551 O.3            1 S1                 0.0000
     11 ****         1.1641  -1.3294   0.2400 C.ar           1 S1                 0.0000
     12 ****         0.6309  -2.2711  -0.6676 C.ar           1 S1                 0.0000
     13 ****         0.9641  -2.2064  -2.0343 C.ar           1 S1                 0.0000
     14 ****         1.8293  -1.1988  -2.5019 C.ar           1 S1                 0.0000
     15 ****         2.3621  -0.2558  -1.6018 C.ar           1 S1                 0.0000
     16 ****         3.4143   0.9856  -2.1741 Cl             1 S1                 0.0000
     17 ****         2.0319  -0.3225  -0.2345 C.ar           1 S1                 0.0000
     18 ****        -1.6094   0.4426   0.1882 N.2            1 S1                 0.0000
     19 ****        -2.9039   2.3538  -2.1644 H              1 S1                 0.0000
     20 ****        -3.5669   0.8299  -1.5803 H              1 S1                 0.0000
     21 ****        -2.0657   0.8415  -2.5093 H              1 S1                 0.0000
     22 ****        -1.5614   3.6948  -0.5570 H              1 S1                 0.0000
     23 ****        -0.2940   3.7835   1.5163 H              1 S1                 0.0000
     24 ****        -0.8325  -0.7766   3.0531 H              1 S1                 0.0000
     25 ****        -1.3756  -1.5386   1.5923 H              1 S1                 0.0000
     26 ****         1.4970  -0.7594   2.2658 H              1 S1                 0.0000
     27 ****         1.7701  -2.9592   2.1933 H              1 S1                 0.0000
     28 ****        -0.0425  -3.0405  -0.3192 H              1 S1                 0.0000
     29 ****         0.5519  -2.9270  -2.7251 H              1 S1                 0.0000
     30 ****         2.0808  -1.1488  -3.5511 H              1 S1                 0.0000
     31 ****         2.4367   0.4099   0.4486 H              1 S1                 0.0000
     32 ****         0.6261   2.4870   3.3387 LP             1 S1                 0.0000
     33 ****         0.4363   0.7696   3.4594 LP             1 S1                 0.0000
     34 ****         0.2824  -3.2937   1.7394 LP             1 S1                 0.0000
     35 ****         0.5865  -2.6600   3.2134 LP             1 S1                 0.0000
     36 ****        -1.9556  -0.4349  -0.1436 LP             1 S1                 0.0000
@<TRIPOS>BOND
    1    1    2 1     
    2    1   19 1     
    3    1   20 1     
    4    1   21 1     
    5    2   18 2     
    6    2    3 1     
    7    3    4 2     
    8    3   22 1     
    9    4    5 1     
   10    4   23 1     
   11    5    6 2     
   12    5    7 am    
   13    7    8 1     
   14    7   18 1     
   15    8    9 1     
   16    8   24 1     
   17    8   25 1     
   18    9   10 1     
   19    9   11 1     
   20    9   26 1     
   21   10   27 1     
   22   11   17 ar    
   23   11   12 ar    
   24   12   13 ar    
   25   12   28 1     
   26   13   14 ar    
   27   13   29 1     
   28   14   15 ar    
   29   14   30 1     
   30   15   16 1     
   31   15   17 ar    
   32   17   31 1     
   33    6   32 1     
   34    6   33 1     
   35   10   34 1     
   36   10   35 1     
   37   18   36 1     
@<TRIPOS>SUBSTRUCTURE
      1 S1             1
@<TRIPOS>SET
LONE_PAIRS      STATIC     ATOMS    <user>   **** ""
5 32 33 34 35 36
DONOR_HYDROGENS      STATIC     ATOMS    <user>   **** ""
1 27
ATOM$BLUE        STATIC     ATOMS    COLORGROUP SYSTEM
5 32 33 34 35 36
ATOM$RED        STATIC     ATOMS    COLORGROUP SYSTEM
1 27
