AV-unprocessed.smi:3301|AV-procd|sdf|12653|dock2
  -GOLD-   2272018583D 1   1.00000     0.00000
 Structure written by MMmdl.
 37 38  0  0  0  0  0  0  0  0  2 V2000
  150.1328  139.0262  157.7026 C   0  0  0  0  0  0  0  0  0  0  0  0
  150.9721  140.1320  157.0422 C   0  0  1  0  0  0  0  0  0  0  0  0
  150.1362  141.0721  156.1465 C   0  0  0  0  0  0  0  0  0  0  0  0
  149.3808  140.3530  155.1165 N   0  0  0  0  0  0  0  0  0  0  0  0
  148.1919  140.7325  154.5487 C   0  0  0  0  0  0  0  0  0  0  0  0
  147.8616  139.7563  153.6443 C   0  0  0  0  0  0  0  0  0  0  0  0
  148.8600  138.8210  153.7014 N   0  3  0  0  0  0  0  0  0  0  0  0
  149.7816  139.1839  154.5998 C   0  0  0  0  0  0  0  0  0  0  0  0
  151.6565  140.9002  158.0779 N   0  0  0  0  0  0  0  0  0  0  0  0
  152.8116  140.5499  158.6645 C   0  0  0  0  0  0  0  0  0  0  0  0
  153.4170  139.5117  158.3934 O   0  0  0  0  0  0  0  0  0  0  0  0
  153.3483  141.5149  159.7292 C   0  0  0  0  0  0  0  0  0  0  0  0
  152.5829  142.7600  159.8096 N   0  0  0  0  0  0  0  0  0  0  0  0
  152.5641  143.6939  158.6955 C   0  0  0  0  0  0  0  0  0  0  0  0
  151.8103  144.9263  159.2163 C   0  0  0  0  0  0  0  0  0  0  0  0
  151.1700  144.4997  160.5421 C   0  0  0  0  0  0  0  0  0  0  0  0
  151.8262  143.1622  160.8383 C   0  0  0  0  0  0  0  0  0  0  0  0
  151.6580  142.5548  161.8949 O   0  0  0  0  0  0  0  0  0  0  0  0
  149.6726  138.3752  156.9592 H   0  0  0  0  0  0  0  0  0  0  0  0
  149.3363  139.4466  158.3174 H   0  0  0  0  0  0  0  0  0  0  0  0
  150.7507  138.3964  158.3436 H   0  0  0  0  0  0  0  0  0  0  0  0
  151.7267  139.6415  156.4241 H   0  0  0  0  0  0  0  0  0  0  0  0
  149.4356  141.6546  156.7471 H   0  0  0  0  0  0  0  0  0  0  0  0
  150.7784  141.7874  155.6305 H   0  0  0  0  0  0  0  0  0  0  0  0
  147.6840  141.6460  154.8231 H   0  0  0  0  0  0  0  0  0  0  0  0
  147.0129  139.6591  152.9830 H   0  0  0  0  0  0  0  0  0  0  0  0
  150.6746  138.6410  154.8539 H   0  0  0  0  0  0  0  0  0  0  0  0
  151.2231  141.7655  158.3670 H   0  0  0  0  0  0  0  0  0  0  0  0
  153.3444  141.0282  160.7061 H   0  0  0  0  0  0  0  0  0  0  0  0
  154.3905  141.7386  159.4986 H   0  0  0  0  0  0  0  0  0  0  0  0
  153.5747  143.9479  158.3729 H   0  0  0  0  0  0  0  0  0  0  0  0
  152.0398  143.2397  157.8535 H   0  0  0  0  0  0  0  0  0  0  0  0
  152.5068  145.7484  159.3876 H   0  0  0  0  0  0  0  0  0  0  0  0
  151.0653  145.2730  158.4993 H   0  0  0  0  0  0  0  0  0  0  0  0
  151.3571  145.2193  161.3399 H   0  0  0  0  0  0  0  0  0  0  0  0
  150.0933  144.3615  160.4388 H   0  0  0  0  0  0  0  0  0  0  0  0
  148.8972  137.9755  153.1458 H   0  0  0  0  0  0  0  0  0  0  0  0
  1  2  1  0  0  0  0
  1 19  1  0  0  0  0
  1 20  1  0  0  0  0
  1 21  1  0  0  0  0
  2  3  1  0  0  0  0
  2  9  1  0  0  0  0
  2 22  1  0  0  0  0
  3  4  1  0  0  0  0
  3 23  1  0  0  0  0
  3 24  1  0  0  0  0
  4  8  1  0  0  0  0
  4  5  1  0  0  0  0
  5  6  2  0  0  0  0
  5 25  1  0  0  0  0
  6  7  1  0  0  0  0
  6 26  1  0  0  0  0
  7  8  2  0  0  0  0
  7 37  1  0  0  0  0
  8 27  1  0  0  0  0
  9 10  1  0  0  0  0
  9 28  1  0  0  0  0
 10 11  2  0  0  0  0
 10 12  1  0  0  0  0
 12 13  1  0  0  0  0
 12 29  1  0  0  0  0
 12 30  1  0  0  0  0
 13 17  1  0  0  0  0
 13 14  1  0  0  0  0
 14 15  1  0  0  0  0
 14 31  1  0  0  0  0
 14 32  1  0  0  0  0
 15 16  1  0  0  0  0
 15 33  1  0  0  0  0
 15 34  1  0  0  0  0
 16 17  1  0  0  0  0
 16 35  1  0  0  0  0
 16 36  1  0  0  0  0
 17 18  2  0  0  0  0
M  CHG  1   7   1
M  END
> <s_m_source_file>
AV-unprocessed.smi

> <i_m_source_file_index>
3301

> <i_lp_mmshare_version>
43012

> <i_f3d_flags>
0

> <s_epik_input>
W2NIXTFuW2NIXVtjSF1uMVtDSDJdW0NAQEhdKFtDSDNdKVtOSF1DKD1PKVtDSDJdTjJbQ0gyXVtDSDJdW0NIMl1DMj1P

> <s_epik_cmdline>
J2VwaWtfcHl0aG9uJywgJy1waCcsICc3LjAnLCAnLXRuJywgJzgnLCAnLW1hJywgJzIwMCcsICctbWV0YWxfYmluZGluZycsICctaW1hZScsICc8aW5maWxlLm1hZT4nLCAnLW9tYWUnLCAnPG91dGZpbGUubWFlPic=

> <r_lp_tautomer_probability>
1

> <r_epik_Ionization_Penalty>
0.254232

> <r_epik_Ionization_Penalty_Charging>
0

> <r_epik_Ionization_Penalty_Neutral>
0.254232

> <r_epik_State_Penalty>
0.245698

> <r_epik_Charging_Adjusted_Penalty>
0.245698

> <i_epik_Tot_Q>
1

> <i_epik_Tot_abs_Q>
1

> <r_epik_Metal_State_Penalty>
0.5358

> <b_epik_Metal_Only>
0

> <s_lp_Force_Field>
OPLS_2005

> <r_lp_Energy>
15.9577

> <b_lp_Chiralities_Consistent>
1

> <s_lp_Variant>
AV-unprocessed.smi:3301-2

> <Gold.Version>
5.8.1

> <Gold.Id.Protein>
6NUR|6NUR_protein|mol2

> <Gold.PLP.Fitness>
51.4008

> <Gold.PLP.PLP>
-42.1111

> <Gold.PLP.part.hbond>
-3.9817

> <Gold.PLP.part.metal>
0.0000

> <Gold.PLP.part.buried>
-1.6271

> <Gold.PLP.part.nonpolar>
-37.7397

> <Gold.PLP.part.repulsive>
0.3015

> <Gold.PLP.ligand.clash>
0.0000

> <Gold.PLP.ligand.torsion>
0.8117

> <Gold.PLP.Chemscore.Hbond>
3.6240

> <Gold.PLP.Chemscore.CHOScore>
0.0000

> <Gold.PLP.Chemscore.Metal>
0.0000

> <Gold.Chemscore.Hbonds>
donor molecule, donor type, donor heavy atom, donor atom, acceptor molecule, acceptor atom, score
      L1  H     7    37       P1  7948  1.43
      P1  H  6933  6945       L1    18  0.80
      P1  H  7997  8008       L1    11  1.00

> <Gold.PLP.Chemscore.Internal.Correction>
0.0412

> <Gold.Rescore>
     Score         DG    S(hbond)    S(metal)    S(lipo)     H(rot)  DE(clash)    DE(int)     intcor
     13.97     -15.68       2.31        0.00      72.65       2.35       0.11       1.60       ----

> <Gold.Chemscore.Fitness>
13.9724

> <Gold.Chemscore.DG>
-15.6823

> <Gold.Chemscore.ZeroCoef>
-5.4800

> <Gold.Chemscore.Hbond>
2.3086

> <Gold.Chemscore.Metal>
0.0000

> <Gold.Chemscore.Lipo>
72.6478

> <Gold.Chemscore.Internal_Hbond>
0.0000

> <Gold.Chemscore.DEClash>
0.1134

> <Gold.Chemscore.DEInternal>
1.5965

> <Gold.Chemscore.Rot>
2.3470

> <Gold.Chemscore.Internal.Correction>
   9.000000E+99

> <Gold.Chemscore.Hbonds>
donor molecule, donor type, donor heavy atom, donor atom, acceptor molecule, acceptor atom, score
      L1  H     7    37       P1  7948  0.71
      P1  H  6933  6945       L1    18  0.78
      P1  H  7997  8008       L1    11  0.55

> <Gold.Chemscore.Hbond.Weighted>
-7.7108

> <Gold.Chemscore.Metal.Weighted>
-0.0000

> <Gold.Chemscore.Lipo.Weighted>
-8.4998

> <Gold.Chemscore.Internal_Hbond.Weighted>
0.0000

> <Gold.Chemscore.DEClash.Weighted>
0.1134

> <Gold.Chemscore.DEInternal.Weighted>
1.5965

> <Gold.Chemscore.Rot.Weighted>
6.0083

> <Gold.Chemscore.Internal.Correction.Weighted>
   9.000000E+99

> <Gold.Protein.RotatedTorsions>
[ 6907 6896 6895 6894 ] final  -52.65 input  -60.11 | X-H torsion
[ 7974 7965 7964 7962 ] final  172.16 input  175.53 | X-H torsion
[ 8008 7997 7996 7995 ] final -103.70 input   59.86 | X-H torsion
[ 10167 10162 10161 10158 ] final   82.29 input  -65.29 | X-H torsion
[ 10718 10713 10712 10709 ] final  -11.58 input   66.30 | X-H torsion
[ 10763 10752 10751 10750 ] final   -0.08 input  -60.55 | X-H torsion
[ 11005 11000 10999 10996 ] final  -91.72 input  -57.11 | X-H torsion

> <Gold.Protein.ActiveResidues>
 VAL166  LYS551  ARG553  GLY616  TRP617  ASP618  TYR619  PRO620  LYS621  CYS622 
 ASP623  PHE694  ASN695  SER759  ASP760  ASP761  ALA762  ILE779  LEU786  VAL792 
 PHE793  MET794  SER795  GLU796  ALA797  LYS798  CYS799  TRP800  GLU811  SER814 

> <Gold.Protein.RotatedAtoms>
  150.8499  134.7820  159.6999 H   0  0  0  0  0  0  0  0  0  0  0  0  # atno 6907 bound_to 6896
  152.4566  134.5274  159.9810 H   0  0  0  0  0  0  0  0  0  0  0  0  # atno 6908 bound_to 6896
  151.5397  133.3397  159.2969 H   0  0  0  0  0  0  0  0  0  0  0  0  # atno 6909 bound_to 6896
  144.7275  139.9458  143.6430 H   0  0  0  0  0  0  0  0  0  0  0  0  # atno 7974 bound_to 7965
  154.8748  140.0421  157.1746 H   0  0  0  0  0  0  0  0  0  0  0  0  # atno 8008 bound_to 7997
  154.8701  140.2957  155.5465 H   0  0  0  0  0  0  0  0  0  0  0  0  # atno 8009 bound_to 7997
  156.2999  140.2430  156.3689 H   0  0  0  0  0  0  0  0  0  0  0  0  # atno 8010 bound_to 7997
  139.9303  144.6156  150.8351 H   0  0  0  0  0  0  0  0  0  0  0  0  # atno 10167 bound_to 10162
  156.6570  130.4971  149.6043 H   0  0  0  0  0  0  0  0  0  0  0  0  # atno 10718 bound_to 10713
  153.3273  135.6973  153.6978 H   0  0  0  0  0  0  0  0  0  0  0  0  # atno 10763 bound_to 10752
  153.5794  135.3501  155.2869 H   0  0  0  0  0  0  0  0  0  0  0  0  # atno 10764 bound_to 10752
  154.8611  135.4291  154.2453 H   0  0  0  0  0  0  0  0  0  0  0  0  # atno 10765 bound_to 10752
  141.1538  133.7774  156.9919 H   0  0  0  0  0  0  0  0  0  0  0  0  # atno 11005 bound_to 11000
  146.0750  139.3738  143.0500 LP  0  0  0  0  0  0  0  0  0  0  0  0  # atno 17320 bound_to 7965
  145.7918  140.9811  143.1045 LP  0  0  0  0  0  0  0  0  0  0  0  0  # atno 17321 bound_to 7965
  140.7639  143.3235  151.2569 LP  0  0  0  0  0  0  0  0  0  0  0  0  # atno 17342 bound_to 10162
  139.6788  143.9891  152.2796 LP  0  0  0  0  0  0  0  0  0  0  0  0  # atno 17343 bound_to 10162
  156.2040  130.6638  151.1199 LP  0  0  0  0  0  0  0  0  0  0  0  0  # atno 17370 bound_to 10713
  157.7122  131.0728  150.6458 LP  0  0  0  0  0  0  0  0  0  0  0  0  # atno 17371 bound_to 10713
  140.0997  134.9543  157.1904 LP  0  0  0  0  0  0  0  0  0  0  0  0  # atno 17394 bound_to 11000
  140.3335  134.2784  155.7224 LP  0  0  0  0  0  0  0  0  0  0  0  0  # atno 17395 bound_to 11000

$$$$
