AV-unprocessed.smi:1490|AV-procd|sdf|6031|dock9
  -GOLD-   22720 6133D 1   1.00000     0.00000
 Structure written by MMmdl.
 37 38  0  0  0  0  0  0  0  0  3 V2000
  151.0735  137.8091  154.2755 C   0  0  0  0  0  0  0  0  0  0  0  0
  151.7569  139.0466  154.1938 O   0  0  0  0  0  0  0  0  0  0  0  0
  152.6325  139.2662  155.2875 C   0  0  0  0  0  0  0  0  0  0  0  0
  151.8075  139.4811  156.5644 C   0  0  0  0  0  0  0  0  0  0  0  0
  151.2162  140.8254  156.6210 N   0  0  0  0  0  0  0  0  0  0  0  0
  150.3181  141.4302  155.7938 C   0  0  0  0  0  0  0  0  0  0  0  0
  149.5786  140.7207  154.3600 S   0  0  0  0  0  0  0  0  0  0  0  0
  147.7903  140.9450  154.5774 C   0  0  0  0  0  0  0  0  0  0  0  0
  147.1192  139.7176  155.1923 C   0  0  0  0  0  0  0  0  0  0  0  0
  146.6033  139.8013  156.3060 O   0  0  0  0  0  0  0  0  0  0  0  0
  147.1880  138.6449  154.3735 N   0  5  0  0  0  0  0  0  0  0  0  0
  146.0884  138.3791  153.4673 C   0  0  0  0  0  0  0  0  0  0  0  0
  146.4975  138.6261  152.0761 C   0  0  0  0  0  0  0  0  0  0  0  0
  146.8200  138.8202  150.9815 N   0  0  0  0  0  0  0  0  0  0  0  0
  150.1048  142.6893  156.2658 N   0  3  0  0  0  0  0  0  0  0  0  0
  150.8823  142.8970  157.4064 C   0  0  0  0  0  0  0  0  0  0  0  0
  151.0105  144.0101  158.2310 C   0  0  0  0  0  0  0  0  0  0  0  0
  151.9029  143.8958  159.3175 C   0  0  0  0  0  0  0  0  0  0  0  0
  152.1131  145.2364  160.3824 Cl  0  0  0  0  0  0  0  0  0  0  0  0
  152.6272  142.7076  159.5481 C   0  0  0  0  0  0  0  0  0  0  0  0
  152.4896  141.5845  158.7059 C   0  0  0  0  0  0  0  0  0  0  0  0
  151.6023  141.7057  157.6372 C   0  0  0  0  0  0  0  0  0  0  0  0
  150.4183  137.6966  153.4116 H   0  0  0  0  0  0  0  0  0  0  0  0
  150.4579  137.7573  155.1742 H   0  0  0  0  0  0  0  0  0  0  0  0
  151.7729  136.9723  154.2799 H   0  0  0  0  0  0  0  0  0  0  0  0
  153.2956  138.4095  155.4157 H   0  0  0  0  0  0  0  0  0  0  0  0
  153.2584  140.1386  155.0933 H   0  0  0  0  0  0  0  0  0  0  0  0
  150.9926  138.7580  156.6083 H   0  0  0  0  0  0  0  0  0  0  0  0
  152.4120  139.3174  157.4567 H   0  0  0  0  0  0  0  0  0  0  0  0
  147.6176  141.8181  155.2073 H   0  0  0  0  0  0  0  0  0  0  0  0
  147.3333  141.1607  153.6103 H   0  0  0  0  0  0  0  0  0  0  0  0
  145.7410  137.3465  153.5182 H   0  0  0  0  0  0  0  0  0  0  0  0
  145.2231  139.0118  153.6661 H   0  0  0  0  0  0  0  0  0  0  0  0
  150.4586  144.9213  158.0526 H   0  0  0  0  0  0  0  0  0  0  0  0
  153.3038  142.6556  160.3889 H   0  0  0  0  0  0  0  0  0  0  0  0
  153.0520  140.6812  158.8903 H   0  0  0  0  0  0  0  0  0  0  0  0
  149.4798  143.3557  155.8310 H   0  0  0  0  0  0  0  0  0  0  0  0
  1  2  1  0  0  0  0
  1 23  1  0  0  0  0
  1 24  1  0  0  0  0
  1 25  1  0  0  0  0
  2  3  1  0  0  0  0
  3  4  1  0  0  0  0
  3 26  1  0  0  0  0
  3 27  1  0  0  0  0
  4  5  1  0  0  0  0
  4 28  1  0  0  0  0
  4 29  1  0  0  0  0
  5 22  1  0  0  0  0
  5  6  1  0  0  0  0
  6  7  1  0  0  0  0
  6 15  2  0  0  0  0
  7  8  1  0  0  0  0
  8  9  1  0  0  0  0
  8 30  1  0  0  0  0
  8 31  1  0  0  0  0
  9 10  2  0  0  0  0
  9 11  1  0  0  0  0
 11 12  1  0  0  0  0
 12 13  1  0  0  0  0
 12 32  1  0  0  0  0
 12 33  1  0  0  0  0
 13 14  3  0  0  0  0
 15 16  1  0  0  0  0
 15 37  1  0  0  0  0
 16 22  2  0  0  0  0
 16 17  1  0  0  0  0
 17 18  2  0  0  0  0
 17 34  1  0  0  0  0
 18 19  1  0  0  0  0
 18 20  1  0  0  0  0
 20 21  2  0  0  0  0
 20 35  1  0  0  0  0
 21 22  1  0  0  0  0
 21 36  1  0  0  0  0
M  CHG  1  11  -1
M  CHG  1  15   1
M  END
> <s_m_source_file>
AV-unprocessed.smi

> <i_m_source_file_index>
1490

> <i_lp_mmshare_version>
43012

> <i_f3d_flags>
0

> <s_epik_input>
W2NIXTFjKENsKVtjSF1bY0hdYyhjMTIpbihbQ0gyXVtDSDJdT1tDSDNdKWMobjIpU1tDSDJdQyg9TylbTkhdW0NIMl1DI04=

> <s_epik_cmdline>
J2VwaWtfcHl0aG9uJywgJy1waCcsICc3LjAnLCAnLXRuJywgJzgnLCAnLW1hJywgJzIwMCcsICctbWV0YWxfYmluZGluZycsICctaW1hZScsICc8aW5maWxlLm1hZT4nLCAnLW9tYWUnLCAnPG91dGZpbGUubWFlPic=

> <r_epik_Ionization_Penalty>
9.25224

> <r_epik_Ionization_Penalty_Charging>
9.25224

> <r_epik_Ionization_Penalty_Neutral>
2.90678e-12

> <r_epik_State_Penalty>
9.37242

> <r_epik_Charging_Adjusted_Penalty>
18.6247

> <i_epik_Tot_Q>
0

> <i_epik_Tot_abs_Q>
2

> <r_epik_Metal_State_Penalty>
5.29561

> <b_epik_Metal_Only>
1

> <s_lp_Force_Field>
OPLS_2005

> <r_lp_Energy>
5.70634

> <b_lp_Chiralities_Consistent>
1

> <s_lp_Variant>
AV-unprocessed.smi:1490-3

> <Gold.Version>
5.8.1

> <Gold.Id.Protein>
6NUR|6NUR_protein|mol2

> <Gold.PLP.Fitness>
53.2390

> <Gold.PLP.PLP>
-43.6620

> <Gold.PLP.part.hbond>
-2.8086

> <Gold.PLP.part.metal>
0.0000

> <Gold.PLP.part.buried>
-2.5622

> <Gold.PLP.part.nonpolar>
-39.1054

> <Gold.PLP.part.repulsive>
1.1649

> <Gold.PLP.ligand.clash>
0.0000

> <Gold.PLP.ligand.torsion>
1.1989

> <Gold.PLP.Chemscore.Hbond>
3.9277

> <Gold.PLP.Chemscore.CHOScore>
0.0000

> <Gold.PLP.Chemscore.Metal>
0.0000

> <Gold.Chemscore.Hbonds>
donor molecule, donor type, donor heavy atom, donor atom, acceptor molecule, acceptor atom, score
      L1  H    15    37       P1  8028  1.82
      P1  H  7954  7966       L1    14  0.88
      P1  H  7989  7998       L1     2  0.91

> <Gold.PLP.Chemscore.Internal.Correction>
0.1916

> <Gold.Rescore>
     Score         DG    S(hbond)    S(metal)    S(lipo)     H(rot)  DE(clash)    DE(int)     intcor
     15.70     -17.40       1.92        0.00     107.04       2.74       0.29       1.41       ----

> <Gold.Chemscore.Fitness>
15.7021

> <Gold.Chemscore.DG>
-17.3995

> <Gold.Chemscore.ZeroCoef>
-5.4800

> <Gold.Chemscore.Hbond>
1.9208

> <Gold.Chemscore.Metal>
0.0000

> <Gold.Chemscore.Lipo>
107.0379

> <Gold.Chemscore.Internal_Hbond>
0.0000

> <Gold.Chemscore.DEClash>
0.2885

> <Gold.Chemscore.DEInternal>
1.4089

> <Gold.Chemscore.Rot>
2.7420

> <Gold.Chemscore.Internal.Correction>
   9.000000E+99

> <Gold.Chemscore.Hbonds>
donor molecule, donor type, donor heavy atom, donor atom, acceptor molecule, acceptor atom, score
      L1  H    15    37       P1  8028  0.86
      P1  H  7954  7966       L1    14  0.85
      P1  H  7989  7998       L1     2  0.23

> <Gold.Chemscore.Hbond.Weighted>
-6.4155

> <Gold.Chemscore.Metal.Weighted>
-0.0000

> <Gold.Chemscore.Lipo.Weighted>
-12.5234

> <Gold.Chemscore.Internal_Hbond.Weighted>
0.0000

> <Gold.Chemscore.DEClash.Weighted>
0.2885

> <Gold.Chemscore.DEInternal.Weighted>
1.4089

> <Gold.Chemscore.Rot.Weighted>
7.0194

> <Gold.Chemscore.Internal.Correction.Weighted>
   9.000000E+99

> <Gold.Protein.RotatedTorsions>
[ 6907 6896 6895 6894 ] final -131.74 input  -60.11 | X-H torsion
[ 7974 7965 7964 7962 ] final  -55.24 input  175.53 | X-H torsion
[ 8008 7997 7996 7995 ] final    4.66 input   59.86 | X-H torsion
[ 10167 10162 10161 10158 ] final   93.93 input  -65.29 | X-H torsion
[ 10718 10713 10712 10709 ] final   19.36 input   66.30 | X-H torsion
[ 10763 10752 10751 10750 ] final -167.28 input  -60.55 | X-H torsion
[ 11005 11000 10999 10996 ] final  -32.57 input  -57.11 | X-H torsion

> <Gold.Protein.ActiveResidues>
 VAL166  LYS551  ARG553  GLY616  TRP617  ASP618  TYR619  PRO620  LYS621  CYS622 
 ASP623  PHE694  ASN695  SER759  ASP760  ASP761  ALA762  ILE779  LEU786  VAL792 
 PHE793  MET794  SER795  GLU796  ALA797  LYS798  CYS799  TRP800  GLU811  SER814 

> <Gold.Protein.RotatedAtoms>
  150.9544  133.6514  159.2765 H   0  0  0  0  0  0  0  0  0  0  0  0  # atno 6907 bound_to 6896
  151.3859  135.0946  159.9520 H   0  0  0  0  0  0  0  0  0  0  0  0  # atno 6908 bound_to 6896
  152.5123  133.9068  159.7523 H   0  0  0  0  0  0  0  0  0  0  0  0  # atno 6909 bound_to 6896
  145.8764  140.8177  142.9862 H   0  0  0  0  0  0  0  0  0  0  0  0  # atno 7974 bound_to 7965
  154.7186  140.2707  155.6562 H   0  0  0  0  0  0  0  0  0  0  0  0  # atno 8008 bound_to 7997
  156.2817  140.2739  156.1775 H   0  0  0  0  0  0  0  0  0  0  0  0  # atno 8009 bound_to 7997
  155.0537  140.0371  157.2543 H   0  0  0  0  0  0  0  0  0  0  0  0  # atno 8010 bound_to 7997
  139.8132  144.6764  150.9613 H   0  0  0  0  0  0  0  0  0  0  0  0  # atno 10167 bound_to 10162
  157.1093  130.6502  149.5893 H   0  0  0  0  0  0  0  0  0  0  0  0  # atno 10718 bound_to 10713
  154.6747  135.2945  154.9694 H   0  0  0  0  0  0  0  0  0  0  0  0  # atno 10763 bound_to 10752
  154.0709  135.6618  153.4828 H   0  0  0  0  0  0  0  0  0  0  0  0  # atno 10764 bound_to 10752
  153.0509  135.5174  154.7761 H   0  0  0  0  0  0  0  0  0  0  0  0  # atno 10765 bound_to 10752
  140.9563  133.7190  156.1299 H   0  0  0  0  0  0  0  0  0  0  0  0  # atno 11005 bound_to 11000
  144.6726  140.1317  143.7443 LP  0  0  0  0  0  0  0  0  0  0  0  0  # atno 17320 bound_to 7965
  145.9075  139.2467  143.1457 LP  0  0  0  0  0  0  0  0  0  0  0  0  # atno 17321 bound_to 7965
  140.7817  143.4164  151.0911 LP  0  0  0  0  0  0  0  0  0  0  0  0  # atno 17342 bound_to 10162
  139.7829  143.8329  152.3140 LP  0  0  0  0  0  0  0  0  0  0  0  0  # atno 17343 bound_to 10162
  155.9854  130.4884  150.7031 LP  0  0  0  0  0  0  0  0  0  0  0  0  # atno 17370 bound_to 10713
  157.4573  131.0879  151.0783 LP  0  0  0  0  0  0  0  0  0  0  0  0  # atno 17371 bound_to 10713
  140.7531  134.4023  157.5538 LP  0  0  0  0  0  0  0  0  0  0  0  0  # atno 17394 bound_to 11000
  139.8863  134.8912  156.2591 LP  0  0  0  0  0  0  0  0  0  0  0  0  # atno 17395 bound_to 11000

$$$$
