AV-unprocessed.smi:3033|AV-procd|sdf|11574|dock4
  -GOLD-   2272016543D 1   1.00000     0.00000
 Structure written by MMmdl.
 33 34  0  0  0  0  0  0  0  0  1 V2000
  151.2059  145.5013  160.2131 C   0  0  0  0  0  0  0  0  0  0  0  0
  152.2033  144.6005  160.6723 O   0  0  0  0  0  0  0  0  0  0  0  0
  152.2128  143.3238  160.1528 C   0  0  0  0  0  0  0  0  0  0  0  0
  153.2118  142.4481  160.6237 C   0  0  0  0  0  0  0  0  0  0  0  0
  153.2861  141.1233  160.1557 C   0  0  0  0  0  0  0  0  0  0  0  0
  152.3571  140.6580  159.2077 C   0  0  0  0  0  0  0  0  0  0  0  0
  151.3500  141.5196  158.7207 C   0  0  0  0  0  0  0  0  0  0  0  0
  150.3026  141.0301  157.7240 C   0  0  1  0  0  0  0  0  0  0  0  0
  148.9816  141.0555  158.2278 O   0  0  0  0  0  0  0  0  0  0  0  0
  150.3470  141.7404  156.3442 C   0  0  0  0  0  0  0  0  0  0  0  0
  149.3492  141.3070  155.3918 N   0  0  0  0  0  0  0  0  0  0  0  0
  148.0624  141.8252  155.3638 C   0  0  0  0  0  0  0  0  0  0  0  0
  147.1044  141.3887  154.5113 C   0  0  0  0  0  0  0  0  0  0  0  0
  145.5196  142.0746  154.5494 Cl  0  0  0  0  0  0  0  0  0  0  0  0
  147.4055  140.3231  153.5563 C   0  0  0  0  0  0  0  0  0  0  0  0
  146.6147  139.8536  152.7403 O   0  0  0  0  0  0  0  0  0  0  0  0
  148.7132  139.8321  153.6197 N   0  0  0  0  0  0  0  0  0  0  0  0
  149.7048  140.2726  154.4969 C   0  0  0  0  0  0  0  0  0  0  0  0
  150.8214  139.7556  154.4711 O   0  0  0  0  0  0  0  0  0  0  0  0
  151.2853  142.8484  159.1920 C   0  0  0  0  0  0  0  0  0  0  0  0
  148.9598  139.0919  152.9788 H   0  0  0  0  0  0  0  0  0  0  0  0
  151.3165  146.4546  160.7296 H   0  0  0  0  0  0  0  0  0  0  0  0
  150.2030  145.1272  160.4236 H   0  0  0  0  0  0  0  0  0  0  0  0
  151.3044  145.6921  159.1435 H   0  0  0  0  0  0  0  0  0  0  0  0
  153.9264  142.7947  161.3559 H   0  0  0  0  0  0  0  0  0  0  0  0
  154.0531  140.4611  160.5296 H   0  0  0  0  0  0  0  0  0  0  0  0
  152.4151  139.6335  158.8701 H   0  0  0  0  0  0  0  0  0  0  0  0
  150.5011  139.9714  157.5518 H   0  0  0  0  0  0  0  0  0  0  0  0
  148.8425  140.2757  158.7431 H   0  0  0  0  0  0  0  0  0  0  0  0
  150.1348  142.8006  156.4917 H   0  0  0  0  0  0  0  0  0  0  0  0
  151.3258  141.7140  155.8594 H   0  0  0  0  0  0  0  0  0  0  0  0
  147.8016  142.6072  156.0628 H   0  0  0  0  0  0  0  0  0  0  0  0
  150.5005  143.4842  158.8113 H   0  0  0  0  0  0  0  0  0  0  0  0
  1  2  1  0  0  0  0
  1 22  1  0  0  0  0
  1 23  1  0  0  0  0
  1 24  1  0  0  0  0
  2  3  1  0  0  0  0
  3 20  1  0  0  0  0
  3  4  2  0  0  0  0
  4  5  1  0  0  0  0
  4 25  1  0  0  0  0
  5  6  2  0  0  0  0
  5 26  1  0  0  0  0
  6  7  1  0  0  0  0
  6 27  1  0  0  0  0
  7  8  1  0  0  0  0
  7 20  2  0  0  0  0
  8  9  1  0  0  0  0
  8 10  1  0  0  0  0
  8 28  1  0  0  0  0
  9 29  1  0  0  0  0
 10 11  1  0  0  0  0
 10 30  1  0  0  0  0
 10 31  1  0  0  0  0
 11 18  1  0  0  0  0
 11 12  1  0  0  0  0
 12 13  2  0  0  0  0
 12 32  1  0  0  0  0
 13 14  1  0  0  0  0
 13 15  1  0  0  0  0
 15 16  2  0  0  0  0
 15 17  1  0  0  0  0
 17 21  1  0  0  0  0
 17 18  1  0  0  0  0
 18 19  2  0  0  0  0
 20 33  1  0  0  0  0
M  END
> <s_m_source_file>
AV-unprocessed.smi

> <i_m_source_file_index>
3033

> <i_lp_mmshare_version>
43012

> <i_f3d_flags>
0

> <s_epik_input>
W0NIM11PYzFbY0hdW2NIXVtjSF1jKFtjSF0xKVtDQEhdKFtPSF0pW0NIMl1uMltjSF1jKENsKWMoPU8pW25IXWMyPU8=

> <s_epik_cmdline>
J2VwaWtfcHl0aG9uJywgJy1waCcsICc3LjAnLCAnLXRuJywgJzgnLCAnLW1hJywgJzIwMCcsICctbWV0YWxfYmluZGluZycsICctaW1hZScsICc8aW5maWxlLm1hZT4nLCAnLW9tYWUnLCAnPG91dGZpbGUubWFlPic=

> <r_lp_tautomer_probability>
0.999537

> <r_epik_Ionization_Penalty>
0.0292058

> <r_epik_Ionization_Penalty_Charging>
0.0292057

> <r_epik_Ionization_Penalty_Neutral>
7.1713e-08

> <r_epik_State_Penalty>
0.0240115

> <r_epik_Charging_Adjusted_Penalty>
0.0532172

> <i_epik_Tot_Q>
0

> <i_epik_Tot_abs_Q>
0

> <r_epik_Metal_State_Penalty>
2.21956

> <b_epik_Metal_Only>
0

> <s_lp_Force_Field>
OPLS_2005

> <r_lp_Energy>
15.9701

> <b_lp_Chiralities_Consistent>
1

> <s_lp_Variant>
AV-unprocessed.smi:3033-2

> <Gold.Version>
5.8.1

> <Gold.Id.Protein>
6NUR|6NUR_protein|mol2

> <Gold.PLP.Fitness>
45.1868

> <Gold.PLP.PLP>
-40.5346

> <Gold.PLP.part.hbond>
-1.7880

> <Gold.PLP.part.metal>
0.0000

> <Gold.PLP.part.buried>
-0.0544

> <Gold.PLP.part.nonpolar>
-41.0419

> <Gold.PLP.part.repulsive>
1.0841

> <Gold.PLP.ligand.clash>
0.0000

> <Gold.PLP.ligand.torsion>
0.4102

> <Gold.PLP.Chemscore.Hbond>
0.9600

> <Gold.PLP.Chemscore.CHOScore>
0.8281

> <Gold.PLP.Chemscore.Metal>
0.0000

> <Gold.Chemscore.Hbonds>
donor molecule, donor type, donor heavy atom, donor atom, acceptor molecule, acceptor atom, score
      L1  H    17    21       P1  7957  0.10
      P1  H  7989  7998       L1    19  1.00
      L1  C    12    32       P1  8028  0.70

> <Gold.PLP.Chemscore.Internal.Correction>
0.1084

> <Gold.Rescore>
     Score         DG    S(hbond)    S(metal)    S(lipo)     H(rot)  DE(clash)    DE(int)     intcor
      8.66     -10.76       0.03        0.00      99.31       2.51       1.63       0.48       ----

> <Gold.Chemscore.Fitness>
8.6550

> <Gold.Chemscore.DG>
-10.7587

> <Gold.Chemscore.ZeroCoef>
-5.4800

> <Gold.Chemscore.Hbond>
0.0260

> <Gold.Chemscore.Metal>
0.0000

> <Gold.Chemscore.Lipo>
99.3091

> <Gold.Chemscore.Internal_Hbond>
0.0000

> <Gold.Chemscore.DEClash>
1.6258

> <Gold.Chemscore.DEInternal>
0.4778

> <Gold.Chemscore.Rot>
2.5107

> <Gold.Chemscore.Internal.Correction>
   9.000000E+99

> <Gold.Chemscore.Hbonds>
donor molecule, donor type, donor heavy atom, donor atom, acceptor molecule, acceptor atom, score
      L1  H    17    21       P1  7957  0.11
      P1  H  7989  7998       L1    19  0.26

> <Gold.Chemscore.Hbond.Weighted>
-0.0870

> <Gold.Chemscore.Metal.Weighted>
-0.0000

> <Gold.Chemscore.Lipo.Weighted>
-11.6192

> <Gold.Chemscore.Internal_Hbond.Weighted>
0.0000

> <Gold.Chemscore.DEClash.Weighted>
1.6258

> <Gold.Chemscore.DEInternal.Weighted>
0.4778

> <Gold.Chemscore.Rot.Weighted>
6.4274

> <Gold.Chemscore.Internal.Correction.Weighted>
   9.000000E+99

> <Gold.Protein.RotatedTorsions>
[ 6907 6896 6895 6894 ] final -143.62 input  -60.11 | X-H torsion
[ 7974 7965 7964 7962 ] final   -1.38 input  175.53 | X-H torsion
[ 8008 7997 7996 7995 ] final   65.80 input   59.86 | X-H torsion
[ 10167 10162 10161 10158 ] final  -70.23 input  -65.29 | X-H torsion
[ 10718 10713 10712 10709 ] final  -62.00 input   66.30 | X-H torsion
[ 10763 10752 10751 10750 ] final   27.33 input  -60.55 | X-H torsion
[ 11005 11000 10999 10996 ] final  -78.82 input  -57.11 | X-H torsion

> <Gold.Protein.ActiveResidues>
 VAL166  LYS551  ARG553  GLY616  TRP617  ASP618  TYR619  PRO620  LYS621  CYS622 
 ASP623  PHE694  ASN695  SER759  ASP760  ASP761  ALA762  ILE779  LEU786  VAL792 
 PHE793  MET794  SER795  GLU796  ALA797  LYS798  CYS799  TRP800  GLU811  SER814 

> <Gold.Protein.RotatedAtoms>
  151.1029  133.5230  159.2608 H   0  0  0  0  0  0  0  0  0  0  0  0  # atno 6907 bound_to 6896
  151.2053  135.0459  159.8899 H   0  0  0  0  0  0  0  0  0  0  0  0  # atno 6908 bound_to 6896
  152.5444  134.0852  159.8306 H   0  0  0  0  0  0  0  0  0  0  0  0  # atno 6909 bound_to 6896
  146.2417  140.1412  142.8335 H   0  0  0  0  0  0  0  0  0  0  0  0  # atno 7974 bound_to 7965
  155.6674  140.3497  155.4805 H   0  0  0  0  0  0  0  0  0  0  0  0  # atno 8008 bound_to 7997
  155.9717  140.1157  157.0829 H   0  0  0  0  0  0  0  0  0  0  0  0  # atno 8009 bound_to 7997
  154.4168  140.1155  156.5302 H   0  0  0  0  0  0  0  0  0  0  0  0  # atno 8010 bound_to 7997
  140.5369  143.2317  151.7161 H   0  0  0  0  0  0  0  0  0  0  0  0  # atno 10167 bound_to 10162
  156.0884  130.4204  150.1073 H   0  0  0  0  0  0  0  0  0  0  0  0  # atno 10718 bound_to 10713
  153.0563  135.6539  154.0570 H   0  0  0  0  0  0  0  0  0  0  0  0  # atno 10763 bound_to 10752
  154.0248  135.2916  155.3378 H   0  0  0  0  0  0  0  0  0  0  0  0  # atno 10764 bound_to 10752
  154.6879  135.5294  153.8419 H   0  0  0  0  0  0  0  0  0  0  0  0  # atno 10765 bound_to 10752
  141.1666  133.7079  156.8029 H   0  0  0  0  0  0  0  0  0  0  0  0  # atno 11005 bound_to 11000
  145.0245  140.8821  143.5147 LP  0  0  0  0  0  0  0  0  0  0  0  0  # atno 17320 bound_to 7965
  145.1466  139.2540  143.5462 LP  0  0  0  0  0  0  0  0  0  0  0  0  # atno 17321 bound_to 7965
  139.4974  144.4029  152.0162 LP  0  0  0  0  0  0  0  0  0  0  0  0  # atno 17342 bound_to 10162
  140.3135  144.3510  150.6027 LP  0  0  0  0  0  0  0  0  0  0  0  0  # atno 17343 bound_to 10162
  156.9089  130.9645  151.3566 LP  0  0  0  0  0  0  0  0  0  0  0  0  # atno 17370 bound_to 10713
  157.6026  130.8523  149.8825 LP  0  0  0  0  0  0  0  0  0  0  0  0  # atno 17371 bound_to 10713
  140.2243  134.8733  157.3410 LP  0  0  0  0  0  0  0  0  0  0  0  0  # atno 17394 bound_to 11000
  140.1955  134.4318  155.7691 LP  0  0  0  0  0  0  0  0  0  0  0  0  # atno 17395 bound_to 11000

$$$$
