AV-unprocessed.smi:465|AV-procd|sdf|2639|dock4
  -GOLD-   2262023 43D 1   1.00000     0.00000
 Structure written by MMmdl.
 42 44  0  0  0  0  0  0  0  0  1 V2000
  153.9157  142.5812  163.6893 C   0  0  0  0  0  0  0  0  0  0  0  0
  153.2337  142.5960  162.3368 C   0  0  0  0  0  0  0  0  0  0  0  0
  152.4034  143.6723  161.9671 C   0  0  0  0  0  0  0  0  0  0  0  0
  151.7767  143.6797  160.7061 C   0  0  0  0  0  0  0  0  0  0  0  0
  151.9687  142.6193  159.7967 C   0  0  0  0  0  0  0  0  0  0  0  0
  151.3209  142.7101  158.5832 O   0  0  0  0  0  0  0  0  0  0  0  0
  151.5798  141.7101  157.6081 C   0  0  0  0  0  0  0  0  0  0  0  0
  151.0351  142.1882  156.2571 C   0  0  0  0  0  0  0  0  0  0  0  0
  150.3366  141.1215  155.5568 N   0  0  0  0  0  0  0  0  0  0  0  0
  150.7325  139.8382  155.3567 C   0  0  0  0  0  0  0  0  0  0  0  0
  152.0335  139.2982  155.8765 C   0  0  0  0  0  0  0  0  0  0  0  0
  152.2127  137.7932  155.6202 C   0  0  0  0  0  0  0  0  0  0  0  0
  151.9872  137.4813  154.2616 O   0  0  0  0  0  0  0  0  0  0  0  0
  149.8853  139.0726  154.6671 N   0  0  0  0  0  0  0  0  0  0  0  0
  148.8466  139.9394  154.3897 C   0  0  0  0  0  0  0  0  0  0  0  0
  147.6410  139.7316  153.6816 C   0  0  0  0  0  0  0  0  0  0  0  0
  146.7176  140.7852  153.5200 C   0  0  0  0  0  0  0  0  0  0  0  0
  146.9856  142.0587  154.0625 C   0  0  0  0  0  0  0  0  0  0  0  0
  148.1805  142.2868  154.7719 C   0  0  0  0  0  0  0  0  0  0  0  0
  149.0986  141.2313  154.9314 C   0  0  0  0  0  0  0  0  0  0  0  0
  152.8043  141.5385  160.1763 C   0  0  0  0  0  0  0  0  0  0  0  0
  153.4315  141.5304  161.4373 C   0  0  0  0  0  0  0  0  0  0  0  0
  153.4969  143.3383  164.3528 H   0  0  0  0  0  0  0  0  0  0  0  0
  154.9816  142.7782  163.5745 H   0  0  0  0  0  0  0  0  0  0  0  0
  153.7953  141.6083  164.1666 H   0  0  0  0  0  0  0  0  0  0  0  0
  152.2444  144.4966  162.6469 H   0  0  0  0  0  0  0  0  0  0  0  0
  151.1426  144.5103  160.4325 H   0  0  0  0  0  0  0  0  0  0  0  0
  152.6534  141.5315  157.5269 H   0  0  0  0  0  0  0  0  0  0  0  0
  151.0987  140.7731  157.8933 H   0  0  0  0  0  0  0  0  0  0  0  0
  150.3685  143.0396  156.3885 H   0  0  0  0  0  0  0  0  0  0  0  0
  151.8536  142.5385  155.6279 H   0  0  0  0  0  0  0  0  0  0  0  0
  152.8359  139.8359  155.3702 H   0  0  0  0  0  0  0  0  0  0  0  0
  152.1546  139.5280  156.9348 H   0  0  0  0  0  0  0  0  0  0  0  0
  153.2065  137.4587  155.9198 H   0  0  0  0  0  0  0  0  0  0  0  0
  151.4920  137.2306  156.2141 H   0  0  0  0  0  0  0  0  0  0  0  0
  151.1007  137.7223  154.0400 H   0  0  0  0  0  0  0  0  0  0  0  0
  147.4271  138.7602  153.2609 H   0  0  0  0  0  0  0  0  0  0  0  0
  145.7995  140.6156  152.9768 H   0  0  0  0  0  0  0  0  0  0  0  0
  146.2732  142.8605  153.9334 H   0  0  0  0  0  0  0  0  0  0  0  0
  148.3891  143.2614  155.1875 H   0  0  0  0  0  0  0  0  0  0  0  0
  152.9816  140.7024  159.5172 H   0  0  0  0  0  0  0  0  0  0  0  0
  154.0676  140.7017  161.7122 H   0  0  0  0  0  0  0  0  0  0  0  0
  1  2  1  0  0  0  0
  1 23  1  0  0  0  0
  1 24  1  0  0  0  0
  1 25  1  0  0  0  0
  2 22  1  0  0  0  0
  2  3  2  0  0  0  0
  3  4  1  0  0  0  0
  3 26  1  0  0  0  0
  4  5  2  0  0  0  0
  4 27  1  0  0  0  0
  5  6  1  0  0  0  0
  5 21  1  0  0  0  0
  6  7  1  0  0  0  0
  7  8  1  0  0  0  0
  7 28  1  0  0  0  0
  7 29  1  0  0  0  0
  8  9  1  0  0  0  0
  8 30  1  0  0  0  0
  8 31  1  0  0  0  0
  9 20  1  0  0  0  0
  9 10  1  0  0  0  0
 10 11  1  0  0  0  0
 10 14  2  0  0  0  0
 11 12  1  0  0  0  0
 11 32  1  0  0  0  0
 11 33  1  0  0  0  0
 12 13  1  0  0  0  0
 12 34  1  0  0  0  0
 12 35  1  0  0  0  0
 13 36  1  0  0  0  0
 14 15  1  0  0  0  0
 15 20  2  0  0  0  0
 15 16  1  0  0  0  0
 16 17  2  0  0  0  0
 16 37  1  0  0  0  0
 17 18  1  0  0  0  0
 17 38  1  0  0  0  0
 18 19  2  0  0  0  0
 18 39  1  0  0  0  0
 19 20  1  0  0  0  0
 19 40  1  0  0  0  0
 21 22  2  0  0  0  0
 21 41  1  0  0  0  0
 22 42  1  0  0  0  0
M  END
> <s_m_source_file>
AV-unprocessed.smi

> <i_m_source_file_index>
465

> <i_lp_mmshare_version>
43012

> <i_f3d_flags>
0

> <s_epik_input>
W0NIM11jMVtjSF1bY0hdYyhbY0hdW2NIXTEpT1tDSDJdW0NIMl1uKGMobjIpW0NIMl1bQ0gyXVtPSF0pYyhjMjMpW2NIXVtjSF1bY0hdW2NIXTM=

> <s_epik_cmdline>
J2VwaWtfcHl0aG9uJywgJy1waCcsICc3LjAnLCAnLXRuJywgJzgnLCAnLW1hJywgJzIwMCcsICctbWV0YWxfYmluZGluZycsICctaW1hZScsICc8aW5maWxlLm1hZT4nLCAnLW9tYWUnLCAnPG91dGZpbGUubWFlPic=

> <r_lp_tautomer_probability>
1

> <r_epik_Ionization_Penalty>
0.207749

> <r_epik_Ionization_Penalty_Charging>
0

> <r_epik_Ionization_Penalty_Neutral>
0.207749

> <r_epik_State_Penalty>
0.197758

> <r_epik_Charging_Adjusted_Penalty>
0.197758

> <i_epik_Tot_Q>
0

> <i_epik_Tot_abs_Q>
0

> <r_epik_Metal_State_Penalty>
0.000234715

> <b_epik_Metal_Only>
0

> <s_lp_Force_Field>
OPLS_2005

> <r_lp_Energy>
16.7212

> <b_lp_Chiralities_Consistent>
1

> <s_lp_Variant>
AV-unprocessed.smi:465-1

> <Gold.Version>
5.8.1

> <Gold.Id.Protein>
6NUR|6NUR_protein|mol2

> <Gold.PLP.Fitness>
54.0698

> <Gold.PLP.PLP>
-52.4642

> <Gold.PLP.part.hbond>
-1.2637

> <Gold.PLP.part.metal>
0.0000

> <Gold.PLP.part.buried>
-1.5605

> <Gold.PLP.part.nonpolar>
-47.7259

> <Gold.PLP.part.repulsive>
0.1758

> <Gold.PLP.ligand.clash>
0.0000

> <Gold.PLP.ligand.torsion>
0.5734

> <Gold.PLP.Chemscore.Hbond>
0.9040

> <Gold.PLP.Chemscore.CHOScore>
0.0000

> <Gold.PLP.Chemscore.Metal>
0.0000

> <Gold.Chemscore.Hbonds>
donor molecule, donor type, donor heavy atom, donor atom, acceptor molecule, acceptor atom, score
      P1  H 10752 10764       L1    13  0.86

> <Gold.PLP.Chemscore.Internal.Correction>
0.0404

> <Gold.Rescore>
     Score         DG    S(hbond)    S(metal)    S(lipo)     H(rot)  DE(clash)    DE(int)     intcor
     15.88     -18.98       0.70        0.00     145.31       2.28       0.05       3.04       ----

> <Gold.Chemscore.Fitness>
15.8839

> <Gold.Chemscore.DG>
-18.9760

> <Gold.Chemscore.ZeroCoef>
-5.4800

> <Gold.Chemscore.Hbond>
0.6996

> <Gold.Chemscore.Metal>
0.0000

> <Gold.Chemscore.Lipo>
145.3119

> <Gold.Chemscore.Internal_Hbond>
0.0000

> <Gold.Chemscore.DEClash>
0.0488

> <Gold.Chemscore.DEInternal>
3.0434

> <Gold.Chemscore.Rot>
2.2821

> <Gold.Chemscore.Internal.Correction>
   9.000000E+99

> <Gold.Chemscore.Hbonds>
donor molecule, donor type, donor heavy atom, donor atom, acceptor molecule, acceptor atom, score
      P1  H 10752 10764       L1    13  0.21

> <Gold.Chemscore.Hbond.Weighted>
-2.3366

> <Gold.Chemscore.Metal.Weighted>
-0.0000

> <Gold.Chemscore.Lipo.Weighted>
-17.0015

> <Gold.Chemscore.Internal_Hbond.Weighted>
0.0000

> <Gold.Chemscore.DEClash.Weighted>
0.0488

> <Gold.Chemscore.DEInternal.Weighted>
3.0434

> <Gold.Chemscore.Rot.Weighted>
5.8421

> <Gold.Chemscore.Internal.Correction.Weighted>
   9.000000E+99

> <Gold.Protein.RotatedTorsions>
[ 6907 6896 6895 6894 ] final -108.90 input  -60.11 | X-H torsion
[ 7974 7965 7964 7962 ] final -160.42 input  175.53 | X-H torsion
[ 8008 7997 7996 7995 ] final -168.32 input   59.86 | X-H torsion
[ 10167 10162 10161 10158 ] final   91.62 input  -65.29 | X-H torsion
[ 10718 10713 10712 10709 ] final  150.91 input   66.30 | X-H torsion
[ 10763 10752 10751 10750 ] final  -88.11 input  -60.55 | X-H torsion
[ 11005 11000 10999 10996 ] final   60.32 input  -57.11 | X-H torsion

> <Gold.Protein.ActiveResidues>
 VAL166  LYS551  ARG553  GLY616  TRP617  ASP618  TYR619  PRO620  LYS621  CYS622 
 ASP623  PHE694  ASN695  SER759  ASP760  ASP761  ALA762  ILE779  LEU786  VAL792 
 PHE793  MET794  SER795  GLU796  ALA797  LYS798  CYS799  TRP800  GLU811  SER814 

> <Gold.Protein.RotatedAtoms>
  150.7529  133.9609  159.3514 H   0  0  0  0  0  0  0  0  0  0  0  0  # atno 6907 bound_to 6896
  151.7534  135.0825  160.0344 H   0  0  0  0  0  0  0  0  0  0  0  0  # atno 6908 bound_to 6896
  152.3451  133.6075  159.5940 H   0  0  0  0  0  0  0  0  0  0  0  0  # atno 6909 bound_to 6896
  144.7428  140.3544  143.6109 H   0  0  0  0  0  0  0  0  0  0  0  0  # atno 7974 bound_to 7965
  155.8898  140.1023  157.1426 H   0  0  0  0  0  0  0  0  0  0  0  0  # atno 8008 bound_to 7997
  154.4014  140.1313  156.4365 H   0  0  0  0  0  0  0  0  0  0  0  0  # atno 8009 bound_to 7997
  155.7547  140.3464  155.5170 H   0  0  0  0  0  0  0  0  0  0  0  0  # atno 8010 bound_to 7997
  139.8356  144.6666  150.9345 H   0  0  0  0  0  0  0  0  0  0  0  0  # atno 10167 bound_to 10162
  157.2774  131.0829  151.1556 H   0  0  0  0  0  0  0  0  0  0  0  0  # atno 10718 bound_to 10713
  154.6410  135.5389  153.7789 H   0  0  0  0  0  0  0  0  0  0  0  0  # atno 10763 bound_to 10752
  153.0333  135.6459  154.1160 H   0  0  0  0  0  0  0  0  0  0  0  0  # atno 10764 bound_to 10752
  154.1085  135.2928  155.3216 H   0  0  0  0  0  0  0  0  0  0  0  0  # atno 10765 bound_to 10752
  140.0240  134.6110  155.9599 H   0  0  0  0  0  0  0  0  0  0  0  0  # atno 11005 bound_to 11000
  145.7243  139.1718  143.2467 LP  0  0  0  0  0  0  0  0  0  0  0  0  # atno 17320 bound_to 7965
  146.1254  140.7255  142.9437 LP  0  0  0  0  0  0  0  0  0  0  0  0  # atno 17321 bound_to 7965
  140.7803  143.3960  151.1230 LP  0  0  0  0  0  0  0  0  0  0  0  0  # atno 17342 bound_to 10162
  139.7610  143.8635  152.3100 LP  0  0  0  0  0  0  0  0  0  0  0  0  # atno 17343 bound_to 10162
  157.3004  130.6840  149.6161 LP  0  0  0  0  0  0  0  0  0  0  0  0  # atno 17370 bound_to 10713
  155.9664  130.4394  150.5256 LP  0  0  0  0  0  0  0  0  0  0  0  0  # atno 17371 bound_to 10713
  141.1791  133.6544  156.4948 LP  0  0  0  0  0  0  0  0  0  0  0  0  # atno 17394 bound_to 11000
  140.4338  134.7077  157.4956 LP  0  0  0  0  0  0  0  0  0  0  0  0  # atno 17395 bound_to 11000

$$$$
