#       Name:                AV-unprocessed.smi:829
#       Creating user name   scv26
#       Creation time:       Fri Mar 27 01:31:52 2020


#       File generated by GOLD software.
#

@<TRIPOS>MOLECULE
AV-unprocessed.smi:829
    52    54     1
SMALL
NO_CHARGES


@<TRIPOS>ATOM
      1 ****        -2.5821   3.0305  -0.2220 O.2            1 S1                 0.0000
      2 ****        -2.9443   1.9468   0.2351 C.2            1 S1                 0.0000
      3 ****        -4.2091   1.6068   0.5396 N.am           1 S1                 0.0000
      4 ****        -5.4015   2.3718   0.4127 C.ar           1 S1                 0.0000
      5 ****        -6.5510   1.8985   1.0790 C.ar           1 S1                 0.0000
      6 ****        -7.7521   2.6266   0.9656 C.ar           1 S1                 0.0000
      7 ****        -7.8666   3.7605   0.2431 N.ar           1 S1                 0.0000
      8 ****        -6.7690   4.2073  -0.4029 C.ar           1 S1                 0.0000
      9 ****        -5.5205   3.5549  -0.3569 C.ar           1 S1                 0.0000
     10 ****        -2.0957   0.9443   0.5063 N.am           1 S1                 0.0000
     11 ****        -0.6499   0.9923   0.3081 C.3            1 S1                 0.0000
     12 ****        -0.2832   0.6511  -1.1477 C.3            1 S1                 0.0000
     13 ****         1.2419   0.6003  -1.3406 C.3            1 S1                 0.0000
     14 ****         1.8710  -0.3617  -0.3991 N.4            1 S1                 1.0000
     15 ****         3.3240  -0.5499  -0.6463 C.3            1 S1                 0.0000
     16 ****         3.7126  -2.0402  -0.6753 C.3            1 S1                 0.0000
     17 ****         3.6522  -2.7566   0.6772 C.3            1 S1                 0.0000
     18 ****         4.5145  -4.0096   0.4985 C.3            1 S1                 0.0000
     19 ****         5.5103  -3.6860  -0.6252 C.3            1 S1                 0.0000
     20 ****         5.1596  -2.2768  -1.1170 C.3            1 S1                 0.0000
     21 ****         1.5608  -0.0233   1.0146 C.3            1 S1                 0.0000
     22 ****         0.0430   0.0022   1.2575 C.3            1 S1                 0.0000
     23 ****        -4.3304   0.6964   0.9583 H              1 S1                 0.0000
     24 ****        -6.5181   0.9954   1.6710 H              1 S1                 0.0000
     25 ****        -8.6456   2.2876   1.4687 H              1 S1                 0.0000
     26 ****        -6.8901   5.1124  -0.9797 H              1 S1                 0.0000
     27 ****        -4.6973   3.9706  -0.9158 H              1 S1                 0.0000
     28 ****        -2.4765   0.0885   0.8832 H              1 S1                 0.0000
     29 ****        -0.2889   1.9962   0.5410 H              1 S1                 0.0000
     30 ****        -0.7148  -0.3125  -1.4229 H              1 S1                 0.0000
     31 ****        -0.7133   1.3870  -1.8283 H              1 S1                 0.0000
     32 ****         1.4602   0.3046  -2.3678 H              1 S1                 0.0000
     33 ****         1.6742   1.5916  -1.1946 H              1 S1                 0.0000
     34 ****         3.5881  -0.1209  -1.6142 H              1 S1                 0.0000
     35 ****         3.9177  -0.0022   0.0875 H              1 S1                 0.0000
     36 ****         3.0597  -2.5653  -1.3750 H              1 S1                 0.0000
     37 ****         4.0883  -2.1259   1.4533 H              1 S1                 0.0000
     38 ****         2.6332  -2.9999   0.9794 H              1 S1                 0.0000
     39 ****         5.0164  -4.2873   1.4260 H              1 S1                 0.0000
     40 ****         3.8891  -4.8526   0.2017 H              1 S1                 0.0000
     41 ****         6.5435  -3.7370  -0.2797 H              1 S1                 0.0000
     42 ****         5.4025  -4.4089  -1.4350 H              1 S1                 0.0000
     43 ****         5.2907  -2.1687  -2.1940 H              1 S1                 0.0000
     44 ****         5.8173  -1.5532  -0.6333 H              1 S1                 0.0000
     45 ****         2.0186  -0.7499   1.6848 H              1 S1                 0.0000
     46 ****         1.9947   0.9472   1.2612 H              1 S1                 0.0000
     47 ****        -0.1594   0.2741   2.2942 H              1 S1                 0.0000
     48 ****        -0.3638  -1.0003   1.1147 H              1 S1                 0.0000
     49 ****         1.4385  -1.2547  -0.5876 H              1 S1                 0.0000
     50 ****        -3.2549   3.7492  -0.3974 LP             1 S1                 0.0000
     51 ****        -1.6149   3.1923  -0.4181 LP             1 S1                 0.0000
     52 ****        -8.7351   4.2530   0.1881 LP             1 S1                 0.0000
@<TRIPOS>BOND
    1    1    2 2     
    2    2    3 am    
    3    2   10 am    
    4    3    4 1     
    5    3   23 1     
    6    4    9 ar    
    7    4    5 ar    
    8    5    6 ar    
    9    5   24 1     
   10    6    7 ar    
   11    6   25 1     
   12    7    8 ar    
   13    8    9 ar    
   14    8   26 1     
   15    9   27 1     
   16   10   11 1     
   17   10   28 1     
   18   11   22 1     
   19   11   12 1     
   20   11   29 1     
   21   12   13 1     
   22   12   30 1     
   23   12   31 1     
   24   13   14 1     
   25   13   32 1     
   26   13   33 1     
   27   14   15 1     
   28   14   21 1     
   29   14   49 1     
   30   15   16 1     
   31   15   34 1     
   32   15   35 1     
   33   16   20 1     
   34   16   17 1     
   35   16   36 1     
   36   17   18 1     
   37   17   37 1     
   38   17   38 1     
   39   18   19 1     
   40   18   39 1     
   41   18   40 1     
   42   19   20 1     
   43   19   41 1     
   44   19   42 1     
   45   20   43 1     
   46   20   44 1     
   47   21   22 1     
   48   21   45 1     
   49   21   46 1     
   50   22   47 1     
   51   22   48 1     
   52    1   50 1     
   53    1   51 1     
   54    7   52 1     
@<TRIPOS>SUBSTRUCTURE
      1 S1             1
@<TRIPOS>SET
LONE_PAIRS      STATIC     ATOMS    <user>   **** ""
3 50 51 52
DONOR_HYDROGENS      STATIC     ATOMS    <user>   **** ""
3 23 28 49
ATOM$BLUE        STATIC     ATOMS    COLORGROUP SYSTEM
3 50 51 52
ATOM$RED        STATIC     ATOMS    COLORGROUP SYSTEM
3 23 28 49
