#       Name:                AV-unprocessed.smi:104
#       Creating user name   scv26
#       Creation time:       Thu Mar 26 17:59:38 2020


#       File generated by GOLD software.
#

@<TRIPOS>MOLECULE
AV-unprocessed.smi:104
    58    60     1
SMALL
NO_CHARGES


@<TRIPOS>ATOM
      1 ****        -5.4101   2.9463  -0.7795 C.3            1 S1                 0.0000
      2 ****        -5.0140   1.6568  -0.0727 C.2            1 S1                 0.0000
      3 ****        -5.8303   0.9971   0.5712 O.2            1 S1                 0.0000
      4 ****        -3.7179   1.3615  -0.2412 O.3            1 S1                 0.0000
      5 ****        -3.1754   0.2015   0.3670 C.3            1 S1                 0.0000
      6 ****        -1.6611   0.1852   0.1392 C.3            1 S1                 0.0000
      7 ****        -1.0269   1.1369   0.9811 O.3            1 S1                 0.0000
      8 ****         0.3286   0.8372   1.0655 C.3            1 S1                 0.0000
      9 ****         1.0896   1.5801  -0.0018 N.pl3          1 S1                 0.0000
     10 ****         0.7237   2.6116  -0.8517 C.2            1 S1                 0.0000
     11 ****        -0.9981   3.4309  -0.8870 Br             1 S1                 0.0000
     12 ****         1.6381   3.0580  -1.6673 N.2            1 S1                 0.0000
     13 ****         2.7545   2.3098  -1.3268 C.ar           1 S1                 0.0000
     14 ****         4.0949   2.2736  -1.7869 C.ar           1 S1                 0.0000
     15 ****         4.5504   3.0580  -2.7732 N.pl3          1 S1                 0.0000
     16 ****         4.9574   1.4109  -1.2007 N.ar           1 S1                 0.0000
     17 ****         4.5290   0.6235  -0.2091 C.ar           1 S1                 0.0000
     18 ****         3.3074   0.5435   0.3246 N.ar           1 S1                 0.0000
     19 ****         2.4336   1.4056  -0.2745 C.ar           1 S1                 0.0000
     20 ****         0.4456  -0.6830   0.8427 C.3            1 S1                 0.0000
     21 ****         0.9538  -1.3052   2.0157 O.3            1 S1                 0.0000
     22 ****         1.8451  -2.3080   1.9251 C.2            1 S1                 0.0000
     23 ****         2.2637  -2.8423   3.2887 C.3            1 S1                 0.0000
     24 ****         2.3011  -2.7833   0.8851 O.2            1 S1                 0.0000
     25 ****        -0.9912  -1.1160   0.5681 C.3            1 S1                 0.0000
     26 ****        -1.0401  -2.0625  -0.4915 O.3            1 S1                 0.0000
     27 ****        -1.0599  -3.3797  -0.2263 C.2            1 S1                 0.0000
     28 ****        -1.1044  -4.2265  -1.4911 C.3            1 S1                 0.0000
     29 ****        -1.0453  -3.8956   0.8914 O.2            1 S1                 0.0000
     30 ****        -4.9266   3.8001  -0.3045 H              1 S1                 0.0000
     31 ****        -6.4898   3.0913  -0.7361 H              1 S1                 0.0000
     32 ****        -5.1073   2.9148  -1.8262 H              1 S1                 0.0000
     33 ****        -3.4015   0.1780   1.4340 H              1 S1                 0.0000
     34 ****        -3.6304  -0.6796  -0.0874 H              1 S1                 0.0000
     35 ****        -1.4224   0.4021  -0.9041 H              1 S1                 0.0000
     36 ****         0.7606   1.1961   2.0003 H              1 S1                 0.0000
     37 ****         3.9272   3.7126  -3.2236 H              1 S1                 0.0000
     38 ****         5.5145   2.9916  -3.0657 H              1 S1                 0.0000
     39 ****         5.2691  -0.0383   0.2160 H              1 S1                 0.0000
     40 ****         1.0682  -0.8655  -0.0342 H              1 S1                 0.0000
     41 ****         1.8409  -3.8339   3.4492 H              1 S1                 0.0000
     42 ****         1.9187  -2.1861   4.0880 H              1 S1                 0.0000
     43 ****         3.3497  -2.9152   3.3475 H              1 S1                 0.0000
     44 ****        -1.4656  -1.4803   1.4813 H              1 S1                 0.0000
     45 ****        -2.1192  -4.2583  -1.8875 H              1 S1                 0.0000
     46 ****        -0.7835  -5.2465  -1.2790 H              1 S1                 0.0000
     47 ****        -0.4458  -3.8102  -2.2536 H              1 S1                 0.0000
     48 ****        -6.7793   1.3048   0.6394 LP             1 S1                 0.0000
     49 ****        -5.5441   0.1537   1.0260 LP             1 S1                 0.0000
     50 ****        -1.4351   1.1019   1.8933 LP             1 S1                 0.0000
     51 ****        -1.1441   2.0534   0.5985 LP             1 S1                 0.0000
     52 ****         1.5545   3.7670  -2.3675 LP             1 S1                 0.0000
     53 ****         5.9081   1.3629  -1.5071 LP             1 S1                 0.0000
     54 ****         3.0620  -0.0731   1.0726 LP             1 S1                 0.0000
     55 ****         2.0098  -2.4207  -0.0001 LP             1 S1                 0.0000
     56 ****         2.9629  -3.5319   0.9256 LP             1 S1                 0.0000
     57 ****        -1.0160  -3.3190   1.7079 LP             1 S1                 0.0000
     58 ****        -1.0626  -4.8912   0.9828 LP             1 S1                 0.0000
@<TRIPOS>BOND
    1    1    2 1     
    2    1   30 1     
    3    1   31 1     
    4    1   32 1     
    5    2    3 2     
    6    2    4 1     
    7    4    5 1     
    8    5    6 1     
    9    5   33 1     
   10    5   34 1     
   11    6   25 1     
   12    6    7 1     
   13    6   35 1     
   14    7    8 1     
   15    8    9 1     
   16    8   20 1     
   17    8   36 1     
   18    9   19 1     
   19    9   10 1     
   20   10   11 1     
   21   10   12 2     
   22   12   13 1     
   23   13   19 ar    
   24   13   14 ar    
   25   14   15 1     
   26   14   16 ar    
   27   15   37 1     
   28   15   38 1     
   29   16   17 ar    
   30   17   18 ar    
   31   17   39 1     
   32   18   19 ar    
   33   20   21 1     
   34   20   25 1     
   35   20   40 1     
   36   21   22 1     
   37   22   23 1     
   38   22   24 2     
   39   23   41 1     
   40   23   42 1     
   41   23   43 1     
   42   25   26 1     
   43   25   44 1     
   44   26   27 1     
   45   27   28 1     
   46   27   29 2     
   47   28   45 1     
   48   28   46 1     
   49   28   47 1     
   50    3   48 1     
   51    3   49 1     
   52    7   50 1     
   53    7   51 1     
   54   12   52 1     
   55   16   53 1     
   56   18   54 1     
   57   24   55 1     
   58   24   56 1     
   59   29   57 1     
   60   29   58 1     
@<TRIPOS>SUBSTRUCTURE
      1 S1             1
@<TRIPOS>SET
LONE_PAIRS      STATIC     ATOMS    <user>   **** ""
11 48 49 50 51 52 53 54 55 56 57 58
DONOR_HYDROGENS      STATIC     ATOMS    <user>   **** ""
2 37 38
ATOM$BLUE        STATIC     ATOMS    COLORGROUP SYSTEM
11 48 49 50 51 52 53 54 55 56 57 58
ATOM$RED        STATIC     ATOMS    COLORGROUP SYSTEM
2 37 38
