AV-unprocessed.smi:964|AV-procd|sdf|4277|dock5
  -GOLD-   22720 2183D 1   1.00000     0.00000
 Structure written by MMmdl.
 20 20  0  0  0  0  0  0  0  0  2 V2000
  150.9396  142.1387  155.9302 C   0  0  0  0  0  0  0  0  0  0  0  0
  150.0654  141.4782  154.9195 C   0  0  0  0  0  0  0  0  0  0  0  0
  148.7057  141.6213  154.9061 N   0  0  0  0  0  0  0  0  0  0  0  0
  148.4009  140.8706  153.8531 C   0  0  0  0  0  0  0  0  0  0  0  0
  147.0166  140.6285  153.3469 C   0  0  0  0  0  0  0  0  0  0  0  0
  146.7216  139.1358  153.1454 C   0  0  0  0  0  0  0  0  0  0  0  0
  147.1607  138.6739  151.8181 N   0  3  0  0  0  0  0  0  0  0  0  0
  149.4787  140.3199  153.2895 N   0  0  0  0  0  0  0  0  0  0  0  0
  150.5810  140.7020  153.9681 N   0  0  0  0  0  0  0  0  0  0  0  0
  150.3560  142.7969  156.5743 H   0  0  0  0  0  0  0  0  0  0  0  0
  151.7073  142.7341  155.4352 H   0  0  0  0  0  0  0  0  0  0  0  0
  151.4281  141.3894  156.5537 H   0  0  0  0  0  0  0  0  0  0  0  0
  146.3103  141.0587  154.0583 H   0  0  0  0  0  0  0  0  0  0  0  0
  146.8825  141.1697  152.4092 H   0  0  0  0  0  0  0  0  0  0  0  0
  147.2273  138.5432  153.9087 H   0  0  0  0  0  0  0  0  0  0  0  0
  145.6526  138.9436  153.2442 H   0  0  0  0  0  0  0  0  0  0  0  0
  147.8498  139.3145  151.4503 H   0  0  0  0  0  0  0  0  0  0  0  0
  146.3687  138.6370  151.1923 H   0  0  0  0  0  0  0  0  0  0  0  0
  147.5694  137.7537  151.8997 H   0  0  0  0  0  0  0  0  0  0  0  0
  149.5120  139.7111  152.4840 H   0  0  0  0  0  0  0  0  0  0  0  0
  1  2  1  0  0  0  0
  1 10  1  0  0  0  0
  1 11  1  0  0  0  0
  1 12  1  0  0  0  0
  2  9  2  0  0  0  0
  2  3  1  0  0  0  0
  3  4  2  0  0  0  0
  4  5  1  0  0  0  0
  4  8  1  0  0  0  0
  5  6  1  0  0  0  0
  5 13  1  0  0  0  0
  5 14  1  0  0  0  0
  6  7  1  0  0  0  0
  6 15  1  0  0  0  0
  6 16  1  0  0  0  0
  7 17  1  0  0  0  0
  7 18  1  0  0  0  0
  7 19  1  0  0  0  0
  8  9  1  0  0  0  0
  8 20  1  0  0  0  0
M  CHG  1   7   1
M  END
> <s_m_source_file>
AV-unprocessed.smi

> <i_m_source_file_index>
964

> <i_lp_mmshare_version>
43012

> <i_f3d_flags>
0

> <s_epik_input>
W0NIM11jMW5jKG5bbkhdMSlbQ0gyXVtDSDJdW05IMl0=

> <s_epik_cmdline>
J2VwaWtfcHl0aG9uJywgJy1waCcsICc3LjAnLCAnLXRuJywgJzgnLCAnLW1hJywgJzIwMCcsICctbWV0YWxfYmluZGluZycsICctaW1hZScsICc8aW5maWxlLm1hZT4nLCAnLW9tYWUnLCAnPG91dGZpbGUubWFlPic=

> <r_lp_tautomer_probability>
0.948284

> <r_epik_Ionization_Penalty>
0.00675923

> <r_epik_Ionization_Penalty_Charging>
0.00465044

> <r_epik_Ionization_Penalty_Neutral>
0.00210879

> <r_epik_State_Penalty>
0.393939

> <r_epik_Charging_Adjusted_Penalty>
0.398589

> <i_epik_Tot_Q>
1

> <i_epik_Tot_abs_Q>
1

> <r_epik_Metal_State_Penalty>
0.594419

> <b_epik_Metal_Only>
0

> <s_lp_Force_Field>
OPLS_2005

> <r_lp_Energy>
1.69127

> <b_lp_Chiralities_Consistent>
1

> <s_lp_Variant>
AV-unprocessed.smi:964-1

> <Gold.Version>
5.8.1

> <Gold.Id.Protein>
6NUR|6NUR_protein|mol2

> <Gold.PLP.Fitness>
32.1792

> <Gold.PLP.PLP>
-18.5981

> <Gold.PLP.part.hbond>
-3.6574

> <Gold.PLP.part.metal>
0.0000

> <Gold.PLP.part.buried>
-3.5864

> <Gold.PLP.part.nonpolar>
-12.5124

> <Gold.PLP.part.repulsive>
1.9925

> <Gold.PLP.ligand.clash>
0.0000

> <Gold.PLP.ligand.torsion>
0.2419

> <Gold.PLP.Chemscore.Hbond>
4.6880

> <Gold.PLP.Chemscore.CHOScore>
0.0000

> <Gold.PLP.Chemscore.Metal>
0.0000

> <Gold.Chemscore.Hbonds>
donor molecule, donor type, donor heavy atom, donor atom, acceptor molecule, acceptor atom, score
      L1  H     7    17       P1  7957  1.00
      L1  H     7    19       P1  7948  2.00
      L1  H     8    20       P1  7957  0.35
      P1  H  7989  7998       L1     9  0.04

> <Gold.PLP.Chemscore.Internal.Correction>
0.0008

> <Gold.Rescore>
     Score         DG    S(hbond)    S(metal)    S(lipo)     H(rot)  DE(clash)    DE(int)     intcor
     15.73     -15.83       3.61        0.00      18.43       1.51       0.00       0.10       ----

> <Gold.Chemscore.Fitness>
15.7295

> <Gold.Chemscore.DG>
-15.8310

> <Gold.Chemscore.ZeroCoef>
-5.4800

> <Gold.Chemscore.Hbond>
3.6094

> <Gold.Chemscore.Metal>
0.0000

> <Gold.Chemscore.Lipo>
18.4335

> <Gold.Chemscore.Internal_Hbond>
0.0000

> <Gold.Chemscore.DEClash>
0.0021

> <Gold.Chemscore.DEInternal>
0.0994

> <Gold.Chemscore.Rot>
1.5082

> <Gold.Chemscore.Internal.Correction>
   9.000000E+99

> <Gold.Chemscore.Hbonds>
donor molecule, donor type, donor heavy atom, donor atom, acceptor molecule, acceptor atom, score
      L1  H     7    17       P1  7957  0.93
      L1  H     7    19       P1  7948  0.93
      L1  H     8    20       P1  7957  0.35
      P1  H  7989  7998       L1     9  0.07

> <Gold.Chemscore.Hbond.Weighted>
-12.0554

> <Gold.Chemscore.Metal.Weighted>
-0.0000

> <Gold.Chemscore.Lipo.Weighted>
-2.1567

> <Gold.Chemscore.Internal_Hbond.Weighted>
0.0000

> <Gold.Chemscore.DEClash.Weighted>
0.0021

> <Gold.Chemscore.DEInternal.Weighted>
0.0994

> <Gold.Chemscore.Rot.Weighted>
3.8611

> <Gold.Chemscore.Internal.Correction.Weighted>
   9.000000E+99

> <Gold.Protein.RotatedTorsions>
[ 6907 6896 6895 6894 ] final   59.34 input  -60.11 | X-H torsion
[ 7974 7965 7964 7962 ] final -121.61 input  175.53 | X-H torsion
[ 8008 7997 7996 7995 ] final -173.64 input   59.86 | X-H torsion
[ 10167 10162 10161 10158 ] final -114.13 input  -65.29 | X-H torsion
[ 10718 10713 10712 10709 ] final   93.07 input   66.30 | X-H torsion
[ 10763 10752 10751 10750 ] final  144.22 input  -60.55 | X-H torsion
[ 11005 11000 10999 10996 ] final  105.58 input  -57.11 | X-H torsion

> <Gold.Protein.ActiveResidues>
 VAL166  LYS551  ARG553  GLY616  TRP617  ASP618  TYR619  PRO620  LYS621  CYS622 
 ASP623  PHE694  ASN695  SER759  ASP760  ASP761  ALA762  ILE779  LEU786  VAL792 
 PHE793  MET794  SER795  GLU796  ALA797  LYS798  CYS799  TRP800  GLU811  SER814 

> <Gold.Protein.RotatedAtoms>
  152.3906  134.6447  160.0108 H   0  0  0  0  0  0  0  0  0  0  0  0  # atno 6907 bound_to 6896
  151.6682  133.3309  159.3198 H   0  0  0  0  0  0  0  0  0  0  0  0  # atno 6908 bound_to 6896
  150.7823  134.6822  159.6495 H   0  0  0  0  0  0  0  0  0  0  0  0  # atno 6909 bound_to 6896
  145.0384  140.8124  143.4281 H   0  0  0  0  0  0  0  0  0  0  0  0  # atno 7974 bound_to 7965
  155.9600  140.1142  157.0904 H   0  0  0  0  0  0  0  0  0  0  0  0  # atno 8008 bound_to 7997
  154.4129  140.1184  156.5233 H   0  0  0  0  0  0  0  0  0  0  0  0  # atno 8009 bound_to 7997
  155.6733  140.3473  155.4829 H   0  0  0  0  0  0  0  0  0  0  0  0  # atno 8010 bound_to 7997
  140.1043  143.4584  152.1792 H   0  0  0  0  0  0  0  0  0  0  0  0  # atno 10167 bound_to 10162
  157.6956  131.0465  150.3977 H   0  0  0  0  0  0  0  0  0  0  0  0  # atno 10718 bound_to 10713
  153.9853  135.2937  155.3417 H   0  0  0  0  0  0  0  0  0  0  0  0  # atno 10763 bound_to 10752
  154.7246  135.5094  153.8868 H   0  0  0  0  0  0  0  0  0  0  0  0  # atno 10764 bound_to 10752
  153.0835  135.6686  154.0111 H   0  0  0  0  0  0  0  0  0  0  0  0  # atno 10765 bound_to 10752
  139.8803  134.9340  156.5535 H   0  0  0  0  0  0  0  0  0  0  0  0  # atno 11005 bound_to 11000
  145.1679  139.2421  143.5357 LP  0  0  0  0  0  0  0  0  0  0  0  0  # atno 17320 bound_to 7965
  146.3506  140.1423  142.8594 LP  0  0  0  0  0  0  0  0  0  0  0  0  # atno 17321 bound_to 7965
  139.5654  144.7431  151.4038 LP  0  0  0  0  0  0  0  0  0  0  0  0  # atno 17342 bound_to 10162
  140.6960  143.7747  150.7328 LP  0  0  0  0  0  0  0  0  0  0  0  0  # atno 17343 bound_to 10162
  156.4374  130.3984  149.6720 LP  0  0  0  0  0  0  0  0  0  0  0  0  # atno 17370 bound_to 10713
  156.3915  130.7629  151.2631 LP  0  0  0  0  0  0  0  0  0  0  0  0  # atno 17371 bound_to 10713
  140.8222  133.8344  155.8906 LP  0  0  0  0  0  0  0  0  0  0  0  0  # atno 17394 bound_to 11000
  140.9407  134.1904  157.4799 LP  0  0  0  0  0  0  0  0  0  0  0  0  # atno 17395 bound_to 11000

$$$$
