AV-unprocessed.smi:1563|AV-procd|sdf|6292|dock1
  -GOLD-   22720 6493D 1   1.00000     0.00000
 Structure written by MMmdl.
 44 45  0  0  0  0  0  0  0  0  2 V2000
  143.3277  138.1175  152.3227 C   0  0  0  0  0  0  0  0  0  0  0  0
  144.7470  138.0040  152.8676 C   0  0  0  0  0  0  0  0  0  0  0  0
  145.4638  137.0612  152.5314 O   0  0  0  0  0  0  0  0  0  0  0  0
  145.1382  138.9706  153.7121 N   0  0  0  0  0  0  0  0  0  0  0  0
  146.4497  139.0462  154.3454 C   0  0  1  0  0  0  0  0  0  0  0  0
  146.7650  137.7472  155.1231 C   0  0  0  0  0  0  0  0  0  0  0  0
  148.2132  137.7270  155.6545 C   0  0  0  0  0  0  0  0  0  0  0  0
  149.2176  138.1111  154.5517 C   0  0  0  0  0  0  0  0  0  0  0  0
  148.8224  139.4157  153.9972 N   0  0  0  0  0  0  0  0  0  0  0  0
  149.3664  140.6180  154.3095 C   0  0  0  0  0  0  0  0  0  0  0  0
  149.0394  141.6686  153.7553 O   0  0  0  0  0  0  0  0  0  0  0  0
  150.2298  140.5928  155.3409 N   0  0  0  0  0  0  0  0  0  0  0  0
  150.7744  141.7686  156.0175 C   0  0  0  0  0  0  0  0  0  0  0  0
  150.4443  141.7820  157.5257 C   0  0  0  0  0  0  0  0  0  0  0  0
  151.1239  142.9003  158.3001 C   0  0  0  0  0  0  0  0  0  0  0  0
  152.0168  142.6436  159.3642 C   0  0  0  0  0  0  0  0  0  0  0  0
  152.5815  143.7273  160.0684 C   0  0  0  0  0  0  0  0  0  0  0  0
  152.2430  145.0439  159.6947 C   0  0  0  0  0  0  0  0  0  0  0  0
  151.3544  145.2436  158.6186 C   0  0  0  0  0  0  0  0  0  0  0  0
  150.8364  144.1794  157.9666 N   0  3  0  0  0  0  0  0  0  0  0  0
  147.5406  139.3191  153.2906 C   0  0  0  0  0  0  0  0  0  0  0  0
  143.1205  139.1363  151.9944 H   0  0  0  0  0  0  0  0  0  0  0  0
  142.6047  137.8489  153.0931 H   0  0  0  0  0  0  0  0  0  0  0  0
  143.1853  137.4507  151.4717 H   0  0  0  0  0  0  0  0  0  0  0  0
  144.4807  139.7051  153.9315 H   0  0  0  0  0  0  0  0  0  0  0  0
  146.4553  139.8827  155.0457 H   0  0  0  0  0  0  0  0  0  0  0  0
  146.0645  137.6180  155.9489 H   0  0  0  0  0  0  0  0  0  0  0  0
  146.6232  136.8904  154.4627 H   0  0  0  0  0  0  0  0  0  0  0  0
  148.3048  138.4256  156.4863 H   0  0  0  0  0  0  0  0  0  0  0  0
  148.4507  136.7405  156.0533 H   0  0  0  0  0  0  0  0  0  0  0  0
  150.2372  138.0952  154.9379 H   0  0  0  0  0  0  0  0  0  0  0  0
  149.2002  137.3624  153.7583 H   0  0  0  0  0  0  0  0  0  0  0  0
  150.4539  139.6938  155.7421 H   0  0  0  0  0  0  0  0  0  0  0  0
  151.8557  141.7767  155.8793 H   0  0  0  0  0  0  0  0  0  0  0  0
  150.4055  142.6821  155.5484 H   0  0  0  0  0  0  0  0  0  0  0  0
  149.3654  141.8750  157.6562 H   0  0  0  0  0  0  0  0  0  0  0  0
  150.7194  140.8253  157.9709 H   0  0  0  0  0  0  0  0  0  0  0  0
  152.2576  141.6297  159.6483 H   0  0  0  0  0  0  0  0  0  0  0  0
  153.2571  143.5516  160.8927 H   0  0  0  0  0  0  0  0  0  0  0  0
  152.6569  145.8869  160.2287 H   0  0  0  0  0  0  0  0  0  0  0  0
  151.0388  146.2148  158.2669 H   0  0  0  0  0  0  0  0  0  0  0  0
  147.5798  138.5113  152.5579 H   0  0  0  0  0  0  0  0  0  0  0  0
  147.3058  140.2215  152.7238 H   0  0  0  0  0  0  0  0  0  0  0  0
  150.1852  144.3487  157.1997 H   0  0  0  0  0  0  0  0  0  0  0  0
  1  2  1  0  0  0  0
  1 22  1  0  0  0  0
  1 23  1  0  0  0  0
  1 24  1  0  0  0  0
  2  3  2  0  0  0  0
  2  4  1  0  0  0  0
  4  5  1  0  0  0  0
  4 25  1  0  0  0  0
  5 21  1  0  0  0  0
  5  6  1  0  0  0  0
  5 26  1  0  0  0  0
  6  7  1  0  0  0  0
  6 27  1  0  0  0  0
  6 28  1  0  0  0  0
  7  8  1  0  0  0  0
  7 29  1  0  0  0  0
  7 30  1  0  0  0  0
  8  9  1  0  0  0  0
  8 31  1  0  0  0  0
  8 32  1  0  0  0  0
  9 10  1  0  0  0  0
  9 21  1  0  0  0  0
 10 11  2  0  0  0  0
 10 12  1  0  0  0  0
 12 13  1  0  0  0  0
 12 33  1  0  0  0  0
 13 14  1  0  0  0  0
 13 34  1  0  0  0  0
 13 35  1  0  0  0  0
 14 15  1  0  0  0  0
 14 36  1  0  0  0  0
 14 37  1  0  0  0  0
 15 20  1  0  0  0  0
 15 16  2  0  0  0  0
 16 17  1  0  0  0  0
 16 38  1  0  0  0  0
 17 18  2  0  0  0  0
 17 39  1  0  0  0  0
 18 19  1  0  0  0  0
 18 40  1  0  0  0  0
 19 20  2  0  0  0  0
 19 41  1  0  0  0  0
 20 44  1  0  0  0  0
 21 42  1  0  0  0  0
 21 43  1  0  0  0  0
M  CHG  1  20   1
M  END
> <s_m_source_file>
AV-unprocessed.smi

> <i_m_source_file_index>
1563

> <i_lp_mmshare_version>
43012

> <i_f3d_flags>
0

> <s_epik_input>
W0NIM11DKD1PKVtOSF1bQ0BASF0xW0NIMl1bQ0gyXVtDSDJdTihbQ0gyXTEpQyg9TylbTkhdW0NIMl1bQ0gyXWMyW2NIXVtjSF1bY0hdW2NIXW4y

> <s_epik_cmdline>
J2VwaWtfcHl0aG9uJywgJy1waCcsICc3LjAnLCAnLXRuJywgJzgnLCAnLW1hJywgJzIwMCcsICctbWV0YWxfYmluZGluZycsICctaW1hZScsICc8aW5maWxlLm1hZT4nLCAnLW9tYWUnLCAnPG91dGZpbGUubWFlPic=

> <r_epik_Ionization_Penalty>
1.56048

> <r_epik_Ionization_Penalty_Charging>
1.56043

> <r_epik_Ionization_Penalty_Neutral>
4.90601e-05

> <r_epik_State_Penalty>
1.65539

> <r_epik_Charging_Adjusted_Penalty>
3.21583

> <i_epik_Tot_Q>
1

> <i_epik_Tot_abs_Q>
1

> <r_epik_Metal_State_Penalty>
1.6969

> <b_epik_Metal_Only>
0

> <s_lp_Force_Field>
OPLS_2005

> <r_lp_Energy>
29.938

> <b_lp_Chiralities_Consistent>
1

> <s_lp_Variant>
AV-unprocessed.smi:1563-4

> <Gold.Version>
5.8.1

> <Gold.Id.Protein>
6NUR|6NUR_protein|mol2

> <Gold.PLP.Fitness>
44.7262

> <Gold.PLP.PLP>
-36.6817

> <Gold.PLP.part.hbond>
-2.8556

> <Gold.PLP.part.metal>
0.0000

> <Gold.PLP.part.buried>
-2.7476

> <Gold.PLP.part.nonpolar>
-29.5987

> <Gold.PLP.part.repulsive>
0.5148

> <Gold.PLP.ligand.clash>
0.0000

> <Gold.PLP.ligand.torsion>
0.1620

> <Gold.PLP.Chemscore.Hbond>
2.7360

> <Gold.PLP.Chemscore.CHOScore>
0.0000

> <Gold.PLP.Chemscore.Metal>
0.0000

> <Gold.Chemscore.Hbonds>
donor molecule, donor type, donor heavy atom, donor atom, acceptor molecule, acceptor atom, score
      L1  H     4    25       P1 10175  0.30
      L1  H    20    44       P1  8028  2.00
      P1  H  8011  8017       L1    11  0.66

> <Gold.PLP.Chemscore.Internal.Correction>
0.1603

> <Gold.Rescore>
     Score         DG    S(hbond)    S(metal)    S(lipo)     H(rot)  DE(clash)    DE(int)     intcor
     14.93     -16.31       1.44        0.00      90.22       1.77       0.07       1.31       ----

> <Gold.Chemscore.Fitness>
14.9301

> <Gold.Chemscore.DG>
-16.3100

> <Gold.Chemscore.ZeroCoef>
-5.4800

> <Gold.Chemscore.Hbond>
1.4356

> <Gold.Chemscore.Metal>
0.0000

> <Gold.Chemscore.Lipo>
90.2232

> <Gold.Chemscore.Internal_Hbond>
0.0000

> <Gold.Chemscore.DEClash>
0.0707

> <Gold.Chemscore.DEInternal>
1.3091

> <Gold.Chemscore.Rot>
1.7661

> <Gold.Chemscore.Internal.Correction>
   9.000000E+99

> <Gold.Chemscore.Hbonds>
donor molecule, donor type, donor heavy atom, donor atom, acceptor molecule, acceptor atom, score
      L1  H     4    25       P1 10175  0.30
      L1  H    20    44       P1  8028  0.66
      P1  H  8011  8017       L1    11  0.66

> <Gold.Chemscore.Hbond.Weighted>
-4.7950

> <Gold.Chemscore.Metal.Weighted>
-0.0000

> <Gold.Chemscore.Lipo.Weighted>
-10.5561

> <Gold.Chemscore.Internal_Hbond.Weighted>
0.0000

> <Gold.Chemscore.DEClash.Weighted>
0.0707

> <Gold.Chemscore.DEInternal.Weighted>
1.3091

> <Gold.Chemscore.Rot.Weighted>
4.5211

> <Gold.Chemscore.Internal.Correction.Weighted>
   9.000000E+99

> <Gold.Protein.RotatedTorsions>
[ 6907 6896 6895 6894 ] final  -97.08 input  -60.11 | X-H torsion
[ 7974 7965 7964 7962 ] final    0.81 input  175.53 | X-H torsion
[ 8008 7997 7996 7995 ] final  125.59 input   59.86 | X-H torsion
[ 10167 10162 10161 10158 ] final   79.05 input  -65.29 | X-H torsion
[ 10718 10713 10712 10709 ] final -132.43 input   66.30 | X-H torsion
[ 10763 10752 10751 10750 ] final    8.93 input  -60.55 | X-H torsion
[ 11005 11000 10999 10996 ] final    7.54 input  -57.11 | X-H torsion

> <Gold.Protein.ActiveResidues>
 VAL166  LYS551  ARG553  GLY616  TRP617  ASP618  TYR619  PRO620  LYS621  CYS622 
 ASP623  PHE694  ASN695  SER759  ASP760  ASP761  ALA762  ILE779  LEU786  VAL792 
 PHE793  MET794  SER795  GLU796  ALA797  LYS798  CYS799  TRP800  GLU811  SER814 

> <Gold.Protein.RotatedAtoms>
  150.7006  134.1404  159.4102 H   0  0  0  0  0  0  0  0  0  0  0  0  # atno 6907 bound_to 6896
  151.9389  135.0220  160.0544 H   0  0  0  0  0  0  0  0  0  0  0  0  # atno 6908 bound_to 6896
  152.2111  133.4877  159.5147 H   0  0  0  0  0  0  0  0  0  0  0  0  # atno 6909 bound_to 6896
  146.2437  140.1082  142.8345 H   0  0  0  0  0  0  0  0  0  0  0  0  # atno 7974 bound_to 7965
  156.2839  140.2713  156.1974 H   0  0  0  0  0  0  0  0  0  0  0  0  # atno 8008 bound_to 7997
  155.0396  140.0386  157.2522 H   0  0  0  0  0  0  0  0  0  0  0  0  # atno 8009 bound_to 7997
  154.7285  140.2702  155.6482 H   0  0  0  0  0  0  0  0  0  0  0  0  # atno 8010 bound_to 7997
  139.9644  144.5938  150.8042 H   0  0  0  0  0  0  0  0  0  0  0  0  # atno 10167 bound_to 10162
  156.2345  130.7058  151.0893 H   0  0  0  0  0  0  0  0  0  0  0  0  # atno 10718 bound_to 10713
  153.2196  135.6879  153.8016 H   0  0  0  0  0  0  0  0  0  0  0  0  # atno 10763 bound_to 10752
  153.7219  135.3266  155.3269 H   0  0  0  0  0  0  0  0  0  0  0  0  # atno 10764 bound_to 10752
  154.8263  135.4615  154.1038 H   0  0  0  0  0  0  0  0  0  0  0  0  # atno 10765 bound_to 10752
  140.5470  134.0319  155.7924 H   0  0  0  0  0  0  0  0  0  0  0  0  # atno 11005 bound_to 11000
  145.0510  140.9017  143.4996 LP  0  0  0  0  0  0  0  0  0  0  0  0  # atno 17320 bound_to 7965
  145.1180  139.2712  143.5603 LP  0  0  0  0  0  0  0  0  0  0  0  0  # atno 17321 bound_to 7965
  140.7542  143.3024  151.3048 LP  0  0  0  0  0  0  0  0  0  0  0  0  # atno 17342 bound_to 10162
  139.6529  144.0329  152.2639 LP  0  0  0  0  0  0  0  0  0  0  0  0  # atno 17343 bound_to 10162
  157.7148  131.0715  150.6368 LP  0  0  0  0  0  0  0  0  0  0  0  0  # atno 17370 bound_to 10713
  156.6438  130.4466  149.5743 LP  0  0  0  0  0  0  0  0  0  0  0  0  # atno 17371 bound_to 10713
  141.1194  133.9487  157.2760 LP  0  0  0  0  0  0  0  0  0  0  0  0  # atno 17394 bound_to 11000
  139.9474  135.0181  156.8894 LP  0  0  0  0  0  0  0  0  0  0  0  0  # atno 17395 bound_to 11000

$$$$
