#       Name:                AV-unprocessed.smi:2083
#       Creating user name   scv26
#       Creation time:       Fri Mar 27 11:22:32 2020


#       File generated by GOLD software.
#

@<TRIPOS>MOLECULE
AV-unprocessed.smi:2083
    50    51     1
SMALL
NO_CHARGES


@<TRIPOS>ATOM
      1 ****        -6.2303   5.8037  -1.2543 C.3            1 S1                 0.0000
      2 ****        -5.2738   4.6615  -1.2777 C.2            1 S1                 0.0000
      3 ****        -4.0584   4.4531  -0.6891 C.2            1 S1                 0.0000
      4 ****        -3.7058   3.1504  -1.1322 C.2            1 S1                 0.0000
      5 ****        -2.4824   2.5544  -0.7265 N.am           1 S1                 0.0000
      6 ****        -1.9932   1.3395  -1.0361 C.2            1 S1                 0.0000
      7 ****        -2.6268   0.5823  -1.7811 O.2            1 S1                 0.0000
      8 ****        -0.7904   1.1033  -0.4442 N.pl3          1 S1                -1.0000
      9 ****        -0.0243  -0.1329  -0.5929 C.3            1 S1                 0.0000
     10 ****         1.2269  -0.1118   0.3240 C.3            1 S1                 0.0000
     11 ****         2.2774   0.9642  -0.0517 C.3            1 S1                 0.0000
     12 ****         1.8151  -1.4835   0.4363 N.4            1 S1                 1.0000
     13 ****         2.8001  -1.8674  -0.6177 C.3            1 S1                 0.0000
     14 ****         3.1201  -3.3678  -0.5439 C.3            1 S1                 0.0000
     15 ****         3.6360  -3.7495   0.8511 C.3            1 S1                 0.0000
     16 ****         2.6633  -3.2912   1.9539 C.3            1 S1                 0.0000
     17 ****         1.3962  -4.1618   2.0281 C.3            1 S1                 0.0000
     18 ****         2.3292  -1.7927   1.7986 C.3            1 S1                 0.0000
     19 ****        -4.6244   2.6135  -1.9216 N.2            1 S1                 0.0000
     20 ****        -5.6336   3.5787  -2.0186 O.3            1 S1                 0.0000
     21 ****        -5.8085   6.6547  -0.7192 H              1 S1                 0.0000
     22 ****        -7.1582   5.5188  -0.7587 H              1 S1                 0.0000
     23 ****        -6.4718   6.1269  -2.2670 H              1 S1                 0.0000
     24 ****        -3.5112   5.1246  -0.0444 H              1 S1                 0.0000
     25 ****        -1.9058   3.1158  -0.1179 H              1 S1                 0.0000
     26 ****        -0.6292  -1.0014  -0.3273 H              1 S1                 0.0000
     27 ****         0.2895  -0.2983  -1.6243 H              1 S1                 0.0000
     28 ****         0.8546   0.1526   1.3152 H              1 S1                 0.0000
     29 ****         1.8701   1.9736   0.0269 H              1 S1                 0.0000
     30 ****         2.6583   0.8483  -1.0679 H              1 S1                 0.0000
     31 ****         3.1319   0.9237   0.6242 H              1 S1                 0.0000
     32 ****         2.4117  -1.6370  -1.6102 H              1 S1                 0.0000
     33 ****         3.7199  -1.2938  -0.4965 H              1 S1                 0.0000
     34 ****         2.2288  -3.9473  -0.7866 H              1 S1                 0.0000
     35 ****         3.8657  -3.6253  -1.2966 H              1 S1                 0.0000
     36 ****         3.8059  -4.8250   0.9117 H              1 S1                 0.0000
     37 ****         4.6066  -3.2781   1.0111 H              1 S1                 0.0000
     38 ****         3.1750  -3.4139   2.9092 H              1 S1                 0.0000
     39 ****         0.7938  -4.0839   1.1229 H              1 S1                 0.0000
     40 ****         0.7665  -3.8641   2.8670 H              1 S1                 0.0000
     41 ****         1.6501  -5.2128   2.1680 H              1 S1                 0.0000
     42 ****         3.2181  -1.1897   1.9898 H              1 S1                 0.0000
     43 ****         1.5946  -1.5130   2.5549 H              1 S1                 0.0000
     44 ****         1.0245  -2.1001   0.3122 H              1 S1                 0.0000
     45 ****        -3.5073   0.8718  -2.1567 LP             1 S1                 0.0000
     46 ****        -2.2587  -0.3194  -2.0079 LP             1 S1                 0.0000
     47 ****        -0.4047   1.8243   0.1314 LP             1 S1                 0.0000
     48 ****        -4.6017   1.7125  -2.3549 LP             1 S1                 0.0000
     49 ****        -5.7504   3.8486  -2.9744 LP             1 S1                 0.0000
     50 ****        -6.4928   3.2034  -1.6709 LP             1 S1                 0.0000
@<TRIPOS>BOND
    1    1    2 1     
    2    1   21 1     
    3    1   22 1     
    4    1   23 1     
    5    2   20 1     
    6    2    3 2     
    7    3    4 1     
    8    3   24 1     
    9    4    5 1     
   10    4   19 2     
   11    5    6 am    
   12    5   25 1     
   13    6    7 2     
   14    6    8 1     
   15    8    9 1     
   16    9   10 1     
   17    9   26 1     
   18    9   27 1     
   19   10   11 1     
   20   10   12 1     
   21   10   28 1     
   22   11   29 1     
   23   11   30 1     
   24   11   31 1     
   25   12   18 1     
   26   12   13 1     
   27   12   44 1     
   28   13   14 1     
   29   13   32 1     
   30   13   33 1     
   31   14   15 1     
   32   14   34 1     
   33   14   35 1     
   34   15   16 1     
   35   15   36 1     
   36   15   37 1     
   37   16   17 1     
   38   16   18 1     
   39   16   38 1     
   40   17   39 1     
   41   17   40 1     
   42   17   41 1     
   43   18   42 1     
   44   18   43 1     
   45   19   20 1     
   46    7   45 1     
   47    7   46 1     
   48    8   47 1     
   49   19   48 1     
   50   20   49 1     
   51   20   50 1     
@<TRIPOS>SUBSTRUCTURE
      1 S1             1
@<TRIPOS>SET
LONE_PAIRS      STATIC     ATOMS    <user>   **** ""
6 45 46 47 48 49 50
DONOR_HYDROGENS      STATIC     ATOMS    <user>   **** ""
2 25 44
ATOM$BLUE        STATIC     ATOMS    COLORGROUP SYSTEM
6 45 46 47 48 49 50
ATOM$RED        STATIC     ATOMS    COLORGROUP SYSTEM
2 25 44
