AV-unprocessed.smi:1284|AV-procd|sdf|5365|dock7
  -GOLD-   22720 4503D 1   1.00000     0.00000
 Structure written by MMmdl.
 40 42  0  0  0  0  0  0  0  0  2 V2000
  148.1710  141.8854  155.2130 N   0  0  0  0  0  0  0  0  0  0  0  0
  149.2762  141.1968  154.9167 C   0  0  0  0  0  0  0  0  0  0  0  0
  149.7179  141.1237  153.7717 O   0  0  0  0  0  0  0  0  0  0  0  0
  149.9901  140.4832  156.0671 C   0  0  0  0  0  0  0  0  0  0  0  0
  150.5464  141.4716  157.0484 C   0  0  0  0  0  0  0  0  0  0  0  0
  150.4151  142.8282  156.9712 N   0  3  0  0  0  0  0  0  0  0  0  0
  151.0613  143.4320  158.0492 C   0  0  0  0  0  0  0  0  0  0  0  0
  151.2055  144.7732  158.3904 C   0  0  0  0  0  0  0  0  0  0  0  0
  151.9333  145.0519  159.5660 C   0  0  0  0  0  0  0  0  0  0  0  0
  152.4838  144.0179  160.3511 C   0  0  0  0  0  0  0  0  0  0  0  0
  152.3286  142.6618  159.9956 C   0  0  0  0  0  0  0  0  0  0  0  0
  151.6072  142.3950  158.8319 C   0  0  0  0  0  0  0  0  0  0  0  0
  151.2577  141.2041  158.1848 N   0  0  0  0  0  0  0  0  0  0  0  0
  151.6765  139.9254  158.7833 C   0  0  0  0  0  0  0  0  0  0  0  0
  153.2076  139.7555  158.8383 C   0  0  2  0  0  0  0  0  0  0  0  0
  153.6519  139.0233  157.7129 O   0  0  0  0  0  0  0  0  0  0  0  0
  153.6417  139.1178  160.1483 C   0  0  0  0  0  0  0  0  0  0  0  0
  154.4237  139.8539  161.0643 C   0  0  0  0  0  0  0  0  0  0  0  0
  154.8221  139.2738  162.2846 C   0  0  0  0  0  0  0  0  0  0  0  0
  154.4393  137.9552  162.5965 C   0  0  0  0  0  0  0  0  0  0  0  0
  153.6562  137.2171  161.6885 C   0  0  0  0  0  0  0  0  0  0  0  0
  153.2570  137.7967  160.4686 C   0  0  0  0  0  0  0  0  0  0  0  0
  147.6675  142.3652  154.4805 H   0  0  0  0  0  0  0  0  0  0  0  0
  147.8368  141.9206  156.1659 H   0  0  0  0  0  0  0  0  0  0  0  0
  149.2849  139.8294  156.5813 H   0  0  0  0  0  0  0  0  0  0  0  0
  150.7803  139.8455  155.6717 H   0  0  0  0  0  0  0  0  0  0  0  0
  150.7851  145.5666  157.7898 H   0  0  0  0  0  0  0  0  0  0  0  0
  152.0727  146.0790  159.8711 H   0  0  0  0  0  0  0  0  0  0  0  0
  153.0364  144.2697  161.2446 H   0  0  0  0  0  0  0  0  0  0  0  0
  152.7551  141.8777  160.6035 H   0  0  0  0  0  0  0  0  0  0  0  0
  151.2457  139.8583  159.7830 H   0  0  0  0  0  0  0  0  0  0  0  0
  151.2210  139.1174  158.2114 H   0  0  0  0  0  0  0  0  0  0  0  0
  153.6749  140.7384  158.7692 H   0  0  0  0  0  0  0  0  0  0  0  0
  152.9512  138.4534  157.4333 H   0  0  0  0  0  0  0  0  0  0  0  0
  154.7204  140.8671  160.8360 H   0  0  0  0  0  0  0  0  0  0  0  0
  155.4212  139.8407  162.9819 H   0  0  0  0  0  0  0  0  0  0  0  0
  154.7448  137.5109  163.5323 H   0  0  0  0  0  0  0  0  0  0  0  0
  153.3609  136.2063  161.9283 H   0  0  0  0  0  0  0  0  0  0  0  0
  152.6523  137.2240  159.7808 H   0  0  0  0  0  0  0  0  0  0  0  0
  149.9241  143.3031  156.2241 H   0  0  0  0  0  0  0  0  0  0  0  0
  1  2  1  0  0  0  0
  1 23  1  0  0  0  0
  1 24  1  0  0  0  0
  2  3  2  0  0  0  0
  2  4  1  0  0  0  0
  4  5  1  0  0  0  0
  4 25  1  0  0  0  0
  4 26  1  0  0  0  0
  5 13  1  0  0  0  0
  5  6  2  0  0  0  0
  6  7  1  0  0  0  0
  6 40  1  0  0  0  0
  7 12  2  0  0  0  0
  7  8  1  0  0  0  0
  8  9  2  0  0  0  0
  8 27  1  0  0  0  0
  9 10  1  0  0  0  0
  9 28  1  0  0  0  0
 10 11  2  0  0  0  0
 10 29  1  0  0  0  0
 11 12  1  0  0  0  0
 11 30  1  0  0  0  0
 12 13  1  0  0  0  0
 13 14  1  0  0  0  0
 14 15  1  0  0  0  0
 14 31  1  0  0  0  0
 14 32  1  0  0  0  0
 15 16  1  0  0  0  0
 15 17  1  0  0  0  0
 15 33  1  0  0  0  0
 16 34  1  0  0  0  0
 17 22  1  0  0  0  0
 17 18  2  0  0  0  0
 18 19  1  0  0  0  0
 18 35  1  0  0  0  0
 19 20  2  0  0  0  0
 19 36  1  0  0  0  0
 20 21  1  0  0  0  0
 20 37  1  0  0  0  0
 21 22  2  0  0  0  0
 21 38  1  0  0  0  0
 22 39  1  0  0  0  0
M  CHG  1   6   1
M  END
> <s_m_source_file>
AV-unprocessed.smi

> <i_m_source_file_index>
1284

> <i_lp_mmshare_version>
43012

> <i_f3d_flags>
0

> <s_epik_input>
W2NIXTFbY0hdW2NIXVtjSF1jKGMxMiluKGMobjIpW0NIMl1DKD1PKVtOSDJdKVtDSDJdW0NASF0oW09IXSljM1tjSF1bY0hdW2NIXVtjSF1bY0hdMw==

> <s_epik_cmdline>
J2VwaWtfcHl0aG9uJywgJy1waCcsICc3LjAnLCAnLXRuJywgJzgnLCAnLW1hJywgJzIwMCcsICctbWV0YWxfYmluZGluZycsICctaW1hZScsICc8aW5maWxlLm1hZT4nLCAnLW9tYWUnLCAnPG91dGZpbGUubWFlPic=

> <r_epik_Ionization_Penalty>
1.66646

> <r_epik_Ionization_Penalty_Charging>
1.66645

> <r_epik_Ionization_Penalty_Neutral>
1.67657e-06

> <r_epik_State_Penalty>
1.76975

> <r_epik_Charging_Adjusted_Penalty>
3.43621

> <i_epik_Tot_Q>
1

> <i_epik_Tot_abs_Q>
1

> <r_epik_Metal_State_Penalty>
1.80493

> <b_epik_Metal_Only>
0

> <s_lp_Force_Field>
OPLS_2005

> <r_lp_Energy>
13.978

> <b_lp_Chiralities_Consistent>
1

> <s_lp_Variant>
AV-unprocessed.smi:1284-3

> <Gold.Version>
5.8.1

> <Gold.Id.Protein>
6NUR|6NUR_protein|mol2

> <Gold.PLP.Fitness>
58.2492

> <Gold.PLP.PLP>
-46.9003

> <Gold.PLP.part.hbond>
-5.0000

> <Gold.PLP.part.metal>
0.0000

> <Gold.PLP.part.buried>
-6.0196

> <Gold.PLP.part.nonpolar>
-37.5340

> <Gold.PLP.part.repulsive>
1.9026

> <Gold.PLP.ligand.clash>
0.0000

> <Gold.PLP.ligand.torsion>
0.5982

> <Gold.PLP.Chemscore.Hbond>
4.1716

> <Gold.PLP.Chemscore.CHOScore>
0.0000

> <Gold.PLP.Chemscore.Metal>
0.0000

> <Gold.Chemscore.Hbonds>
donor molecule, donor type, donor heavy atom, donor atom, acceptor molecule, acceptor atom, score
      L1  H     6    40       P1  8028  1.95
      P1  H  7989  7998       L1     3  0.30
      P1  H  7997  8009       L1    16  1.00
      P1  H  8011  8017       L1     3  0.90

> <Gold.PLP.Chemscore.Internal.Correction>
0.0304

> <Gold.Rescore>
     Score         DG    S(hbond)    S(metal)    S(lipo)     H(rot)  DE(clash)    DE(int)     intcor
     20.86     -21.92       2.84        0.00     123.30       2.92       0.45       0.62       ----

> <Gold.Chemscore.Fitness>
20.8581

> <Gold.Chemscore.DG>
-21.9235

> <Gold.Chemscore.ZeroCoef>
-5.4800

> <Gold.Chemscore.Hbond>
2.8440

> <Gold.Chemscore.Metal>
0.0000

> <Gold.Chemscore.Lipo>
123.2961

> <Gold.Chemscore.Internal_Hbond>
0.0000

> <Gold.Chemscore.DEClash>
0.4479

> <Gold.Chemscore.DEInternal>
0.6174

> <Gold.Chemscore.Rot>
2.9223

> <Gold.Chemscore.Internal.Correction>
   9.000000E+99

> <Gold.Chemscore.Hbonds>
donor molecule, donor type, donor heavy atom, donor atom, acceptor molecule, acceptor atom, score
      L1  H     6    40       P1  8028  0.93
      P1  H  7989  7998       L1     3  0.29
      P1  H  7997  8009       L1    16  0.57
      P1  H  8011  8017       L1     3  0.88

> <Gold.Chemscore.Hbond.Weighted>
-9.4990

> <Gold.Chemscore.Metal.Weighted>
-0.0000

> <Gold.Chemscore.Lipo.Weighted>
-14.4256

> <Gold.Chemscore.Internal_Hbond.Weighted>
0.0000

> <Gold.Chemscore.DEClash.Weighted>
0.4479

> <Gold.Chemscore.DEInternal.Weighted>
0.6174

> <Gold.Chemscore.Rot.Weighted>
7.4812

> <Gold.Chemscore.Internal.Correction.Weighted>
   9.000000E+99

> <Gold.Protein.RotatedTorsions>
[ 6907 6896 6895 6894 ] final -126.74 input  -60.11 | X-H torsion
[ 7974 7965 7964 7962 ] final  -97.10 input  175.53 | X-H torsion
[ 8008 7997 7996 7995 ] final  171.98 input   59.86 | X-H torsion
[ 10167 10162 10161 10158 ] final  -77.64 input  -65.29 | X-H torsion
[ 10718 10713 10712 10709 ] final  117.66 input   66.30 | X-H torsion
[ 10763 10752 10751 10750 ] final  178.38 input  -60.55 | X-H torsion
[ 11005 11000 10999 10996 ] final  -18.57 input  -57.11 | X-H torsion

> <Gold.Protein.ActiveResidues>
 VAL166  LYS551  ARG553  GLY616  TRP617  ASP618  TYR619  PRO620  LYS621  CYS622 
 ASP623  PHE694  ASN695  SER759  ASP760  ASP761  ALA762  ILE779  LEU786  VAL792 
 PHE793  MET794  SER795  GLU796  ALA797  LYS798  CYS799  TRP800  GLU811  SER814 

> <Gold.Protein.RotatedAtoms>
  150.9001  133.7130  159.2881 H   0  0  0  0  0  0  0  0  0  0  0  0  # atno 6907 bound_to 6896
  151.4651  135.1040  159.9745 H   0  0  0  0  0  0  0  0  0  0  0  0  # atno 6908 bound_to 6896
  152.4871  133.8354  159.7180 H   0  0  0  0  0  0  0  0  0  0  0  0  # atno 6909 bound_to 6896
  145.3381  140.9454  143.2623 H   0  0  0  0  0  0  0  0  0  0  0  0  # atno 7974 bound_to 7965
  156.1219  140.1498  156.9192 H   0  0  0  0  0  0  0  0  0  0  0  0  # atno 8008 bound_to 7997
  154.4842  140.0870  156.7490 H   0  0  0  0  0  0  0  0  0  0  0  0  # atno 8009 bound_to 7997
  155.4413  140.3431  155.4292 H   0  0  0  0  0  0  0  0  0  0  0  0  # atno 8010 bound_to 7997
  140.4753  143.2416  151.8143 H   0  0  0  0  0  0  0  0  0  0  0  0  # atno 10167 bound_to 10162
  157.6082  131.1039  150.7646 H   0  0  0  0  0  0  0  0  0  0  0  0  # atno 10718 bound_to 10713
  154.5068  135.2786  155.1375 H   0  0  0  0  0  0  0  0  0  0  0  0  # atno 10763 bound_to 10752
  154.2986  135.6252  153.5419 H   0  0  0  0  0  0  0  0  0  0  0  0  # atno 10764 bound_to 10752
  152.9912  135.5691  154.5524 H   0  0  0  0  0  0  0  0  0  0  0  0  # atno 10765 bound_to 10752
  140.8281  133.8017  155.9730 H   0  0  0  0  0  0  0  0  0  0  0  0  # atno 11005 bound_to 11000
  144.8811  139.4903  143.6722 LP  0  0  0  0  0  0  0  0  0  0  0  0  # atno 17320 bound_to 7965
  146.3018  139.7452  142.9085 LP  0  0  0  0  0  0  0  0  0  0  0  0  # atno 17321 bound_to 7965
  139.4824  144.4841  151.9269 LP  0  0  0  0  0  0  0  0  0  0  0  0  # atno 17342 bound_to 10162
  140.3926  144.2595  150.5898 LP  0  0  0  0  0  0  0  0  0  0  0  0  # atno 17343 bound_to 10162
  156.8029  130.4927  149.5367 LP  0  0  0  0  0  0  0  0  0  0  0  0  # atno 17370 bound_to 10713
  156.1175  130.6086  151.0143 LP  0  0  0  0  0  0  0  0  0  0  0  0  # atno 17371 bound_to 10713
  140.9027  134.2358  157.5032 LP  0  0  0  0  0  0  0  0  0  0  0  0  # atno 17394 bound_to 11000
  139.8706  134.9714  156.4736 LP  0  0  0  0  0  0  0  0  0  0  0  0  # atno 17395 bound_to 11000

$$$$
