AV-unprocessed.smi:1803|AV-procd|sdf|7290|dock1
  -GOLD-   22720 8543D 1   1.00000     0.00000
 Structure written by MMmdl.
 35 37  0  0  0  0  0  0  0  0  3 V2000
  148.3600  140.0179  155.5578 O   0  0  0  0  0  0  0  0  0  0  0  0
  149.0735  139.9675  154.5571 C   0  0  0  0  0  0  0  0  0  0  0  0
  150.3987  140.2668  154.5623 N   0  5  0  0  0  0  0  0  0  0  0  0
  151.1368  140.2554  155.6886 C   0  0  0  0  0  0  0  0  0  0  0  0
  152.3672  139.7199  155.7403 N   0  0  0  0  0  0  0  0  0  0  0  0
  152.9418  139.7938  157.0017 N   0  0  0  0  0  0  0  0  0  0  0  0
  152.1322  140.3991  157.8701 C   0  0  0  0  0  0  0  0  0  0  0  0
  150.5907  140.9250  157.2280 S   0  0  0  0  0  0  0  0  0  0  0  0
  148.5246  139.6010  153.3844 N   0  0  0  0  0  0  0  0  0  0  0  0
  147.1314  139.2370  153.1510 C   0  0  1  0  0  0  0  0  0  0  0  0
  146.7763  139.0718  151.6570 C   0  0  0  0  0  0  0  0  0  0  0  0
  145.9870  137.7613  151.5795 C   0  0  0  0  0  0  0  0  0  0  0  0
  146.5580  136.9634  152.6711 N   0  3  2  0  0  0  0  0  0  0  0  0
  145.8621  135.7222  153.0692 C   0  0  0  0  0  0  0  0  0  0  0  0
  146.7243  134.9869  154.1179 C   0  0  0  0  0  0  0  0  0  0  0  0
  147.1131  135.9020  155.3008 C   0  0  0  0  0  0  0  0  0  0  0  0
  147.7292  137.2298  154.8122 C   0  0  0  0  0  0  0  0  0  0  0  0
  146.7704  137.8844  153.8000 C   0  0  1  0  0  0  0  0  0  0  0  0
  152.4443  140.5357  158.8948 H   0  0  0  0  0  0  0  0  0  0  0  0
  149.1383  139.5732  152.5833 H   0  0  0  0  0  0  0  0  0  0  0  0
  146.4999  140.0092  153.5947 H   0  0  0  0  0  0  0  0  0  0  0  0
  146.2127  139.9190  151.2655 H   0  0  0  0  0  0  0  0  0  0  0  0
  147.6844  138.9796  151.0588 H   0  0  0  0  0  0  0  0  0  0  0  0
  144.9277  137.9409  151.7690 H   0  0  0  0  0  0  0  0  0  0  0  0
  146.0877  137.2651  150.6138 H   0  0  0  0  0  0  0  0  0  0  0  0
  144.8763  135.9580  153.4729 H   0  0  0  0  0  0  0  0  0  0  0  0
  145.7113  135.0886  152.1946 H   0  0  0  0  0  0  0  0  0  0  0  0
  146.1966  134.1060  154.4843 H   0  0  0  0  0  0  0  0  0  0  0  0
  147.6338  134.6217  153.6388 H   0  0  0  0  0  0  0  0  0  0  0  0
  146.2252  136.1149  155.8977 H   0  0  0  0  0  0  0  0  0  0  0  0
  147.8106  135.3859  155.9609 H   0  0  0  0  0  0  0  0  0  0  0  0
  147.9042  137.8956  155.6580 H   0  0  0  0  0  0  0  0  0  0  0  0
  148.7001  137.0391  154.3522 H   0  0  0  0  0  0  0  0  0  0  0  0
  145.8054  138.0256  154.2921 H   0  0  0  0  0  0  0  0  0  0  0  0
  147.4788  136.6931  152.3557 H   0  0  0  0  0  0  0  0  0  0  0  0
  1  2  2  0  0  0  0
  2  3  1  0  0  0  0
  2  9  1  0  0  0  0
  3  4  1  0  0  0  0
  4  8  1  0  0  0  0
  4  5  2  0  0  0  0
  5  6  1  0  0  0  0
  6  7  2  0  0  0  0
  7  8  1  0  0  0  0
  7 19  1  0  0  0  0
  9 10  1  0  0  0  0
  9 20  1  0  0  0  0
 10 18  1  0  0  0  0
 10 11  1  0  0  0  0
 10 21  1  0  0  0  0
 11 12  1  0  0  0  0
 11 22  1  0  0  0  0
 11 23  1  0  0  0  0
 12 13  1  0  0  0  0
 12 24  1  0  0  0  0
 12 25  1  0  0  0  0
 13 18  1  0  0  0  0
 13 14  1  0  0  0  0
 13 35  1  0  0  0  0
 14 15  1  0  0  0  0
 14 26  1  0  0  0  0
 14 27  1  0  0  0  0
 15 16  1  0  0  0  0
 15 28  1  0  0  0  0
 15 29  1  0  0  0  0
 16 17  1  0  0  0  0
 16 30  1  0  0  0  0
 16 31  1  0  0  0  0
 17 18  1  0  0  0  0
 17 32  1  0  0  0  0
 17 33  1  0  0  0  0
 18 34  1  0  0  0  0
M  CHG  1   3  -1
M  CHG  1  13   1
M  END
> <s_m_source_file>
AV-unprocessed.smi

> <i_m_source_file_index>
1803

> <i_lp_mmshare_version>
43012

> <i_f3d_flags>
0

> <s_epik_input>
czFbY0hdbm5jMVtOSF1DKD1PKVtOSF1bQ0BIXShbQ0gyXVtDSDJdMilbQ0BASF0oTjIzKVtDSDJdW0NIMl1bQ0gyXVtDSDJdMw==

> <s_epik_cmdline>
J2VwaWtfcHl0aG9uJywgJy1waCcsICc3LjAnLCAnLXRuJywgJzgnLCAnLW1hJywgJzIwMCcsICctbWV0YWxfYmluZGluZycsICctaW1hZScsICc8aW5maWxlLm1hZT4nLCAnLW9tYWUnLCAnPG91dGZpbGUubWFlPic=

> <r_lp_tautomer_probability>
1

> <r_epik_Ionization_Penalty>
3.78828

> <r_epik_Ionization_Penalty_Charging>
3.7591

> <r_epik_Ionization_Penalty_Neutral>
0.0291838

> <r_epik_State_Penalty>
3.757

> <r_epik_Charging_Adjusted_Penalty>
7.51609

> <i_epik_Tot_Q>
0

> <i_epik_Tot_abs_Q>
2

> <r_epik_Metal_State_Penalty>
0.558016

> <b_epik_Metal_Only>
1

> <s_lp_Force_Field>
OPLS_2005

> <r_lp_Energy>
34.7934

> <b_lp_Chiralities_Consistent>
1

> <s_lp_Variant>
AV-unprocessed.smi:1803-12

> <Gold.Version>
5.8.1

> <Gold.Id.Protein>
6NUR|6NUR_protein|mol2

> <Gold.PLP.Fitness>
39.1856

> <Gold.PLP.PLP>
-25.2046

> <Gold.PLP.part.hbond>
-4.7710

> <Gold.PLP.part.metal>
0.0000

> <Gold.PLP.part.buried>
0.2725

> <Gold.PLP.part.nonpolar>
-21.7275

> <Gold.PLP.part.repulsive>
0.2520

> <Gold.PLP.ligand.clash>
0.0000

> <Gold.PLP.ligand.torsion>
0.5225

> <Gold.PLP.Chemscore.Hbond>
4.9920

> <Gold.PLP.Chemscore.CHOScore>
0.0000

> <Gold.PLP.Chemscore.Metal>
0.0000

> <Gold.Chemscore.Hbonds>
donor molecule, donor type, donor heavy atom, donor atom, acceptor molecule, acceptor atom, score
      L1  H     9    20       P1  7957  1.00
      L1  H    13    35       P1  7948  2.00
      P1  H  7989  7998       L1     3  0.90
      P1  H  7997  8009       L1     6  0.91

> <Gold.PLP.Chemscore.Internal.Correction>
0.0499

> <Gold.Rescore>
     Score         DG    S(hbond)    S(metal)    S(lipo)     H(rot)  DE(clash)    DE(int)     intcor
     16.51     -18.72       3.21        0.00      43.46       1.00       0.37       1.84       ----

> <Gold.Chemscore.Fitness>
16.5056

> <Gold.Chemscore.DG>
-18.7176

> <Gold.Chemscore.ZeroCoef>
-5.4800

> <Gold.Chemscore.Hbond>
3.2072

> <Gold.Chemscore.Metal>
0.0000

> <Gold.Chemscore.Lipo>
43.4645

> <Gold.Chemscore.Internal_Hbond>
0.0000

> <Gold.Chemscore.DEClash>
0.3720

> <Gold.Chemscore.DEInternal>
1.8399

> <Gold.Chemscore.Rot>
1.0000

> <Gold.Chemscore.Internal.Correction>
   9.000000E+99

> <Gold.Chemscore.Hbonds>
donor molecule, donor type, donor heavy atom, donor atom, acceptor molecule, acceptor atom, score
      L1  H     9    20       P1  7957  0.94
      L1  H    13    35       P1  7948  0.99
      P1  H  7989  7998       L1     3  0.18
      P1  H  7997  8009       L1     6  0.72

> <Gold.Chemscore.Hbond.Weighted>
-10.7122

> <Gold.Chemscore.Metal.Weighted>
-0.0000

> <Gold.Chemscore.Lipo.Weighted>
-5.0854

> <Gold.Chemscore.Internal_Hbond.Weighted>
0.0000

> <Gold.Chemscore.DEClash.Weighted>
0.3720

> <Gold.Chemscore.DEInternal.Weighted>
1.8399

> <Gold.Chemscore.Rot.Weighted>
2.5600

> <Gold.Chemscore.Internal.Correction.Weighted>
   9.000000E+99

> <Gold.Protein.RotatedTorsions>
[ 6907 6896 6895 6894 ] final  168.34 input  -60.11 | X-H torsion
[ 7974 7965 7964 7962 ] final  156.73 input  175.53 | X-H torsion
[ 8008 7997 7996 7995 ] final  159.94 input   59.86 | X-H torsion
[ 10167 10162 10161 10158 ] final    3.47 input  -65.29 | X-H torsion
[ 10718 10713 10712 10709 ] final   17.01 input   66.30 | X-H torsion
[ 10763 10752 10751 10750 ] final  -15.45 input  -60.55 | X-H torsion
[ 11005 11000 10999 10996 ] final  -53.83 input  -57.11 | X-H torsion

> <Gold.Protein.ActiveResidues>
 VAL166  LYS551  ARG553  GLY616  TRP617  ASP618  TYR619  PRO620  LYS621  CYS622 
 ASP623  PHE694  ASN695  SER759  ASP760  ASP761  ALA762  ILE779  LEU786  VAL792 
 PHE793  MET794  SER795  GLU796  ALA797  LYS798  CYS799  TRP800  GLU811  SER814 

> <Gold.Protein.RotatedAtoms>
  151.8492  133.3437  159.3667 H   0  0  0  0  0  0  0  0  0  0  0  0  # atno 6907 bound_to 6896
  150.7211  134.5315  159.5712 H   0  0  0  0  0  0  0  0  0  0  0  0  # atno 6908 bound_to 6896
  152.2806  134.7834  160.0448 H   0  0  0  0  0  0  0  0  0  0  0  0  # atno 6909 bound_to 6896
  144.7945  139.7243  143.6207 H   0  0  0  0  0  0  0  0  0  0  0  0  # atno 7974 bound_to 7965
  156.2205  140.1817  156.7487 H   0  0  0  0  0  0  0  0  0  0  0  0  # atno 8008 bound_to 7997
  154.5858  140.0658  156.9198 H   0  0  0  0  0  0  0  0  0  0  0  0  # atno 8009 bound_to 7997
  155.2422  140.3323  155.4293 H   0  0  0  0  0  0  0  0  0  0  0  0  # atno 8010 bound_to 7997
  140.6584  143.7368  150.7694 H   0  0  0  0  0  0  0  0  0  0  0  0  # atno 10167 bound_to 10162
  157.0760  130.6368  149.5816 H   0  0  0  0  0  0  0  0  0  0  0  0  # atno 10718 bound_to 10713
  153.5435  135.7013  153.5625 H   0  0  0  0  0  0  0  0  0  0  0  0  # atno 10763 bound_to 10752
  153.3580  135.3977  155.1697 H   0  0  0  0  0  0  0  0  0  0  0  0  # atno 10764 bound_to 10752
  154.8670  135.3782  154.4941 H   0  0  0  0  0  0  0  0  0  0  0  0  # atno 10765 bound_to 10752
  141.0996  133.6620  156.4230 H   0  0  0  0  0  0  0  0  0  0  0  0  # atno 11005 bound_to 11000
  146.2209  139.5634  142.9619 LP  0  0  0  0  0  0  0  0  0  0  0  0  # atno 17320 bound_to 7965
  145.5708  141.0394  143.2175 LP  0  0  0  0  0  0  0  0  0  0  0  0  # atno 17321 bound_to 7965
  140.1032  143.4768  152.2413 LP  0  0  0  0  0  0  0  0  0  0  0  0  # atno 17342 bound_to 10162
  139.5812  144.7511  151.3636 LP  0  0  0  0  0  0  0  0  0  0  0  0  # atno 17343 bound_to 10162
  155.9937  130.4998  150.7390 LP  0  0  0  0  0  0  0  0  0  0  0  0  # atno 17370 bound_to 10713
  157.4839  131.0905  151.0505 LP  0  0  0  0  0  0  0  0  0  0  0  0  # atno 17371 bound_to 10713
  140.5056  134.6444  157.5265 LP  0  0  0  0  0  0  0  0  0  0  0  0  # atno 17394 bound_to 11000
  139.9843  134.7087  155.9803 LP  0  0  0  0  0  0  0  0  0  0  0  0  # atno 17395 bound_to 11000

$$$$
