#       Name:                AV-unprocessed.smi:1900
#       Creating user name   scv26
#       Creation time:       Fri Mar 27 09:45:22 2020


#       File generated by GOLD software.
#

@<TRIPOS>MOLECULE
AV-unprocessed.smi:1900
    49    50     1
SMALL
NO_CHARGES


@<TRIPOS>ATOM
      1 ****        -5.6401   0.7212  -0.9770 C.3            1 S1                 0.0000
      2 ****        -4.1394   0.7741  -0.6732 C.3            1 S1                 0.0000
      3 ****        -3.4979  -0.6253  -0.6791 C.3            1 S1                 0.0000
      4 ****        -2.0909  -0.5791  -0.3052 N.3            1 S1                 0.0000
      5 ****        -1.4797  -1.9065  -0.3753 C.3            1 S1                 0.0000
      6 ****         0.0496  -1.9369  -0.1994 C.3            1 S1                 0.0000
      7 ****         0.7962  -1.1422  -1.2859 C.3            1 S1                 0.0000
      8 ****         2.2373  -1.1535  -1.0641 N.am           1 S1                 0.0000
      9 ****         2.8839  -0.3527  -0.2045 C.2            1 S1                 0.0000
     10 ****         2.3201   0.4835   0.5018 O.2            1 S1                 0.0000
     11 ****         4.2063  -0.5862  -0.2187 N.am           1 S1                 0.0000
     12 ****         5.1998   0.0647   0.5547 C.2            1 S1                 0.0000
     13 ****         5.0565   1.1120   1.5118 C.2            1 S1                 0.0000
     14 ****         6.2290   1.4553   2.0263 N.2            1 S1                 0.0000
     15 ****         7.1152   0.6413   1.4100 N.pl3          1 S1                 0.0000
     16 ****         6.5318  -0.2197   0.5068 C.2            1 S1                 0.0000
     17 ****        -1.9691   0.0334   1.0159 C.3            1 S1                 0.0000
     18 ****        -2.6217   1.4280   1.0839 C.3            1 S1                 0.0000
     19 ****        -1.8071   2.5123   0.3576 C.3            1 S1                 0.0000
     20 ****        -3.9692   1.3692   0.6122 O.3            1 S1                 0.0000
     21 ****         8.1034   0.6853   1.6145 H              1 S1                 0.0000
     22 ****        -5.8275   0.2801  -1.9562 H              1 S1                 0.0000
     23 ****        -6.0729   1.7217  -0.9746 H              1 S1                 0.0000
     24 ****        -6.1718   0.1263  -0.2340 H              1 S1                 0.0000
     25 ****        -3.6586   1.3980  -1.4272 H              1 S1                 0.0000
     26 ****        -4.0399  -1.2797   0.0057 H              1 S1                 0.0000
     27 ****        -3.6006  -1.0614  -1.6734 H              1 S1                 0.0000
     28 ****        -1.9381  -2.5575   0.3704 H              1 S1                 0.0000
     29 ****        -1.7114  -2.3541  -1.3428 H              1 S1                 0.0000
     30 ****         0.3243  -1.5780   0.7921 H              1 S1                 0.0000
     31 ****         0.3815  -2.9750  -0.2331 H              1 S1                 0.0000
     32 ****         0.5958  -1.5748  -2.2662 H              1 S1                 0.0000
     33 ****         0.4407  -0.1110  -1.3252 H              1 S1                 0.0000
     34 ****         2.7779  -1.8126  -1.6047 H              1 S1                 0.0000
     35 ****         4.5366  -1.3039  -0.8469 H              1 S1                 0.0000
     36 ****         4.1697   1.6275   1.8487 H              1 S1                 0.0000
     37 ****         7.0987  -0.9352  -0.0702 H              1 S1                 0.0000
     38 ****        -2.4370  -0.6134   1.7595 H              1 S1                 0.0000
     39 ****        -0.9221   0.1258   1.3022 H              1 S1                 0.0000
     40 ****        -2.6767   1.7212   2.1326 H              1 S1                 0.0000
     41 ****        -0.8179   2.6168   0.8040 H              1 S1                 0.0000
     42 ****        -2.3031   3.4808   0.4219 H              1 S1                 0.0000
     43 ****        -1.6630   2.2789  -0.6970 H              1 S1                 0.0000
     44 ****        -1.5854  -0.0138  -0.9570 LP             1 S1                 0.0000
     45 ****         1.3273   0.5925   0.4519 LP             1 S1                 0.0000
     46 ****         2.8550   1.0537   1.1254 LP             1 S1                 0.0000
     47 ****         6.4156   2.1569   2.7140 LP             1 S1                 0.0000
     48 ****        -4.5043   0.8403   1.2709 LP             1 S1                 0.0000
     49 ****        -4.3226   2.3037   0.5694 LP             1 S1                 0.0000
@<TRIPOS>BOND
    1    1    2 1     
    2    1   22 1     
    3    1   23 1     
    4    1   24 1     
    5    2   20 1     
    6    2    3 1     
    7    2   25 1     
    8    3    4 1     
    9    3   26 1     
   10    3   27 1     
   11    4    5 1     
   12    4   17 1     
   13    5    6 1     
   14    5   28 1     
   15    5   29 1     
   16    6    7 1     
   17    6   30 1     
   18    6   31 1     
   19    7    8 1     
   20    7   32 1     
   21    7   33 1     
   22    8    9 am    
   23    8   34 1     
   24    9   10 2     
   25    9   11 am    
   26   11   12 1     
   27   11   35 1     
   28   12   16 2     
   29   12   13 1     
   30   13   14 2     
   31   13   36 1     
   32   14   15 1     
   33   15   21 1     
   34   15   16 1     
   35   16   37 1     
   36   17   18 1     
   37   17   38 1     
   38   17   39 1     
   39   18   19 1     
   40   18   20 1     
   41   18   40 1     
   42   19   41 1     
   43   19   42 1     
   44   19   43 1     
   45    4   44 1     
   46   10   45 1     
   47   10   46 1     
   48   14   47 1     
   49   20   48 1     
   50   20   49 1     
@<TRIPOS>SUBSTRUCTURE
      1 S1             1
@<TRIPOS>SET
LONE_PAIRS      STATIC     ATOMS    <user>   **** ""
6 44 45 46 47 48 49
DONOR_HYDROGENS      STATIC     ATOMS    <user>   **** ""
3 34 35 21
ATOM$BLUE        STATIC     ATOMS    COLORGROUP SYSTEM
6 44 45 46 47 48 49
ATOM$RED        STATIC     ATOMS    COLORGROUP SYSTEM
3 34 35 21
