AV-unprocessed.smi:559|AV-procd|sdf|2925|dock1
  -GOLD-   2262023413D 1   1.00000     0.00000
 Structure written by MMmdl.
 41 42  0  0  0  0  0  0  0  0  1 V2000
  152.3376  144.5524  158.5864 C   0  0  0  0  0  0  0  0  0  0  0  0
  152.4405  143.1475  159.1076 C   0  0  0  0  0  0  0  0  0  0  0  0
  153.1665  142.9063  160.1859 N   0  0  0  0  0  0  0  0  0  0  0  0
  153.0564  141.5784  160.3873 N   0  0  0  0  0  0  0  0  0  0  0  0
  153.7505  140.9891  161.5165 C   0  0  0  0  0  0  0  0  0  0  0  0
  152.2546  140.9780  159.4335 C   0  0  0  0  0  0  0  0  0  0  0  0
  151.9710  139.5097  159.4303 C   0  0  0  0  0  0  0  0  0  0  0  0
  151.8360  141.9677  158.5833 C   0  0  0  0  0  0  0  0  0  0  0  0
  150.9451  141.8621  157.3704 C   0  0  0  0  0  0  0  0  0  0  0  0
  151.4137  140.7159  156.4727 C   0  0  0  0  0  0  0  0  0  0  0  0
  152.4862  140.1567  156.6988 O   0  0  0  0  0  0  0  0  0  0  0  0
  150.6056  140.3844  155.4533 N   0  0  0  0  0  0  0  0  0  0  0  0
  150.8493  139.3209  154.4843 C   0  0  0  0  0  0  0  0  0  0  0  0
  150.4143  137.9411  155.0150 C   0  0  1  0  0  0  0  0  0  0  0  0
  150.7788  136.7668  154.0812 C   0  0  0  0  0  0  0  0  0  0  0  0
  150.5679  135.4515  154.8377 C   0  0  0  0  0  0  0  0  0  0  0  0
  150.9769  135.8142  156.5850 S   0  0  0  0  0  0  0  0  0  0  0  0
  149.8379  135.4301  157.4324 O   0  0  0  0  0  0  0  0  0  0  0  0
  152.3363  135.3374  156.8814 O   0  0  0  0  0  0  0  0  0  0  0  0
  151.0134  137.6371  156.3971 C   0  0  0  0  0  0  0  0  0  0  0  0
  152.5048  144.5827  157.5099 H   0  0  0  0  0  0  0  0  0  0  0  0
  153.0713  145.2118  159.0514 H   0  0  0  0  0  0  0  0  0  0  0  0
  151.3483  144.9668  158.7803 H   0  0  0  0  0  0  0  0  0  0  0  0
  153.7042  139.9012  161.4763 H   0  0  0  0  0  0  0  0  0  0  0  0
  153.2912  141.3278  162.4453 H   0  0  0  0  0  0  0  0  0  0  0  0
  154.7978  141.2932  161.5058 H   0  0  0  0  0  0  0  0  0  0  0  0
  151.3326  139.2294  158.5930 H   0  0  0  0  0  0  0  0  0  0  0  0
  151.4664  139.2105  160.3490 H   0  0  0  0  0  0  0  0  0  0  0  0
  152.8948  138.9368  159.3473 H   0  0  0  0  0  0  0  0  0  0  0  0
  149.9040  141.6932  157.6460 H   0  0  0  0  0  0  0  0  0  0  0  0
  150.9540  142.7893  156.7961 H   0  0  0  0  0  0  0  0  0  0  0  0
  149.7449  140.9022  155.3504 H   0  0  0  0  0  0  0  0  0  0  0  0
  150.3598  139.5379  153.5332 H   0  0  0  0  0  0  0  0  0  0  0  0
  151.9198  139.3096  154.2772 H   0  0  0  0  0  0  0  0  0  0  0  0
  149.3290  137.9413  155.1277 H   0  0  0  0  0  0  0  0  0  0  0  0
  150.1991  136.7831  153.1581 H   0  0  0  0  0  0  0  0  0  0  0  0
  151.8293  136.8473  153.7989 H   0  0  0  0  0  0  0  0  0  0  0  0
  149.5236  135.1420  154.7928 H   0  0  0  0  0  0  0  0  0  0  0  0
  151.1905  134.6387  154.4635 H   0  0  0  0  0  0  0  0  0  0  0  0
  152.0554  137.9543  156.4525 H   0  0  0  0  0  0  0  0  0  0  0  0
  150.4645  138.1098  157.2117 H   0  0  0  0  0  0  0  0  0  0  0  0
  1  2  1  0  0  0  0
  1 21  1  0  0  0  0
  1 22  1  0  0  0  0
  1 23  1  0  0  0  0
  2  8  1  0  0  0  0
  2  3  2  0  0  0  0
  3  4  1  0  0  0  0
  4  5  1  0  0  0  0
  4  6  1  0  0  0  0
  5 24  1  0  0  0  0
  5 25  1  0  0  0  0
  5 26  1  0  0  0  0
  6  7  1  0  0  0  0
  6  8  2  0  0  0  0
  7 27  1  0  0  0  0
  7 28  1  0  0  0  0
  7 29  1  0  0  0  0
  8  9  1  0  0  0  0
  9 10  1  0  0  0  0
  9 30  1  0  0  0  0
  9 31  1  0  0  0  0
 10 11  2  0  0  0  0
 10 12  1  0  0  0  0
 12 13  1  0  0  0  0
 12 32  1  0  0  0  0
 13 14  1  0  0  0  0
 13 33  1  0  0  0  0
 13 34  1  0  0  0  0
 14 20  1  0  0  0  0
 14 15  1  0  0  0  0
 14 35  1  0  0  0  0
 15 16  1  0  0  0  0
 15 36  1  0  0  0  0
 15 37  1  0  0  0  0
 16 17  1  0  0  0  0
 16 38  1  0  0  0  0
 16 39  1  0  0  0  0
 17 18  2  0  0  0  0
 17 19  2  0  0  0  0
 17 20  1  0  0  0  0
 20 40  1  0  0  0  0
 20 41  1  0  0  0  0
M  END
> <s_m_source_file>
AV-unprocessed.smi

> <i_m_source_file_index>
559

> <i_lp_mmshare_version>
43012

> <i_f3d_flags>
0

> <s_epik_input>
W0NIM11jMW5uKFtDSDNdKWMoW0NIM10pYzFbQ0gyXUMoPU8pW05IXVtDSDJdW0NAQEhdKFtDSDJdMilbQ0gyXVtDSDJdUzIoPU8pPU8=

> <s_epik_cmdline>
J2VwaWtfcHl0aG9uJywgJy1waCcsICc3LjAnLCAnLXRuJywgJzgnLCAnLW1hJywgJzIwMCcsICctbWV0YWxfYmluZGluZycsICctaW1hZScsICc8aW5maWxlLm1hZT4nLCAnLW9tYWUnLCAnPG91dGZpbGUubWFlPic=

> <r_lp_tautomer_probability>
1

> <r_epik_Ionization_Penalty>
0.00301269

> <r_epik_Ionization_Penalty_Charging>
0

> <r_epik_Ionization_Penalty_Neutral>
0.00301269

> <r_epik_State_Penalty>
0.00211587

> <r_epik_Charging_Adjusted_Penalty>
0.00211587

> <i_epik_Tot_Q>
0

> <i_epik_Tot_abs_Q>
0

> <r_epik_Metal_State_Penalty>
-0

> <b_epik_Metal_Only>
0

> <s_lp_Force_Field>
OPLS_2005

> <r_lp_Energy>
-1.18315

> <b_lp_Chiralities_Consistent>
1

> <s_lp_Variant>
AV-unprocessed.smi:559-2

> <Gold.Version>
5.8.1

> <Gold.Id.Protein>
6NUR|6NUR_protein|mol2

> <Gold.PLP.Fitness>
44.2046

> <Gold.PLP.PLP>
-36.6167

> <Gold.PLP.part.hbond>
-3.3974

> <Gold.PLP.part.metal>
0.0000

> <Gold.PLP.part.buried>
0.4337

> <Gold.PLP.part.nonpolar>
-33.1598

> <Gold.PLP.part.repulsive>
0.1064

> <Gold.PLP.ligand.clash>
0.0000

> <Gold.PLP.ligand.torsion>
0.3946

> <Gold.PLP.Chemscore.Hbond>
2.7840

> <Gold.PLP.Chemscore.CHOScore>
0.0000

> <Gold.PLP.Chemscore.Metal>
0.0000

> <Gold.Chemscore.Hbonds>
donor molecule, donor type, donor heavy atom, donor atom, acceptor molecule, acceptor atom, score
      P1  H  6896  6908       L1    18  0.06
      P1  H  7997  8008       L1    11  1.00
      P1  H 10752 10765       L1    19  1.00

> <Gold.PLP.Chemscore.Internal.Correction>
0.0252

> <Gold.Rescore>
     Score         DG    S(hbond)    S(metal)    S(lipo)     H(rot)  DE(clash)    DE(int)     intcor
     17.35     -20.26       2.70        0.00      85.09       1.64       0.27       2.65       ----

> <Gold.Chemscore.Fitness>
17.3505

> <Gold.Chemscore.DG>
-20.2640

> <Gold.Chemscore.ZeroCoef>
-5.4800

> <Gold.Chemscore.Hbond>
2.7024

> <Gold.Chemscore.Metal>
0.0000

> <Gold.Chemscore.Lipo>
85.0903

> <Gold.Chemscore.Internal_Hbond>
0.0000

> <Gold.Chemscore.DEClash>
0.2677

> <Gold.Chemscore.DEInternal>
2.6458

> <Gold.Chemscore.Rot>
1.6396

> <Gold.Chemscore.Internal.Correction>
   9.000000E+99

> <Gold.Chemscore.Hbonds>
donor molecule, donor type, donor heavy atom, donor atom, acceptor molecule, acceptor atom, score
      P1  H  6896  6908       L1    18  0.07
      P1  H  7997  8008       L1    11  0.98
      P1  H 10752 10765       L1    19  0.81

> <Gold.Chemscore.Hbond.Weighted>
-9.0259

> <Gold.Chemscore.Metal.Weighted>
-0.0000

> <Gold.Chemscore.Lipo.Weighted>
-9.9556

> <Gold.Chemscore.Internal_Hbond.Weighted>
0.0000

> <Gold.Chemscore.DEClash.Weighted>
0.2677

> <Gold.Chemscore.DEInternal.Weighted>
2.6458

> <Gold.Chemscore.Rot.Weighted>
4.1974

> <Gold.Chemscore.Internal.Correction.Weighted>
   9.000000E+99

> <Gold.Protein.RotatedTorsions>
[ 6907 6896 6895 6894 ] final  157.59 input  -60.11 | X-H torsion
[ 7974 7965 7964 7962 ] final  115.71 input  175.53 | X-H torsion
[ 8008 7997 7996 7995 ] final  -56.42 input   59.86 | X-H torsion
[ 10167 10162 10161 10158 ] final  166.42 input  -65.29 | X-H torsion
[ 10718 10713 10712 10709 ] final  -79.89 input   66.30 | X-H torsion
[ 10763 10752 10751 10750 ] final -124.11 input  -60.55 | X-H torsion
[ 11005 11000 10999 10996 ] final   -9.26 input  -57.11 | X-H torsion

> <Gold.Protein.ActiveResidues>
 VAL166  LYS551  ARG553  GLY616  TRP617  ASP618  TYR619  PRO620  LYS621  CYS622 
 ASP623  PHE694  ASN695  SER759  ASP760  ASP761  ALA762  ILE779  LEU786  VAL792 
 PHE793  MET794  SER795  GLU796  ALA797  LYS798  CYS799  TRP800  GLU811  SER814 

> <Gold.Protein.RotatedAtoms>
  152.0128  133.3868  159.4226 H   0  0  0  0  0  0  0  0  0  0  0  0  # atno 6907 bound_to 6896
  150.6898  134.3711  159.5002 H   0  0  0  0  0  0  0  0  0  0  0  0  # atno 6908 bound_to 6896
  152.1474  134.9015  160.0601 H   0  0  0  0  0  0  0  0  0  0  0  0  # atno 6909 bound_to 6896
  145.1886  139.3012  143.4380 H   0  0  0  0  0  0  0  0  0  0  0  0  # atno 7974 bound_to 7965
  154.4229  140.1130  156.5634 H   0  0  0  0  0  0  0  0  0  0  0  0  # atno 8008 bound_to 7997
  155.6287  140.3495  155.4657 H   0  0  0  0  0  0  0  0  0  0  0  0  # atno 8009 bound_to 7997
  155.9965  140.1190  157.0578 H   0  0  0  0  0  0  0  0  0  0  0  0  # atno 8010 bound_to 7997
  139.4924  144.4029  151.9389 H   0  0  0  0  0  0  0  0  0  0  0  0  # atno 10167 bound_to 10162
  156.0082  130.4558  150.3718 H   0  0  0  0  0  0  0  0  0  0  0  0  # atno 10718 bound_to 10713
  154.8718  135.4075  154.3052 H   0  0  0  0  0  0  0  0  0  0  0  0  # atno 10763 bound_to 10752
  153.3905  135.7015  153.6504 H   0  0  0  0  0  0  0  0  0  0  0  0  # atno 10764 bound_to 10752
  153.5288  135.3672  155.2637 H   0  0  0  0  0  0  0  0  0  0  0  0  # atno 10765 bound_to 10752
  140.7322  133.8739  155.8902 H   0  0  0  0  0  0  0  0  0  0  0  0  # atno 11005 bound_to 11000
  146.3440  140.2091  142.8590 LP  0  0  0  0  0  0  0  0  0  0  0  0  # atno 17320 bound_to 7965
  145.0064  140.8676  143.5251 LP  0  0  0  0  0  0  0  0  0  0  0  0  # atno 17321 bound_to 7965
  140.3469  144.3136  150.5956 LP  0  0  0  0  0  0  0  0  0  0  0  0  # atno 17342 bound_to 10162
  140.5519  143.2205  151.7913 LP  0  0  0  0  0  0  0  0  0  0  0  0  # atno 17343 bound_to 10162
  157.1802  131.0390  151.2752 LP  0  0  0  0  0  0  0  0  0  0  0  0  # atno 17370 bound_to 10713
  157.4153  130.7407  149.6870 LP  0  0  0  0  0  0  0  0  0  0  0  0  # atno 17371 bound_to 10713
  140.9910  134.1278  157.4407 LP  0  0  0  0  0  0  0  0  0  0  0  0  # atno 17394 bound_to 11000
  139.8824  135.0040  156.6224 LP  0  0  0  0  0  0  0  0  0  0  0  0  # atno 17395 bound_to 11000

$$$$
