#       Name:                AV-unprocessed.smi:1044
#       Creating user name   scv26
#       Creation time:       Fri Mar 27 02:56:51 2020


#       File generated by GOLD software.
#

@<TRIPOS>MOLECULE
AV-unprocessed.smi:1044
    51    52     1
SMALL
NO_CHARGES


@<TRIPOS>ATOM
      1 ****        -2.6592  -4.8719  -0.8593 C.3            1 S1                 0.0000
      2 ****        -3.7114  -3.7607  -0.8700 C.3            1 S1                 0.0000
      3 ****        -3.0437  -2.5024  -0.8697 O.3            1 S1                 0.0000
      4 ****        -3.8025  -1.3474  -0.8682 C.ar           1 S1                 0.0000
      5 ****        -5.1543  -1.4627  -0.8672 N.ar           1 S1                 0.0000
      6 ****        -5.8958  -0.3359  -0.8694 C.ar           1 S1                 0.0000
      7 ****        -5.3359   0.9548  -0.8799 C.ar           1 S1                 0.0000
      8 ****        -3.9342   1.0771  -0.8807 C.ar           1 S1                 0.0000
      9 ****        -3.1425  -0.0966  -0.8623 C.ar           1 S1                 0.0000
     10 ****        -1.7210  -0.0822  -0.8846 N.am           1 S1                 0.0000
     11 ****        -0.8924   0.8756  -0.4362 C.2            1 S1                 0.0000
     12 ****        -1.2473   1.9214   0.1074 O.2            1 S1                 0.0000
     13 ****         0.3893   0.5360  -0.6348 N.am           1 S1                 0.0000
     14 ****         1.5542   1.3222  -0.2379 C.3            1 S1                 0.0000
     15 ****         2.3839   1.6951  -1.4727 C.3            1 S1                 0.0000
     16 ****         3.6233   2.4770  -1.0289 C.3            1 S1                 0.0000
     17 ****         4.4527   1.6825  -0.0061 C.3            1 S1                 0.0000
     18 ****         3.6294   1.2507   1.1422 N.3            1 S1                 0.0000
     19 ****         4.4541   0.7349   2.5779 S.o2           1 S1                 0.0000
     20 ****         3.2938   1.2158   3.9233 C.3            1 S1                 0.0000
     21 ****         4.5598  -0.7315   2.5324 O.2            1 S1                 0.0000
     22 ****         5.6670   1.5545   2.7225 O.2            1 S1                 0.0000
     23 ****         2.4015   0.5222   0.7674 C.3            1 S1                 0.0000
     24 ****        -3.1313  -5.8545  -0.8654 H              1 S1                 0.0000
     25 ****        -2.0314  -4.8076   0.0299 H              1 S1                 0.0000
     26 ****        -2.0112  -4.8060  -1.7336 H              1 S1                 0.0000
     27 ****        -4.3395  -3.8589  -1.7570 H              1 S1                 0.0000
     28 ****        -4.3505  -3.8551   0.0093 H              1 S1                 0.0000
     29 ****        -6.9676  -0.4674  -0.8703 H              1 S1                 0.0000
     30 ****        -5.9669   1.8311  -0.8929 H              1 S1                 0.0000
     31 ****        -3.4951   2.0623  -0.9108 H              1 S1                 0.0000
     32 ****        -1.2858  -0.9311  -1.2153 H              1 S1                 0.0000
     33 ****         0.5766  -0.3464  -1.0882 H              1 S1                 0.0000
     34 ****         1.2380   2.2463   0.2499 H              1 S1                 0.0000
     35 ****         2.6861   0.7971  -2.0138 H              1 S1                 0.0000
     36 ****         1.7904   2.2962  -2.1625 H              1 S1                 0.0000
     37 ****         4.2386   2.7228  -1.8947 H              1 S1                 0.0000
     38 ****         3.3176   3.4275  -0.5891 H              1 S1                 0.0000
     39 ****         4.8944   0.8023  -0.4746 H              1 S1                 0.0000
     40 ****         5.2773   2.3047   0.3410 H              1 S1                 0.0000
     41 ****         3.7555   1.0040   4.8873 H              1 S1                 0.0000
     42 ****         2.3675   0.6492   3.8423 H              1 S1                 0.0000
     43 ****         3.0774   2.2816   3.8538 H              1 S1                 0.0000
     44 ****         1.8095   0.3177   1.6586 H              1 S1                 0.0000
     45 ****         2.6821  -0.4455   0.3492 H              1 S1                 0.0000
     46 ****        -2.4677  -2.4748  -1.6866 LP             1 S1                 0.0000
     47 ****        -2.4663  -2.4760  -0.0537 LP             1 S1                 0.0000
     48 ****        -5.5909  -2.3623  -0.8648 LP             1 S1                 0.0000
     49 ****        -2.2201   2.1089   0.2439 LP             1 S1                 0.0000
     50 ****        -0.5629   2.5836   0.4126 LP             1 S1                 0.0000
     51 ****         3.2798   2.1183   1.4958 LP             1 S1                 0.0000
@<TRIPOS>BOND
    1    1    2 1     
    2    1   24 1     
    3    1   25 1     
    4    1   26 1     
    5    2    3 1     
    6    2   27 1     
    7    2   28 1     
    8    3    4 1     
    9    4    9 ar    
   10    4    5 ar    
   11    5    6 ar    
   12    6    7 ar    
   13    6   29 1     
   14    7    8 ar    
   15    7   30 1     
   16    8    9 ar    
   17    8   31 1     
   18    9   10 1     
   19   10   11 am    
   20   10   32 1     
   21   11   12 2     
   22   11   13 am    
   23   13   14 1     
   24   13   33 1     
   25   14   23 1     
   26   14   15 1     
   27   14   34 1     
   28   15   16 1     
   29   15   35 1     
   30   15   36 1     
   31   16   17 1     
   32   16   37 1     
   33   16   38 1     
   34   17   18 1     
   35   17   39 1     
   36   17   40 1     
   37   18   19 1     
   38   18   23 1     
   39   19   20 1     
   40   19   21 2     
   41   19   22 2     
   42   20   41 1     
   43   20   42 1     
   44   20   43 1     
   45   23   44 1     
   46   23   45 1     
   47    3   46 1     
   48    3   47 1     
   49    5   48 1     
   50   12   49 1     
   51   12   50 1     
   52   18   51 1     
@<TRIPOS>SUBSTRUCTURE
      1 S1             1
@<TRIPOS>SET
LONE_PAIRS      STATIC     ATOMS    <user>   **** ""
8 46 47 48 49 50 51 21 22
DONOR_HYDROGENS      STATIC     ATOMS    <user>   **** ""
2 32 33
ATOM$BLUE        STATIC     ATOMS    COLORGROUP SYSTEM
8 46 47 48 49 50 51 21 22
ATOM$RED        STATIC     ATOMS    COLORGROUP SYSTEM
2 32 33
