AV-unprocessed.smi:2489|AV-procd|sdf|9804|dock2
  -GOLD-   2272013433D 1   1.00000     0.00000
 Structure written by MMmdl.
 34 35  0  0  0  0  0  0  0  0  2 V2000
  153.2146  142.4099  161.5655 C   0  0  0  0  0  0  0  0  0  0  0  0
  153.1736  141.9084  160.2373 O   0  0  0  0  0  0  0  0  0  0  0  0
  152.3947  142.5749  159.3159 C   0  0  0  0  0  0  0  0  0  0  0  0
  152.2192  143.9616  159.5015 C   0  0  0  0  0  0  0  0  0  0  0  0
  151.4261  144.6913  158.5967 C   0  0  0  0  0  0  0  0  0  0  0  0
  150.8440  144.0614  157.5549 N   0  3  0  0  0  0  0  0  0  0  0  0
  150.9835  142.7388  157.3111 C   0  0  0  0  0  0  0  0  0  0  0  0
  150.2966  142.2125  156.1845 N   0  0  0  0  0  0  0  0  0  0  0  0
  150.4221  140.9964  155.6219 C   0  0  0  0  0  0  0  0  0  0  0  0
  151.1957  140.1223  156.0146 O   0  0  0  0  0  0  0  0  0  0  0  0
  149.5175  140.7347  154.4115 C   0  0  1  0  0  0  0  0  0  0  0  0
  148.4529  139.6451  154.6353 C   0  0  0  0  0  0  0  0  0  0  0  0
  147.1673  140.4331  154.7792 C   0  0  0  0  0  0  0  0  0  0  0  0
  147.4369  141.6284  153.8719 C   0  0  1  0  0  0  0  0  0  0  0  0
  146.5472  142.8433  154.1545 C   0  0  0  0  0  0  0  0  0  0  0  0
  148.7985  141.9356  154.1364 O   0  0  0  0  0  0  0  0  0  0  0  0
  151.7597  141.9587  158.2058 C   0  0  0  0  0  0  0  0  0  0  0  0
  153.8564  141.7703  162.1713 H   0  0  0  0  0  0  0  0  0  0  0  0
  152.2244  142.4114  162.0233 H   0  0  0  0  0  0  0  0  0  0  0  0
  153.6299  143.4182  161.5979 H   0  0  0  0  0  0  0  0  0  0  0  0
  152.6869  144.4617  160.3371 H   0  0  0  0  0  0  0  0  0  0  0  0
  151.2409  145.7528  158.6743 H   0  0  0  0  0  0  0  0  0  0  0  0
  149.6824  142.8566  155.7078 H   0  0  0  0  0  0  0  0  0  0  0  0
  150.1251  140.4751  153.5429 H   0  0  0  0  0  0  0  0  0  0  0  0
  148.3966  139.0026  153.7555 H   0  0  0  0  0  0  0  0  0  0  0  0
  148.6413  139.0002  155.4949 H   0  0  0  0  0  0  0  0  0  0  0  0
  146.2833  139.8657  154.4872 H   0  0  0  0  0  0  0  0  0  0  0  0
  147.0418  140.7564  155.8135 H   0  0  0  0  0  0  0  0  0  0  0  0
  147.3452  141.3283  152.8266 H   0  0  0  0  0  0  0  0  0  0  0  0
  145.4971  142.6069  153.9821 H   0  0  0  0  0  0  0  0  0  0  0  0
  146.8122  143.6786  153.5058 H   0  0  0  0  0  0  0  0  0  0  0  0
  146.6510  143.1779  155.1873 H   0  0  0  0  0  0  0  0  0  0  0  0
  151.8532  140.8963  158.0478 H   0  0  0  0  0  0  0  0  0  0  0  0
  150.2742  144.6172  156.9166 H   0  0  0  0  0  0  0  0  0  0  0  0
  1  2  1  0  0  0  0
  1 18  1  0  0  0  0
  1 19  1  0  0  0  0
  1 20  1  0  0  0  0
  2  3  1  0  0  0  0
  3 17  1  0  0  0  0
  3  4  2  0  0  0  0
  4  5  1  0  0  0  0
  4 21  1  0  0  0  0
  5  6  2  0  0  0  0
  5 22  1  0  0  0  0
  6  7  1  0  0  0  0
  6 34  1  0  0  0  0
  7  8  1  0  0  0  0
  7 17  2  0  0  0  0
  8  9  1  0  0  0  0
  8 23  1  0  0  0  0
  9 10  2  0  0  0  0
  9 11  1  0  0  0  0
 11 16  1  0  0  0  0
 11 12  1  0  0  0  0
 11 24  1  0  0  0  0
 12 13  1  0  0  0  0
 12 25  1  0  0  0  0
 12 26  1  0  0  0  0
 13 14  1  0  0  0  0
 13 27  1  0  0  0  0
 13 28  1  0  0  0  0
 14 15  1  0  0  0  0
 14 16  1  0  0  0  0
 14 29  1  0  0  0  0
 15 30  1  0  0  0  0
 15 31  1  0  0  0  0
 15 32  1  0  0  0  0
 17 33  1  0  0  0  0
M  CHG  1   6   1
M  END
> <s_m_source_file>
AV-unprocessed.smi

> <i_m_source_file_index>
2489

> <i_lp_mmshare_version>
43012

> <i_f3d_flags>
0

> <s_epik_input>
W0NIM11PYzFbY0hdW2NIXW5jKFtjSF0xKVtOSF1DKD1PKVtDQEBIXTJbQ0gyXVtDSDJdW0NASF0oTzIpW0NIM10=

> <s_epik_cmdline>
J2VwaWtfcHl0aG9uJywgJy1waCcsICc3LjAnLCAnLXRuJywgJzgnLCAnLW1hJywgJzIwMCcsICctbWV0YWxfYmluZGluZycsICctaW1hZScsICc8aW5maWxlLm1hZT4nLCAnLW9tYWUnLCAnPG91dGZpbGUubWFlPic=

> <r_epik_Ionization_Penalty>
1.58956

> <r_epik_Ionization_Penalty_Charging>
1.1784

> <r_epik_Ionization_Penalty_Neutral>
0.411158

> <r_epik_State_Penalty>
1.31089

> <r_epik_Charging_Adjusted_Penalty>
2.48928

> <i_epik_Tot_Q>
1

> <i_epik_Tot_abs_Q>
1

> <r_epik_Metal_State_Penalty>
5.00213

> <b_epik_Metal_Only>
0

> <s_lp_Force_Field>
OPLS_2005

> <r_lp_Energy>
32.2942

> <b_lp_Chiralities_Consistent>
1

> <s_lp_Variant>
AV-unprocessed.smi:2489-10

> <Gold.Version>
5.8.1

> <Gold.Id.Protein>
6NUR|6NUR_protein|mol2

> <Gold.PLP.Fitness>
49.7635

> <Gold.PLP.PLP>
-40.7038

> <Gold.PLP.part.hbond>
-3.0000

> <Gold.PLP.part.metal>
0.0000

> <Gold.PLP.part.buried>
-5.7573

> <Gold.PLP.part.nonpolar>
-31.9122

> <Gold.PLP.part.repulsive>
0.3244

> <Gold.PLP.ligand.clash>
0.0000

> <Gold.PLP.ligand.torsion>
0.4508

> <Gold.PLP.Chemscore.Hbond>
3.3175

> <Gold.PLP.Chemscore.CHOScore>
0.0000

> <Gold.PLP.Chemscore.Metal>
0.0000

> <Gold.Chemscore.Hbonds>
donor molecule, donor type, donor heavy atom, donor atom, acceptor molecule, acceptor atom, score
      L1  H     6    34       P1  8028  2.00
      L1  H     8    23       P1  8028  0.94
      P1  H  8011  8017       L1    16  0.32

> <Gold.PLP.Chemscore.Internal.Correction>
0.0089

> <Gold.Rescore>
     Score         DG    S(hbond)    S(metal)    S(lipo)     H(rot)  DE(clash)    DE(int)     intcor
     16.58     -18.38       1.80        0.00      86.16       1.24       0.04       1.76       ----

> <Gold.Chemscore.Fitness>
16.5775

> <Gold.Chemscore.DG>
-18.3835

> <Gold.Chemscore.ZeroCoef>
-5.4800

> <Gold.Chemscore.Hbond>
1.7961

> <Gold.Chemscore.Metal>
0.0000

> <Gold.Chemscore.Lipo>
86.1646

> <Gold.Chemscore.Internal_Hbond>
0.0000

> <Gold.Chemscore.DEClash>
0.0442

> <Gold.Chemscore.DEInternal>
1.7617

> <Gold.Chemscore.Rot>
1.2409

> <Gold.Chemscore.Internal.Correction>
   9.000000E+99

> <Gold.Chemscore.Hbonds>
donor molecule, donor type, donor heavy atom, donor atom, acceptor molecule, acceptor atom, score
      L1  H     6    34       P1  8028  0.67
      L1  H     8    23       P1  8028  0.85
      P1  H  8011  8017       L1    16  0.05

> <Gold.Chemscore.Hbond.Weighted>
-5.9989

> <Gold.Chemscore.Metal.Weighted>
-0.0000

> <Gold.Chemscore.Lipo.Weighted>
-10.0813

> <Gold.Chemscore.Internal_Hbond.Weighted>
0.0000

> <Gold.Chemscore.DEClash.Weighted>
0.0442

> <Gold.Chemscore.DEInternal.Weighted>
1.7617

> <Gold.Chemscore.Rot.Weighted>
3.1767

> <Gold.Chemscore.Internal.Correction.Weighted>
   9.000000E+99

> <Gold.Protein.RotatedTorsions>
[ 6907 6896 6895 6894 ] final   13.57 input  -60.11 | X-H torsion
[ 7974 7965 7964 7962 ] final  162.94 input  175.53 | X-H torsion
[ 8008 7997 7996 7995 ] final  -56.04 input   59.86 | X-H torsion
[ 10167 10162 10161 10158 ] final -170.78 input  -65.29 | X-H torsion
[ 10718 10713 10712 10709 ] final   51.60 input   66.30 | X-H torsion
[ 10763 10752 10751 10750 ] final  -54.83 input  -60.55 | X-H torsion
[ 11005 11000 10999 10996 ] final   35.95 input  -57.11 | X-H torsion

> <Gold.Protein.ActiveResidues>
 VAL166  LYS551  ARG553  GLY616  TRP617  ASP618  TYR619  PRO620  LYS621  CYS622 
 ASP623  PHE694  ASN695  SER759  ASP760  ASP761  ALA762  ILE779  LEU786  VAL792 
 PHE793  MET794  SER795  GLU796  ALA797  LYS798  CYS799  TRP800  GLU811  SER814 

> <Gold.Protein.RotatedAtoms>
  151.7884  135.0742  160.0383 H   0  0  0  0  0  0  0  0  0  0  0  0  # atno 6907 bound_to 6896
  152.3174  133.5812  159.5730 H   0  0  0  0  0  0  0  0  0  0  0  0  # atno 6908 bound_to 6896
  150.7351  133.9978  159.3670 H   0  0  0  0  0  0  0  0  0  0  0  0  # atno 6909 bound_to 6896
  144.7613  139.8111  143.6331 H   0  0  0  0  0  0  0  0  0  0  0  0  # atno 7974 bound_to 7965
  154.4216  140.1139  156.5573 H   0  0  0  0  0  0  0  0  0  0  0  0  # atno 8008 bound_to 7997
  155.6348  140.3496  155.4676 H   0  0  0  0  0  0  0  0  0  0  0  0  # atno 8009 bound_to 7997
  155.9919  140.1181  157.0620 H   0  0  0  0  0  0  0  0  0  0  0  0  # atno 8010 bound_to 7997
  139.5841  144.1357  152.1553 H   0  0  0  0  0  0  0  0  0  0  0  0  # atno 10167 bound_to 10162
  157.4996  130.8429  149.8300 H   0  0  0  0  0  0  0  0  0  0  0  0  # atno 10718 bound_to 10713
  154.1811  135.6443  153.5034 H   0  0  0  0  0  0  0  0  0  0  0  0  # atno 10763 bound_to 10752
  153.0059  135.5406  154.6513 H   0  0  0  0  0  0  0  0  0  0  0  0  # atno 10764 bound_to 10752
  154.5877  135.2931  155.0640 H   0  0  0  0  0  0  0  0  0  0  0  0  # atno 10765 bound_to 10752
  140.2374  134.3455  155.7939 H   0  0  0  0  0  0  0  0  0  0  0  0  # atno 11005 bound_to 11000
  146.1678  139.4817  142.9947 LP  0  0  0  0  0  0  0  0  0  0  0  0  # atno 17320 bound_to 7965
  145.6611  141.0240  143.1708 LP  0  0  0  0  0  0  0  0  0  0  0  0  # atno 17321 bound_to 7965
  140.0916  144.5615  150.7050 LP  0  0  0  0  0  0  0  0  0  0  0  0  # atno 17342 bound_to 10162
  140.7116  143.2509  151.4565 LP  0  0  0  0  0  0  0  0  0  0  0  0  # atno 17343 bound_to 10162
  156.0221  130.3792  150.1931 LP  0  0  0  0  0  0  0  0  0  0  0  0  # atno 17370 bound_to 10713
  157.0120  130.9954  151.3363 LP  0  0  0  0  0  0  0  0  0  0  0  0  # atno 17371 bound_to 10713
  141.2213  133.7280  156.8831 LP  0  0  0  0  0  0  0  0  0  0  0  0  # atno 17394 bound_to 11000
  140.1688  134.9115  157.2807 LP  0  0  0  0  0  0  0  0  0  0  0  0  # atno 17395 bound_to 11000

$$$$
