AV-unprocessed.smi:2152|AV-procd|sdf|8763|dock10
  -GOLD-   2272011543D 1   1.00000     0.00000
 Structure written by MMmdl.
 41 42  0  0  0  0  0  0  0  0  1 V2000
  146.7819  142.9190  154.0310 C   0  0  0  0  0  0  0  0  0  0  0  0
  146.6554  141.3875  154.1061 C   0  0  1  0  0  0  0  0  0  0  0  0
  147.1956  140.7103  152.8291 C   0  0  0  0  0  0  0  0  0  0  0  0
  147.0237  139.1838  152.8810 C   0  0  0  0  0  0  0  0  0  0  0  0
  147.6823  138.5886  154.1343 C   0  0  0  0  0  0  0  0  0  0  0  0
  147.1477  139.2558  155.4131 C   0  0  0  0  0  0  0  0  0  0  0  0
  147.3069  140.7919  155.3793 C   0  0  1  0  0  0  0  0  0  0  0  0
  148.7159  141.1740  155.4780 N   0  0  0  0  0  0  0  0  0  0  0  0
  149.5988  140.6862  156.3621 C   0  0  0  0  0  0  0  0  0  0  0  0
  149.3055  139.8615  157.2285 O   0  0  0  0  0  0  0  0  0  0  0  0
  151.0290  141.2305  156.2541 C   0  0  0  0  0  0  0  0  0  0  0  0
  151.4936  141.8617  157.4960 N   0  0  0  0  0  0  0  0  0  0  0  0
  151.1062  143.1558  157.7938 C   0  0  0  0  0  0  0  0  0  0  0  0
  151.4785  143.8046  158.9185 C   0  0  0  0  0  0  0  0  0  0  0  0
  152.3329  143.1571  159.9058 C   0  0  0  0  0  0  0  0  0  0  0  0
  152.6910  143.6997  160.9522 O   0  0  0  0  0  0  0  0  0  0  0  0
  152.7218  141.8390  159.5746 N   0  0  0  0  0  0  0  0  0  0  0  0
  153.5591  141.1530  160.5363 C   0  0  0  0  0  0  0  0  0  0  0  0
  152.3239  141.1608  158.3987 C   0  0  0  0  0  0  0  0  0  0  0  0
  152.6718  140.0033  158.1526 O   0  0  0  0  0  0  0  0  0  0  0  0
  147.8200  143.2354  153.9270 H   0  0  0  0  0  0  0  0  0  0  0  0
  146.3772  143.3897  154.9275 H   0  0  0  0  0  0  0  0  0  0  0  0
  146.2318  143.3140  153.1766 H   0  0  0  0  0  0  0  0  0  0  0  0
  145.5885  141.1651  154.1600 H   0  0  0  0  0  0  0  0  0  0  0  0
  146.6787  141.1033  151.9528 H   0  0  0  0  0  0  0  0  0  0  0  0
  148.2503  140.9534  152.6955 H   0  0  0  0  0  0  0  0  0  0  0  0
  145.9615  138.9361  152.8744 H   0  0  0  0  0  0  0  0  0  0  0  0
  147.4517  138.7315  151.9860 H   0  0  0  0  0  0  0  0  0  0  0  0
  147.5001  137.5145  154.1736 H   0  0  0  0  0  0  0  0  0  0  0  0
  148.7644  138.7144  154.0764 H   0  0  0  0  0  0  0  0  0  0  0  0
  146.0911  139.0097  155.5262 H   0  0  0  0  0  0  0  0  0  0  0  0
  147.6475  138.8373  156.2875 H   0  0  0  0  0  0  0  0  0  0  0  0
  146.7850  141.2065  156.2439 H   0  0  0  0  0  0  0  0  0  0  0  0
  149.0461  141.8538  154.8085 H   0  0  0  0  0  0  0  0  0  0  0  0
  151.7138  140.4303  155.9671 H   0  0  0  0  0  0  0  0  0  0  0  0
  151.0561  141.9492  155.4339 H   0  0  0  0  0  0  0  0  0  0  0  0
  150.4680  143.6767  157.0948 H   0  0  0  0  0  0  0  0  0  0  0  0
  151.1372  144.8146  159.0918 H   0  0  0  0  0  0  0  0  0  0  0  0
  153.9318  140.2108  160.1358 H   0  0  0  0  0  0  0  0  0  0  0  0
  152.9465  140.9764  161.4219 H   0  0  0  0  0  0  0  0  0  0  0  0
  154.4069  141.8028  160.7611 H   0  0  0  0  0  0  0  0  0  0  0  0
  1  2  1  0  0  0  0
  1 21  1  0  0  0  0
  1 22  1  0  0  0  0
  1 23  1  0  0  0  0
  2  7  1  0  0  0  0
  2  3  1  0  0  0  0
  2 24  1  0  0  0  0
  3  4  1  0  0  0  0
  3 25  1  0  0  0  0
  3 26  1  0  0  0  0
  4  5  1  0  0  0  0
  4 27  1  0  0  0  0
  4 28  1  0  0  0  0
  5  6  1  0  0  0  0
  5 29  1  0  0  0  0
  5 30  1  0  0  0  0
  6  7  1  0  0  0  0
  6 31  1  0  0  0  0
  6 32  1  0  0  0  0
  7  8  1  0  0  0  0
  7 33  1  0  0  0  0
  8  9  1  0  0  0  0
  8 34  1  0  0  0  0
  9 10  2  0  0  0  0
  9 11  1  0  0  0  0
 11 12  1  0  0  0  0
 11 35  1  0  0  0  0
 11 36  1  0  0  0  0
 12 19  1  0  0  0  0
 12 13  1  0  0  0  0
 13 14  2  0  0  0  0
 13 37  1  0  0  0  0
 14 15  1  0  0  0  0
 14 38  1  0  0  0  0
 15 16  2  0  0  0  0
 15 17  1  0  0  0  0
 17 18  1  0  0  0  0
 17 19  1  0  0  0  0
 18 39  1  0  0  0  0
 18 40  1  0  0  0  0
 18 41  1  0  0  0  0
 19 20  2  0  0  0  0
M  END
> <s_m_source_file>
AV-unprocessed.smi

> <i_m_source_file_index>
2152

> <i_lp_mmshare_version>
43012

> <i_f3d_flags>
0

> <s_epik_input>
W0NIM11bQ0BASF0xW0NIMl1bQ0gyXVtDSDJdW0NIMl1bQ0BIXTFbTkhdQyg9TylbQ0gyXW4yW2NIXVtjSF1jKD1PKW4oW0NIM10pYzI9Tw==

> <s_epik_cmdline>
J2VwaWtfcHl0aG9uJywgJy1waCcsICc3LjAnLCAnLXRuJywgJzgnLCAnLW1hJywgJzIwMCcsICctbWV0YWxfYmluZGluZycsICctaW1hZScsICc8aW5maWxlLm1hZT4nLCAnLW9tYWUnLCAnPG91dGZpbGUubWFlPic=

> <r_lp_tautomer_probability>
1

> <r_epik_Ionization_Penalty>
3.20555e-08

> <r_epik_Ionization_Penalty_Charging>
1.30086e-08

> <r_epik_Ionization_Penalty_Neutral>
1.90469e-08

> <r_epik_State_Penalty>
-0

> <r_epik_Charging_Adjusted_Penalty>
1.30086e-08

> <i_epik_Tot_Q>
0

> <i_epik_Tot_abs_Q>
0

> <r_epik_Metal_State_Penalty>
-0

> <b_epik_Metal_Only>
0

> <s_lp_Force_Field>
OPLS_2005

> <r_lp_Energy>
17.5723

> <b_lp_Chiralities_Consistent>
1

> <s_lp_Variant>
AV-unprocessed.smi:2152-2

> <Gold.Version>
5.8.1

> <Gold.Id.Protein>
6NUR|6NUR_protein|mol2

> <Gold.PLP.Fitness>
41.4014

> <Gold.PLP.PLP>
-36.2354

> <Gold.PLP.part.hbond>
-1.0000

> <Gold.PLP.part.metal>
0.0000

> <Gold.PLP.part.buried>
-2.4203

> <Gold.PLP.part.nonpolar>
-31.1518

> <Gold.PLP.part.repulsive>
0.1538

> <Gold.PLP.ligand.clash>
0.0000

> <Gold.PLP.ligand.torsion>
0.4100

> <Gold.PLP.Chemscore.Hbond>
0.9920

> <Gold.PLP.Chemscore.CHOScore>
1.0000

> <Gold.PLP.Chemscore.Metal>
0.0000

> <Gold.Chemscore.Hbonds>
donor molecule, donor type, donor heavy atom, donor atom, acceptor molecule, acceptor atom, score
      P1  H  7997  8009       L1    20  0.55
      L1  C    13    37       P1  8028  1.00

> <Gold.PLP.Chemscore.Internal.Correction>
0.0100

> <Gold.Rescore>
     Score         DG    S(hbond)    S(metal)    S(lipo)     H(rot)  DE(clash)    DE(int)     intcor
     12.37     -13.58       0.93        0.00      75.90       1.52       0.84       0.36       ----

> <Gold.Chemscore.Fitness>
12.3739

> <Gold.Chemscore.DG>
-13.5764

> <Gold.Chemscore.ZeroCoef>
-5.4800

> <Gold.Chemscore.Hbond>
0.9336

> <Gold.Chemscore.Metal>
0.0000

> <Gold.Chemscore.Lipo>
75.8979

> <Gold.Chemscore.Internal_Hbond>
0.0000

> <Gold.Chemscore.DEClash>
0.8382

> <Gold.Chemscore.DEInternal>
0.3644

> <Gold.Chemscore.Rot>
1.5242

> <Gold.Chemscore.Internal.Correction>
   9.000000E+99

> <Gold.Chemscore.Hbonds>
donor molecule, donor type, donor heavy atom, donor atom, acceptor molecule, acceptor atom, score
      P1  H  7997  8009       L1    20  0.39

> <Gold.Chemscore.Hbond.Weighted>
-3.1183

> <Gold.Chemscore.Metal.Weighted>
-0.0000

> <Gold.Chemscore.Lipo.Weighted>
-8.8801

> <Gold.Chemscore.Internal_Hbond.Weighted>
0.0000

> <Gold.Chemscore.DEClash.Weighted>
0.8382

> <Gold.Chemscore.DEInternal.Weighted>
0.3644

> <Gold.Chemscore.Rot.Weighted>
3.9019

> <Gold.Chemscore.Internal.Correction.Weighted>
   9.000000E+99

> <Gold.Protein.RotatedTorsions>
[ 6907 6896 6895 6894 ] final  118.06 input  -60.11 | X-H torsion
[ 7974 7965 7964 7962 ] final   90.98 input  175.53 | X-H torsion
[ 8008 7997 7996 7995 ] final  163.12 input   59.86 | X-H torsion
[ 10167 10162 10161 10158 ] final   30.60 input  -65.29 | X-H torsion
[ 10718 10713 10712 10709 ] final  102.41 input   66.30 | X-H torsion
[ 10763 10752 10751 10750 ] final    6.11 input  -60.55 | X-H torsion
[ 11005 11000 10999 10996 ] final  112.02 input  -57.11 | X-H torsion

> <Gold.Protein.ActiveResidues>
 VAL166  LYS551  ARG553  GLY616  TRP617  ASP618  TYR619  PRO620  LYS621  CYS622 
 ASP623  PHE694  ASN695  SER759  ASP760  ASP761  ALA762  ILE779  LEU786  VAL792 
 PHE793  MET794  SER795  GLU796  ALA797  LYS798  CYS799  TRP800  GLU811  SER814 

> <Gold.Protein.RotatedAtoms>
  152.4569  133.7741  159.6814 H   0  0  0  0  0  0  0  0  0  0  0  0  # atno 6907 bound_to 6896
  150.8498  133.7794  159.3036 H   0  0  0  0  0  0  0  0  0  0  0  0  # atno 6908 bound_to 6896
  151.5393  135.1071  159.9974 H   0  0  0  0  0  0  0  0  0  0  0  0  # atno 6909 bound_to 6896
  145.5117  139.2277  143.2720 H   0  0  0  0  0  0  0  0  0  0  0  0  # atno 7974 bound_to 7965
  156.1981  140.1732  156.7957 H   0  0  0  0  0  0  0  0  0  0  0  0  # atno 8008 bound_to 7997
  154.5555  140.0709  156.8768 H   0  0  0  0  0  0  0  0  0  0  0  0  # atno 8009 bound_to 7997
  155.2946  140.3357  155.4253 H   0  0  0  0  0  0  0  0  0  0  0  0  # atno 8010 bound_to 7997
  140.4663  144.0830  150.6225 H   0  0  0  0  0  0  0  0  0  0  0  0  # atno 10167 bound_to 10162
  157.6803  131.0752  150.5400 H   0  0  0  0  0  0  0  0  0  0  0  0  # atno 10718 bound_to 10713
  153.2516  135.6914  153.7673 H   0  0  0  0  0  0  0  0  0  0  0  0  # atno 10763 bound_to 10752
  153.6766  135.3335  155.3168 H   0  0  0  0  0  0  0  0  0  0  0  0  # atno 10764 bound_to 10752
  154.8396  135.4512  154.1474 H   0  0  0  0  0  0  0  0  0  0  0  0  # atno 10765 bound_to 10752
  139.8917  134.9521  156.6521 H   0  0  0  0  0  0  0  0  0  0  0  0  # atno 11005 bound_to 11000
  146.2162  140.5924  142.9037 LP  0  0  0  0  0  0  0  0  0  0  0  0  # atno 17320 bound_to 7965
  144.7723  140.5665  143.6661 LP  0  0  0  0  0  0  0  0  0  0  0  0  # atno 17321 bound_to 7965
  140.4032  143.2693  151.9923 LP  0  0  0  0  0  0  0  0  0  0  0  0  # atno 17342 bound_to 10162
  139.4812  144.5980  151.7656 LP  0  0  0  0  0  0  0  0  0  0  0  0  # atno 17343 bound_to 10162
  156.5707  130.4279  149.6021 LP  0  0  0  0  0  0  0  0  0  0  0  0  # atno 17370 bound_to 10713
  156.2743  130.7035  151.1841 LP  0  0  0  0  0  0  0  0  0  0  0  0  # atno 17371 bound_to 10713
  140.7512  133.8896  155.8348 LP  0  0  0  0  0  0  0  0  0  0  0  0  # atno 17394 bound_to 11000
  140.9999  134.1164  157.4327 LP  0  0  0  0  0  0  0  0  0  0  0  0  # atno 17395 bound_to 11000

$$$$
