AV-unprocessed.smi:406|AV-procd|sdf|2500|dock1
  -GOLD-   2262022443D 1   1.00000     0.00000
 Structure written by MMmdl.
 34 35  0  0  0  0  0  0  0  0  2 V2000
  146.4271  143.1552  153.7143 C   0  0  0  0  0  0  0  0  0  0  0  0
  146.8301  142.0260  154.6684 C   0  0  0  0  0  0  0  0  0  0  0  0
  148.2590  141.5224  154.4105 C   0  0  0  0  0  0  0  0  0  0  0  0
  148.4748  140.2006  154.9847 N   0  0  0  0  0  0  0  0  0  0  0  0
  149.5692  139.4426  154.8063 C   0  0  0  0  0  0  0  0  0  0  0  0
  150.5178  139.7797  154.0980 O   0  0  0  0  0  0  0  0  0  0  0  0
  149.5973  138.0934  155.5310 C   0  0  0  0  0  0  0  0  0  0  0  0
  150.8524  137.9655  156.3449 C   0  0  0  0  0  0  0  0  0  0  0  0
  151.6371  136.8503  156.4863 C   0  0  0  0  0  0  0  0  0  0  0  0
  153.0349  137.1694  157.4727 S   0  0  0  0  0  0  0  0  0  0  0  0
  152.5091  138.8430  157.6592 C   0  0  0  0  0  0  0  0  0  0  0  0
  153.1814  139.7850  158.3450 N   0  5  0  0  0  0  0  0  0  0  0  0
  152.5774  140.8350  158.9688 C   0  0  0  0  0  0  0  0  0  0  0  0
  151.3773  141.0974  158.9107 O   0  0  0  0  0  0  0  0  0  0  0  0
  153.4970  141.7397  159.7411 C   0  0  0  0  0  0  0  0  0  0  0  0
  153.3528  141.7896  161.2497 C   0  0  0  0  0  0  0  0  0  0  0  0
  152.8863  142.9533  160.4156 C   0  0  0  0  0  0  0  0  0  0  0  0
  151.3412  139.0703  157.0473 N   0  0  0  0  0  0  0  0  0  0  0  0
  145.4116  143.4941  153.9201 H   0  0  0  0  0  0  0  0  0  0  0  0
  146.4639  142.8241  152.6761 H   0  0  0  0  0  0  0  0  0  0  0  0
  147.0920  144.0132  153.8170 H   0  0  0  0  0  0  0  0  0  0  0  0
  146.7452  142.3775  155.6975 H   0  0  0  0  0  0  0  0  0  0  0  0
  146.1224  141.2026  154.5644 H   0  0  0  0  0  0  0  0  0  0  0  0
  148.4738  141.5055  153.3406 H   0  0  0  0  0  0  0  0  0  0  0  0
  148.9805  142.2046  154.8613 H   0  0  0  0  0  0  0  0  0  0  0  0
  147.7484  139.8418  155.5889 H   0  0  0  0  0  0  0  0  0  0  0  0
  148.7121  138.0113  156.1628 H   0  0  0  0  0  0  0  0  0  0  0  0
  149.5317  137.2863  154.8004 H   0  0  0  0  0  0  0  0  0  0  0  0
  151.4878  135.8700  156.0594 H   0  0  0  0  0  0  0  0  0  0  0  0
  154.4870  141.8897  159.3139 H   0  0  0  0  0  0  0  0  0  0  0  0
  152.5884  141.1678  161.7120 H   0  0  0  0  0  0  0  0  0  0  0  0
  154.2700  141.8980  161.8249 H   0  0  0  0  0  0  0  0  0  0  0  0
  153.4833  143.8626  160.4286 H   0  0  0  0  0  0  0  0  0  0  0  0
  151.8115  143.1094  160.3408 H   0  0  0  0  0  0  0  0  0  0  0  0
  1  2  1  0  0  0  0
  1 19  1  0  0  0  0
  1 20  1  0  0  0  0
  1 21  1  0  0  0  0
  2  3  1  0  0  0  0
  2 22  1  0  0  0  0
  2 23  1  0  0  0  0
  3  4  1  0  0  0  0
  3 24  1  0  0  0  0
  3 25  1  0  0  0  0
  4  5  1  0  0  0  0
  4 26  1  0  0  0  0
  5  6  2  0  0  0  0
  5  7  1  0  0  0  0
  7  8  1  0  0  0  0
  7 27  1  0  0  0  0
  7 28  1  0  0  0  0
  8 18  1  0  0  0  0
  8  9  2  0  0  0  0
  9 10  1  0  0  0  0
  9 29  1  0  0  0  0
 10 11  1  0  0  0  0
 11 12  1  0  0  0  0
 11 18  2  0  0  0  0
 12 13  1  0  0  0  0
 13 14  2  0  0  0  0
 13 15  1  0  0  0  0
 15 17  1  0  0  0  0
 15 16  1  0  0  0  0
 15 30  1  0  0  0  0
 16 17  1  0  0  0  0
 16 31  1  0  0  0  0
 16 32  1  0  0  0  0
 17 33  1  0  0  0  0
 17 34  1  0  0  0  0
M  CHG  1  12  -1
M  END
> <s_m_source_file>
AV-unprocessed.smi

> <i_m_source_file_index>
406

> <i_lp_mmshare_version>
43012

> <i_f3d_flags>
0

> <s_epik_input>
W0NIM11bQ0gyXVtDSDJdW05IXUMoPU8pW0NIMl1jMVtjSF1zYyhuMSlbTkhdQyg9TylbQ0hdMltDSDJdW0NIMl0y

> <s_epik_cmdline>
J2VwaWtfcHl0aG9uJywgJy1waCcsICc3LjAnLCAnLXRuJywgJzgnLCAnLW1hJywgJzIwMCcsICctbWV0YWxfYmluZGluZycsICctaW1hZScsICc8aW5maWxlLm1hZT4nLCAnLW9tYWUnLCAnPG91dGZpbGUubWFlPic=

> <r_lp_tautomer_probability>
1

> <r_epik_Ionization_Penalty>
5.51776

> <r_epik_Ionization_Penalty_Charging>
5.00105

> <r_epik_Ionization_Penalty_Neutral>
0.516708

> <r_epik_State_Penalty>
5.00092

> <r_epik_Charging_Adjusted_Penalty>
10.002

> <i_epik_Tot_Q>
-1

> <i_epik_Tot_abs_Q>
1

> <r_epik_Metal_State_Penalty>
1.12078

> <b_epik_Metal_Only>
1

> <s_lp_Force_Field>
OPLS_2005

> <r_lp_Energy>
6.22345

> <b_lp_Chiralities_Consistent>
1

> <s_lp_Variant>
AV-unprocessed.smi:406-2

> <Gold.Version>
5.8.1

> <Gold.Id.Protein>
6NUR|6NUR_protein|mol2

> <Gold.PLP.Fitness>
38.3233

> <Gold.PLP.PLP>
-30.4800

> <Gold.PLP.part.hbond>
-2.0000

> <Gold.PLP.part.metal>
0.0000

> <Gold.PLP.part.buried>
-5.1372

> <Gold.PLP.part.nonpolar>
-23.6840

> <Gold.PLP.part.repulsive>
0.4400

> <Gold.PLP.ligand.clash>
0.0000

> <Gold.PLP.ligand.torsion>
0.6607

> <Gold.PLP.Chemscore.Hbond>
3.0000

> <Gold.PLP.Chemscore.CHOScore>
0.0000

> <Gold.PLP.Chemscore.Metal>
0.0000

> <Gold.Chemscore.Hbonds>
donor molecule, donor type, donor heavy atom, donor atom, acceptor molecule, acceptor atom, score
      P1  H  7989  7998       L1     6  1.00
      P1  H  7997  8008       L1    12  2.00

> <Gold.PLP.Chemscore.Internal.Correction>
0.1647

> <Gold.Rescore>
     Score         DG    S(hbond)    S(metal)    S(lipo)     H(rot)  DE(clash)    DE(int)     intcor
     11.75     -13.74       1.53        0.00      67.38       1.85       0.00       1.99       ----

> <Gold.Chemscore.Fitness>
11.7489

> <Gold.Chemscore.DG>
-13.7424

> <Gold.Chemscore.ZeroCoef>
-5.4800

> <Gold.Chemscore.Hbond>
1.5297

> <Gold.Chemscore.Metal>
0.0000

> <Gold.Chemscore.Lipo>
67.3805

> <Gold.Chemscore.Internal_Hbond>
0.0000

> <Gold.Chemscore.DEClash>
0.0000

> <Gold.Chemscore.DEInternal>
1.9935

> <Gold.Chemscore.Rot>
1.8478

> <Gold.Chemscore.Internal.Correction>
   9.000000E+99

> <Gold.Chemscore.Hbonds>
donor molecule, donor type, donor heavy atom, donor atom, acceptor molecule, acceptor atom, score
      P1  H  7989  7998       L1     6  0.99
      P1  H  7997  8008       L1    12  0.31

> <Gold.Chemscore.Hbond.Weighted>
-5.1093

> <Gold.Chemscore.Metal.Weighted>
-0.0000

> <Gold.Chemscore.Lipo.Weighted>
-7.8835

> <Gold.Chemscore.Internal_Hbond.Weighted>
0.0000

> <Gold.Chemscore.DEClash.Weighted>
0.0000

> <Gold.Chemscore.DEInternal.Weighted>
1.9935

> <Gold.Chemscore.Rot.Weighted>
4.7305

> <Gold.Chemscore.Internal.Correction.Weighted>
   9.000000E+99

> <Gold.Protein.RotatedTorsions>
[ 6907 6896 6895 6894 ] final -141.85 input  -60.11 | X-H torsion
[ 7974 7965 7964 7962 ] final   80.61 input  175.53 | X-H torsion
[ 8008 7997 7996 7995 ] final -102.19 input   59.86 | X-H torsion
[ 10167 10162 10161 10158 ] final -144.50 input  -65.29 | X-H torsion
[ 10718 10713 10712 10709 ] final  -49.97 input   66.30 | X-H torsion
[ 10763 10752 10751 10750 ] final -119.85 input  -60.55 | X-H torsion
[ 11005 11000 10999 10996 ] final   36.68 input  -57.11 | X-H torsion

> <Gold.Protein.ActiveResidues>
 VAL166  LYS551  ARG553  GLY616  TRP617  ASP618  TYR619  PRO620  LYS621  CYS622 
 ASP623  PHE694  ASN695  SER759  ASP760  ASP761  ALA762  ILE779  LEU786  VAL792 
 PHE793  MET794  SER795  GLU796  ALA797  LYS798  CYS799  TRP800  GLU811  SER814 

> <Gold.Protein.RotatedAtoms>
  151.0792  133.5403  159.2621 H   0  0  0  0  0  0  0  0  0  0  0  0  # atno 6907 bound_to 6896
  151.2313  135.0555  159.8999 H   0  0  0  0  0  0  0  0  0  0  0  0  # atno 6908 bound_to 6896
  152.5421  134.0581  159.8193 H   0  0  0  0  0  0  0  0  0  0  0  0  # atno 6909 bound_to 6896
  145.6490  139.2443  143.1988 H   0  0  0  0  0  0  0  0  0  0  0  0  # atno 7974 bound_to 7965
  154.8532  140.0430  157.1618 H   0  0  0  0  0  0  0  0  0  0  0  0  # atno 8008 bound_to 7997
  154.8920  140.2988  155.5345 H   0  0  0  0  0  0  0  0  0  0  0  0  # atno 8009 bound_to 7997
  156.2996  140.2392  156.3937 H   0  0  0  0  0  0  0  0  0  0  0  0  # atno 8010 bound_to 7997
  139.7893  143.7989  152.2648 H   0  0  0  0  0  0  0  0  0  0  0  0  # atno 10167 bound_to 10162
  156.1844  130.4151  149.9461 H   0  0  0  0  0  0  0  0  0  0  0  0  # atno 10718 bound_to 10713
  154.8628  135.4224  154.2365 H   0  0  0  0  0  0  0  0  0  0  0  0  # atno 10763 bound_to 10752
  153.3339  135.6990  153.6930 H   0  0  0  0  0  0  0  0  0  0  0  0  # atno 10764 bound_to 10752
  153.5936  135.3550  155.2893 H   0  0  0  0  0  0  0  0  0  0  0  0  # atno 10765 bound_to 10752
  140.2302  134.3537  155.7967 H   0  0  0  0  0  0  0  0  0  0  0  0  # atno 11005 bound_to 11000
  146.1219  140.7297  142.9453 LP  0  0  0  0  0  0  0  0  0  0  0  0  # atno 17320 bound_to 7965
  144.7129  140.4107  143.7066 LP  0  0  0  0  0  0  0  0  0  0  0  0  # atno 17321 bound_to 7965
  139.8076  144.7349  150.9741 LP  0  0  0  0  0  0  0  0  0  0  0  0  # atno 17342 bound_to 10162
  140.7820  143.4283  151.0734 LP  0  0  0  0  0  0  0  0  0  0  0  0  # atno 17343 bound_to 10162
  156.7221  130.9011  151.3619 LP  0  0  0  0  0  0  0  0  0  0  0  0  # atno 17370 bound_to 10713
  157.6889  130.9213  150.0460 LP  0  0  0  0  0  0  0  0  0  0  0  0  # atno 17371 bound_to 10713
  141.2218  133.7241  156.8718 LP  0  0  0  0  0  0  0  0  0  0  0  0  # atno 17394 bound_to 11000
  140.1759  134.9067  157.2890 LP  0  0  0  0  0  0  0  0  0  0  0  0  # atno 17395 bound_to 11000

$$$$
