AV-unprocessed.smi:683|AV-procd|sdf|3331|dock10
  -GOLD-   22720 0303D 1   1.00000     0.00000
 Structure written by MMmdl.
 29 30  0  0  0  0  0  0  0  0  2 V2000
  154.0301  141.5450  161.8847 N   0  0  0  0  0  0  0  0  0  0  0  0
  153.4487  141.8575  160.9344 C   0  0  0  0  0  0  0  0  0  0  0  0
  152.7186  142.2501  159.7406 C   0  0  0  0  0  0  0  0  0  0  0  0
  152.6743  143.6046  159.3551 C   0  0  0  0  0  0  0  0  0  0  0  0
  151.9666  143.9813  158.1987 C   0  0  0  0  0  0  0  0  0  0  0  0
  151.3054  143.0060  157.4284 C   0  0  0  0  0  0  0  0  0  0  0  0
  151.3410  141.6463  157.7996 C   0  0  0  0  0  0  0  0  0  0  0  0
  150.6678  140.7589  156.9873 O   0  0  0  0  0  0  0  0  0  0  0  0
  150.5516  141.0695  155.6057 C   0  0  0  0  0  0  0  0  0  0  0  0
  151.4185  140.0881  154.8044 C   0  0  0  0  0  0  0  0  0  0  0  0
  151.2243  138.7069  155.2644 N   0  0  0  0  0  0  0  0  0  0  0  0
  149.9387  138.1540  155.1403 C   0  0  0  0  0  0  0  0  0  0  0  0
  149.6585  136.8989  155.5415 C   0  0  0  0  0  0  0  0  0  0  0  0
  148.0674  136.2458  155.3773 Cl  0  0  0  0  0  0  0  0  0  0  0  0
  150.7406  136.1071  156.1233 C   0  0  0  0  0  0  0  0  0  0  0  0
  150.5204  134.9558  156.4966 O   0  0  0  0  0  0  0  0  0  0  0  0
  151.9691  136.6936  156.2291 N   0  5  0  0  0  0  0  0  0  0  0  0
  152.2337  137.9721  155.8185 C   0  0  0  0  0  0  0  0  0  0  0  0
  153.3478  138.4833  155.9338 O   0  0  0  0  0  0  0  0  0  0  0  0
  152.0550  141.2747  158.9675 C   0  0  0  0  0  0  0  0  0  0  0  0
  153.1806  144.3587  159.9408 H   0  0  0  0  0  0  0  0  0  0  0  0
  151.9314  145.0190  157.9018 H   0  0  0  0  0  0  0  0  0  0  0  0
  150.7657  143.3045  156.5414 H   0  0  0  0  0  0  0  0  0  0  0  0
  149.5103  140.9888  155.2895 H   0  0  0  0  0  0  0  0  0  0  0  0
  150.8864  142.0916  155.4216 H   0  0  0  0  0  0  0  0  0  0  0  0
  151.1747  140.1688  153.7440 H   0  0  0  0  0  0  0  0  0  0  0  0
  152.4698  140.3717  154.8776 H   0  0  0  0  0  0  0  0  0  0  0  0
  149.1984  138.8099  154.7058 H   0  0  0  0  0  0  0  0  0  0  0  0
  152.1055  140.2438  159.2863 H   0  0  0  0  0  0  0  0  0  0  0  0
  1  2  3  0  0  0  0
  2  3  1  0  0  0  0
  3 20  1  0  0  0  0
  3  4  2  0  0  0  0
  4  5  1  0  0  0  0
  4 21  1  0  0  0  0
  5  6  2  0  0  0  0
  5 22  1  0  0  0  0
  6  7  1  0  0  0  0
  6 23  1  0  0  0  0
  7  8  1  0  0  0  0
  7 20  2  0  0  0  0
  8  9  1  0  0  0  0
  9 10  1  0  0  0  0
  9 24  1  0  0  0  0
  9 25  1  0  0  0  0
 10 11  1  0  0  0  0
 10 26  1  0  0  0  0
 10 27  1  0  0  0  0
 11 18  1  0  0  0  0
 11 12  1  0  0  0  0
 12 13  2  0  0  0  0
 12 28  1  0  0  0  0
 13 14  1  0  0  0  0
 13 15  1  0  0  0  0
 15 16  2  0  0  0  0
 15 17  1  0  0  0  0
 17 18  1  0  0  0  0
 18 19  2  0  0  0  0
 20 29  1  0  0  0  0
M  CHG  1  17  -1
M  END
> <s_m_source_file>
AV-unprocessed.smi

> <i_m_source_file_index>
683

> <i_lp_mmshare_version>
43012

> <i_f3d_flags>
0

> <s_epik_input>
TiNDYzFbY0hdW2NIXVtjSF1jKFtjSF0xKU9bQ0gyXVtDSDJdbjJbY0hdYyhDbCljKD1PKVtuSF1jMj1P

> <s_epik_cmdline>
J2VwaWtfcHl0aG9uJywgJy1waCcsICc3LjAnLCAnLXRuJywgJzgnLCAnLW1hJywgJzIwMCcsICctbWV0YWxfYmluZGluZycsICctaW1hZScsICc8aW5maWxlLm1hZT4nLCAnLW9tYWUnLCAnPG91dGZpbGUubWFlPic=

> <r_epik_Ionization_Penalty>
1.49102

> <r_epik_Ionization_Penalty_Charging>
6.47896e-09

> <r_epik_Ionization_Penalty_Neutral>
1.49102

> <r_epik_State_Penalty>
1.58045

> <r_epik_Charging_Adjusted_Penalty>
1.58045

> <i_epik_Tot_Q>
-1

> <i_epik_Tot_abs_Q>
1

> <r_epik_Metal_State_Penalty>
0.00788874

> <b_epik_Metal_Only>
0

> <s_lp_Force_Field>
OPLS_2005

> <r_lp_Energy>
20.1006

> <b_lp_Chiralities_Consistent>
1

> <s_lp_Variant>
AV-unprocessed.smi:683-2

> <Gold.Version>
5.8.1

> <Gold.Id.Protein>
6NUR|6NUR_protein|mol2

> <Gold.PLP.Fitness>
45.0048

> <Gold.PLP.PLP>
-37.5839

> <Gold.PLP.part.hbond>
-3.0000

> <Gold.PLP.part.metal>
0.0000

> <Gold.PLP.part.buried>
-0.9146

> <Gold.PLP.part.nonpolar>
-33.0876

> <Gold.PLP.part.repulsive>
0.0661

> <Gold.PLP.ligand.clash>
0.0000

> <Gold.PLP.ligand.torsion>
0.7843

> <Gold.PLP.Chemscore.Hbond>
2.9920

> <Gold.PLP.Chemscore.CHOScore>
0.0000

> <Gold.PLP.Chemscore.Metal>
0.0000

> <Gold.Chemscore.Hbonds>
donor molecule, donor type, donor heavy atom, donor atom, acceptor molecule, acceptor atom, score
      P1  H  7997  8008       L1    19  0.83
      P1  H 10752 10764       L1    17  1.72

> <Gold.PLP.Chemscore.Internal.Correction>
0.0135

> <Gold.Rescore>
     Score         DG    S(hbond)    S(metal)    S(lipo)     H(rot)  DE(clash)    DE(int)     intcor
     13.05     -15.28       1.53        0.00      83.15       1.97       1.52       0.71       ----

> <Gold.Chemscore.Fitness>
13.0513

> <Gold.Chemscore.DG>
-15.2786

> <Gold.Chemscore.ZeroCoef>
-5.4800

> <Gold.Chemscore.Hbond>
1.5322

> <Gold.Chemscore.Metal>
0.0000

> <Gold.Chemscore.Lipo>
83.1485

> <Gold.Chemscore.Internal_Hbond>
0.0000

> <Gold.Chemscore.DEClash>
1.5171

> <Gold.Chemscore.DEInternal>
0.7102

> <Gold.Chemscore.Rot>
1.9717

> <Gold.Chemscore.Internal.Correction>
   9.000000E+99

> <Gold.Chemscore.Hbonds>
donor molecule, donor type, donor heavy atom, donor atom, acceptor molecule, acceptor atom, score
      P1  H  7997  8008       L1    19  0.80
      P1  H 10752 10764       L1    17  0.08

> <Gold.Chemscore.Hbond.Weighted>
-5.1177

> <Gold.Chemscore.Metal.Weighted>
-0.0000

> <Gold.Chemscore.Lipo.Weighted>
-9.7284

> <Gold.Chemscore.Internal_Hbond.Weighted>
0.0000

> <Gold.Chemscore.DEClash.Weighted>
1.5171

> <Gold.Chemscore.DEInternal.Weighted>
0.7102

> <Gold.Chemscore.Rot.Weighted>
5.0475

> <Gold.Chemscore.Internal.Correction.Weighted>
   9.000000E+99

> <Gold.Protein.RotatedTorsions>
[ 6907 6896 6895 6894 ] final -128.55 input  -60.11 | X-H torsion
[ 7974 7965 7964 7962 ] final -156.91 input  175.53 | X-H torsion
[ 8008 7997 7996 7995 ] final  -26.79 input   59.86 | X-H torsion
[ 10167 10162 10161 10158 ] final -120.95 input  -65.29 | X-H torsion
[ 10718 10713 10712 10709 ] final -129.61 input   66.30 | X-H torsion
[ 10763 10752 10751 10750 ] final  -45.26 input  -60.55 | X-H torsion
[ 11005 11000 10999 10996 ] final   52.49 input  -57.11 | X-H torsion

> <Gold.Protein.ActiveResidues>
 VAL166  LYS551  ARG553  GLY616  TRP617  ASP618  TYR619  PRO620  LYS621  CYS622 
 ASP623  PHE694  ASN695  SER759  ASP760  ASP761  ALA762  ILE779  LEU786  VAL792 
 PHE793  MET794  SER795  GLU796  ALA797  LYS798  CYS799  TRP800  GLU811  SER814 

> <Gold.Protein.RotatedAtoms>
  150.9191  133.6902  159.2836 H   0  0  0  0  0  0  0  0  0  0  0  0  # atno 6907 bound_to 6896
  151.4363  135.1014  159.9667 H   0  0  0  0  0  0  0  0  0  0  0  0  # atno 6908 bound_to 6896
  152.4970  133.8610  159.7305 H   0  0  0  0  0  0  0  0  0  0  0  0  # atno 6909 bound_to 6896
  144.7572  140.4044  143.6003 H   0  0  0  0  0  0  0  0  0  0  0  0  # atno 7974 bound_to 7965
  154.4408  140.1890  156.0831 H   0  0  0  0  0  0  0  0  0  0  0  0  # atno 8008 bound_to 7997
  156.0424  140.3318  155.7232 H   0  0  0  0  0  0  0  0  0  0  0  0  # atno 8009 bound_to 7997
  155.5680  140.0610  157.2804 H   0  0  0  0  0  0  0  0  0  0  0  0  # atno 8010 bound_to 7997
  140.0303  143.5255  152.2179 H   0  0  0  0  0  0  0  0  0  0  0  0  # atno 10167 bound_to 10162
  156.2064  130.6890  151.0599 H   0  0  0  0  0  0  0  0  0  0  0  0  # atno 10718 bound_to 10713
  154.0257  135.6663  153.4776 H   0  0  0  0  0  0  0  0  0  0  0  0  # atno 10763 bound_to 10752
  153.0561  135.5055  154.7981 H   0  0  0  0  0  0  0  0  0  0  0  0  # atno 10764 bound_to 10752
  154.6910  135.3061  154.9444 H   0  0  0  0  0  0  0  0  0  0  0  0  # atno 10765 bound_to 10752
  140.0845  134.5293  155.8913 H   0  0  0  0  0  0  0  0  0  0  0  0  # atno 11005 bound_to 11000
  145.6740  139.1605  143.2738 LP  0  0  0  0  0  0  0  0  0  0  0  0  # atno 17320 bound_to 7965
  146.1595  140.6808  142.9284 LP  0  0  0  0  0  0  0  0  0  0  0  0  # atno 17321 bound_to 7965
  139.6081  144.7601  151.3016 LP  0  0  0  0  0  0  0  0  0  0  0  0  # atno 17342 bound_to 10162
  140.7305  143.6878  150.7947 LP  0  0  0  0  0  0  0  0  0  0  0  0  # atno 17343 bound_to 10162
  157.7014  131.0774  150.6807 LP  0  0  0  0  0  0  0  0  0  0  0  0  # atno 17370 bound_to 10713
  156.6865  130.4582  149.5612 LP  0  0  0  0  0  0  0  0  0  0  0  0  # atno 17371 bound_to 10713
  141.2058  133.6650  156.6202 LP  0  0  0  0  0  0  0  0  0  0  0  0  # atno 17394 bound_to 11000
  140.3440  134.7825  157.4419 LP  0  0  0  0  0  0  0  0  0  0  0  0  # atno 17395 bound_to 11000

$$$$
