#       Name:                AV-unprocessed.smi:157
#       Creating user name   scv26
#       Creation time:       Thu Mar 26 18:57:34 2020


#       File generated by GOLD software.
#

@<TRIPOS>MOLECULE
AV-unprocessed.smi:157
    45    47     1
SMALL
NO_CHARGES


@<TRIPOS>ATOM
      1 ****        -4.2932   3.1680  -1.5386 O.3            1 S1                 0.0000
      2 ****        -3.9532   1.8912  -1.0414 C.3            1 S1                 0.0000
      3 ****        -2.4365   1.7941  -0.8011 C.3            1 S1                 0.0000
      4 ****        -2.0646   0.4710  -0.4268 O.3            1 S1                 0.0000
      5 ****        -0.9491   0.4988   0.4151 C.3            1 S1                 0.0000
      6 ****         0.1692  -0.2465  -0.2461 N.pl3          1 S1                 0.0000
      7 ****         0.4005  -0.3268  -1.5633 C.2            1 S1                 0.0000
      8 ****         1.4631  -1.0415  -1.8924 N.2            1 S1                 0.0000
      9 ****         1.9727  -1.4689  -0.6676 C.2            1 S1                 0.0000
     10 ****         1.1858  -0.9839   0.3675 C.2            1 S1                 0.0000
     11 ****         1.2028  -1.0562   1.7472 N.2            1 S1                 0.0000
     12 ****         1.8883  -2.0087   2.2964 C.2            1 S1                 0.0000
     13 ****         2.7225  -2.9562   1.7206 N.pl3          1 S1                 0.0000
     14 ****         3.7624  -2.6215   0.7626 C.3            1 S1                 0.0000
     15 ****         3.2258  -2.2962  -0.6372 C.3            1 S1                 0.0000
     16 ****         2.9413  -3.5015  -1.3178 O.3            1 S1                 0.0000
     17 ****        -0.5568   1.9655   0.6217 C.3            1 S1                 0.0000
     18 ****        -1.8478   2.6889   0.2988 C.3            1 S1                 0.0000
     19 ****        -2.6823   2.7625   1.4396 O.3            1 S1                 0.0000
     20 ****        -1.9139   2.0083  -1.7351 H              1 S1                 0.0000
     21 ****        -1.1727  -0.0357   1.3387 H              1 S1                 0.0000
     22 ****         4.0136  -1.7953  -1.2004 H              1 S1                 0.0000
     23 ****        -1.6657   3.7025  -0.0598 H              1 S1                 0.0000
     24 ****        -5.2224   3.1846  -1.7104 H              1 S1                 0.0000
     25 ****        -4.5180   1.6866  -0.1317 H              1 S1                 0.0000
     26 ****        -4.2589   1.1468  -1.7769 H              1 S1                 0.0000
     27 ****        -0.2232   0.1553  -2.3015 H              1 S1                 0.0000
     28 ****         1.8418  -2.1222   3.3804 H              1 S1                 0.0000
     29 ****         2.9737  -3.7693   2.2639 H              1 S1                 0.0000
     30 ****         4.2868  -1.7463   1.1489 H              1 S1                 0.0000
     31 ****         4.5006  -3.4229   0.7193 H              1 S1                 0.0000
     32 ****         2.6655  -3.2858  -2.1957 H              1 S1                 0.0000
     33 ****        -0.1790   2.1401   1.6299 H              1 S1                 0.0000
     34 ****         0.2154   2.2460  -0.0966 H              1 S1                 0.0000
     35 ****        -3.4946   3.1749   1.1882 H              1 S1                 0.0000
     36 ****        -3.7904   3.3456  -2.3845 LP             1 S1                 0.0000
     37 ****        -4.0628   3.8664  -0.8609 LP             1 S1                 0.0000
     38 ****        -1.8443  -0.0544  -1.2486 LP             1 S1                 0.0000
     39 ****        -2.8279   0.0369   0.0517 LP             1 S1                 0.0000
     40 ****         1.8186  -1.2313  -2.8076 LP             1 S1                 0.0000
     41 ****         0.7017  -0.3941   2.3045 LP             1 S1                 0.0000
     42 ****         2.2107  -3.9935  -0.8444 LP             1 S1                 0.0000
     43 ****         3.7610  -4.0733  -1.3511 LP             1 S1                 0.0000
     44 ****        -2.2346   3.3039   2.1514 LP             1 S1                 0.0000
     45 ****        -2.8636   1.8419   1.7856 LP             1 S1                 0.0000
@<TRIPOS>BOND
    1    1    2 1     
    2    1   24 1     
    3    2    3 1     
    4    2   25 1     
    5    2   26 1     
    6    3   20 1     
    7    3   18 1     
    8    3    4 1     
    9    4    5 1     
   10    5   21 1     
   11    5    6 1     
   12    5   17 1     
   13    6   10 1     
   14    6    7 1     
   15    7    8 2     
   16    7   27 1     
   17    8    9 1     
   18    9   15 1     
   19    9   10 2     
   20   10   11 1     
   21   11   12 2     
   22   12   13 1     
   23   12   28 1     
   24   13   14 1     
   25   13   29 1     
   26   14   15 1     
   27   14   30 1     
   28   14   31 1     
   29   15   22 1     
   30   15   16 1     
   31   16   32 1     
   32   17   18 1     
   33   17   33 1     
   34   17   34 1     
   35   18   23 1     
   36   18   19 1     
   37   19   35 1     
   38    1   36 1     
   39    1   37 1     
   40    4   38 1     
   41    4   39 1     
   42    8   40 1     
   43   11   41 1     
   44   16   42 1     
   45   16   43 1     
   46   19   44 1     
   47   19   45 1     
@<TRIPOS>SUBSTRUCTURE
      1 S1             1
@<TRIPOS>SET
LONE_PAIRS      STATIC     ATOMS    <user>   **** ""
10 36 37 38 39 40 41 42 43 44 45
DONOR_HYDROGENS      STATIC     ATOMS    <user>   **** ""
4 24 29 32 35
ATOM$BLUE        STATIC     ATOMS    COLORGROUP SYSTEM
10 36 37 38 39 40 41 42 43 44 45
ATOM$RED        STATIC     ATOMS    COLORGROUP SYSTEM
4 24 29 32 35
