AV-unprocessed.smi:2330|AV-procd|sdf|9311|dock1
  -GOLD-   2272012533D 1   1.00000     0.00000
 Structure written by MMmdl.
 42 43  0  0  0  0  0  0  0  0  1 V2000
  153.3993  142.5371  161.2648 C   0  0  0  0  0  0  0  0  0  0  0  0
  152.3292  142.6490  160.1698 C   0  0  2  0  0  0  0  0  0  0  0  0
  152.0892  141.2949  159.4750 C   0  0  0  0  0  0  0  0  0  0  0  0
  151.0189  141.4027  158.3764 C   0  0  0  0  0  0  0  0  0  0  0  0
  151.3741  142.4900  157.3446 C   0  0  1  0  0  0  0  0  0  0  0  0
  150.2932  142.6307  156.3740 N   0  0  0  0  0  0  0  0  0  0  0  0
  149.7784  141.6432  155.6288 C   0  0  0  0  0  0  0  0  0  0  0  0
  150.1488  140.4703  155.6757 O   0  0  0  0  0  0  0  0  0  0  0  0
  148.8207  142.0947  154.8082 N   0  0  0  0  0  0  0  0  0  0  0  0
  148.1310  141.2928  153.8018 C   0  0  0  0  0  0  0  0  0  0  0  0
  147.3720  140.0933  154.4116 C   0  0  1  0  0  0  0  0  0  0  0  0
  146.3480  140.5114  155.4762 C   0  0  0  0  0  0  0  0  0  0  0  0
  146.7760  139.1854  153.3779 C   0  0  0  0  0  0  0  0  0  0  0  0
  146.7053  139.4857  152.0770 N   0  0  0  0  0  0  0  0  0  0  0  0
  146.1305  138.4611  151.3213 C   0  0  0  0  0  0  0  0  0  0  0  0
  145.7641  137.3700  152.0674 C   0  0  0  0  0  0  0  0  0  0  0  0
  146.1284  137.5914  153.7565 S   0  0  0  0  0  0  0  0  0  0  0  0
  151.6227  143.8425  158.0365 C   0  0  0  0  0  0  0  0  0  0  0  0
  152.6959  143.7256  159.1306 C   0  0  0  0  0  0  0  0  0  0  0  0
  154.3603  142.2308  160.8503 H   0  0  0  0  0  0  0  0  0  0  0  0
  153.1130  141.8043  162.0198 H   0  0  0  0  0  0  0  0  0  0  0  0
  153.5440  143.4918  161.7714 H   0  0  0  0  0  0  0  0  0  0  0  0
  151.3978  142.9501  160.6517 H   0  0  0  0  0  0  0  0  0  0  0  0
  153.0213  140.9342  159.0375 H   0  0  0  0  0  0  0  0  0  0  0  0
  151.7841  140.5478  160.2084 H   0  0  0  0  0  0  0  0  0  0  0  0
  150.9055  140.4384  157.8794 H   0  0  0  0  0  0  0  0  0  0  0  0
  150.0550  141.6290  158.8347 H   0  0  0  0  0  0  0  0  0  0  0  0
  152.2960  142.1988  156.8375 H   0  0  0  0  0  0  0  0  0  0  0  0
  149.9158  143.5588  156.2515 H   0  0  0  0  0  0  0  0  0  0  0  0
  148.5838  143.0752  154.8470 H   0  0  0  0  0  0  0  0  0  0  0  0
  147.4552  141.9193  153.2170 H   0  0  0  0  0  0  0  0  0  0  0  0
  148.8893  140.9283  153.1083 H   0  0  0  0  0  0  0  0  0  0  0  0
  148.1168  139.4947  154.9376 H   0  0  0  0  0  0  0  0  0  0  0  0
  145.9053  139.6392  155.9583 H   0  0  0  0  0  0  0  0  0  0  0  0
  145.5389  141.0977  155.0396 H   0  0  0  0  0  0  0  0  0  0  0  0
  146.8149  141.1170  156.2533 H   0  0  0  0  0  0  0  0  0  0  0  0
  146.0215  138.5920  150.2550 H   0  0  0  0  0  0  0  0  0  0  0  0
  145.3048  136.4536  151.7277 H   0  0  0  0  0  0  0  0  0  0  0  0
  151.9288  144.5870  157.3005 H   0  0  0  0  0  0  0  0  0  0  0  0
  150.6955  144.2092  158.4795 H   0  0  0  0  0  0  0  0  0  0  0  0
  152.8219  144.6914  159.6210 H   0  0  0  0  0  0  0  0  0  0  0  0
  153.6563  143.4851  158.6726 H   0  0  0  0  0  0  0  0  0  0  0  0
  1  2  1  0  0  0  0
  1 20  1  0  0  0  0
  1 21  1  0  0  0  0
  1 22  1  0  0  0  0
  2 19  1  0  0  0  0
  2  3  1  0  0  0  0
  2 23  1  0  0  0  0
  3  4  1  0  0  0  0
  3 24  1  0  0  0  0
  3 25  1  0  0  0  0
  4  5  1  0  0  0  0
  4 26  1  0  0  0  0
  4 27  1  0  0  0  0
  5  6  1  0  0  0  0
  5 18  1  0  0  0  0
  5 28  1  0  0  0  0
  6  7  1  0  0  0  0
  6 29  1  0  0  0  0
  7  8  2  0  0  0  0
  7  9  1  0  0  0  0
  9 10  1  0  0  0  0
  9 30  1  0  0  0  0
 10 11  1  0  0  0  0
 10 31  1  0  0  0  0
 10 32  1  0  0  0  0
 11 12  1  0  0  0  0
 11 13  1  0  0  0  0
 11 33  1  0  0  0  0
 12 34  1  0  0  0  0
 12 35  1  0  0  0  0
 12 36  1  0  0  0  0
 13 17  1  0  0  0  0
 13 14  2  0  0  0  0
 14 15  1  0  0  0  0
 15 16  2  0  0  0  0
 15 37  1  0  0  0  0
 16 17  1  0  0  0  0
 16 38  1  0  0  0  0
 18 19  1  0  0  0  0
 18 39  1  0  0  0  0
 18 40  1  0  0  0  0
 19 41  1  0  0  0  0
 19 42  1  0  0  0  0
M  END
> <s_m_source_file>
AV-unprocessed.smi

> <i_m_source_file_index>
2330

> <i_lp_mmshare_version>
43012

> <i_f3d_flags>
0

> <s_epik_input>
W0NIM11bQ0BASF0xW0NIMl1bQ0gyXVtDQEhdKFtDSDJdW0NIMl0xKVtOSF1DKD1PKVtOSF1bQ0gyXVtDQEhdKFtDSDNdKWMybltjSF1bY0hdczI=

> <s_epik_cmdline>
J2VwaWtfcHl0aG9uJywgJy1waCcsICc3LjAnLCAnLXRuJywgJzgnLCAnLW1hJywgJzIwMCcsICctbWV0YWxfYmluZGluZycsICctaW1hZScsICc8aW5maWxlLm1hZT4nLCAnLW9tYWUnLCAnPG91dGZpbGUubWFlPic=

> <r_lp_tautomer_probability>
1

> <r_epik_Ionization_Penalty>
0.000331107

> <r_epik_Ionization_Penalty_Charging>
0

> <r_epik_Ionization_Penalty_Neutral>
0.000331107

> <r_epik_State_Penalty>
-0

> <r_epik_Charging_Adjusted_Penalty>
0

> <i_epik_Tot_Q>
0

> <i_epik_Tot_abs_Q>
0

> <r_epik_Metal_State_Penalty>
-0

> <b_epik_Metal_Only>
0

> <s_lp_Force_Field>
OPLS_2005

> <r_lp_Energy>
-1.29202

> <b_lp_Chiralities_Consistent>
1

> <s_lp_Variant>
AV-unprocessed.smi:2330-2

> <Gold.Version>
5.8.1

> <Gold.Id.Protein>
6NUR|6NUR_protein|mol2

> <Gold.PLP.Fitness>
44.9444

> <Gold.PLP.PLP>
-37.5824

> <Gold.PLP.part.hbond>
-2.0000

> <Gold.PLP.part.metal>
0.0000

> <Gold.PLP.part.buried>
-2.3416

> <Gold.PLP.part.nonpolar>
-34.2148

> <Gold.PLP.part.repulsive>
1.6651

> <Gold.PLP.ligand.clash>
0.0000

> <Gold.PLP.ligand.torsion>
0.1511

> <Gold.PLP.Chemscore.Hbond>
1.9760

> <Gold.PLP.Chemscore.CHOScore>
0.5365

> <Gold.PLP.Chemscore.Metal>
0.0000

> <Gold.Chemscore.Hbonds>
donor molecule, donor type, donor heavy atom, donor atom, acceptor molecule, acceptor atom, score
      L1  H     6    29       P1  8028  1.00
      L1  H     9    30       P1  8028  0.98
      L1  C    15    37       P1 10171  0.57

> <Gold.PLP.Chemscore.Internal.Correction>
0.1269

> <Gold.Rescore>
     Score         DG    S(hbond)    S(metal)    S(lipo)     H(rot)  DE(clash)    DE(int)     intcor
     19.15     -21.18       1.91        0.00     111.41       1.45       0.94       1.08       ----

> <Gold.Chemscore.Fitness>
19.1487

> <Gold.Chemscore.DG>
-21.1761

> <Gold.Chemscore.ZeroCoef>
-5.4800

> <Gold.Chemscore.Hbond>
1.9107

> <Gold.Chemscore.Metal>
0.0000

> <Gold.Chemscore.Lipo>
111.4131

> <Gold.Chemscore.Internal_Hbond>
0.0000

> <Gold.Chemscore.DEClash>
0.9445

> <Gold.Chemscore.DEInternal>
1.0828

> <Gold.Chemscore.Rot>
1.4536

> <Gold.Chemscore.Internal.Correction>
   9.000000E+99

> <Gold.Chemscore.Hbonds>
donor molecule, donor type, donor heavy atom, donor atom, acceptor molecule, acceptor atom, score
      L1  H     6    29       P1  8028  0.99
      L1  H     9    30       P1  8028  0.92

> <Gold.Chemscore.Hbond.Weighted>
-6.3819

> <Gold.Chemscore.Metal.Weighted>
-0.0000

> <Gold.Chemscore.Lipo.Weighted>
-13.0353

> <Gold.Chemscore.Internal_Hbond.Weighted>
0.0000

> <Gold.Chemscore.DEClash.Weighted>
0.9445

> <Gold.Chemscore.DEInternal.Weighted>
1.0828

> <Gold.Chemscore.Rot.Weighted>
3.7212

> <Gold.Chemscore.Internal.Correction.Weighted>
   9.000000E+99

> <Gold.Protein.RotatedTorsions>
[ 6907 6896 6895 6894 ] final  103.09 input  -60.11 | X-H torsion
[ 7974 7965 7964 7962 ] final  119.36 input  175.53 | X-H torsion
[ 8008 7997 7996 7995 ] final   69.19 input   59.86 | X-H torsion
[ 10167 10162 10161 10158 ] final -106.38 input  -65.29 | X-H torsion
[ 10718 10713 10712 10709 ] final  111.23 input   66.30 | X-H torsion
[ 10763 10752 10751 10750 ] final -126.80 input  -60.55 | X-H torsion
[ 11005 11000 10999 10996 ] final    6.69 input  -57.11 | X-H torsion

> <Gold.Protein.ActiveResidues>
 VAL166  LYS551  ARG553  GLY616  TRP617  ASP618  TYR619  PRO620  LYS621  CYS622 
 ASP623  PHE694  ASN695  SER759  ASP760  ASP761  ALA762  ILE779  LEU786  VAL792 
 PHE793  MET794  SER795  GLU796  ALA797  LYS798  CYS799  TRP800  GLU811  SER814 

> <Gold.Protein.RotatedAtoms>
  152.5305  133.9878  159.7836 H   0  0  0  0  0  0  0  0  0  0  0  0  # atno 6907 bound_to 6896
  151.0119  133.5949  159.2688 H   0  0  0  0  0  0  0  0  0  0  0  0  # atno 6908 bound_to 6896
  151.3020  135.0778  159.9295 H   0  0  0  0  0  0  0  0  0  0  0  0  # atno 6909 bound_to 6896
  145.1440  139.3250  143.4601 H   0  0  0  0  0  0  0  0  0  0  0  0  # atno 7974 bound_to 7965
  155.7199  140.3493  155.5011 H   0  0  0  0  0  0  0  0  0  0  0  0  # atno 8008 bound_to 7997
  155.9279  140.1079  157.1177 H   0  0  0  0  0  0  0  0  0  0  0  0  # atno 8009 bound_to 7997
  154.4080  140.1237  156.4751 H   0  0  0  0  0  0  0  0  0  0  0  0  # atno 8010 bound_to 7997
  140.1883  143.3912  152.1226 H   0  0  0  0  0  0  0  0  0  0  0  0  # atno 10167 bound_to 10162
  157.6455  131.0947  150.6718 H   0  0  0  0  0  0  0  0  0  0  0  0  # atno 10718 bound_to 10713
  154.8748  135.3983  154.3490 H   0  0  0  0  0  0  0  0  0  0  0  0  # atno 10763 bound_to 10752
  153.4278  135.7024  153.6256 H   0  0  0  0  0  0  0  0  0  0  0  0  # atno 10764 bound_to 10752
  153.4891  135.3752  155.2452 H   0  0  0  0  0  0  0  0  0  0  0  0  # atno 10765 bound_to 10752
  140.5566  134.0232  155.7956 H   0  0  0  0  0  0  0  0  0  0  0  0  # atno 11005 bound_to 11000
  146.3502  140.1488  142.8593 LP  0  0  0  0  0  0  0  0  0  0  0  0  # atno 17320 bound_to 7965
  145.0501  140.9011  143.5000 LP  0  0  0  0  0  0  0  0  0  0  0  0  # atno 17321 bound_to 7965
  139.5266  144.7110  151.5206 LP  0  0  0  0  0  0  0  0  0  0  0  0  # atno 17342 bound_to 10162
  140.6473  143.8769  150.6750 LP  0  0  0  0  0  0  0  0  0  0  0  0  # atno 17343 bound_to 10162
  156.7035  130.4630  149.5566 LP  0  0  0  0  0  0  0  0  0  0  0  0  # atno 17370 bound_to 10713
  156.1779  130.6479  151.0916 LP  0  0  0  0  0  0  0  0  0  0  0  0  # atno 17371 bound_to 10713
  141.1139  133.9571  157.2858 LP  0  0  0  0  0  0  0  0  0  0  0  0  # atno 17394 bound_to 11000
  139.9428  135.0188  156.8761 LP  0  0  0  0  0  0  0  0  0  0  0  0  # atno 17395 bound_to 11000

$$$$
