AV-unprocessed.smi:910|AV-procd|sdf|4129|dock8
  -GOLD-   22720 2 33D 1   1.00000     0.00000
 Structure written by MMmdl.
 47 48  0  0  0  0  0  0  0  0  2 V2000
  144.8456  134.8679  151.0668 C   0  0  0  0  0  0  0  0  0  0  0  0
  145.2971  136.0758  151.8256 C   0  0  0  0  0  0  0  0  0  0  0  0
  146.5671  136.5852  151.9529 N   0  3  0  0  0  0  0  0  0  0  0  0
  146.5398  137.6771  152.7182 C   0  0  0  0  0  0  0  0  0  0  0  0
  147.6403  138.4899  153.0898 N   0  0  0  0  0  0  0  0  0  0  0  0
  147.7746  139.2040  154.2196 C   0  0  0  0  0  0  0  0  0  0  0  0
  146.9432  139.2507  155.1270 O   0  0  0  0  0  0  0  0  0  0  0  0
  148.9332  139.8780  154.2402 N   0  0  0  0  0  0  0  0  0  0  0  0
  149.3520  140.7958  155.2949 C   0  0  0  0  0  0  0  0  0  0  0  0
  150.5803  140.2664  156.0494 C   0  0  0  0  0  0  0  0  0  0  0  0
  151.0343  141.2785  156.9355 O   0  0  0  0  0  0  0  0  0  0  0  0
  150.3117  141.3711  158.1580 C   0  0  1  0  0  0  0  0  0  0  0  0
  150.1422  139.9753  158.7937 C   0  0  0  0  0  0  0  0  0  0  0  0
  151.4942  139.3708  159.2063 C   0  0  0  0  0  0  0  0  0  0  0  0
  152.2630  140.3146  160.1435 C   0  0  0  0  0  0  0  0  0  0  0  0
  152.4390  141.7068  159.5159 C   0  0  0  0  0  0  0  0  0  0  0  0
  151.0842  142.3173  159.1038 C   0  0  1  0  0  0  0  0  0  0  0  0
  151.2479  143.7227  158.5031 C   0  0  0  0  0  0  0  0  0  0  0  0
  145.2694  137.9359  153.1247 O   0  0  0  0  0  0  0  0  0  0  0  0
  144.5077  136.9302  152.5635 C   0  0  0  0  0  0  0  0  0  0  0  0
  143.0423  136.9495  152.8407 C   0  0  0  0  0  0  0  0  0  0  0  0
  144.5517  134.0662  151.7445 H   0  0  0  0  0  0  0  0  0  0  0  0
  145.6383  134.4839  150.4245 H   0  0  0  0  0  0  0  0  0  0  0  0
  143.9889  135.0969  150.4326 H   0  0  0  0  0  0  0  0  0  0  0  0
  147.3793  136.1666  151.5161 H   0  0  0  0  0  0  0  0  0  0  0  0
  149.5589  139.7826  153.4533 H   0  0  0  0  0  0  0  0  0  0  0  0
  149.5605  141.7804  154.8734 H   0  0  0  0  0  0  0  0  0  0  0  0
  148.5200  140.9231  155.9877 H   0  0  0  0  0  0  0  0  0  0  0  0
  150.3219  139.3622  156.6023 H   0  0  0  0  0  0  0  0  0  0  0  0
  151.3630  140.0004  155.3393 H   0  0  0  0  0  0  0  0  0  0  0  0
  149.3276  141.8055  157.9732 H   0  0  0  0  0  0  0  0  0  0  0  0
  149.5056  140.0597  159.6754 H   0  0  0  0  0  0  0  0  0  0  0  0
  149.6232  139.2994  158.1148 H   0  0  0  0  0  0  0  0  0  0  0  0
  151.3367  138.4095  159.6960 H   0  0  0  0  0  0  0  0  0  0  0  0
  152.0929  139.1693  158.3173 H   0  0  0  0  0  0  0  0  0  0  0  0
  151.7267  140.4059  161.0890 H   0  0  0  0  0  0  0  0  0  0  0  0
  153.2379  139.8883  160.3816 H   0  0  0  0  0  0  0  0  0  0  0  0
  152.9431  142.3637  160.2254 H   0  0  0  0  0  0  0  0  0  0  0  0
  153.0936  141.6343  158.6465 H   0  0  0  0  0  0  0  0  0  0  0  0
  150.4882  142.4285  160.0108 H   0  0  0  0  0  0  0  0  0  0  0  0
  151.8568  143.7030  157.5986 H   0  0  0  0  0  0  0  0  0  0  0  0
  151.7292  144.3971  159.2116 H   0  0  0  0  0  0  0  0  0  0  0  0
  150.2805  144.1536  158.2436 H   0  0  0  0  0  0  0  0  0  0  0  0
  142.4933  137.3446  151.9860 H   0  0  0  0  0  0  0  0  0  0  0  0
  142.8147  137.5720  153.7063 H   0  0  0  0  0  0  0  0  0  0  0  0
  142.6732  135.9441  153.0439 H   0  0  0  0  0  0  0  0  0  0  0  0
  148.3962  138.5414  152.4230 H   0  0  0  0  0  0  0  0  0  0  0  0
  1 22  1  0  0  0  0
  1 23  1  0  0  0  0
  1 24  1  0  0  0  0
  1  2  1  0  0  0  0
  2  3  1  0  0  0  0
  2 20  2  0  0  0  0
  3 25  1  0  0  0  0
  3  4  2  0  0  0  0
  4 19  1  0  0  0  0
  4  5  1  0  0  0  0
  5  6  1  0  0  0  0
  5 47  1  0  0  0  0
  6  8  1  0  0  0  0
  6  7  2  0  0  0  0
  8  9  1  0  0  0  0
  8 26  1  0  0  0  0
  9 10  1  0  0  0  0
  9 27  1  0  0  0  0
  9 28  1  0  0  0  0
 10 11  1  0  0  0  0
 10 29  1  0  0  0  0
 10 30  1  0  0  0  0
 11 12  1  0  0  0  0
 12 17  1  0  0  0  0
 12 13  1  0  0  0  0
 12 31  1  0  0  0  0
 13 14  1  0  0  0  0
 13 32  1  0  0  0  0
 13 33  1  0  0  0  0
 14 15  1  0  0  0  0
 14 34  1  0  0  0  0
 14 35  1  0  0  0  0
 15 16  1  0  0  0  0
 15 36  1  0  0  0  0
 15 37  1  0  0  0  0
 16 17  1  0  0  0  0
 16 38  1  0  0  0  0
 16 39  1  0  0  0  0
 17 18  1  0  0  0  0
 17 40  1  0  0  0  0
 18 41  1  0  0  0  0
 18 42  1  0  0  0  0
 18 43  1  0  0  0  0
 19 20  1  0  0  0  0
 20 21  1  0  0  0  0
 21 44  1  0  0  0  0
 21 45  1  0  0  0  0
 21 46  1  0  0  0  0
M  CHG  1   3   1
M  END
> <s_m_source_file>
AV-unprocessed.smi

> <i_m_source_file_index>
910

> <i_lp_mmshare_version>
43012

> <i_f3d_flags>
0

> <s_epik_input>
W0NIM11jMW5jKG9jMVtDSDNdKVtOSF1DKD1PKVtOSF1bQ0gyXVtDSDJdT1tDQEBIXTJbQ0gyXVtDSDJdW0NIMl1bQ0gyXVtDQEhdMltDSDNd

> <s_epik_cmdline>
J2VwaWtfcHl0aG9uJywgJy1waCcsICc3LjAnLCAnLXRuJywgJzgnLCAnLW1hJywgJzIwMCcsICctbWV0YWxfYmluZGluZycsICctaW1hZScsICc8aW5maWxlLm1hZT4nLCAnLW9tYWUnLCAnPG91dGZpbGUubWFlPic=

> <r_epik_Ionization_Penalty>
7.32931

> <r_epik_Ionization_Penalty_Charging>
7.12214

> <r_epik_Ionization_Penalty_Neutral>
0.207166

> <r_epik_State_Penalty>
2.61278

> <r_epik_Charging_Adjusted_Penalty>
9.73492

> <i_epik_Tot_Q>
1

> <i_epik_Tot_abs_Q>
1

> <r_epik_Metal_State_Penalty>
2.64585

> <b_epik_Metal_Only>
0

> <s_lp_Force_Field>
OPLS_2005

> <r_lp_Energy>
17.2334

> <b_lp_Chiralities_Consistent>
1

> <s_lp_Variant>
AV-unprocessed.smi:910-14

> <Gold.Version>
5.8.1

> <Gold.Id.Protein>
6NUR|6NUR_protein|mol2

> <Gold.PLP.Fitness>
46.0189

> <Gold.PLP.PLP>
-36.7272

> <Gold.PLP.part.hbond>
-3.3752

> <Gold.PLP.part.metal>
0.0000

> <Gold.PLP.part.buried>
-3.7980

> <Gold.PLP.part.nonpolar>
-32.2563

> <Gold.PLP.part.repulsive>
2.4689

> <Gold.PLP.ligand.clash>
0.0000

> <Gold.PLP.ligand.torsion>
0.3796

> <Gold.PLP.Chemscore.Hbond>
3.3360

> <Gold.PLP.Chemscore.CHOScore>
0.0000

> <Gold.PLP.Chemscore.Metal>
0.0000

> <Gold.Chemscore.Hbonds>
donor molecule, donor type, donor heavy atom, donor atom, acceptor molecule, acceptor atom, score
      L1  H     3    25       P1  7948  1.38
      L1  H     5    47       P1  7957  0.32
      L1  H     8    26       P1  7957  0.26

> <Gold.PLP.Chemscore.Internal.Correction>
0.0429

> <Gold.Rescore>
     Score         DG    S(hbond)    S(metal)    S(lipo)     H(rot)  DE(clash)    DE(int)     intcor
     16.94     -19.72       2.72        0.00      81.26       1.69       1.10       1.69       ----

> <Gold.Chemscore.Fitness>
16.9390

> <Gold.Chemscore.DG>
-19.7241

> <Gold.Chemscore.ZeroCoef>
-5.4800

> <Gold.Chemscore.Hbond>
2.7173

> <Gold.Chemscore.Metal>
0.0000

> <Gold.Chemscore.Lipo>
81.2607

> <Gold.Chemscore.Internal_Hbond>
0.0000

> <Gold.Chemscore.DEClash>
1.0964

> <Gold.Chemscore.DEInternal>
1.6887

> <Gold.Chemscore.Rot>
1.6949

> <Gold.Chemscore.Internal.Correction>
   9.000000E+99

> <Gold.Chemscore.Hbonds>
donor molecule, donor type, donor heavy atom, donor atom, acceptor molecule, acceptor atom, score
      L1  H     3    25       P1  7948  0.66
      L1  H     5    47       P1  7957  0.30
      L1  H     8    26       P1  7957  0.25

> <Gold.Chemscore.Hbond.Weighted>
-9.0756

> <Gold.Chemscore.Metal.Weighted>
-0.0000

> <Gold.Chemscore.Lipo.Weighted>
-9.5075

> <Gold.Chemscore.Internal_Hbond.Weighted>
0.0000

> <Gold.Chemscore.DEClash.Weighted>
1.0964

> <Gold.Chemscore.DEInternal.Weighted>
1.6887

> <Gold.Chemscore.Rot.Weighted>
4.3390

> <Gold.Chemscore.Internal.Correction.Weighted>
   9.000000E+99

> <Gold.Protein.RotatedTorsions>
[ 6907 6896 6895 6894 ] final  135.80 input  -60.11 | X-H torsion
[ 7974 7965 7964 7962 ] final -164.44 input  175.53 | X-H torsion
[ 8008 7997 7996 7995 ] final -119.38 input   59.86 | X-H torsion
[ 10167 10162 10161 10158 ] final   32.55 input  -65.29 | X-H torsion
[ 10718 10713 10712 10709 ] final   63.16 input   66.30 | X-H torsion
[ 10763 10752 10751 10750 ] final   84.92 input  -60.55 | X-H torsion
[ 11005 11000 10999 10996 ] final  174.62 input  -57.11 | X-H torsion

> <Gold.Protein.ActiveResidues>
 VAL166  LYS551  ARG553  GLY616  TRP617  ASP618  TYR619  PRO620  LYS621  CYS622 
 ASP623  PHE694  ASN695  SER759  ASP760  ASP761  ALA762  ILE779  LEU786  VAL792 
 PHE793  MET794  SER795  GLU796  ALA797  LYS798  CYS799  TRP800  GLU811  SER814 

> <Gold.Protein.RotatedAtoms>
  152.2964  133.5612  159.5590 H   0  0  0  0  0  0  0  0  0  0  0  0  # atno 6907 bound_to 6896
  150.7258  134.0354  159.3756 H   0  0  0  0  0  0  0  0  0  0  0  0  # atno 6908 bound_to 6896
  151.8257  135.0638  160.0481 H   0  0  0  0  0  0  0  0  0  0  0  0  # atno 6909 bound_to 6896
  144.7297  140.2960  143.6212 H   0  0  0  0  0  0  0  0  0  0  0  0  # atno 7974 bound_to 7965
  155.1148  140.0398  157.2734 H   0  0  0  0  0  0  0  0  0  0  0  0  # atno 8008 bound_to 7997
  154.6658  140.2601  155.7034 H   0  0  0  0  0  0  0  0  0  0  0  0  # atno 8009 bound_to 7997
  156.2638  140.2808  156.1147 H   0  0  0  0  0  0  0  0  0  0  0  0  # atno 8010 bound_to 7997
  140.4489  144.1078  150.6188 H   0  0  0  0  0  0  0  0  0  0  0  0  # atno 10167 bound_to 10162
  157.5951  130.9090  149.9680 H   0  0  0  0  0  0  0  0  0  0  0  0  # atno 10718 bound_to 10713
  153.1426  135.4636  154.9519 H   0  0  0  0  0  0  0  0  0  0  0  0  # atno 10763 bound_to 10752
  154.7760  135.3173  154.8094 H   0  0  0  0  0  0  0  0  0  0  0  0  # atno 10764 bound_to 10752
  153.8614  135.6912  153.4836 H   0  0  0  0  0  0  0  0  0  0  0  0  # atno 10765 bound_to 10752
  140.3533  134.7176  157.4283 H   0  0  0  0  0  0  0  0  0  0  0  0  # atno 11005 bound_to 11000
  145.7808  139.1890  143.2159 LP  0  0  0  0  0  0  0  0  0  0  0  0  # atno 17320 bound_to 7965
  146.0835  140.7737  142.9630 LP  0  0  0  0  0  0  0  0  0  0  0  0  # atno 17321 bound_to 7965
  140.4231  143.2602  151.9690 LP  0  0  0  0  0  0  0  0  0  0  0  0  # atno 17342 bound_to 10162
  139.4795  144.5813  151.7928 LP  0  0  0  0  0  0  0  0  0  0  0  0  # atno 17343 bound_to 10162
  156.1013  130.3655  150.0214 LP  0  0  0  0  0  0  0  0  0  0  0  0  # atno 17370 bound_to 10713
  156.8328  130.9398  151.3636 LP  0  0  0  0  0  0  0  0  0  0  0  0  # atno 17371 bound_to 10713
  140.0685  134.5896  155.8668 LP  0  0  0  0  0  0  0  0  0  0  0  0  # atno 17394 bound_to 11000
  141.2005  133.6613  156.5903 LP  0  0  0  0  0  0  0  0  0  0  0  0  # atno 17395 bound_to 11000

$$$$
