AV-unprocessed.smi:2749|AV-procd|sdf|10587|dock6
  -GOLD-   2272015 33D 1   1.00000     0.00000
 Structure written by MMmdl.
 32 34  0  0  0  0  0  0  0  0  1 V2000
  150.4402  140.5048  158.0731 O   0  0  0  0  0  0  0  0  0  0  0  0
  150.2128  141.6474  157.6794 C   0  0  0  0  0  0  0  0  0  0  0  0
  150.6608  142.7238  158.3600 N   0  0  0  0  0  0  0  0  0  0  0  0
  151.4119  142.8239  159.5680 C   0  0  0  0  0  0  0  0  0  0  0  0
  152.3284  141.7684  159.7794 C   0  0  0  0  0  0  0  0  0  0  0  0
  153.1157  141.7531  160.9473 C   0  0  0  0  0  0  0  0  0  0  0  0
  152.9613  142.7941  161.8795 C   0  0  0  0  0  0  0  0  0  0  0  0
  153.6951  142.8224  163.0171 F   0  0  0  0  0  0  0  0  0  0  0  0
  152.0236  143.8047  161.5998 C   0  0  0  0  0  0  0  0  0  0  0  0
  151.2700  143.8203  160.4798 N   0  0  0  0  0  0  0  0  0  0  0  0
  149.5234  141.9042  156.5568 N   0  0  0  0  0  0  0  0  0  0  0  0
  148.9164  140.8994  155.6901 C   0  0  2  0  0  0  0  0  0  0  0  0
  149.1529  141.2070  154.2088 C   0  0  0  0  0  0  0  0  0  0  0  0
  147.7194  141.3088  153.6708 C   0  0  2  0  0  0  0  0  0  0  0  0
  147.0193  142.5926  154.1390 C   0  0  0  0  0  0  0  0  0  0  0  0
  146.7356  142.2766  155.6064 C   0  0  0  0  0  0  0  0  0  0  0  0
  147.3749  140.8853  155.7560 C   0  0  1  0  0  0  0  0  0  0  0  0
  147.0718  140.3433  154.4814 O   0  0  0  0  0  0  0  0  0  0  0  0
  150.4803  143.6081  157.9077 H   0  0  0  0  0  0  0  0  0  0  0  0
  152.4324  140.9745  159.0536 H   0  0  0  0  0  0  0  0  0  0  0  0
  153.8235  140.9567  161.1236 H   0  0  0  0  0  0  0  0  0  0  0  0
  151.8733  144.6211  162.2905 H   0  0  0  0  0  0  0  0  0  0  0  0
  149.3811  142.8718  156.3032 H   0  0  0  0  0  0  0  0  0  0  0  0
  149.3126  139.9087  155.9207 H   0  0  0  0  0  0  0  0  0  0  0  0
  149.7234  142.1204  154.0332 H   0  0  0  0  0  0  0  0  0  0  0  0
  149.6837  140.3820  153.7322 H   0  0  0  0  0  0  0  0  0  0  0  0
  147.6364  141.1257  152.5992 H   0  0  0  0  0  0  0  0  0  0  0  0
  147.6464  143.4755  154.0102 H   0  0  0  0  0  0  0  0  0  0  0  0
  146.0878  142.7509  153.5948 H   0  0  0  0  0  0  0  0  0  0  0  0
  147.1420  143.0208  156.2916 H   0  0  0  0  0  0  0  0  0  0  0  0
  145.6601  142.2196  155.7778 H   0  0  0  0  0  0  0  0  0  0  0  0
  146.9762  140.3074  156.5901 H   0  0  0  0  0  0  0  0  0  0  0  0
  1  2  2  0  0  0  0
  2  3  1  0  0  0  0
  2 11  1  0  0  0  0
  3  4  1  0  0  0  0
  3 19  1  0  0  0  0
  4 10  1  0  0  0  0
  4  5  2  0  0  0  0
  5  6  1  0  0  0  0
  5 20  1  0  0  0  0
  6  7  2  0  0  0  0
  6 21  1  0  0  0  0
  7  8  1  0  0  0  0
  7  9  1  0  0  0  0
  9 10  2  0  0  0  0
  9 22  1  0  0  0  0
 11 12  1  0  0  0  0
 11 23  1  0  0  0  0
 12 17  1  0  0  0  0
 12 13  1  0  0  0  0
 12 24  1  0  0  0  0
 13 14  1  0  0  0  0
 13 25  1  0  0  0  0
 13 26  1  0  0  0  0
 14 18  1  0  0  0  0
 14 15  1  0  0  0  0
 14 27  1  0  0  0  0
 15 16  1  0  0  0  0
 15 28  1  0  0  0  0
 15 29  1  0  0  0  0
 16 17  1  0  0  0  0
 16 30  1  0  0  0  0
 16 31  1  0  0  0  0
 17 18  1  0  0  0  0
 17 32  1  0  0  0  0
M  END
> <s_m_source_file>
AV-unprocessed.smi

> <i_m_source_file_index>
2749

> <i_lp_mmshare_version>
43012

> <i_f3d_flags>
0

> <s_epik_input>
W0NIMl0xW0NIMl1bQ0BIXShPMilbQ0BASF0oW0NIMl1bQ0BASF0xMilbTkhdQyg9TylbTkhdYzNbY0hdW2NIXWMoRilbY0hdbjM=

> <s_epik_cmdline>
J2VwaWtfcHl0aG9uJywgJy1waCcsICc3LjAnLCAnLXRuJywgJzgnLCAnLW1hJywgJzIwMCcsICctbWV0YWxfYmluZGluZycsICctaW1hZScsICc8aW5maWxlLm1hZT4nLCAnLW9tYWUnLCAnPG91dGZpbGUubWFlPic=

> <r_lp_tautomer_probability>
1

> <r_epik_Ionization_Penalty>
3.37159e-05

> <r_epik_Ionization_Penalty_Charging>
0

> <r_epik_Ionization_Penalty_Neutral>
3.37159e-05

> <r_epik_State_Penalty>
-0

> <r_epik_Charging_Adjusted_Penalty>
0

> <i_epik_Tot_Q>
0

> <i_epik_Tot_abs_Q>
0

> <r_epik_Metal_State_Penalty>
-0

> <b_epik_Metal_Only>
0

> <s_lp_Force_Field>
OPLS_2005

> <r_lp_Energy>
40.3406

> <b_lp_Chiralities_Consistent>
1

> <s_lp_Variant>
AV-unprocessed.smi:2749-3

> <Gold.Version>
5.8.1

> <Gold.Id.Protein>
6NUR|6NUR_protein|mol2

> <Gold.PLP.Fitness>
37.6342

> <Gold.PLP.PLP>
-35.3941

> <Gold.PLP.part.hbond>
-1.0000

> <Gold.PLP.part.metal>
0.0000

> <Gold.PLP.part.buried>
-2.5854

> <Gold.PLP.part.nonpolar>
-31.0672

> <Gold.PLP.part.repulsive>
0.2997

> <Gold.PLP.ligand.clash>
0.0000

> <Gold.PLP.ligand.torsion>
0.3896

> <Gold.PLP.Chemscore.Hbond>
1.0000

> <Gold.PLP.Chemscore.CHOScore>
0.0000

> <Gold.PLP.Chemscore.Metal>
0.0000

> <Gold.Chemscore.Hbonds>
donor molecule, donor type, donor heavy atom, donor atom, acceptor molecule, acceptor atom, score
      L1  H    11    23       P1  8028  1.00

> <Gold.PLP.Chemscore.Internal.Correction>
0.0193

> <Gold.Rescore>
     Score         DG    S(hbond)    S(metal)    S(lipo)     H(rot)  DE(clash)    DE(int)     intcor
     13.76     -15.48       0.93        0.00      80.67       1.00       0.05       1.67       ----

> <Gold.Chemscore.Fitness>
13.7592

> <Gold.Chemscore.DG>
-15.4798

> <Gold.Chemscore.ZeroCoef>
-5.4800

> <Gold.Chemscore.Hbond>
0.9347

> <Gold.Chemscore.Metal>
0.0000

> <Gold.Chemscore.Lipo>
80.6672

> <Gold.Chemscore.Internal_Hbond>
0.0000

> <Gold.Chemscore.DEClash>
0.0532

> <Gold.Chemscore.DEInternal>
1.6675

> <Gold.Chemscore.Rot>
1.0000

> <Gold.Chemscore.Internal.Correction>
   9.000000E+99

> <Gold.Chemscore.Hbonds>
donor molecule, donor type, donor heavy atom, donor atom, acceptor molecule, acceptor atom, score
      L1  H    11    23       P1  8028  0.94

> <Gold.Chemscore.Hbond.Weighted>
-3.1218

> <Gold.Chemscore.Metal.Weighted>
-0.0000

> <Gold.Chemscore.Lipo.Weighted>
-9.4381

> <Gold.Chemscore.Internal_Hbond.Weighted>
0.0000

> <Gold.Chemscore.DEClash.Weighted>
0.0532

> <Gold.Chemscore.DEInternal.Weighted>
1.6675

> <Gold.Chemscore.Rot.Weighted>
2.5600

> <Gold.Chemscore.Internal.Correction.Weighted>
   9.000000E+99

> <Gold.Protein.RotatedTorsions>
[ 6907 6896 6895 6894 ] final   -8.57 input  -60.11 | X-H torsion
[ 7974 7965 7964 7962 ] final   -3.59 input  175.53 | X-H torsion
[ 8008 7997 7996 7995 ] final  136.30 input   59.86 | X-H torsion
[ 10167 10162 10161 10158 ] final   40.70 input  -65.29 | X-H torsion
[ 10718 10713 10712 10709 ] final  161.18 input   66.30 | X-H torsion
[ 10763 10752 10751 10750 ] final   -0.16 input  -60.55 | X-H torsion
[ 11005 11000 10999 10996 ] final  173.66 input  -57.11 | X-H torsion

> <Gold.Protein.ActiveResidues>
 VAL166  LYS551  ARG553  GLY616  TRP617  ASP618  TYR619  PRO620  LYS621  CYS622 
 ASP623  PHE694  ASN695  SER759  ASP760  ASP761  ALA762  ILE779  LEU786  VAL792 
 PHE793  MET794  SER795  GLU796  ALA797  LYS798  CYS799  TRP800  GLU811  SER814 

> <Gold.Protein.RotatedAtoms>
  151.4315  135.1010  159.9643 H   0  0  0  0  0  0  0  0  0  0  0  0  # atno 6907 bound_to 6896
  152.4954  133.8613  159.7262 H   0  0  0  0  0  0  0  0  0  0  0  0  # atno 6908 bound_to 6896
  150.9152  133.6890  159.2873 H   0  0  0  0  0  0  0  0  0  0  0  0  # atno 6909 bound_to 6896
  146.2387  140.1744  142.8332 H   0  0  0  0  0  0  0  0  0  0  0  0  # atno 7974 bound_to 7965
  156.3004  140.2448  156.3723 H   0  0  0  0  0  0  0  0  0  0  0  0  # atno 8008 bound_to 7997
  154.8778  140.0413  157.1783 H   0  0  0  0  0  0  0  0  0  0  0  0  # atno 8009 bound_to 7997
  154.8728  140.2937  155.5475 H   0  0  0  0  0  0  0  0  0  0  0  0  # atno 8010 bound_to 7997
  140.3716  144.2098  150.6133 H   0  0  0  0  0  0  0  0  0  0  0  0  # atno 10167 bound_to 10162
  157.1401  131.0538  151.2330 H   0  0  0  0  0  0  0  0  0  0  0  0  # atno 10718 bound_to 10713
  153.3283  135.6973  153.6970 H   0  0  0  0  0  0  0  0  0  0  0  0  # atno 10763 bound_to 10752
  153.5782  135.3503  155.2865 H   0  0  0  0  0  0  0  0  0  0  0  0  # atno 10764 bound_to 10752
  154.8613  135.4288  154.2465 H   0  0  0  0  0  0  0  0  0  0  0  0  # atno 10765 bound_to 10752
  140.3429  134.7261  157.4215 H   0  0  0  0  0  0  0  0  0  0  0  0  # atno 11005 bound_to 11000
  144.9985  140.8611  143.5296 LP  0  0  0  0  0  0  0  0  0  0  0  0  # atno 17320 bound_to 7965
  145.1760  139.2378  143.5317 LP  0  0  0  0  0  0  0  0  0  0  0  0  # atno 17321 bound_to 7965
  140.5028  143.2313  151.8653 LP  0  0  0  0  0  0  0  0  0  0  0  0  # atno 17342 bound_to 10162
  139.4803  144.5040  151.9022 LP  0  0  0  0  0  0  0  0  0  0  0  0  # atno 17343 bound_to 10162
  157.4314  130.7493  149.6993 LP  0  0  0  0  0  0  0  0  0  0  0  0  # atno 17370 bound_to 10713
  155.9790  130.4045  150.3613 LP  0  0  0  0  0  0  0  0  0  0  0  0  # atno 17371 bound_to 10713
  140.0766  134.5789  155.8585 LP  0  0  0  0  0  0  0  0  0  0  0  0  # atno 17394 bound_to 11000
  141.2033  133.6631  156.6058 LP  0  0  0  0  0  0  0  0  0  0  0  0  # atno 17395 bound_to 11000

$$$$
