AV-unprocessed.smi:1802|AV-procd|sdf|7277|dock4
  -GOLD-   22720 8533D 1   1.00000     0.00000
 Structure written by MMmdl.
 40 41  0  0  0  0  0  0  0  0  3 V2000
  147.1556  133.3646  151.9589 C   0  0  0  0  0  0  0  0  0  0  0  0
  145.8174  133.8101  152.5744 C   0  0  2  0  0  0  0  0  0  0  0  0
  144.7121  134.0122  151.5211 C   0  0  0  0  0  0  0  0  0  0  0  0
  144.9340  135.3028  150.7199 C   0  0  0  0  0  0  0  0  0  0  0  0
  145.1020  136.5119  151.6538 C   0  0  0  0  0  0  0  0  0  0  0  0
  146.2038  136.2901  152.6252 N   0  3  1  0  0  0  0  0  0  0  0  0
  146.4878  137.4983  153.4393 C   0  0  0  0  0  0  0  0  0  0  0  0
  146.8539  138.7143  152.5722 C   0  0  0  0  0  0  0  0  0  0  0  0
  147.0720  139.9790  153.4118 C   0  0  0  0  0  0  0  0  0  0  0  0
  148.4930  140.2031  153.6377 N   0  0  0  0  0  0  0  0  0  0  0  0
  149.0841  140.2529  154.8385 C   0  0  0  0  0  0  0  0  0  0  0  0
  148.4099  140.1094  155.8610 O   0  0  0  0  0  0  0  0  0  0  0  0
  150.4179  140.4658  154.7790 N   0  5  0  0  0  0  0  0  0  0  0  0
  151.1737  140.3048  155.8777 C   0  0  0  0  0  0  0  0  0  0  0  0
  152.3982  139.7560  155.8315 N   0  0  0  0  0  0  0  0  0  0  0  0
  153.0123  139.6854  157.0745 N   0  0  0  0  0  0  0  0  0  0  0  0
  152.2343  140.1934  158.0301 C   0  0  0  0  0  0  0  0  0  0  0  0
  150.6834  140.8075  157.4982 S   0  0  0  0  0  0  0  0  0  0  0  0
  145.9696  135.0723  153.4483 C   0  0  0  0  0  0  0  0  0  0  0  0
  147.5750  134.1242  151.2991 H   0  0  0  0  0  0  0  0  0  0  0  0
  147.0343  132.4505  151.3774 H   0  0  0  0  0  0  0  0  0  0  0  0
  147.8932  133.1612  152.7355 H   0  0  0  0  0  0  0  0  0  0  0  0
  145.4962  132.9977  153.2280 H   0  0  0  0  0  0  0  0  0  0  0  0
  144.6585  133.1537  150.8508 H   0  0  0  0  0  0  0  0  0  0  0  0
  143.7450  134.0678  152.0227 H   0  0  0  0  0  0  0  0  0  0  0  0
  145.8154  135.2015  150.0858 H   0  0  0  0  0  0  0  0  0  0  0  0
  144.0922  135.4693  150.0471 H   0  0  0  0  0  0  0  0  0  0  0  0
  145.3109  137.3974  151.0523 H   0  0  0  0  0  0  0  0  0  0  0  0
  144.1735  136.7063  152.1931 H   0  0  0  0  0  0  0  0  0  0  0  0
  145.6008  137.7586  154.0189 H   0  0  0  0  0  0  0  0  0  0  0  0
  147.2753  137.2836  154.1633 H   0  0  0  0  0  0  0  0  0  0  0  0
  147.7585  138.5153  151.9977 H   0  0  0  0  0  0  0  0  0  0  0  0
  146.0597  138.8940  151.8462 H   0  0  0  0  0  0  0  0  0  0  0  0
  146.6494  140.8484  152.9061 H   0  0  0  0  0  0  0  0  0  0  0  0
  146.5608  139.8811  154.3711 H   0  0  0  0  0  0  0  0  0  0  0  0
  149.0782  140.3265  152.8244 H   0  0  0  0  0  0  0  0  0  0  0  0
  152.5775  140.2099  159.0537 H   0  0  0  0  0  0  0  0  0  0  0  0
  145.0678  135.2168  154.0457 H   0  0  0  0  0  0  0  0  0  0  0  0
  146.7846  134.9225  154.1557 H   0  0  0  0  0  0  0  0  0  0  0  0
  147.0323  136.1184  152.0736 H   0  0  0  0  0  0  0  0  0  0  0  0
  1  2  1  0  0  0  0
  1 20  1  0  0  0  0
  1 21  1  0  0  0  0
  1 22  1  0  0  0  0
  2 19  1  0  0  0  0
  2  3  1  0  0  0  0
  2 23  1  0  0  0  0
  3  4  1  0  0  0  0
  3 24  1  0  0  0  0
  3 25  1  0  0  0  0
  4  5  1  0  0  0  0
  4 26  1  0  0  0  0
  4 27  1  0  0  0  0
  5  6  1  0  0  0  0
  5 28  1  0  0  0  0
  5 29  1  0  0  0  0
  6  7  1  0  0  0  0
  6 19  1  0  0  0  0
  6 40  1  0  0  0  0
  7  8  1  0  0  0  0
  7 30  1  0  0  0  0
  7 31  1  0  0  0  0
  8  9  1  0  0  0  0
  8 32  1  0  0  0  0
  8 33  1  0  0  0  0
  9 10  1  0  0  0  0
  9 34  1  0  0  0  0
  9 35  1  0  0  0  0
 10 11  1  0  0  0  0
 10 36  1  0  0  0  0
 11 12  2  0  0  0  0
 11 13  1  0  0  0  0
 13 14  1  0  0  0  0
 14 18  1  0  0  0  0
 14 15  2  0  0  0  0
 15 16  1  0  0  0  0
 16 17  2  0  0  0  0
 17 18  1  0  0  0  0
 17 37  1  0  0  0  0
 19 38  1  0  0  0  0
 19 39  1  0  0  0  0
M  CHG  1   6   1
M  CHG  1  13  -1
M  END
> <s_m_source_file>
AV-unprocessed.smi

> <i_m_source_file_index>
1802

> <i_lp_mmshare_version>
43012

> <i_f3d_flags>
0

> <s_epik_input>
W0NIM11bQ0BASF0xW0NIMl1bQ0gyXVtDSDJdTihbQ0gyXTEpW0NIMl1bQ0gyXVtDSDJdW05IXUMoPU8pW05IXWMybm5bY0hdczI=

> <s_epik_cmdline>
J2VwaWtfcHl0aG9uJywgJy1waCcsICc3LjAnLCAnLXRuJywgJzgnLCAnLW1hJywgJzIwMCcsICctbWV0YWxfYmluZGluZycsICctaW1hZScsICc8aW5maWxlLm1hZT4nLCAnLW9tYWUnLCAnPG91dGZpbGUubWFlPic=

> <r_lp_tautomer_probability>
1

> <r_epik_Ionization_Penalty>
3.29702

> <r_epik_Ionization_Penalty_Charging>
3.26059

> <r_epik_Ionization_Penalty_Neutral>
0.0364294

> <r_epik_State_Penalty>
3.25788

> <r_epik_Charging_Adjusted_Penalty>
6.51847

> <i_epik_Tot_Q>
0

> <i_epik_Tot_abs_Q>
2

> <r_epik_Metal_State_Penalty>
0.477639

> <b_epik_Metal_Only>
1

> <s_lp_Force_Field>
OPLS_2005

> <r_lp_Energy>
14.2366

> <b_lp_Chiralities_Consistent>
1

> <s_lp_Variant>
AV-unprocessed.smi:1802-7

> <Gold.Version>
5.8.1

> <Gold.Id.Protein>
6NUR|6NUR_protein|mol2

> <Gold.PLP.Fitness>
44.7561

> <Gold.PLP.PLP>
-30.9205

> <Gold.PLP.part.hbond>
-4.7638

> <Gold.PLP.part.metal>
0.0000

> <Gold.PLP.part.buried>
-3.5237

> <Gold.PLP.part.nonpolar>
-23.7272

> <Gold.PLP.part.repulsive>
0.2387

> <Gold.PLP.ligand.clash>
0.0000

> <Gold.PLP.ligand.torsion>
0.6164

> <Gold.PLP.Chemscore.Hbond>
5.0000

> <Gold.PLP.Chemscore.CHOScore>
0.0000

> <Gold.PLP.Chemscore.Metal>
0.0000

> <Gold.Chemscore.Hbonds>
donor molecule, donor type, donor heavy atom, donor atom, acceptor molecule, acceptor atom, score
      L1  H     6    40       P1  7948  2.00
      L1  H    10    36       P1  7957  1.00
      P1  H  7989  7998       L1    13  1.00
      P1  H  7997  8009       L1    16  0.98

> <Gold.PLP.Chemscore.Internal.Correction>
0.0685

> <Gold.Rescore>
     Score         DG    S(hbond)    S(metal)    S(lipo)     H(rot)  DE(clash)    DE(int)     intcor
     15.78     -17.93       3.24        0.00      56.38       1.94       0.24       1.90       ----

> <Gold.Chemscore.Fitness>
15.7840

> <Gold.Chemscore.DG>
-17.9322

> <Gold.Chemscore.ZeroCoef>
-5.4800

> <Gold.Chemscore.Hbond>
3.2387

> <Gold.Chemscore.Metal>
0.0000

> <Gold.Chemscore.Lipo>
56.3838

> <Gold.Chemscore.Internal_Hbond>
0.0000

> <Gold.Chemscore.DEClash>
0.2449

> <Gold.Chemscore.DEInternal>
1.9033

> <Gold.Chemscore.Rot>
1.9383

> <Gold.Chemscore.Internal.Correction>
   9.000000E+99

> <Gold.Chemscore.Hbonds>
donor molecule, donor type, donor heavy atom, donor atom, acceptor molecule, acceptor atom, score
      L1  H     6    40       P1  7948  0.95
      L1  H    10    36       P1  7957  0.99
      P1  H  7989  7998       L1    13  0.43
      P1  H  7997  8009       L1    16  0.67

> <Gold.Chemscore.Hbond.Weighted>
-10.8174

> <Gold.Chemscore.Metal.Weighted>
-0.0000

> <Gold.Chemscore.Lipo.Weighted>
-6.5969

> <Gold.Chemscore.Internal_Hbond.Weighted>
0.0000

> <Gold.Chemscore.DEClash.Weighted>
0.2449

> <Gold.Chemscore.DEInternal.Weighted>
1.9033

> <Gold.Chemscore.Rot.Weighted>
4.9620

> <Gold.Chemscore.Internal.Correction.Weighted>
   9.000000E+99

> <Gold.Protein.RotatedTorsions>
[ 6907 6896 6895 6894 ] final -116.51 input  -60.11 | X-H torsion
[ 7974 7965 7964 7962 ] final   87.36 input  175.53 | X-H torsion
[ 8008 7997 7996 7995 ] final  159.08 input   59.86 | X-H torsion
[ 10167 10162 10161 10158 ] final   14.43 input  -65.29 | X-H torsion
[ 10718 10713 10712 10709 ] final    7.06 input   66.30 | X-H torsion
[ 10763 10752 10751 10750 ] final  123.20 input  -60.55 | X-H torsion
[ 11005 11000 10999 10996 ] final  150.28 input  -57.11 | X-H torsion

> <Gold.Protein.ActiveResidues>
 VAL166  LYS551  ARG553  GLY616  TRP617  ASP618  TYR619  PRO620  LYS621  CYS622 
 ASP623  PHE694  ASN695  SER759  ASP760  ASP761  ALA762  ILE779  LEU786  VAL792 
 PHE793  MET794  SER795  GLU796  ALA797  LYS798  CYS799  TRP800  GLU811  SER814 

> <Gold.Protein.RotatedAtoms>
  150.8061  133.8507  159.3204 H   0  0  0  0  0  0  0  0  0  0  0  0  # atno 6907 bound_to 6896
  151.6306  135.1021  160.0130 H   0  0  0  0  0  0  0  0  0  0  0  0  # atno 6908 bound_to 6896
  152.4152  133.6987  159.6467 H   0  0  0  0  0  0  0  0  0  0  0  0  # atno 6909 bound_to 6896
  145.5601  139.2303  143.2464 H   0  0  0  0  0  0  0  0  0  0  0  0  # atno 7974 bound_to 7965
  156.2262  140.1841  156.7357 H   0  0  0  0  0  0  0  0  0  0  0  0  # atno 8008 bound_to 7997
  154.5945  140.0645  156.9312 H   0  0  0  0  0  0  0  0  0  0  0  0  # atno 8009 bound_to 7997
  155.2280  140.3312  155.4309 H   0  0  0  0  0  0  0  0  0  0  0  0  # atno 8010 bound_to 7997
  140.5936  143.8746  150.6897 H   0  0  0  0  0  0  0  0  0  0  0  0  # atno 10167 bound_to 10162
  156.9313  130.5827  149.5649 H   0  0  0  0  0  0  0  0  0  0  0  0  # atno 10718 bound_to 10713
  153.6418  135.3378  155.3074 H   0  0  0  0  0  0  0  0  0  0  0  0  # atno 10763 bound_to 10752
  154.8558  135.4320  154.1996 H   0  0  0  0  0  0  0  0  0  0  0  0  # atno 10764 bound_to 10752
  153.2917  135.7017  153.7361 H   0  0  0  0  0  0  0  0  0  0  0  0  # atno 10765 bound_to 10752
  140.1117  134.8920  157.1946 H   0  0  0  0  0  0  0  0  0  0  0  0  # atno 11005 bound_to 11000
  146.1857  140.6425  142.9168 LP  0  0  0  0  0  0  0  0  0  0  0  0  # atno 17320 bound_to 7965
  144.7487  140.5135  143.6817 LP  0  0  0  0  0  0  0  0  0  0  0  0  # atno 17321 bound_to 7965
  140.2275  143.3761  152.1593 LP  0  0  0  0  0  0  0  0  0  0  0  0  # atno 17342 bound_to 10162
  139.5243  144.7083  151.5287 LP  0  0  0  0  0  0  0  0  0  0  0  0  # atno 17343 bound_to 10162
  156.0446  130.5524  150.8850 LP  0  0  0  0  0  0  0  0  0  0  0  0  # atno 17370 bound_to 10713
  157.5845  131.0946  150.9219 LP  0  0  0  0  0  0  0  0  0  0  0  0  # atno 17371 bound_to 10713
  140.3082  134.3054  155.7273 LP  0  0  0  0  0  0  0  0  0  0  0  0  # atno 17394 bound_to 11000
  141.2132  133.7634  156.9738 LP  0  0  0  0  0  0  0  0  0  0  0  0  # atno 17395 bound_to 11000

$$$$
