#       Name:                AV-unprocessed.smi:2662
#       Creating user name   scv26
#       Creation time:       Fri Mar 27 14:33:44 2020


#       File generated by GOLD software.
#

@<TRIPOS>MOLECULE
AV-unprocessed.smi:2662
    41    43     1
SMALL
NO_CHARGES


@<TRIPOS>ATOM
      1 ****        -1.3746   3.3256  -0.7190 O.3            1 S1                 0.0000
      2 ****        -0.3863   2.3430  -0.9534 C.3            1 S1                 0.0000
      3 ****        -0.9331   0.9547  -1.1315 C.2            1 S1                 0.0000
      4 ****        -2.2412   0.6923  -1.1849 N.2            1 S1                 0.0000
      5 ****        -2.2737  -0.6765  -1.3602 C.ar           1 S1                 0.0000
      6 ****        -3.3690  -1.5603  -1.4869 C.ar           1 S1                 0.0000
      7 ****        -3.1533  -2.9428  -1.6631 C.ar           1 S1                 0.0000
      8 ****        -1.8426  -3.4597  -1.7164 C.ar           1 S1                 0.0000
      9 ****        -0.7376  -2.5959  -1.5912 C.ar           1 S1                 0.0000
     10 ****        -0.9586  -1.2171  -1.4133 C.ar           1 S1                 0.0000
     11 ****        -0.1150  -0.1223  -1.2522 N.pl3          1 S1                 0.0000
     12 ****         1.3414  -0.1651  -1.2242 C.3            1 S1                 0.0000
     13 ****         1.8868  -0.7393   0.0998 C.3            1 S1                 0.0000
     14 ****         3.2799  -0.9330  -0.0432 O.3            1 S1                 0.0000
     15 ****         1.5391   0.1326   1.3013 C.ar           1 S1                 0.0000
     16 ****         2.3187   1.2709   1.6075 C.ar           1 S1                 0.0000
     17 ****         1.9818   2.0923   2.7003 C.ar           1 S1                 0.0000
     18 ****         2.7318   3.1837   2.9820 F              1 S1                 0.0000
     19 ****         0.8631   1.7824   3.4961 C.ar           1 S1                 0.0000
     20 ****         0.0815   0.6503   3.1978 C.ar           1 S1                 0.0000
     21 ****         0.4160  -0.1727   2.1049 C.ar           1 S1                 0.0000
     22 ****        -0.3548  -1.2516   1.8271 F              1 S1                 0.0000
     23 ****        -0.9491   4.1638  -0.6243 H              1 S1                 0.0000
     24 ****         0.1749   2.6205  -1.8458 H              1 S1                 0.0000
     25 ****         0.3061   2.3540  -0.1129 H              1 S1                 0.0000
     26 ****        -4.3766  -1.1736  -1.4478 H              1 S1                 0.0000
     27 ****        -3.9978  -3.6095  -1.7578 H              1 S1                 0.0000
     28 ****        -1.6862  -4.5198  -1.8522 H              1 S1                 0.0000
     29 ****         0.2676  -2.9887  -1.6290 H              1 S1                 0.0000
     30 ****         1.6651  -0.7891  -2.0585 H              1 S1                 0.0000
     31 ****         1.7497   0.8274  -1.4141 H              1 S1                 0.0000
     32 ****         1.4676  -1.7332   0.2584 H              1 S1                 0.0000
     33 ****         3.6824  -0.0990  -0.2306 H              1 S1                 0.0000
     34 ****         3.1736   1.5266   0.9990 H              1 S1                 0.0000
     35 ****         0.6031   2.4133   4.3332 H              1 S1                 0.0000
     36 ****        -0.7791   0.4144   3.8063 H              1 S1                 0.0000
     37 ****        -1.8765   3.1060   0.1176 LP             1 S1                 0.0000
     38 ****        -2.0099   3.3555  -1.4907 LP             1 S1                 0.0000
     39 ****        -3.0083   1.3302  -1.1151 LP             1 S1                 0.0000
     40 ****         3.4562  -1.5687  -0.7948 LP             1 S1                 0.0000
     41 ****         3.6569  -1.3061   0.8045 LP             1 S1                 0.0000
@<TRIPOS>BOND
    1    1    2 1     
    2    1   23 1     
    3    2    3 1     
    4    2   24 1     
    5    2   25 1     
    6    3   11 1     
    7    3    4 2     
    8    4    5 1     
    9    5   10 ar    
   10    5    6 ar    
   11    6    7 ar    
   12    6   26 1     
   13    7    8 ar    
   14    7   27 1     
   15    8    9 ar    
   16    8   28 1     
   17    9   10 ar    
   18    9   29 1     
   19   10   11 1     
   20   11   12 1     
   21   12   13 1     
   22   12   30 1     
   23   12   31 1     
   24   13   14 1     
   25   13   15 1     
   26   13   32 1     
   27   14   33 1     
   28   15   21 ar    
   29   15   16 ar    
   30   16   17 ar    
   31   16   34 1     
   32   17   18 1     
   33   17   19 ar    
   34   19   20 ar    
   35   19   35 1     
   36   20   21 ar    
   37   20   36 1     
   38   21   22 1     
   39    1   37 1     
   40    1   38 1     
   41    4   39 1     
   42   14   40 1     
   43   14   41 1     
@<TRIPOS>SUBSTRUCTURE
      1 S1             1
@<TRIPOS>SET
LONE_PAIRS      STATIC     ATOMS    <user>   **** ""
5 37 38 39 40 41
DONOR_HYDROGENS      STATIC     ATOMS    <user>   **** ""
2 23 33
ATOM$BLUE        STATIC     ATOMS    COLORGROUP SYSTEM
5 37 38 39 40 41
ATOM$RED        STATIC     ATOMS    COLORGROUP SYSTEM
2 23 33
