AV-unprocessed.smi:3287|AV-procd|sdf|12604|dock6
  -GOLD-   2272018533D 1   1.00000     0.00000
 Structure written by MMmdl.
 43 44  0  0  0  0  0  0  0  0  2 V2000
  152.0114  143.8936  161.5167 C   0  0  0  0  0  0  0  0  0  0  0  0
  152.8032  143.9081  160.1935 C   0  0  2  0  0  0  0  0  0  0  0  0
  152.2217  144.9312  159.1963 C   0  0  0  0  0  0  0  0  0  0  0  0
  150.8919  144.4636  158.5793 C   0  0  0  0  0  0  0  0  0  0  0  0
  151.0394  143.0841  157.9049 C   0  0  2  0  0  0  0  0  0  0  0  0
  149.7552  142.5977  157.3532 N   0  3  0  0  0  0  0  0  0  0  0  0
  149.7657  141.2058  156.8528 C   0  0  0  0  0  0  0  0  0  0  0  0
  150.0910  141.1488  155.3503 C   0  0  1  0  0  0  0  0  0  0  0  0
  151.2909  140.4222  155.1685 O   0  0  0  0  0  0  0  0  0  0  0  0
  148.9374  140.5418  154.5672 C   0  0  0  0  0  0  0  0  0  0  0  0
  148.9571  139.1879  154.1668 C   0  0  0  0  0  0  0  0  0  0  0  0
  147.8518  138.6792  153.4561 C   0  0  0  0  0  0  0  0  0  0  0  0
  146.7694  139.4214  153.1390 N   0  0  0  0  0  0  0  0  0  0  0  0
  146.7550  140.7150  153.5251 C   0  0  0  0  0  0  0  0  0  0  0  0
  147.8083  141.3211  154.2392 C   0  0  0  0  0  0  0  0  0  0  0  0
  151.6000  142.0545  158.9037 C   0  0  0  0  0  0  0  0  0  0  0  0
  152.9365  142.5201  159.5156 C   0  0  2  0  0  0  0  0  0  0  0  0
  153.5470  141.4487  160.4342 C   0  0  0  0  0  0  0  0  0  0  0  0
  150.9978  143.5159  161.3870 H   0  0  0  0  0  0  0  0  0  0  0  0
  151.9355  144.8984  161.9331 H   0  0  0  0  0  0  0  0  0  0  0  0
  152.5017  143.2768  162.2696 H   0  0  0  0  0  0  0  0  0  0  0  0
  153.8097  144.2465  160.4440 H   0  0  0  0  0  0  0  0  0  0  0  0
  152.0867  145.8980  159.6830 H   0  0  0  0  0  0  0  0  0  0  0  0
  152.9428  145.0981  158.3948 H   0  0  0  0  0  0  0  0  0  0  0  0
  150.1198  144.4226  159.3483 H   0  0  0  0  0  0  0  0  0  0  0  0
  150.5634  145.2106  157.8569 H   0  0  0  0  0  0  0  0  0  0  0  0
  151.7484  143.1692  157.0799 H   0  0  0  0  0  0  0  0  0  0  0  0
  149.0692  142.6449  158.0929 H   0  0  0  0  0  0  0  0  0  0  0  0
  150.4869  140.6107  157.4136 H   0  0  0  0  0  0  0  0  0  0  0  0
  148.7827  140.7656  157.0260 H   0  0  0  0  0  0  0  0  0  0  0  0
  150.2643  142.1607  154.9807 H   0  0  0  0  0  0  0  0  0  0  0  0
  151.6079  140.1507  156.0171 H   0  0  0  0  0  0  0  0  0  0  0  0
  149.7963  138.5484  154.3990 H   0  0  0  0  0  0  0  0  0  0  0  0
  147.8359  137.6475  153.1368 H   0  0  0  0  0  0  0  0  0  0  0  0
  145.8766  141.2846  153.2598 H   0  0  0  0  0  0  0  0  0  0  0  0
  147.7438  142.3604  154.5269 H   0  0  0  0  0  0  0  0  0  0  0  0
  150.8731  141.8672  159.6953 H   0  0  0  0  0  0  0  0  0  0  0  0
  151.7469  141.1004  158.3958 H   0  0  0  0  0  0  0  0  0  0  0  0
  153.6371  142.6427  158.6876 H   0  0  0  0  0  0  0  0  0  0  0  0
  152.8780  141.1892  161.2547 H   0  0  0  0  0  0  0  0  0  0  0  0
  154.4900  141.7885  160.8631 H   0  0  0  0  0  0  0  0  0  0  0  0
  153.7511  140.5322  159.8799 H   0  0  0  0  0  0  0  0  0  0  0  0
  149.4611  143.2119  156.6069 H   0  0  0  0  0  0  0  0  0  0  0  0
  1  2  1  0  0  0  0
  1 19  1  0  0  0  0
  1 20  1  0  0  0  0
  1 21  1  0  0  0  0
  2 17  1  0  0  0  0
  2  3  1  0  0  0  0
  2 22  1  0  0  0  0
  3  4  1  0  0  0  0
  3 23  1  0  0  0  0
  3 24  1  0  0  0  0
  4  5  1  0  0  0  0
  4 25  1  0  0  0  0
  4 26  1  0  0  0  0
  5  6  1  0  0  0  0
  5 16  1  0  0  0  0
  5 27  1  0  0  0  0
  6  7  1  0  0  0  0
  6 28  1  0  0  0  0
  6 43  1  0  0  0  0
  7  8  1  0  0  0  0
  7 29  1  0  0  0  0
  7 30  1  0  0  0  0
  8  9  1  0  0  0  0
  8 10  1  0  0  0  0
  8 31  1  0  0  0  0
  9 32  1  0  0  0  0
 10 15  1  0  0  0  0
 10 11  2  0  0  0  0
 11 12  1  0  0  0  0
 11 33  1  0  0  0  0
 12 13  2  0  0  0  0
 12 34  1  0  0  0  0
 13 14  1  0  0  0  0
 14 15  2  0  0  0  0
 14 35  1  0  0  0  0
 15 36  1  0  0  0  0
 16 17  1  0  0  0  0
 16 37  1  0  0  0  0
 16 38  1  0  0  0  0
 17 18  1  0  0  0  0
 17 39  1  0  0  0  0
 18 40  1  0  0  0  0
 18 41  1  0  0  0  0
 18 42  1  0  0  0  0
M  CHG  1   6   1
M  END
> <s_m_source_file>
AV-unprocessed.smi

> <i_m_source_file_index>
3287

> <i_lp_mmshare_version>
43012

> <i_f3d_flags>
0

> <s_epik_input>
W0NIM11bQ0BASF0xW0NIMl1bQ0gyXVtDQEhdKFtDSDJdW0NASF0xW0NIM10pW05IXVtDSDJdW0NASF0oW09IXSljMltjSF1bY0hdbltjSF1bY0hdMg==

> <s_epik_cmdline>
J2VwaWtfcHl0aG9uJywgJy1waCcsICc3LjAnLCAnLXRuJywgJzgnLCAnLW1hJywgJzIwMCcsICctbWV0YWxfYmluZGluZycsICctaW1hZScsICc8aW5maWxlLm1hZT4nLCAnLW9tYWUnLCAnPG91dGZpbGUubWFlPic=

> <r_lp_tautomer_probability>
1

> <r_epik_Ionization_Penalty>
0.00537262

> <r_epik_Ionization_Penalty_Charging>
0.00321624

> <r_epik_Ionization_Penalty_Neutral>
0.00215638

> <r_epik_State_Penalty>
-0

> <r_epik_Charging_Adjusted_Penalty>
0.00321624

> <i_epik_Tot_Q>
1

> <i_epik_Tot_abs_Q>
1

> <r_epik_Metal_State_Penalty>
-0

> <b_epik_Metal_Only>
0

> <s_lp_Force_Field>
OPLS_2005

> <r_lp_Energy>
17.5476

> <b_lp_Chiralities_Consistent>
1

> <s_lp_Variant>
AV-unprocessed.smi:3287-15

> <Gold.Version>
5.8.1

> <Gold.Id.Protein>
6NUR|6NUR_protein|mol2

> <Gold.PLP.Fitness>
53.4824

> <Gold.PLP.PLP>
-42.0465

> <Gold.PLP.part.hbond>
-2.0000

> <Gold.PLP.part.metal>
0.0000

> <Gold.PLP.part.buried>
-2.2985

> <Gold.PLP.part.nonpolar>
-38.0041

> <Gold.PLP.part.repulsive>
0.2653

> <Gold.PLP.ligand.clash>
0.0000

> <Gold.PLP.ligand.torsion>
1.5999

> <Gold.PLP.Chemscore.Hbond>
2.9272

> <Gold.PLP.Chemscore.CHOScore>
1.9455

> <Gold.PLP.Chemscore.Metal>
0.0000

> <Gold.Chemscore.Hbonds>
donor molecule, donor type, donor heavy atom, donor atom, acceptor molecule, acceptor atom, score
      L1  H     6    43       P1  8028  2.00
      P1  H  7989  7998       L1     9  0.93
      L1  C    12    34       P1  7948  1.00
      L1  C    14    35       P1 10175  0.96

> <Gold.PLP.Chemscore.Internal.Correction>
0.0176

> <Gold.Rescore>
     Score         DG    S(hbond)    S(metal)    S(lipo)     H(rot)  DE(clash)    DE(int)     intcor
     20.34     -22.08       1.83        0.00     131.12       1.90       0.18       1.55       ----

> <Gold.Chemscore.Fitness>
20.3399

> <Gold.Chemscore.DG>
-22.0758

> <Gold.Chemscore.ZeroCoef>
-5.4800

> <Gold.Chemscore.Hbond>
1.8346

> <Gold.Chemscore.Metal>
0.0000

> <Gold.Chemscore.Lipo>
131.1201

> <Gold.Chemscore.Internal_Hbond>
0.0000

> <Gold.Chemscore.DEClash>
0.1830

> <Gold.Chemscore.DEInternal>
1.5529

> <Gold.Chemscore.Rot>
1.9035

> <Gold.Chemscore.Internal.Correction>
   9.000000E+99

> <Gold.Chemscore.Hbonds>
donor molecule, donor type, donor heavy atom, donor atom, acceptor molecule, acceptor atom, score
      L1  H     6    43       P1  8028  1.00
      P1  H  7989  7998       L1     9  0.20

> <Gold.Chemscore.Hbond.Weighted>
-6.1276

> <Gold.Chemscore.Metal.Weighted>
-0.0000

> <Gold.Chemscore.Lipo.Weighted>
-15.3411

> <Gold.Chemscore.Internal_Hbond.Weighted>
0.0000

> <Gold.Chemscore.DEClash.Weighted>
0.1830

> <Gold.Chemscore.DEInternal.Weighted>
1.5529

> <Gold.Chemscore.Rot.Weighted>
4.8729

> <Gold.Chemscore.Internal.Correction.Weighted>
   9.000000E+99

> <Gold.Protein.RotatedTorsions>
[ 6907 6896 6895 6894 ] final -119.49 input  -60.11 | X-H torsion
[ 7974 7965 7964 7962 ] final  177.79 input  175.53 | X-H torsion
[ 8008 7997 7996 7995 ] final   69.35 input   59.86 | X-H torsion
[ 10167 10162 10161 10158 ] final   74.62 input  -65.29 | X-H torsion
[ 10718 10713 10712 10709 ] final   -7.56 input   66.30 | X-H torsion
[ 10763 10752 10751 10750 ] final  -64.75 input  -60.55 | X-H torsion
[ 11005 11000 10999 10996 ] final  -98.44 input  -57.11 | X-H torsion

> <Gold.Protein.ActiveResidues>
 VAL166  LYS551  ARG553  GLY616  TRP617  ASP618  TYR619  PRO620  LYS621  CYS622 
 ASP623  PHE694  ASN695  SER759  ASP760  ASP761  ALA762  ILE779  LEU786  VAL792 
 PHE793  MET794  SER795  GLU796  ALA797  LYS798  CYS799  TRP800  GLU811  SER814 

> <Gold.Protein.RotatedAtoms>
  150.8310  133.8091  159.3098 H   0  0  0  0  0  0  0  0  0  0  0  0  # atno 6907 bound_to 6896
  151.5821  135.1056  160.0029 H   0  0  0  0  0  0  0  0  0  0  0  0  # atno 6908 bound_to 6896
  152.4389  133.7371  159.6676 H   0  0  0  0  0  0  0  0  0  0  0  0  # atno 6909 bound_to 6896
  144.7164  140.0300  143.6439 H   0  0  0  0  0  0  0  0  0  0  0  0  # atno 7974 bound_to 7965
  155.7222  140.3493  155.5021 H   0  0  0  0  0  0  0  0  0  0  0  0  # atno 8008 bound_to 7997
  155.9259  140.1075  157.1192 H   0  0  0  0  0  0  0  0  0  0  0  0  # atno 8009 bound_to 7997
  154.4077  140.1240  156.4726 H   0  0  0  0  0  0  0  0  0  0  0  0  # atno 8010 bound_to 7997
  140.0118  144.5608  150.7653 H   0  0  0  0  0  0  0  0  0  0  0  0  # atno 10167 bound_to 10162
  156.7155  130.5135  149.5881 H   0  0  0  0  0  0  0  0  0  0  0  0  # atno 10718 bound_to 10713
  154.3348  135.6169  153.5568 H   0  0  0  0  0  0  0  0  0  0  0  0  # atno 10763 bound_to 10752
  152.9808  135.5755  154.4920 H   0  0  0  0  0  0  0  0  0  0  0  0  # atno 10764 bound_to 10752
  154.4613  135.2856  155.1687 H   0  0  0  0  0  0  0  0  0  0  0  0  # atno 10765 bound_to 10752
  141.1344  133.8245  157.0840 H   0  0  0  0  0  0  0  0  0  0  0  0  # atno 11005 bound_to 11000
  146.0110  139.3170  143.0870 LP  0  0  0  0  0  0  0  0  0  0  0  0  # atno 17320 bound_to 7965
  145.8682  140.9435  143.0664 LP  0  0  0  0  0  0  0  0  0  0  0  0  # atno 17321 bound_to 7965
  140.7378  143.2770  151.3710 LP  0  0  0  0  0  0  0  0  0  0  0  0  # atno 17342 bound_to 10162
  139.6200  144.0926  152.2382 LP  0  0  0  0  0  0  0  0  0  0  0  0  # atno 17343 bound_to 10162
  156.1631  130.6387  151.0744 LP  0  0  0  0  0  0  0  0  0  0  0  0  # atno 17370 bound_to 10713
  157.6919  131.0807  150.7082 LP  0  0  0  0  0  0  0  0  0  0  0  0  # atno 17371 bound_to 10713
  140.0434  134.9843  157.1004 LP  0  0  0  0  0  0  0  0  0  0  0  0  # atno 17394 bound_to 11000
  140.4100  134.1991  155.7163 LP  0  0  0  0  0  0  0  0  0  0  0  0  # atno 17395 bound_to 11000

$$$$
