AV-unprocessed.smi:3055|AV-procd|sdf|11642|dock1
  -GOLD-   2272017 33D 1   1.00000     0.00000
 Structure written by MMmdl.
 48 50  0  0  0  0  0  0  0  0  3 V2000
  148.9023  140.6908  156.7959 O   0  0  0  0  0  0  0  0  0  0  0  0
  150.0475  140.7732  156.3503 C   0  0  0  0  0  0  0  0  0  0  0  0
  150.9548  141.6146  156.8706 N   0  0  0  0  0  0  0  0  0  0  0  0
  150.7100  142.5006  158.0017 C   0  0  0  0  0  0  0  0  0  0  0  0
  151.8508  143.5156  158.1723 C   0  0  0  0  0  0  0  0  0  0  0  0
  152.0428  143.9127  159.5706 N   0  0  0  0  0  0  0  0  0  0  0  0
  152.4451  143.1152  160.6109 C   0  0  0  0  0  0  0  0  0  0  0  0
  152.4857  143.9151  161.7237 C   0  0  0  0  0  0  0  0  0  0  0  0
  152.1081  145.1666  161.3157 N   0  3  0  0  0  0  0  0  0  0  0  0
  151.8402  145.1634  160.0057 C   0  0  0  0  0  0  0  0  0  0  0  0
  150.4865  140.0477  155.2905 N   0  0  0  0  0  0  0  0  0  0  0  0
  151.8625  140.0150  154.7700 C   0  0  0  0  0  0  0  0  0  0  0  0
  152.5239  138.7080  155.2380 C   0  0  0  0  0  0  0  0  0  0  0  0
  151.6970  137.4815  154.8038 C   0  0  0  0  0  0  0  0  0  0  0  0
  150.1992  137.6101  155.1892 C   0  0  2  0  0  0  0  0  0  0  0  0
  149.3860  136.4882  154.6417 N   0  3  0  0  0  0  0  0  0  0  0  0
  150.0010  135.1467  154.7449 C   0  0  0  0  0  0  0  0  0  0  0  0
  148.8381  134.1669  154.6419 C   0  0  0  0  0  0  0  0  0  0  0  0
  147.7265  134.8799  155.4016 C   0  0  0  0  0  0  0  0  0  0  0  0
  148.0147  136.3739  155.2019 C   0  0  0  0  0  0  0  0  0  0  0  0
  149.6715  138.9809  154.6962 C   0  0  0  0  0  0  0  0  0  0  0  0
  151.8755  141.6352  156.4580 H   0  0  0  0  0  0  0  0  0  0  0  0
  149.7586  143.0184  157.8685 H   0  0  0  0  0  0  0  0  0  0  0  0
  150.6202  141.8991  158.9073 H   0  0  0  0  0  0  0  0  0  0  0  0
  152.7903  143.0835  157.8256 H   0  0  0  0  0  0  0  0  0  0  0  0
  151.6725  144.4095  157.5724 H   0  0  0  0  0  0  0  0  0  0  0  0
  152.6658  142.0650  160.4851 H   0  0  0  0  0  0  0  0  0  0  0  0
  152.7488  143.6933  162.7477 H   0  0  0  0  0  0  0  0  0  0  0  0
  151.5220  146.0057  159.4174 H   0  0  0  0  0  0  0  0  0  0  0  0
  151.8363  140.0498  153.6798 H   0  0  0  0  0  0  0  0  0  0  0  0
  152.4707  140.8687  155.0688 H   0  0  0  0  0  0  0  0  0  0  0  0
  153.5359  138.6352  154.8390 H   0  0  0  0  0  0  0  0  0  0  0  0
  152.6197  138.7175  156.3248 H   0  0  0  0  0  0  0  0  0  0  0  0
  151.7822  137.3663  153.7221 H   0  0  0  0  0  0  0  0  0  0  0  0
  152.1388  136.5879  155.2447 H   0  0  0  0  0  0  0  0  0  0  0  0
  150.1220  137.5765  156.2777 H   0  0  0  0  0  0  0  0  0  0  0  0
  150.7488  134.9792  153.9692 H   0  0  0  0  0  0  0  0  0  0  0  0
  150.4862  135.0369  155.7163 H   0  0  0  0  0  0  0  0  0  0  0  0
  148.5521  134.0366  153.5973 H   0  0  0  0  0  0  0  0  0  0  0  0
  149.0723  133.1849  155.0540 H   0  0  0  0  0  0  0  0  0  0  0  0
  146.7329  134.5928  155.0566 H   0  0  0  0  0  0  0  0  0  0  0  0
  147.7928  134.6332  156.4623 H   0  0  0  0  0  0  0  0  0  0  0  0
  147.9168  136.8981  156.1537 H   0  0  0  0  0  0  0  0  0  0  0  0
  147.3080  136.8221  154.5028 H   0  0  0  0  0  0  0  0  0  0  0  0
  148.6139  139.1106  154.9277 H   0  0  0  0  0  0  0  0  0  0  0  0
  149.7350  139.0388  153.6085 H   0  0  0  0  0  0  0  0  0  0  0  0
  149.2685  136.6609  153.6534 H   0  0  0  0  0  0  0  0  0  0  0  0
  152.0433  145.9791  161.9161 H   0  0  0  0  0  0  0  0  0  0  0  0
  1  2  2  0  0  0  0
  2  3  1  0  0  0  0
  2 11  1  0  0  0  0
  3  4  1  0  0  0  0
  3 22  1  0  0  0  0
  4  5  1  0  0  0  0
  4 23  1  0  0  0  0
  4 24  1  0  0  0  0
  5  6  1  0  0  0  0
  5 25  1  0  0  0  0
  5 26  1  0  0  0  0
  6 10  1  0  0  0  0
  6  7  1  0  0  0  0
  7  8  2  0  0  0  0
  7 27  1  0  0  0  0
  8  9  1  0  0  0  0
  8 28  1  0  0  0  0
  9 10  2  0  0  0  0
  9 48  1  0  0  0  0
 10 29  1  0  0  0  0
 11 21  1  0  0  0  0
 11 12  1  0  0  0  0
 12 13  1  0  0  0  0
 12 30  1  0  0  0  0
 12 31  1  0  0  0  0
 13 14  1  0  0  0  0
 13 32  1  0  0  0  0
 13 33  1  0  0  0  0
 14 15  1  0  0  0  0
 14 34  1  0  0  0  0
 14 35  1  0  0  0  0
 15 16  1  0  0  0  0
 15 21  1  0  0  0  0
 15 36  1  0  0  0  0
 16 20  1  0  0  0  0
 16 17  1  0  0  0  0
 16 47  1  0  0  0  0
 17 18  1  0  0  0  0
 17 37  1  0  0  0  0
 17 38  1  0  0  0  0
 18 19  1  0  0  0  0
 18 39  1  0  0  0  0
 18 40  1  0  0  0  0
 19 20  1  0  0  0  0
 19 41  1  0  0  0  0
 19 42  1  0  0  0  0
 20 43  1  0  0  0  0
 20 44  1  0  0  0  0
 21 45  1  0  0  0  0
 21 46  1  0  0  0  0
M  CHG  1   9   1
M  CHG  1  16   1
M  END
> <s_m_source_file>
AV-unprocessed.smi

> <i_m_source_file_index>
3055

> <i_lp_mmshare_version>
43012

> <i_f3d_flags>
0

> <s_epik_input>
W2NIXTFuW2NIXVtjSF1uMVtDSDJdW0NIMl1bTkhdQyg9TylOMltDSDJdW0NIMl1bQ0gyXVtDQEhdKFtDSDJdMilOM1tDSDJdW0NIMl1bQ0gyXVtDSDJdMw==

> <s_epik_cmdline>
J2VwaWtfcHl0aG9uJywgJy1waCcsICc3LjAnLCAnLXRuJywgJzgnLCAnLW1hJywgJzIwMCcsICctbWV0YWxfYmluZGluZycsICctaW1hZScsICc8aW5maWxlLm1hZT4nLCAnLW9tYWUnLCAnPG91dGZpbGUubWFlPic=

> <r_lp_tautomer_probability>
1

> <r_epik_Ionization_Penalty>
0.259176

> <r_epik_Ionization_Penalty_Charging>
0.00125522

> <r_epik_Ionization_Penalty_Neutral>
0.257921

> <r_epik_State_Penalty>
0.249312

> <r_epik_Charging_Adjusted_Penalty>
0.250567

> <i_epik_Tot_Q>
2

> <i_epik_Tot_abs_Q>
2

> <r_epik_Metal_State_Penalty>
0.53666

> <b_epik_Metal_Only>
0

> <s_lp_Force_Field>
OPLS_2005

> <r_lp_Energy>
60.4865

> <b_lp_Chiralities_Consistent>
1

> <s_lp_Variant>
AV-unprocessed.smi:3055-2

> <Gold.Version>
5.8.1

> <Gold.Id.Protein>
6NUR|6NUR_protein|mol2

> <Gold.PLP.Fitness>
46.4204

> <Gold.PLP.PLP>
-41.3228

> <Gold.PLP.part.hbond>
-2.0000

> <Gold.PLP.part.metal>
0.0000

> <Gold.PLP.part.buried>
2.2260

> <Gold.PLP.part.nonpolar>
-40.8196

> <Gold.PLP.part.repulsive>
0.2614

> <Gold.PLP.ligand.clash>
0.0000

> <Gold.PLP.ligand.torsion>
0.4894

> <Gold.PLP.Chemscore.Hbond>
2.0000

> <Gold.PLP.Chemscore.CHOScore>
0.0000

> <Gold.PLP.Chemscore.Metal>
0.0000

> <Gold.Chemscore.Hbonds>
donor molecule, donor type, donor heavy atom, donor atom, acceptor molecule, acceptor atom, score
      L1  H    16    47       P1  7948  2.00

> <Gold.PLP.Chemscore.Internal.Correction>
0.0764

> <Gold.Rescore>
     Score         DG    S(hbond)    S(metal)    S(lipo)     H(rot)  DE(clash)    DE(int)     intcor
     12.55     -14.11       0.98        0.00      86.91       1.87       0.58       0.98       ----

> <Gold.Chemscore.Fitness>
12.5493

> <Gold.Chemscore.DG>
-14.1119

> <Gold.Chemscore.ZeroCoef>
-5.4800

> <Gold.Chemscore.Hbond>
0.9756

> <Gold.Chemscore.Metal>
0.0000

> <Gold.Chemscore.Lipo>
86.9144

> <Gold.Chemscore.Internal_Hbond>
0.0000

> <Gold.Chemscore.DEClash>
0.5822

> <Gold.Chemscore.DEInternal>
0.9804

> <Gold.Chemscore.Rot>
1.8732

> <Gold.Chemscore.Internal.Correction>
   9.000000E+99

> <Gold.Chemscore.Hbonds>
donor molecule, donor type, donor heavy atom, donor atom, acceptor molecule, acceptor atom, score
      L1  H    16    47       P1  7948  0.95

> <Gold.Chemscore.Hbond.Weighted>
-3.2583

> <Gold.Chemscore.Metal.Weighted>
-0.0000

> <Gold.Chemscore.Lipo.Weighted>
-10.1690

> <Gold.Chemscore.Internal_Hbond.Weighted>
0.0000

> <Gold.Chemscore.DEClash.Weighted>
0.5822

> <Gold.Chemscore.DEInternal.Weighted>
0.9804

> <Gold.Chemscore.Rot.Weighted>
4.7954

> <Gold.Chemscore.Internal.Correction.Weighted>
   9.000000E+99

> <Gold.Protein.RotatedTorsions>
[ 6907 6896 6895 6894 ] final   83.97 input  -60.11 | X-H torsion
[ 7974 7965 7964 7962 ] final   62.55 input  175.53 | X-H torsion
[ 8008 7997 7996 7995 ] final    4.71 input   59.86 | X-H torsion
[ 10167 10162 10161 10158 ] final  114.04 input  -65.29 | X-H torsion
[ 10718 10713 10712 10709 ] final  -92.08 input   66.30 | X-H torsion
[ 10763 10752 10751 10750 ] final  145.67 input  -60.55 | X-H torsion
[ 11005 11000 10999 10996 ] final  -96.92 input  -57.11 | X-H torsion

> <Gold.Protein.ActiveResidues>
 VAL166  LYS551  ARG553  GLY616  TRP617  ASP618  TYR619  PRO620  LYS621  CYS622 
 ASP623  PHE694  ASN695  SER759  ASP760  ASP761  ALA762  ILE779  LEU786  VAL792 
 PHE793  MET794  SER795  GLU796  ALA797  LYS798  CYS799  TRP800  GLU811  SER814 

> <Gold.Protein.RotatedAtoms>
  152.5341  134.2813  159.9008 H   0  0  0  0  0  0  0  0  0  0  0  0  # atno 6907 bound_to 6896
  151.2767  133.4222  159.2632 H   0  0  0  0  0  0  0  0  0  0  0  0  # atno 6908 bound_to 6896
  151.0319  134.9561  159.8172 H   0  0  0  0  0  0  0  0  0  0  0  0  # atno 6909 bound_to 6896
  145.8720  139.3384  143.0757 H   0  0  0  0  0  0  0  0  0  0  0  0  # atno 7974 bound_to 7965
  154.7193  140.2708  155.6556 H   0  0  0  0  0  0  0  0  0  0  0  0  # atno 8008 bound_to 7997
  156.2819  140.2737  156.1784 H   0  0  0  0  0  0  0  0  0  0  0  0  # atno 8009 bound_to 7997
  155.0528  140.0371  157.2540 H   0  0  0  0  0  0  0  0  0  0  0  0  # atno 8010 bound_to 7997
  139.6418  144.7124  151.2222 H   0  0  0  0  0  0  0  0  0  0  0  0  # atno 10167 bound_to 10162
  155.9999  130.4973  150.5571 H   0  0  0  0  0  0  0  0  0  0  0  0  # atno 10718 bound_to 10713
  154.0093  135.2916  155.3394 H   0  0  0  0  0  0  0  0  0  0  0  0  # atno 10763 bound_to 10752
  154.7113  135.5148  153.8674 H   0  0  0  0  0  0  0  0  0  0  0  0  # atno 10764 bound_to 10752
  153.0730  135.6654  154.0326 H   0  0  0  0  0  0  0  0  0  0  0  0  # atno 10765 bound_to 10752
  141.1396  133.8132  157.0636 H   0  0  0  0  0  0  0  0  0  0  0  0  # atno 11005 bound_to 11000
  145.9125  140.9170  143.0446 LP  0  0  0  0  0  0  0  0  0  0  0  0  # atno 17320 bound_to 7965
  144.6726  140.1180  143.7451 LP  0  0  0  0  0  0  0  0  0  0  0  0  # atno 17321 bound_to 7965
  140.7494  143.6299  150.8432 LP  0  0  0  0  0  0  0  0  0  0  0  0  # atno 17342 bound_to 10162
  139.9938  143.5818  152.2901 LP  0  0  0  0  0  0  0  0  0  0  0  0  # atno 17343 bound_to 10162
  157.3486  131.0729  151.1731 LP  0  0  0  0  0  0  0  0  0  0  0  0  # atno 17370 bound_to 10713
  157.2555  130.6634  149.5951 LP  0  0  0  0  0  0  0  0  0  0  0  0  # atno 17371 bound_to 10713
  140.0556  134.9782  157.1214 LP  0  0  0  0  0  0  0  0  0  0  0  0  # atno 17394 bound_to 11000
  140.3925  134.2169  155.7165 LP  0  0  0  0  0  0  0  0  0  0  0  0  # atno 17395 bound_to 11000

$$$$
