AV-unprocessed.smi:3147|AV-procd|sdf|11990|dock1
  -GOLD-   2272017393D 1   1.00000     0.00000
 Structure written by MMmdl.
 36 37  0  0  0  0  0  0  0  0  1 V2000
  152.9463  143.5519  162.8490 C   0  0  0  0  0  0  0  0  0  0  0  0
  152.7895  143.1695  161.4090 C   0  0  0  0  0  0  0  0  0  0  0  0
  153.4876  142.0838  160.8857 N   0  0  0  0  0  0  0  0  0  0  0  0
  153.1097  142.0448  159.6161 C   0  0  0  0  0  0  0  0  0  0  0  0
  152.2385  143.0006  159.2656 N   0  0  0  0  0  0  0  0  0  0  0  0
  151.6580  143.1983  157.9456 C   0  0  0  0  0  0  0  0  0  0  0  0
  151.0163  141.9260  157.3781 C   0  0  0  0  0  0  0  0  0  0  0  0
  151.5602  140.8273  157.5005 O   0  0  0  0  0  0  0  0  0  0  0  0
  149.8395  142.0952  156.7570 N   0  0  0  0  0  0  0  0  0  0  0  0
  149.0480  141.0302  156.1516 C   0  0  0  0  0  0  0  0  0  0  0  0
  148.4499  141.4612  154.8021 C   0  0  1  0  0  0  0  0  0  0  0  0
  147.9974  140.2947  153.9291 C   0  0  0  0  0  0  0  0  0  0  0  0
  147.0337  140.9812  152.9870 C   0  0  0  0  0  0  0  0  0  0  0  0
  146.3797  142.0299  153.8871 C   0  0  0  0  0  0  0  0  0  0  0  0
  147.2607  142.2197  154.9927 O   0  0  0  0  0  0  0  0  0  0  0  0
  152.0129  143.7445  160.4231 C   0  0  0  0  0  0  0  0  0  0  0  0
  151.0848  144.9168  160.4703 C   0  0  0  0  0  0  0  0  0  0  0  0
  152.3483  144.4248  163.1079 H   0  0  0  0  0  0  0  0  0  0  0  0
  153.9851  143.7877  163.0803 H   0  0  0  0  0  0  0  0  0  0  0  0
  152.6384  142.7378  163.5056 H   0  0  0  0  0  0  0  0  0  0  0  0
  153.4774  141.3027  158.9227 H   0  0  0  0  0  0  0  0  0  0  0  0
  150.9109  143.9908  157.9978 H   0  0  0  0  0  0  0  0  0  0  0  0
  152.4419  143.5443  157.2701 H   0  0  0  0  0  0  0  0  0  0  0  0
  149.4646  143.0308  156.6959 H   0  0  0  0  0  0  0  0  0  0  0  0
  149.6660  140.1401  156.0226 H   0  0  0  0  0  0  0  0  0  0  0  0
  148.2522  140.7564  156.8449 H   0  0  0  0  0  0  0  0  0  0  0  0
  149.1614  142.0701  154.2414 H   0  0  0  0  0  0  0  0  0  0  0  0
  148.8227  139.8020  153.4143 H   0  0  0  0  0  0  0  0  0  0  0  0
  147.4699  139.5490  154.5258 H   0  0  0  0  0  0  0  0  0  0  0  0
  147.5867  141.4706  152.1842 H   0  0  0  0  0  0  0  0  0  0  0  0
  146.3143  140.2971  152.5360 H   0  0  0  0  0  0  0  0  0  0  0  0
  146.2097  142.9677  153.3574 H   0  0  0  0  0  0  0  0  0  0  0  0
  145.4196  141.6757  154.2636 H   0  0  0  0  0  0  0  0  0  0  0  0
  150.9916  145.3151  161.4797 H   0  0  0  0  0  0  0  0  0  0  0  0
  150.0871  144.6345  160.1339 H   0  0  0  0  0  0  0  0  0  0  0  0
  151.4434  145.7206  159.8272 H   0  0  0  0  0  0  0  0  0  0  0  0
  1  2  1  0  0  0  0
  1 18  1  0  0  0  0
  1 19  1  0  0  0  0
  1 20  1  0  0  0  0
  2 16  2  0  0  0  0
  2  3  1  0  0  0  0
  3  4  2  0  0  0  0
  4  5  1  0  0  0  0
  4 21  1  0  0  0  0
  5  6  1  0  0  0  0
  5 16  1  0  0  0  0
  6  7  1  0  0  0  0
  6 22  1  0  0  0  0
  6 23  1  0  0  0  0
  7  8  2  0  0  0  0
  7  9  1  0  0  0  0
  9 10  1  0  0  0  0
  9 24  1  0  0  0  0
 10 11  1  0  0  0  0
 10 25  1  0  0  0  0
 10 26  1  0  0  0  0
 11 15  1  0  0  0  0
 11 12  1  0  0  0  0
 11 27  1  0  0  0  0
 12 13  1  0  0  0  0
 12 28  1  0  0  0  0
 12 29  1  0  0  0  0
 13 14  1  0  0  0  0
 13 30  1  0  0  0  0
 13 31  1  0  0  0  0
 14 15  1  0  0  0  0
 14 32  1  0  0  0  0
 14 33  1  0  0  0  0
 16 17  1  0  0  0  0
 17 34  1  0  0  0  0
 17 35  1  0  0  0  0
 17 36  1  0  0  0  0
M  END
> <s_m_source_file>
AV-unprocessed.smi

> <i_m_source_file_index>
3147

> <i_lp_mmshare_version>
43012

> <i_f3d_flags>
0

> <s_epik_input>
W0NIM11jMW5bY0hdbihjMVtDSDNdKVtDSDJdQyg9TylbTkhdW0NIMl1bQ0BASF0yW0NIMl1bQ0gyXVtDSDJdTzI=

> <s_epik_cmdline>
J2VwaWtfcHl0aG9uJywgJy1waCcsICc3LjAnLCAnLXRuJywgJzgnLCAnLW1hJywgJzIwMCcsICctbWV0YWxfYmluZGluZycsICctaW1hZScsICc8aW5maWxlLm1hZT4nLCAnLW9tYWUnLCAnPG91dGZpbGUubWFlPic=

> <r_lp_tautomer_probability>
1

> <r_epik_Ionization_Penalty>
0.957393

> <r_epik_Ionization_Penalty_Charging>
0.957393

> <r_epik_Ionization_Penalty_Neutral>
1.43432e-07

> <r_epik_State_Penalty>
1.0022

> <r_epik_Charging_Adjusted_Penalty>
1.9596

> <i_epik_Tot_Q>
0

> <i_epik_Tot_abs_Q>
0

> <r_epik_Metal_State_Penalty>
0.374967

> <b_epik_Metal_Only>
0

> <s_lp_Force_Field>
OPLS_2005

> <r_lp_Energy>
18.0511

> <b_lp_Chiralities_Consistent>
1

> <s_lp_Variant>
AV-unprocessed.smi:3147-4

> <Gold.Version>
5.8.1

> <Gold.Id.Protein>
6NUR|6NUR_protein|mol2

> <Gold.PLP.Fitness>
40.5458

> <Gold.PLP.PLP>
-38.7729

> <Gold.PLP.part.hbond>
-1.0000

> <Gold.PLP.part.metal>
0.0000

> <Gold.PLP.part.buried>
-5.9811

> <Gold.PLP.part.nonpolar>
-32.6925

> <Gold.PLP.part.repulsive>
1.4460

> <Gold.PLP.ligand.clash>
0.0000

> <Gold.PLP.ligand.torsion>
0.6264

> <Gold.PLP.Chemscore.Hbond>
1.0000

> <Gold.PLP.Chemscore.CHOScore>
0.0000

> <Gold.PLP.Chemscore.Metal>
0.0000

> <Gold.Chemscore.Hbonds>
donor molecule, donor type, donor heavy atom, donor atom, acceptor molecule, acceptor atom, score
      L1  H     9    24       P1  8028  0.93

> <Gold.PLP.Chemscore.Internal.Correction>
0.0257

> <Gold.Rescore>
     Score         DG    S(hbond)    S(metal)    S(lipo)     H(rot)  DE(clash)    DE(int)     intcor
     13.18     -15.17       1.00        0.00      91.62       1.70       0.38       1.61       ----

> <Gold.Chemscore.Fitness>
13.1836

> <Gold.Chemscore.DG>
-15.1712

> <Gold.Chemscore.ZeroCoef>
-5.4800

> <Gold.Chemscore.Hbond>
0.9977

> <Gold.Chemscore.Metal>
0.0000

> <Gold.Chemscore.Lipo>
91.6195

> <Gold.Chemscore.Internal_Hbond>
0.0000

> <Gold.Chemscore.DEClash>
0.3777

> <Gold.Chemscore.DEInternal>
1.6099

> <Gold.Chemscore.Rot>
1.7034

> <Gold.Chemscore.Internal.Correction>
   9.000000E+99

> <Gold.Chemscore.Hbonds>
donor molecule, donor type, donor heavy atom, donor atom, acceptor molecule, acceptor atom, score
      L1  H     9    24       P1  8028  0.86

> <Gold.Chemscore.Hbond.Weighted>
-3.3324

> <Gold.Chemscore.Metal.Weighted>
-0.0000

> <Gold.Chemscore.Lipo.Weighted>
-10.7195

> <Gold.Chemscore.Internal_Hbond.Weighted>
0.0000

> <Gold.Chemscore.DEClash.Weighted>
0.3777

> <Gold.Chemscore.DEInternal.Weighted>
1.6099

> <Gold.Chemscore.Rot.Weighted>
4.3607

> <Gold.Chemscore.Internal.Correction.Weighted>
   9.000000E+99

> <Gold.Protein.RotatedTorsions>
[ 6907 6896 6895 6894 ] final    5.92 input  -60.11 | X-H torsion
[ 7974 7965 7964 7962 ] final  122.39 input  175.53 | X-H torsion
[ 8008 7997 7996 7995 ] final  123.02 input   59.86 | X-H torsion
[ 10167 10162 10161 10158 ] final   38.62 input  -65.29 | X-H torsion
[ 10718 10713 10712 10709 ] final   81.18 input   66.30 | X-H torsion
[ 10763 10752 10751 10750 ] final -121.05 input  -60.55 | X-H torsion
[ 11005 11000 10999 10996 ] final  -53.81 input  -57.11 | X-H torsion

> <Gold.Protein.ActiveResidues>
 VAL166  LYS551  ARG553  GLY616  TRP617  ASP618  TYR619  PRO620  LYS621  CYS622 
 ASP623  PHE694  ASN695  SER759  ASP760  ASP761  ALA762  ILE779  LEU786  VAL792 
 PHE793  MET794  SER795  GLU796  ALA797  LYS798  CYS799  TRP800  GLU811  SER814 

> <Gold.Protein.RotatedAtoms>
  151.6653  135.0983  160.0187 H   0  0  0  0  0  0  0  0  0  0  0  0  # atno 6907 bound_to 6896
  152.3923  133.6692  159.6256 H   0  0  0  0  0  0  0  0  0  0  0  0  # atno 6908 bound_to 6896
  150.7836  133.8850  159.3338 H   0  0  0  0  0  0  0  0  0  0  0  0  # atno 6909 bound_to 6896
  145.1081  139.3471  143.4777 H   0  0  0  0  0  0  0  0  0  0  0  0  # atno 7974 bound_to 7965
  156.2750  140.2772  156.1560 H   0  0  0  0  0  0  0  0  0  0  0  0  # atno 8008 bound_to 7997
  155.0804  140.0387  157.2655 H   0  0  0  0  0  0  0  0  0  0  0  0  # atno 8009 bound_to 7997
  154.6969  140.2641  155.6763 H   0  0  0  0  0  0  0  0  0  0  0  0  # atno 8010 bound_to 7997
  140.3919  144.1841  150.6131 H   0  0  0  0  0  0  0  0  0  0  0  0  # atno 10167 bound_to 10162
  157.6826  130.9992  150.2188 H   0  0  0  0  0  0  0  0  0  0  0  0  # atno 10718 bound_to 10713
  154.8659  135.4181  154.2558 H   0  0  0  0  0  0  0  0  0  0  0  0  # atno 10763 bound_to 10752
  153.3495  135.6998  153.6806 H   0  0  0  0  0  0  0  0  0  0  0  0  # atno 10764 bound_to 10752
  153.5751  135.3584  155.2826 H   0  0  0  0  0  0  0  0  0  0  0  0  # atno 10765 bound_to 10752
  141.0995  133.6620  156.4228 H   0  0  0  0  0  0  0  0  0  0  0  0  # atno 11005 bound_to 11000
  146.3527  140.0988  142.8609 LP  0  0  0  0  0  0  0  0  0  0  0  0  # atno 17320 bound_to 7965
  145.0878  140.9264  143.4787 LP  0  0  0  0  0  0  0  0  0  0  0  0  # atno 17321 bound_to 7965
  140.4831  143.2372  151.8927 LP  0  0  0  0  0  0  0  0  0  0  0  0  # atno 17342 bound_to 10162
  139.4788  144.5248  151.8751 LP  0  0  0  0  0  0  0  0  0  0  0  0  # atno 17343 bound_to 10162
  156.2844  130.3737  149.7903 LP  0  0  0  0  0  0  0  0  0  0  0  0  # atno 17370 bound_to 10713
  156.5582  130.8372  151.3320 LP  0  0  0  0  0  0  0  0  0  0  0  0  # atno 17371 bound_to 10713
  140.5058  134.6442  157.5266 LP  0  0  0  0  0  0  0  0  0  0  0  0  # atno 17394 bound_to 11000
  139.9841  134.7089  155.9805 LP  0  0  0  0  0  0  0  0  0  0  0  0  # atno 17395 bound_to 11000

$$$$
