AV-unprocessed.smi:837|AV-procd|sdf|3903|dock10
  -GOLD-   22720 1363D 1   1.00000     0.00000
 Structure written by MMmdl.
 48 50  0  0  0  0  0  0  0  0  2 V2000
  152.3480  138.4624  159.0002 C   0  0  0  0  0  0  0  0  0  0  0  0
  151.7072  139.8586  158.8417 C   0  0  1  0  0  0  0  0  0  0  0  0
  152.5784  140.9388  159.5193 C   0  0  0  0  0  0  0  0  0  0  0  0
  151.9141  142.3228  159.4729 C   0  0  0  0  0  0  0  0  0  0  0  0
  151.5865  142.7320  158.0312 C   0  0  0  0  0  0  0  0  0  0  0  0
  150.7103  141.6746  157.3373 C   0  0  0  0  0  0  0  0  0  0  0  0
  151.3398  140.2572  157.3747 C   0  0  1  0  0  0  0  0  0  0  0  0
  152.4945  140.1991  156.4919 N   0  5  0  0  0  0  0  0  0  0  0  0
  152.2402  139.3238  155.4921 C   0  0  0  0  0  0  0  0  0  0  0  0
  152.9885  139.0371  154.5580 O   0  0  0  0  0  0  0  0  0  0  0  0
  151.0205  138.7703  155.6313 N   0  0  0  0  0  0  0  0  0  0  0  0
  150.4322  137.7963  154.7027 C   0  0  0  0  0  0  0  0  0  0  0  0
  150.0646  136.4730  155.3869 C   0  0  0  0  0  0  0  0  0  0  0  0
  150.2909  136.2994  156.5851 O   0  0  0  0  0  0  0  0  0  0  0  0
  149.5199  135.5330  154.6002 N   0  0  0  0  0  0  0  0  0  0  0  0
  149.1078  134.2055  155.0447 C   0  0  0  0  0  0  0  0  0  0  0  0
  149.4968  133.0996  154.0452 C   0  0  0  0  0  0  0  0  0  0  0  0
  148.3070  132.5139  153.3048 C   0  0  0  0  0  0  0  0  0  0  0  0
  147.9193  131.1715  153.4979 C   0  0  0  0  0  0  0  0  0  0  0  0
  146.8142  130.6754  152.7800 C   0  0  0  0  0  0  0  0  0  0  0  0
  146.1422  131.5448  151.8977 C   0  0  0  0  0  0  0  0  0  0  0  0
  146.5044  132.8314  151.7051 N   0  0  0  0  0  0  0  0  0  0  0  0
  147.5645  133.2997  152.3982 C   0  0  0  0  0  0  0  0  0  0  0  0
  150.4016  139.2570  156.7128 C   0  0  0  0  0  0  0  0  0  0  0  0
  149.2769  138.9711  157.1265 O   0  0  0  0  0  0  0  0  0  0  0  0
  153.3042  138.3989  158.4806 H   0  0  0  0  0  0  0  0  0  0  0  0
  151.7049  137.6721  158.6138 H   0  0  0  0  0  0  0  0  0  0  0  0
  152.5332  138.2382  160.0507 H   0  0  0  0  0  0  0  0  0  0  0  0
  150.7719  139.8246  159.4033 H   0  0  0  0  0  0  0  0  0  0  0  0
  152.7671  140.6665  160.5582 H   0  0  0  0  0  0  0  0  0  0  0  0
  153.5547  140.9863  159.0349 H   0  0  0  0  0  0  0  0  0  0  0  0
  150.9997  142.3106  160.0674 H   0  0  0  0  0  0  0  0  0  0  0  0
  152.5704  143.0648  159.9286 H   0  0  0  0  0  0  0  0  0  0  0  0
  151.0772  143.6959  158.0260 H   0  0  0  0  0  0  0  0  0  0  0  0
  152.5117  142.8713  157.4707 H   0  0  0  0  0  0  0  0  0  0  0  0
  149.7385  141.6550  157.8333 H   0  0  0  0  0  0  0  0  0  0  0  0
  150.5135  141.9826  156.3087 H   0  0  0  0  0  0  0  0  0  0  0  0
  149.5486  138.2288  154.2299 H   0  0  0  0  0  0  0  0  0  0  0  0
  151.1252  137.5793  153.8883 H   0  0  0  0  0  0  0  0  0  0  0  0
  149.3749  135.7552  153.6260 H   0  0  0  0  0  0  0  0  0  0  0  0
  149.5253  133.9912  156.0296 H   0  0  0  0  0  0  0  0  0  0  0  0
  148.0246  134.2217  155.1682 H   0  0  0  0  0  0  0  0  0  0  0  0
  150.2109  133.4911  153.3196 H   0  0  0  0  0  0  0  0  0  0  0  0
  150.0136  132.2961  154.5714 H   0  0  0  0  0  0  0  0  0  0  0  0
  148.4606  130.5315  154.1793 H   0  0  0  0  0  0  0  0  0  0  0  0
  146.4900  129.6525  152.9012 H   0  0  0  0  0  0  0  0  0  0  0  0
  145.2916  131.1973  151.3305 H   0  0  0  0  0  0  0  0  0  0  0  0
  147.8314  134.3310  152.2204 H   0  0  0  0  0  0  0  0  0  0  0  0
  1  2  1  0  0  0  0
  1 26  1  0  0  0  0
  1 27  1  0  0  0  0
  1 28  1  0  0  0  0
  2  7  1  0  0  0  0
  2  3  1  0  0  0  0
  2 29  1  0  0  0  0
  3  4  1  0  0  0  0
  3 30  1  0  0  0  0
  3 31  1  0  0  0  0
  4  5  1  0  0  0  0
  4 32  1  0  0  0  0
  4 33  1  0  0  0  0
  5  6  1  0  0  0  0
  5 34  1  0  0  0  0
  5 35  1  0  0  0  0
  6  7  1  0  0  0  0
  6 36  1  0  0  0  0
  6 37  1  0  0  0  0
  7 24  1  0  0  0  0
  7  8  1  0  0  0  0
  8  9  1  0  0  0  0
  9 10  2  0  0  0  0
  9 11  1  0  0  0  0
 11 12  1  0  0  0  0
 11 24  1  0  0  0  0
 12 13  1  0  0  0  0
 12 38  1  0  0  0  0
 12 39  1  0  0  0  0
 13 14  2  0  0  0  0
 13 15  1  0  0  0  0
 15 16  1  0  0  0  0
 15 40  1  0  0  0  0
 16 17  1  0  0  0  0
 16 41  1  0  0  0  0
 16 42  1  0  0  0  0
 17 18  1  0  0  0  0
 17 43  1  0  0  0  0
 17 44  1  0  0  0  0
 18 23  1  0  0  0  0
 18 19  2  0  0  0  0
 19 20  1  0  0  0  0
 19 45  1  0  0  0  0
 20 21  2  0  0  0  0
 20 46  1  0  0  0  0
 21 22  1  0  0  0  0
 21 47  1  0  0  0  0
 22 23  2  0  0  0  0
 23 48  1  0  0  0  0
 24 25  2  0  0  0  0
M  CHG  1   8  -1
M  END
> <s_m_source_file>
AV-unprocessed.smi

> <i_m_source_file_index>
837

> <i_lp_mmshare_version>
43012

> <i_f3d_flags>
0

> <s_epik_input>
W0NIMl0xW0NIMl1bQ0gyXVtDSDJdW0NAQEhdKFtDSDNdKVtDQEBdMTJbTkhdQyg9TylOKEMyPU8pW0NIMl1DKD1PKVtOSF1bQ0gyXVtDSDJdYzNbY0hdW2NIXVtjSF1uW2NIXTM=

> <s_epik_cmdline>
J2VwaWtfcHl0aG9uJywgJy1waCcsICc3LjAnLCAnLXRuJywgJzgnLCAnLW1hJywgJzIwMCcsICctbWV0YWxfYmluZGluZycsICctaW1hZScsICc8aW5maWxlLm1hZT4nLCAnLW9tYWUnLCAnPG91dGZpbGUubWFlPic=

> <r_lp_tautomer_probability>
1

> <r_epik_Ionization_Penalty>
6.03002

> <r_epik_Ionization_Penalty_Charging>
6.01728

> <r_epik_Ionization_Penalty_Neutral>
0.0127382

> <r_epik_State_Penalty>
6.02713

> <r_epik_Charging_Adjusted_Penalty>
12.0444

> <i_epik_Tot_Q>
-1

> <i_epik_Tot_abs_Q>
1

> <r_epik_Metal_State_Penalty>
1.99078

> <b_epik_Metal_Only>
1

> <s_lp_Force_Field>
OPLS_2005

> <r_lp_Energy>
20.5142

> <b_lp_Chiralities_Consistent>
1

> <s_lp_Variant>
AV-unprocessed.smi:837-12

> <Gold.Version>
5.8.1

> <Gold.Id.Protein>
6NUR|6NUR_protein|mol2

> <Gold.PLP.Fitness>
51.5942

> <Gold.PLP.PLP>
-40.5726

> <Gold.PLP.part.hbond>
-2.8234

> <Gold.PLP.part.metal>
0.0000

> <Gold.PLP.part.buried>
-3.4925

> <Gold.PLP.part.nonpolar>
-34.3138

> <Gold.PLP.part.repulsive>
0.2180

> <Gold.PLP.ligand.clash>
0.0000

> <Gold.PLP.ligand.torsion>
0.5041

> <Gold.PLP.Chemscore.Hbond>
3.0000

> <Gold.PLP.Chemscore.CHOScore>
1.0000

> <Gold.PLP.Chemscore.Metal>
0.0000

> <Gold.Chemscore.Hbonds>
donor molecule, donor type, donor heavy atom, donor atom, acceptor molecule, acceptor atom, score
      L1  H    15    40       P1  7948  1.00
      P1  H  7997  8008       L1     8  1.98
      L1  C    23    48       P1  7948  1.00

> <Gold.PLP.Chemscore.Internal.Correction>
0.0297

> <Gold.Rescore>
     Score         DG    S(hbond)    S(metal)    S(lipo)     H(rot)  DE(clash)    DE(int)     intcor
     16.90     -17.50       1.63        0.00      95.73       1.81       0.07       0.53       ----

> <Gold.Chemscore.Fitness>
16.8984

> <Gold.Chemscore.DG>
-17.5026

> <Gold.Chemscore.ZeroCoef>
-5.4800

> <Gold.Chemscore.Hbond>
1.6327

> <Gold.Chemscore.Metal>
0.0000

> <Gold.Chemscore.Lipo>
95.7294

> <Gold.Chemscore.Internal_Hbond>
0.0000

> <Gold.Chemscore.DEClash>
0.0742

> <Gold.Chemscore.DEInternal>
0.5300

> <Gold.Chemscore.Rot>
1.8090

> <Gold.Chemscore.Internal.Correction>
   9.000000E+99

> <Gold.Chemscore.Hbonds>
donor molecule, donor type, donor heavy atom, donor atom, acceptor molecule, acceptor atom, score
      L1  H    15    40       P1  7948  0.50
      P1  H  7997  8008       L1     8  0.28

> <Gold.Chemscore.Hbond.Weighted>
-5.4533

> <Gold.Chemscore.Metal.Weighted>
-0.0000

> <Gold.Chemscore.Lipo.Weighted>
-11.2003

> <Gold.Chemscore.Internal_Hbond.Weighted>
0.0000

> <Gold.Chemscore.DEClash.Weighted>
0.0742

> <Gold.Chemscore.DEInternal.Weighted>
0.5300

> <Gold.Chemscore.Rot.Weighted>
4.6310

> <Gold.Chemscore.Internal.Correction.Weighted>
   9.000000E+99

> <Gold.Protein.RotatedTorsions>
[ 6907 6896 6895 6894 ] final -141.80 input  -60.11 | X-H torsion
[ 7974 7965 7964 7962 ] final -101.88 input  175.53 | X-H torsion
[ 8008 7997 7996 7995 ] final  -57.89 input   59.86 | X-H torsion
[ 10167 10162 10161 10158 ] final  176.71 input  -65.29 | X-H torsion
[ 10718 10713 10712 10709 ] final    7.92 input   66.30 | X-H torsion
[ 10763 10752 10751 10750 ] final   53.35 input  -60.55 | X-H torsion
[ 11005 11000 10999 10996 ] final  120.11 input  -57.11 | X-H torsion

> <Gold.Protein.ActiveResidues>
 VAL166  LYS551  ARG553  GLY616  TRP617  ASP618  TYR619  PRO620  LYS621  CYS622 
 ASP623  PHE694  ASN695  SER759  ASP760  ASP761  ALA762  ILE779  LEU786  VAL792 
 PHE793  MET794  SER795  GLU796  ALA797  LYS798  CYS799  TRP800  GLU811  SER814 

> <Gold.Protein.RotatedAtoms>
  151.0786  133.5408  159.2621 H   0  0  0  0  0  0  0  0  0  0  0  0  # atno 6907 bound_to 6896
  151.2320  135.0557  159.9001 H   0  0  0  0  0  0  0  0  0  0  0  0  # atno 6908 bound_to 6896
  152.5421  134.0573  159.8190 H   0  0  0  0  0  0  0  0  0  0  0  0  # atno 6909 bound_to 6896
  145.2759  140.9312  143.2959 H   0  0  0  0  0  0  0  0  0  0  0  0  # atno 7974 bound_to 7965
  154.4286  140.1096  156.5870 H   0  0  0  0  0  0  0  0  0  0  0  0  # atno 8008 bound_to 7997
  155.6052  140.3493  155.4587 H   0  0  0  0  0  0  0  0  0  0  0  0  # atno 8009 bound_to 7997
  156.0142  140.1225  157.0412 H   0  0  0  0  0  0  0  0  0  0  0  0  # atno 8010 bound_to 7997
  139.5225  144.2883  152.0486 H   0  0  0  0  0  0  0  0  0  0  0  0  # atno 10167 bound_to 10162
  156.9440  130.5872  149.5653 H   0  0  0  0  0  0  0  0  0  0  0  0  # atno 10718 bound_to 10713
  152.9795  135.5782  154.4728 H   0  0  0  0  0  0  0  0  0  0  0  0  # atno 10763 bound_to 10752
  154.4288  135.2773  155.1928 H   0  0  0  0  0  0  0  0  0  0  0  0  # atno 10764 bound_to 10752
  154.3646  135.6181  153.5762 H   0  0  0  0  0  0  0  0  0  0  0  0  # atno 10765 bound_to 10752
  139.9172  134.9633  156.7758 H   0  0  0  0  0  0  0  0  0  0  0  0  # atno 11005 bound_to 11000
  144.9295  139.4316  143.6502 LP  0  0  0  0  0  0  0  0  0  0  0  0  # atno 17320 bound_to 7965
  146.3232  139.8198  142.8929 LP  0  0  0  0  0  0  0  0  0  0  0  0  # atno 17321 bound_to 7965
  140.2336  144.4343  150.6289 LP  0  0  0  0  0  0  0  0  0  0  0  0  # atno 17342 bound_to 10162
  140.6339  143.2191  151.6437 LP  0  0  0  0  0  0  0  0  0  0  0  0  # atno 17343 bound_to 10162
  156.0392  130.5476  150.8728 LP  0  0  0  0  0  0  0  0  0  0  0  0  # atno 17370 bound_to 10713
  157.5766  131.0946  150.9336 LP  0  0  0  0  0  0  0  0  0  0  0  0  # atno 17371 bound_to 10713
  140.6584  133.9667  155.7792 LP  0  0  0  0  0  0  0  0  0  0  0  0  # atno 17394 bound_to 11000
  141.0660  134.0276  157.3593 LP  0  0  0  0  0  0  0  0  0  0  0  0  # atno 17395 bound_to 11000

$$$$
