#       Name:                AV-unprocessed.smi:1403
#       Creating user name   scv26
#       Creation time:       Fri Mar 27 05:33:01 2020


#       File generated by GOLD software.
#

@<TRIPOS>MOLECULE
AV-unprocessed.smi:1403
    44    45     1
SMALL
NO_CHARGES


@<TRIPOS>ATOM
      1 ****        -1.9900  -0.1455  -2.6839 C.3            1 S1                 0.0000
      2 ****        -1.6690  -0.1565  -1.1824 C.3            1 S1                 0.0000
      3 ****        -0.2501  -0.4629  -1.0084 N.am           1 S1                 0.0000
      4 ****         0.6086   0.1939  -0.2127 C.2            1 S1                 0.0000
      5 ****         0.2822   1.1463   0.4967 O.2            1 S1                 0.0000
      6 ****         2.0506  -0.3329  -0.2001 C.3            1 S1                 0.0000
      7 ****         3.0327   0.6905   0.1863 N.am           1 S1                 0.0000
      8 ****         3.5089   0.7491   1.4884 C.2            1 S1                 0.0000
      9 ****         4.4059   1.6702   1.9133 C.2            1 S1                 0.0000
     10 ****         4.9275   2.6735   0.9915 C.2            1 S1                 0.0000
     11 ****         5.7427   3.5465   1.2802 O.2            1 S1                 0.0000
     12 ****         4.4224   2.5832  -0.3082 N.am           1 S1                 0.0000
     13 ****         3.4965   1.6379  -0.7523 C.2            1 S1                 0.0000
     14 ****         3.1133   1.6491  -1.9215 O.2            1 S1                 0.0000
     15 ****        -2.5375  -1.1754  -0.4160 C.3            1 S1                 0.0000
     16 ****        -2.2924  -1.2292   1.0920 C.3            1 S1                 0.0000
     17 ****        -3.5695  -1.8703   1.5857 C.3            1 S1                 0.0000
     18 ****        -4.6195  -1.2849   0.6422 C.3            1 S1                 0.0000
     19 ****        -3.9171  -0.8373  -0.5155 O.3            1 S1                 0.0000
     20 ****         4.7530   3.2589  -0.9815 H              1 S1                 0.0000
     21 ****        -3.0328   0.1180  -2.8622 H              1 S1                 0.0000
     22 ****        -1.8118  -1.1215  -3.1367 H              1 S1                 0.0000
     23 ****        -1.3746   0.5842  -3.2111 H              1 S1                 0.0000
     24 ****        -1.8837   0.8410  -0.7945 H              1 S1                 0.0000
     25 ****         0.1103  -1.2385  -1.5450 H              1 S1                 0.0000
     26 ****         2.0940  -1.1779   0.4883 H              1 S1                 0.0000
     27 ****         2.3049  -0.7461  -1.1784 H              1 S1                 0.0000
     28 ****         3.1470   0.0281   2.2075 H              1 S1                 0.0000
     29 ****         4.7388   1.6653   2.9411 H              1 S1                 0.0000
     30 ****        -2.4045  -2.1747  -0.8352 H              1 S1                 0.0000
     31 ****        -1.4007  -1.7958   1.3612 H              1 S1                 0.0000
     32 ****        -2.1965  -0.2223   1.5011 H              1 S1                 0.0000
     33 ****        -3.5143  -2.9520   1.4577 H              1 S1                 0.0000
     34 ****        -3.7757  -1.6615   2.6358 H              1 S1                 0.0000
     35 ****        -5.3797  -2.0206   0.3783 H              1 S1                 0.0000
     36 ****        -5.1199  -0.4300   1.0979 H              1 S1                 0.0000
     37 ****        -0.6650   1.4668   0.4986 LP             1 S1                 0.0000
     38 ****         0.9644   1.5991   1.0708 LP             1 S1                 0.0000
     39 ****         6.1014   3.6073   2.2117 LP             1 S1                 0.0000
     40 ****         6.0474   4.1961   0.5837 LP             1 S1                 0.0000
     41 ****         2.4498   0.9706  -2.2367 LP             1 S1                 0.0000
     42 ****         3.4654   2.3367  -2.5565 LP             1 S1                 0.0000
     43 ****        -4.3062  -1.2734  -1.3269 LP             1 S1                 0.0000
     44 ****        -4.0089   0.1554  -0.5942 LP             1 S1                 0.0000
@<TRIPOS>BOND
    1    1    2 1     
    2    1   21 1     
    3    1   22 1     
    4    1   23 1     
    5    2    3 1     
    6    2   15 1     
    7    2   24 1     
    8    3    4 am    
    9    3   25 1     
   10    4    5 2     
   11    4    6 1     
   12    6    7 1     
   13    6   26 1     
   14    6   27 1     
   15    7   13 1     
   16    7    8 1     
   17    8    9 2     
   18    8   28 1     
   19    9   10 1     
   20    9   29 1     
   21   10   11 2     
   22   10   12 1     
   23   12   20 1     
   24   12   13 1     
   25   13   14 2     
   26   15   19 1     
   27   15   16 1     
   28   15   30 1     
   29   16   17 1     
   30   16   31 1     
   31   16   32 1     
   32   17   18 1     
   33   17   33 1     
   34   17   34 1     
   35   18   19 1     
   36   18   35 1     
   37   18   36 1     
   38    5   37 1     
   39    5   38 1     
   40   11   39 1     
   41   11   40 1     
   42   14   41 1     
   43   14   42 1     
   44   19   43 1     
   45   19   44 1     
@<TRIPOS>SUBSTRUCTURE
      1 S1             1
@<TRIPOS>SET
LONE_PAIRS      STATIC     ATOMS    <user>   **** ""
8 37 38 39 40 41 42 43 44
DONOR_HYDROGENS      STATIC     ATOMS    <user>   **** ""
2 25 20
ATOM$BLUE        STATIC     ATOMS    COLORGROUP SYSTEM
8 37 38 39 40 41 42 43 44
ATOM$RED        STATIC     ATOMS    COLORGROUP SYSTEM
2 25 20
