AV-unprocessed.smi:911|AV-procd|sdf|4137|dock2
  -GOLD-   22720 2 43D 1   1.00000     0.00000
 Structure written by MMmdl.
 47 49  0  0  0  0  0  0  0  0  3 V2000
  144.6118  134.8783  162.1790 C   0  0  0  0  0  0  0  0  0  0  0  0
  145.8522  135.6480  161.6437 C   0  0  0  0  0  0  0  0  0  0  0  0
  145.2786  136.9441  161.0038 C   0  0  0  0  0  0  0  0  0  0  0  0
  146.9497  135.8918  162.6987 C   0  0  1  0  0  0  0  0  0  0  0  0
  147.4088  134.4659  163.0800 C   0  0  0  0  0  0  0  0  0  0  0  0
  147.3018  133.7096  161.7394 C   0  0  0  0  0  0  0  0  0  0  0  0
  146.8230  134.8134  160.7608 C   0  0  1  0  0  0  0  0  0  0  0  0
  146.2215  134.2315  159.4660 C   0  0  0  0  0  0  0  0  0  0  0  0
  148.0658  135.7377  160.5639 C   0  0  1  0  0  0  0  0  0  0  0  0
  147.9515  136.6123  159.4003 N   0  0  0  0  0  0  0  0  0  0  0  0
  148.8073  136.7143  158.3702 C   0  0  0  0  0  0  0  0  0  0  0  0
  149.8701  136.0976  158.3136 O   0  0  0  0  0  0  0  0  0  0  0  0
  148.4032  137.6269  157.1988 C   0  0  0  0  0  0  0  0  0  0  0  0
  149.3852  138.6830  156.8880 N   0  0  0  0  0  0  0  0  0  0  0  0
  150.4517  138.3226  156.0408 C   0  0  0  0  0  0  0  0  0  0  0  0
  151.3824  139.2109  155.6426 C   0  0  0  0  0  0  0  0  0  0  0  0
  152.4499  138.8290  154.7454 N   0  3  0  0  0  0  0  0  0  0  0  0
  152.3720  137.7519  154.1634 O   0  0  0  0  0  0  0  0  0  0  0  0
  153.4020  139.5889  154.5958 O   0  5  0  0  0  0  0  0  0  0  0  0
  151.2655  140.5722  156.1280 C   0  0  0  0  0  0  0  0  0  0  0  0
  150.2453  140.9250  156.9347 C   0  0  0  0  0  0  0  0  0  0  0  0
  149.2224  139.9600  157.3515 C   0  0  0  0  0  0  0  0  0  0  0  0
  148.2718  140.2834  158.0630 O   0  0  0  0  0  0  0  0  0  0  0  0
  148.1035  136.5286  161.8905 C   0  0  0  0  0  0  0  0  0  0  0  0
  144.0751  135.4796  162.9134 H   0  0  0  0  0  0  0  0  0  0  0  0
  144.8278  133.9281  162.6619 H   0  0  0  0  0  0  0  0  0  0  0  0
  143.9124  134.6627  161.3708 H   0  0  0  0  0  0  0  0  0  0  0  0
  146.0175  137.6618  160.6595 H   0  0  0  0  0  0  0  0  0  0  0  0
  144.6568  137.4822  161.7200 H   0  0  0  0  0  0  0  0  0  0  0  0
  144.6455  136.7079  160.1479 H   0  0  0  0  0  0  0  0  0  0  0  0
  146.6403  136.4910  163.5558 H   0  0  0  0  0  0  0  0  0  0  0  0
  148.4236  134.4510  163.4796 H   0  0  0  0  0  0  0  0  0  0  0  0
  146.7612  134.0231  163.8372 H   0  0  0  0  0  0  0  0  0  0  0  0
  148.2526  133.2659  161.4418 H   0  0  0  0  0  0  0  0  0  0  0  0
  146.5882  132.8882  161.8081 H   0  0  0  0  0  0  0  0  0  0  0  0
  146.9742  133.6808  158.9011 H   0  0  0  0  0  0  0  0  0  0  0  0
  145.8245  135.0110  158.8157 H   0  0  0  0  0  0  0  0  0  0  0  0
  145.4053  133.5426  159.6831 H   0  0  0  0  0  0  0  0  0  0  0  0
  148.9767  135.1438  160.4706 H   0  0  0  0  0  0  0  0  0  0  0  0
  147.1083  137.1652  159.3506 H   0  0  0  0  0  0  0  0  0  0  0  0
  148.2040  137.0019  156.3269 H   0  0  0  0  0  0  0  0  0  0  0  0
  147.4430  138.0849  157.4410 H   0  0  0  0  0  0  0  0  0  0  0  0
  150.4403  137.2887  155.7261 H   0  0  0  0  0  0  0  0  0  0  0  0
  151.9949  141.3183  155.8484 H   0  0  0  0  0  0  0  0  0  0  0  0
  150.1773  141.9450  157.2839 H   0  0  0  0  0  0  0  0  0  0  0  0
  147.9426  137.5966  161.7413 H   0  0  0  0  0  0  0  0  0  0  0  0
  149.0643  136.4275  162.3967 H   0  0  0  0  0  0  0  0  0  0  0  0
  1  2  1  0  0  0  0
  1 25  1  0  0  0  0
  1 26  1  0  0  0  0
  1 27  1  0  0  0  0
  2  7  1  0  0  0  0
  2  3  1  0  0  0  0
  2  4  1  0  0  0  0
  3 28  1  0  0  0  0
  3 29  1  0  0  0  0
  3 30  1  0  0  0  0
  4 24  1  0  0  0  0
  4  5  1  0  0  0  0
  4 31  1  0  0  0  0
  5  6  1  0  0  0  0
  5 32  1  0  0  0  0
  5 33  1  0  0  0  0
  6  7  1  0  0  0  0
  6 34  1  0  0  0  0
  6 35  1  0  0  0  0
  7  8  1  0  0  0  0
  7  9  1  0  0  0  0
  8 36  1  0  0  0  0
  8 37  1  0  0  0  0
  8 38  1  0  0  0  0
  9 10  1  0  0  0  0
  9 24  1  0  0  0  0
  9 39  1  0  0  0  0
 10 11  1  0  0  0  0
 10 40  1  0  0  0  0
 11 12  2  0  0  0  0
 11 13  1  0  0  0  0
 13 14  1  0  0  0  0
 13 41  1  0  0  0  0
 13 42  1  0  0  0  0
 14 22  1  0  0  0  0
 14 15  1  0  0  0  0
 15 16  2  0  0  0  0
 15 43  1  0  0  0  0
 16 17  1  0  0  0  0
 16 20  1  0  0  0  0
 17 18  2  0  0  0  0
 17 19  1  0  0  0  0
 20 21  2  0  0  0  0
 20 44  1  0  0  0  0
 21 22  1  0  0  0  0
 21 45  1  0  0  0  0
 22 23  2  0  0  0  0
 24 46  1  0  0  0  0
 24 47  1  0  0  0  0
M  CHG  1  17   1
M  CHG  1  19  -1
M  END
> <s_m_source_file>
AV-unprocessed.smi

> <i_m_source_file_index>
911

> <i_lp_mmshare_version>
43012

> <i_f3d_flags>
0

> <s_epik_input>
W0NIM11bQ0BdMTJDKFtDSDNdKShbQ0gzXSlbQ0BIXShbQ0gyXVtDSDJdMSlbQ0gyXVtDQEBIXTJbTkhdQyg9TylbQ0gyXW4zW2NIXWMoW04rXSg9TylbTy1dKVtjSF1bY0hdYzM9Tw==

> <s_epik_cmdline>
J2VwaWtfcHl0aG9uJywgJy1waCcsICc3LjAnLCAnLXRuJywgJzgnLCAnLW1hJywgJzIwMCcsICctbWV0YWxfYmluZGluZycsICctaW1hZScsICc8aW5maWxlLm1hZT4nLCAnLW9tYWUnLCAnPG91dGZpbGUubWFlPic=

> <r_lp_tautomer_probability>
1

> <r_epik_Ionization_Penalty>
2.04092e-08

> <r_epik_Ionization_Penalty_Charging>
8.54191e-11

> <r_epik_Ionization_Penalty_Neutral>
2.03238e-08

> <r_epik_State_Penalty>
-0

> <r_epik_Charging_Adjusted_Penalty>
8.54191e-11

> <i_epik_Tot_Q>
0

> <i_epik_Tot_abs_Q>
2

> <r_epik_Metal_State_Penalty>
-0

> <b_epik_Metal_Only>
0

> <s_lp_Force_Field>
OPLS_2005

> <r_lp_Energy>
66.6043

> <b_lp_Chiralities_Consistent>
1

> <s_lp_Variant>
AV-unprocessed.smi:911-2

> <Gold.Version>
5.8.1

> <Gold.Id.Protein>
6NUR|6NUR_protein|mol2

> <Gold.PLP.Fitness>
44.4597

> <Gold.PLP.PLP>
-37.1074

> <Gold.PLP.part.hbond>
-4.7708

> <Gold.PLP.part.metal>
0.0000

> <Gold.PLP.part.buried>
-3.1838

> <Gold.PLP.part.nonpolar>
-30.2984

> <Gold.PLP.part.repulsive>
0.3139

> <Gold.PLP.ligand.clash>
0.0000

> <Gold.PLP.ligand.torsion>
0.4240

> <Gold.PLP.Chemscore.Hbond>
2.7200

> <Gold.PLP.Chemscore.CHOScore>
0.0000

> <Gold.PLP.Chemscore.Metal>
0.0000

> <Gold.Chemscore.Hbonds>
donor molecule, donor type, donor heavy atom, donor atom, acceptor molecule, acceptor atom, score
      P1  H  6896  6909       L1    12  0.88
      P1  H  7997  8010       L1    19  1.00
      P1  H 10752 10765       L1    18  0.51

> <Gold.PLP.Chemscore.Internal.Correction>
0.0403

> <Gold.Rescore>
     Score         DG    S(hbond)    S(metal)    S(lipo)     H(rot)  DE(clash)    DE(int)     intcor
     20.10     -20.59       2.65        0.00      86.96       1.53       0.11       0.38       ----

> <Gold.Chemscore.Fitness>
20.0958

> <Gold.Chemscore.DG>
-20.5895

> <Gold.Chemscore.ZeroCoef>
-5.4800

> <Gold.Chemscore.Hbond>
2.6484

> <Gold.Chemscore.Metal>
0.0000

> <Gold.Chemscore.Lipo>
86.9646

> <Gold.Chemscore.Internal_Hbond>
0.0000

> <Gold.Chemscore.DEClash>
0.1103

> <Gold.Chemscore.DEInternal>
0.3834

> <Gold.Chemscore.Rot>
1.5277

> <Gold.Chemscore.Internal.Correction>
   9.000000E+99

> <Gold.Chemscore.Hbonds>
donor molecule, donor type, donor heavy atom, donor atom, acceptor molecule, acceptor atom, score
      P1  H  6896  6909       L1    12  0.83
      P1  H  7997  8010       L1    19  0.99
      P1  H 10752 10765       L1    18  0.51

> <Gold.Chemscore.Hbond.Weighted>
-8.8457

> <Gold.Chemscore.Metal.Weighted>
-0.0000

> <Gold.Chemscore.Lipo.Weighted>
-10.1749

> <Gold.Chemscore.Internal_Hbond.Weighted>
0.0000

> <Gold.Chemscore.DEClash.Weighted>
0.1103

> <Gold.Chemscore.DEInternal.Weighted>
0.3834

> <Gold.Chemscore.Rot.Weighted>
3.9110

> <Gold.Chemscore.Internal.Correction.Weighted>
   9.000000E+99

> <Gold.Protein.RotatedTorsions>
[ 6907 6896 6895 6894 ] final   61.31 input  -60.11 | X-H torsion
[ 7974 7965 7964 7962 ] final  -12.71 input  175.53 | X-H torsion
[ 8008 7997 7996 7995 ] final  131.94 input   59.86 | X-H torsion
[ 10167 10162 10161 10158 ] final  158.50 input  -65.29 | X-H torsion
[ 10718 10713 10712 10709 ] final   49.04 input   66.30 | X-H torsion
[ 10763 10752 10751 10750 ] final  154.36 input  -60.55 | X-H torsion
[ 11005 11000 10999 10996 ] final -167.21 input  -57.11 | X-H torsion

> <Gold.Protein.ActiveResidues>
 VAL166  LYS551  ARG553  GLY616  TRP617  ASP618  TYR619  PRO620  LYS621  CYS622 
 ASP623  PHE694  ASN695  SER759  ASP760  ASP761  ALA762  ILE779  LEU786  VAL792 
 PHE793  MET794  SER795  GLU796  ALA797  LYS798  CYS799  TRP800  GLU811  SER814 

> <Gold.Protein.RotatedAtoms>
  152.4078  134.6177  160.0042 H   0  0  0  0  0  0  0  0  0  0  0  0  # atno 6907 bound_to 6896
  151.6364  133.3323  159.3128 H   0  0  0  0  0  0  0  0  0  0  0  0  # atno 6908 bound_to 6896
  150.7971  134.7079  159.6632 H   0  0  0  0  0  0  0  0  0  0  0  0  # atno 6909 bound_to 6896
  146.2142  140.3097  142.8381 H   0  0  0  0  0  0  0  0  0  0  0  0  # atno 7974 bound_to 7965
  156.2976  140.2559  156.3007 H   0  0  0  0  0  0  0  0  0  0  0  0  # atno 8008 bound_to 7997
  154.9420  140.0396  157.2120 H   0  0  0  0  0  0  0  0  0  0  0  0  # atno 8009 bound_to 7997
  154.8117  140.2845  155.5853 H   0  0  0  0  0  0  0  0  0  0  0  0  # atno 8010 bound_to 7997
  139.4827  144.4818  151.8433 H   0  0  0  0  0  0  0  0  0  0  0  0  # atno 10167 bound_to 10162
  157.4747  130.8277  149.8026 H   0  0  0  0  0  0  0  0  0  0  0  0  # atno 10718 bound_to 10713
  154.1511  135.2815  155.3135 H   0  0  0  0  0  0  0  0  0  0  0  0  # atno 10763 bound_to 10752
  154.6216  135.5465  153.7585 H   0  0  0  0  0  0  0  0  0  0  0  0  # atno 10764 bound_to 10752
  153.0221  135.6440  154.1655 H   0  0  0  0  0  0  0  0  0  0  0  0  # atno 10765 bound_to 10752
  140.5557  134.5383  157.5132 H   0  0  0  0  0  0  0  0  0  0  0  0  # atno 11005 bound_to 11000
  144.8997  140.7628  143.5874 LP  0  0  0  0  0  0  0  0  0  0  0  0  # atno 17320 bound_to 7965
  145.3022  139.1846  143.4683 LP  0  0  0  0  0  0  0  0  0  0  0  0  # atno 17321 bound_to 7965
  140.4295  144.2135  150.5887 LP  0  0  0  0  0  0  0  0  0  0  0  0  # atno 17342 bound_to 10162
  140.4793  143.2384  151.8978 LP  0  0  0  0  0  0  0  0  0  0  0  0  # atno 17343 bound_to 10162
  156.0091  130.3842  150.2328 LP  0  0  0  0  0  0  0  0  0  0  0  0  # atno 17370 bound_to 10713
  157.0512  131.0063  151.3253 LP  0  0  0  0  0  0  0  0  0  0  0  0  # atno 17371 bound_to 10713
  139.9432  134.7748  156.0625 LP  0  0  0  0  0  0  0  0  0  0  0  0  # atno 17394 bound_to 11000
  141.1145  133.6632  156.3059 LP  0  0  0  0  0  0  0  0  0  0  0  0  # atno 17395 bound_to 11000

$$$$
