AV-unprocessed.smi:47|AV-procd|sdf|443|dock6
  -GOLD-   2262016313D 1   1.00000     0.00000
 Structure written by MMmdl.
 30 32  0  0  0  0  0  0  0  0  2 V2000
  145.2169  140.6705  154.8580 O   0  0  0  0  0  0  0  0  0  0  0  0
  146.6118  140.4551  154.8240 C   0  0  1  0  0  0  0  0  0  0  0  0
  147.1063  140.0593  153.4391 C   0  0  0  0  0  0  0  0  0  0  0  0
  148.5333  140.3467  153.4675 N   0  0  0  0  0  0  0  0  0  0  0  0
  148.7407  141.4985  154.3531 C   0  0  2  0  0  0  0  0  0  0  0  0
  149.9037  141.3006  155.3085 C   0  0  0  0  0  0  0  0  0  0  0  0
  150.8583  140.3556  155.1853 N   0  0  0  0  0  0  0  0  0  0  0  0
  151.6501  140.4936  156.2320 N   0  5  0  0  0  0  0  0  0  0  0  0
  151.1687  141.5001  156.9771 C   0  0  0  0  0  0  0  0  0  0  0  0
  151.8121  141.9266  158.2370 C   0  0  0  0  0  0  0  0  0  0  0  0
  152.6976  141.0591  158.9180 C   0  0  0  0  0  0  0  0  0  0  0  0
  153.3184  141.4510  160.1202 C   0  0  0  0  0  0  0  0  0  0  0  0
  153.0626  142.7234  160.6621 C   0  0  0  0  0  0  0  0  0  0  0  0
  152.1854  143.5999  159.9982 C   0  0  0  0  0  0  0  0  0  0  0  0
  151.5662  143.2028  158.7970 C   0  0  0  0  0  0  0  0  0  0  0  0
  150.0774  142.0172  156.4301 N   0  0  0  0  0  0  0  0  0  0  0  0
  147.4156  141.7206  155.1052 C   0  0  0  0  0  0  0  0  0  0  0  0
  146.8774  139.6805  155.5451 H   0  0  0  0  0  0  0  0  0  0  0  0
  148.9539  142.3834  153.7521 H   0  0  0  0  0  0  0  0  0  0  0  0
  144.8687  140.5032  153.9955 H   0  0  0  0  0  0  0  0  0  0  0  0
  146.9043  139.0148  153.2012 H   0  0  0  0  0  0  0  0  0  0  0  0
  146.6233  140.6768  152.6804 H   0  0  0  0  0  0  0  0  0  0  0  0
  148.8453  140.5723  152.5289 H   0  0  0  0  0  0  0  0  0  0  0  0
  152.9077  140.0784  158.5171 H   0  0  0  0  0  0  0  0  0  0  0  0
  153.9910  140.7736  160.6249 H   0  0  0  0  0  0  0  0  0  0  0  0
  153.5375  143.0264  161.5836 H   0  0  0  0  0  0  0  0  0  0  0  0
  151.9862  144.5784  160.4094 H   0  0  0  0  0  0  0  0  0  0  0  0
  150.8958  143.8924  158.3054 H   0  0  0  0  0  0  0  0  0  0  0  0
  146.9077  142.5856  154.6760 H   0  0  0  0  0  0  0  0  0  0  0  0
  147.5433  141.9125  156.1715 H   0  0  0  0  0  0  0  0  0  0  0  0
  1  2  1  0  0  0  0
  1 20  1  0  0  0  0
  2 18  1  0  0  0  0
  2 17  1  0  0  0  0
  2  3  1  0  0  0  0
  3  4  1  0  0  0  0
  3 21  1  0  0  0  0
  3 22  1  0  0  0  0
  4  5  1  0  0  0  0
  4 23  1  0  0  0  0
  5 19  1  0  0  0  0
  5  6  1  0  0  0  0
  5 17  1  0  0  0  0
  6 16  1  0  0  0  0
  6  7  2  0  0  0  0
  7  8  1  0  0  0  0
  8  9  1  0  0  0  0
  9 10  1  0  0  0  0
  9 16  2  0  0  0  0
 10 15  1  0  0  0  0
 10 11  2  0  0  0  0
 11 12  1  0  0  0  0
 11 24  1  0  0  0  0
 12 13  2  0  0  0  0
 12 25  1  0  0  0  0
 13 14  1  0  0  0  0
 13 26  1  0  0  0  0
 14 15  2  0  0  0  0
 14 27  1  0  0  0  0
 15 28  1  0  0  0  0
 17 29  1  0  0  0  0
 17 30  1  0  0  0  0
M  CHG  1   8  -1
M  END
> <s_m_source_file>
AV-unprocessed.smi

> <i_m_source_file_index>
47

> <i_lp_mmshare_version>
43012

> <i_f3d_flags>
0

> <s_epik_input>
W09IXVtDQEhdMVtDSDJdW05IXVtDQEBIXShbQ0gyXTEpYzJuW25IXWMobjIpLWMzW2NIXVtjSF1bY0hdW2NIXVtjSF0z

> <s_epik_cmdline>
J2VwaWtfcHl0aG9uJywgJy1waCcsICc3LjAnLCAnLXRuJywgJzgnLCAnLW1hJywgJzIwMCcsICctbWV0YWxfYmluZGluZycsICctaW1hZScsICc8aW5maWxlLm1hZT4nLCAnLW9tYWUnLCAnPG91dGZpbGUubWFlPic=

> <r_epik_Ionization_Penalty>
16.1968

> <r_epik_Ionization_Penalty_Charging>
13.1522

> <r_epik_Ionization_Penalty_Neutral>
3.04463

> <r_epik_State_Penalty>
6.32428

> <r_epik_Charging_Adjusted_Penalty>
19.4764

> <i_epik_Tot_Q>
-1

> <i_epik_Tot_abs_Q>
1

> <r_epik_Metal_State_Penalty>
2.82187

> <b_epik_Metal_Only>
1

> <s_lp_Force_Field>
OPLS_2005

> <r_lp_Energy>
30.4725

> <b_lp_Chiralities_Consistent>
1

> <s_lp_Variant>
AV-unprocessed.smi:47-21

> <Gold.Version>
5.8.1

> <Gold.Id.Protein>
6NUR|6NUR_protein|mol2

> <Gold.PLP.Fitness>
43.4060

> <Gold.PLP.PLP>
-35.7606

> <Gold.PLP.part.hbond>
-3.0000

> <Gold.PLP.part.metal>
0.0000

> <Gold.PLP.part.buried>
-5.5830

> <Gold.PLP.part.nonpolar>
-28.1709

> <Gold.PLP.part.repulsive>
0.6100

> <Gold.PLP.ligand.clash>
0.0000

> <Gold.PLP.ligand.torsion>
0.6225

> <Gold.PLP.Chemscore.Hbond>
2.9600

> <Gold.PLP.Chemscore.CHOScore>
0.0000

> <Gold.PLP.Chemscore.Metal>
0.0000

> <Gold.Chemscore.Hbonds>
donor molecule, donor type, donor heavy atom, donor atom, acceptor molecule, acceptor atom, score
      L1  H     1    20       P1 10175  1.00
      L1  H     4    23       P1  7957  0.94
      P1  H  7989  7998       L1     7  1.00

> <Gold.PLP.Chemscore.Internal.Correction>
0.0103

> <Gold.Rescore>
     Score         DG    S(hbond)    S(metal)    S(lipo)     H(rot)  DE(clash)    DE(int)     intcor
     18.07     -18.80       2.14        0.00      84.79       1.46       0.12       0.60       ----

> <Gold.Chemscore.Fitness>
18.0748

> <Gold.Chemscore.DG>
-18.7966

> <Gold.Chemscore.ZeroCoef>
-5.4800

> <Gold.Chemscore.Hbond>
2.1373

> <Gold.Chemscore.Metal>
0.0000

> <Gold.Chemscore.Lipo>
84.7939

> <Gold.Chemscore.Internal_Hbond>
0.0000

> <Gold.Chemscore.DEClash>
0.1214

> <Gold.Chemscore.DEInternal>
0.6003

> <Gold.Chemscore.Rot>
1.4621

> <Gold.Chemscore.Internal.Correction>
   9.000000E+99

> <Gold.Chemscore.Hbonds>
donor molecule, donor type, donor heavy atom, donor atom, acceptor molecule, acceptor atom, score
      L1  H     1    20       P1 10175  0.99
      L1  H     4    23       P1  7957  0.92
      P1  H  7989  7998       L1     7  0.23

> <Gold.Chemscore.Hbond.Weighted>
-7.1385

> <Gold.Chemscore.Metal.Weighted>
-0.0000

> <Gold.Chemscore.Lipo.Weighted>
-9.9209

> <Gold.Chemscore.Internal_Hbond.Weighted>
0.0000

> <Gold.Chemscore.DEClash.Weighted>
0.1214

> <Gold.Chemscore.DEInternal.Weighted>
0.6003

> <Gold.Chemscore.Rot.Weighted>
3.7429

> <Gold.Chemscore.Internal.Correction.Weighted>
   9.000000E+99

> <Gold.Protein.RotatedTorsions>
[ 6907 6896 6895 6894 ] final   -9.45 input  -60.11 | X-H torsion
[ 7974 7965 7964 7962 ] final   25.62 input  175.53 | X-H torsion
[ 8008 7997 7996 7995 ] final   49.09 input   59.86 | X-H torsion
[ 10167 10162 10161 10158 ] final -178.55 input  -65.29 | X-H torsion
[ 10718 10713 10712 10709 ] final   54.18 input   66.30 | X-H torsion
[ 10763 10752 10751 10750 ] final   36.85 input  -60.55 | X-H torsion
[ 11005 11000 10999 10996 ] final  107.04 input  -57.11 | X-H torsion

> <Gold.Protein.ActiveResidues>
 VAL166  LYS551  ARG553  GLY616  TRP617  ASP618  TYR619  PRO620  LYS621  CYS622 
 ASP623  PHE694  ASN695  SER759  ASP760  ASP761  ALA762  ILE779  LEU786  VAL792 
 PHE793  MET794  SER795  GLU796  ALA797  LYS798  CYS799  TRP800  GLU811  SER814 

> <Gold.Protein.RotatedAtoms>
  151.4175  135.0993  159.9603 H   0  0  0  0  0  0  0  0  0  0  0  0  # atno 6907 bound_to 6896
  152.4999  133.8738  159.7322 H   0  0  0  0  0  0  0  0  0  0  0  0  # atno 6908 bound_to 6896
  150.9247  133.6781  159.2852 H   0  0  0  0  0  0  0  0  0  0  0  0  # atno 6909 bound_to 6896
  146.1879  139.7440  142.8853 H   0  0  0  0  0  0  0  0  0  0  0  0  # atno 7974 bound_to 7965
  155.3965  140.3436  155.4254 H   0  0  0  0  0  0  0  0  0  0  0  0  # atno 8008 bound_to 7997
  156.1528  140.1576  156.8775 H   0  0  0  0  0  0  0  0  0  0  0  0  # atno 8009 bound_to 7997
  154.5067  140.0800  156.7890 H   0  0  0  0  0  0  0  0  0  0  0  0  # atno 8010 bound_to 7997
  139.5427  144.2319  152.0927 H   0  0  0  0  0  0  0  0  0  0  0  0  # atno 10167 bound_to 10162
  157.5234  130.8580  149.8589 H   0  0  0  0  0  0  0  0  0  0  0  0  # atno 10718 bound_to 10713
  153.0060  135.6294  154.2051 H   0  0  0  0  0  0  0  0  0  0  0  0  # atno 10763 bound_to 10752
  154.1795  135.2814  155.3058 H   0  0  0  0  0  0  0  0  0  0  0  0  # atno 10764 bound_to 10752
  154.5846  135.5637  153.7278 H   0  0  0  0  0  0  0  0  0  0  0  0  # atno 10765 bound_to 10752
  139.8822  134.9388  156.5758 H   0  0  0  0  0  0  0  0  0  0  0  0  # atno 11005 bound_to 11000
  145.3882  141.0368  143.3139 LP  0  0  0  0  0  0  0  0  0  0  0  0  # atno 17320 bound_to 7965
  144.8431  139.5439  143.6891 LP  0  0  0  0  0  0  0  0  0  0  0  0  # atno 17321 bound_to 7965
  140.1800  144.4853  150.6533 LP  0  0  0  0  0  0  0  0  0  0  0  0  # atno 17342 bound_to 10162
  140.6663  143.2269  151.5734 LP  0  0  0  0  0  0  0  0  0  0  0  0  # atno 17343 bound_to 10162
  156.0369  130.3749  150.1535 LP  0  0  0  0  0  0  0  0  0  0  0  0  # atno 17370 bound_to 10713
  156.9723  130.9838  151.3456 LP  0  0  0  0  0  0  0  0  0  0  0  0  # atno 17371 bound_to 10713
  140.8064  133.8464  155.8771 LP  0  0  0  0  0  0  0  0  0  0  0  0  # atno 17394 bound_to 11000
  140.9546  134.1734  157.4701 LP  0  0  0  0  0  0  0  0  0  0  0  0  # atno 17395 bound_to 11000

$$$$
