#       Name:                AV-unprocessed.smi:899
#       Creating user name   scv26
#       Creation time:       Fri Mar 27 01:57:32 2020


#       File generated by GOLD software.
#

@<TRIPOS>MOLECULE
AV-unprocessed.smi:899
    40    41     1
SMALL
NO_CHARGES


@<TRIPOS>ATOM
      1 ****        -6.4100  -2.3719   2.2213 N.1            1 S1                 0.0000
      2 ****        -5.9725  -2.1170   1.1811 C.1            1 S1                 0.0000
      3 ****        -5.4164  -1.7932  -0.1415 C.3            1 S1                 0.0000
      4 ****        -3.9102  -1.6373  -0.1040 C.ar           1 S1                 0.0000
      5 ****        -3.0847  -2.7755  -0.0216 C.ar           1 S1                 0.0000
      6 ****        -1.6845  -2.6312   0.0108 C.ar           1 S1                 0.0000
      7 ****        -1.0880  -1.3545  -0.0403 C.ar           1 S1                 0.0000
      8 ****         0.2892  -1.3063  -0.0095 O.3            1 S1                 0.0000
      9 ****         0.9191  -0.0352  -0.0830 C.3            1 S1                 0.0000
     10 ****         2.4414  -0.2433  -0.0615 C.3            1 S1                 0.0000
     11 ****         3.1775   0.9965  -0.0681 N.am           1 S1                 0.0000
     12 ****         3.6943   1.5614   1.0877 C.2            1 S1                 0.0000
     13 ****         4.3736   2.7338   1.1015 C.2            1 S1                 0.0000
     14 ****         4.9877   3.3743   2.5836 Cl             1 S1                 0.0000
     15 ****         4.5892   3.4694  -0.1442 C.2            1 S1                 0.0000
     16 ****         5.1909   4.5366  -0.2463 O.2            1 S1                 0.0000
     17 ****         4.0441   2.8665  -1.2820 N.am           1 S1                 0.0000
     18 ****         3.3416   1.6612  -1.3051 C.2            1 S1                 0.0000
     19 ****         2.8982   1.2291  -2.3692 O.2            1 S1                 0.0000
     20 ****        -1.9254  -0.2128  -0.1197 C.ar           1 S1                 0.0000
     21 ****        -3.3262  -0.3562  -0.1513 C.ar           1 S1                 0.0000
     22 ****         4.1674   3.3457  -2.1622 H              1 S1                 0.0000
     23 ****        -5.6885  -2.5893  -0.8349 H              1 S1                 0.0000
     24 ****        -5.8848  -0.8748  -0.4962 H              1 S1                 0.0000
     25 ****        -3.5237  -3.7618   0.0174 H              1 S1                 0.0000
     26 ****        -1.0612  -3.5112   0.0736 H              1 S1                 0.0000
     27 ****         0.6216   0.4777  -0.9989 H              1 S1                 0.0000
     28 ****         0.6200   0.5813   0.7663 H              1 S1                 0.0000
     29 ****         2.7447  -0.7735   0.8425 H              1 S1                 0.0000
     30 ****         2.7947  -0.8445  -0.9022 H              1 S1                 0.0000
     31 ****         3.5491   1.0463   2.0269 H              1 S1                 0.0000
     32 ****        -1.5180   0.7860  -0.1584 H              1 S1                 0.0000
     33 ****        -3.9513   0.5226  -0.2127 H              1 S1                 0.0000
     34 ****        -6.7881  -2.5922   3.1204 LP             1 S1                 0.0000
     35 ****         0.6220  -1.8470  -0.7821 LP             1 S1                 0.0000
     36 ****         0.5816  -1.7328   0.8464 LP             1 S1                 0.0000
     37 ****         5.5804   4.9708   0.5660 LP             1 S1                 0.0000
     38 ****         5.2909   4.9706  -1.1417 LP             1 S1                 0.0000
     39 ****         2.3927   0.3665  -2.3867 LP             1 S1                 0.0000
     40 ****         3.0436   1.7408  -3.2160 LP             1 S1                 0.0000
@<TRIPOS>BOND
    1    1    2 3     
    2    2    3 1     
    3    3    4 1     
    4    3   23 1     
    5    3   24 1     
    6    4   21 ar    
    7    4    5 ar    
    8    5    6 ar    
    9    5   25 1     
   10    6    7 ar    
   11    6   26 1     
   12    7    8 1     
   13    7   20 ar    
   14    8    9 1     
   15    9   10 1     
   16    9   27 1     
   17    9   28 1     
   18   10   11 1     
   19   10   29 1     
   20   10   30 1     
   21   11   18 1     
   22   11   12 1     
   23   12   13 2     
   24   12   31 1     
   25   13   14 1     
   26   13   15 1     
   27   15   16 2     
   28   15   17 1     
   29   17   22 1     
   30   17   18 1     
   31   18   19 2     
   32   20   21 ar    
   33   20   32 1     
   34   21   33 1     
   35    1   34 1     
   36    8   35 1     
   37    8   36 1     
   38   16   37 1     
   39   16   38 1     
   40   19   39 1     
   41   19   40 1     
@<TRIPOS>SUBSTRUCTURE
      1 S1             1
@<TRIPOS>SET
LONE_PAIRS      STATIC     ATOMS    <user>   **** ""
7 34 35 36 37 38 39 40
DONOR_HYDROGENS      STATIC     ATOMS    <user>   **** ""
1 22
ATOM$BLUE        STATIC     ATOMS    COLORGROUP SYSTEM
7 34 35 36 37 38 39 40
ATOM$RED        STATIC     ATOMS    COLORGROUP SYSTEM
1 22
