#       Name:                AV-unprocessed.smi:843
#       Creating user name   scv26
#       Creation time:       Fri Mar 27 01:38:19 2020


#       File generated by GOLD software.
#

@<TRIPOS>MOLECULE
AV-unprocessed.smi:843
    51    52     1
SMALL
NO_CHARGES


@<TRIPOS>ATOM
      1 ****        -5.8301   2.8537  -0.6510 C.3            1 S1                 0.0000
      2 ****        -4.3115   3.0729  -0.5887 C.3            1 S1                 0.0000
      3 ****        -3.5490   1.7991  -0.6135 N.4            1 S1                 1.0000
      4 ****        -2.1753   1.9591  -0.0723 C.3            1 S1                 0.0000
      5 ****        -1.4499   0.6066   0.0222 C.3            1 S1                 0.0000
      6 ****        -1.4036  -0.1118  -1.3415 C.3            1 S1                 0.0000
      7 ****        -0.7388  -1.5035  -1.2762 C.3            1 S1                 0.0000
      8 ****         0.6686  -1.4401  -0.8911 N.am           1 S1                 0.0000
      9 ****         1.1480  -1.6477   0.3439 C.2            1 S1                 0.0000
     10 ****         0.4310  -1.8884   1.3144 O.2            1 S1                 0.0000
     11 ****         2.4879  -1.5428   0.3630 N.am           1 S1                 0.0000
     12 ****         3.3981  -1.6702   1.4514 C.ar           1 S1                 0.0000
     13 ****         3.0354  -2.0853   2.7572 C.ar           1 S1                 0.0000
     14 ****         4.0309  -2.1759   3.7476 C.ar           1 S1                 0.0000
     15 ****         5.3547  -1.8524   3.4003 C.ar           1 S1                 0.0000
     16 ****         5.7175  -1.4619   2.1618 N.ar           1 S1                 0.0000
     17 ****         4.7600  -1.3741   1.2046 C.ar           1 S1                 0.0000
     18 ****         5.1374  -0.9785  -0.0650 O.3            1 S1                 0.0000
     19 ****         6.5105  -0.6922  -0.3087 C.3            1 S1                 0.0000
     20 ****        -2.8366  -0.2199  -1.8922 C.3            1 S1                 0.0000
     21 ****        -3.5292   1.1514  -1.9512 C.3            1 S1                 0.0000
     22 ****        -6.3575   3.8007  -0.5341 H              1 S1                 0.0000
     23 ****        -6.1661   2.1892   0.1457 H              1 S1                 0.0000
     24 ****        -6.1452   2.4260  -1.6024 H              1 S1                 0.0000
     25 ****        -3.9822   3.7235  -1.4003 H              1 S1                 0.0000
     26 ****        -4.0923   3.6030   0.3390 H              1 S1                 0.0000
     27 ****        -1.6111   2.6457  -0.7054 H              1 S1                 0.0000
     28 ****        -2.2196   2.4079   0.9207 H              1 S1                 0.0000
     29 ****        -0.4409   0.7769   0.3978 H              1 S1                 0.0000
     30 ****        -1.9499  -0.0266   0.7567 H              1 S1                 0.0000
     31 ****        -0.8251   0.5053  -2.0310 H              1 S1                 0.0000
     32 ****        -1.2957  -2.1618  -0.6070 H              1 S1                 0.0000
     33 ****        -0.7804  -1.9725  -2.2596 H              1 S1                 0.0000
     34 ****         1.3311  -1.2445  -1.6276 H              1 S1                 0.0000
     35 ****         2.9204  -1.3174  -0.5210 H              1 S1                 0.0000
     36 ****         2.0245  -2.3429   3.0275 H              1 S1                 0.0000
     37 ****         3.7843  -2.4896   4.7512 H              1 S1                 0.0000
     38 ****         6.1435  -1.9119   4.1355 H              1 S1                 0.0000
     39 ****         6.6394  -0.4100  -1.3535 H              1 S1                 0.0000
     40 ****         7.1403  -1.5636  -0.1223 H              1 S1                 0.0000
     41 ****         6.8591   0.1399   0.3047 H              1 S1                 0.0000
     42 ****        -2.8196  -0.6613  -2.8894 H              1 S1                 0.0000
     43 ****        -3.4233  -0.8952  -1.2674 H              1 S1                 0.0000
     44 ****        -4.5446   1.0136  -2.3205 H              1 S1                 0.0000
     45 ****        -3.0182   1.7994  -2.6653 H              1 S1                 0.0000
     46 ****        -4.0269   1.1674   0.0134 H              1 S1                 0.0000
     47 ****        -0.5616  -1.9370   1.2029 LP             1 S1                 0.0000
     48 ****         0.8408  -2.0354   2.2146 LP             1 S1                 0.0000
     49 ****         6.6705  -1.2420   1.9535 LP             1 S1                 0.0000
     50 ****         4.6205  -0.1503  -0.2817 LP             1 S1                 0.0000
     51 ****         4.8728  -1.7105  -0.6929 LP             1 S1                 0.0000
@<TRIPOS>BOND
    1    1    2 1     
    2    1   22 1     
    3    1   23 1     
    4    1   24 1     
    5    2    3 1     
    6    2   25 1     
    7    2   26 1     
    8    3   21 1     
    9    3    4 1     
   10    3   46 1     
   11    4    5 1     
   12    4   27 1     
   13    4   28 1     
   14    5    6 1     
   15    5   29 1     
   16    5   30 1     
   17    6    7 1     
   18    6   20 1     
   19    6   31 1     
   20    7    8 1     
   21    7   32 1     
   22    7   33 1     
   23    8    9 am    
   24    8   34 1     
   25    9   10 2     
   26    9   11 am    
   27   11   12 1     
   28   11   35 1     
   29   12   17 ar    
   30   12   13 ar    
   31   13   14 ar    
   32   13   36 1     
   33   14   15 ar    
   34   14   37 1     
   35   15   16 ar    
   36   15   38 1     
   37   16   17 ar    
   38   17   18 1     
   39   18   19 1     
   40   19   39 1     
   41   19   40 1     
   42   19   41 1     
   43   20   21 1     
   44   20   42 1     
   45   20   43 1     
   46   21   44 1     
   47   21   45 1     
   48   10   47 1     
   49   10   48 1     
   50   16   49 1     
   51   18   50 1     
   52   18   51 1     
@<TRIPOS>SUBSTRUCTURE
      1 S1             1
@<TRIPOS>SET
LONE_PAIRS      STATIC     ATOMS    <user>   **** ""
5 47 48 49 50 51
DONOR_HYDROGENS      STATIC     ATOMS    <user>   **** ""
3 46 34 35
ATOM$BLUE        STATIC     ATOMS    COLORGROUP SYSTEM
5 47 48 49 50 51
ATOM$RED        STATIC     ATOMS    COLORGROUP SYSTEM
3 46 34 35
