AV-unprocessed.smi:232|AV-procd|sdf|1770|dock5
  -GOLD-   2262020303D 1   1.00000     0.00000
 Structure written by MMmdl.
 52 55  0  0  0  0  0  0  0  0  1 V2000
  154.3612  140.1700  160.1546 C   0  0  0  0  0  0  0  0  0  0  0  0
  153.6915  140.3883  158.7920 C   0  0  0  0  0  0  0  0  0  0  0  0
  152.3557  141.1572  158.8920 C   0  0  1  0  0  0  0  0  0  0  0  0
  152.5089  142.5602  159.5114 C   0  0  0  0  0  0  0  0  0  0  0  0
  151.7708  143.5140  158.5651 C   0  0  0  0  0  0  0  0  0  0  0  0
  150.9324  142.6019  157.6685 C   0  0  2  0  0  0  0  0  0  0  0  0
  149.5235  142.3689  158.2533 C   0  0  0  0  0  0  0  0  0  0  0  0
  151.7291  141.3820  157.5889 N   0  0  0  0  0  0  0  0  0  0  0  0
  151.2114  140.3514  156.8677 C   0  0  0  0  0  0  0  0  0  0  0  0
  150.9832  140.5015  155.5353 N   0  0  0  0  0  0  0  0  0  0  0  0
  150.4960  139.4894  154.8124 C   0  0  0  0  0  0  0  0  0  0  0  0
  150.1728  138.2586  155.2125 N   0  0  0  0  0  0  0  0  0  0  0  0
  150.3973  138.1001  156.5480 C   0  0  0  0  0  0  0  0  0  0  0  0
  150.9092  139.0836  157.4416 C   0  0  0  0  0  0  0  0  0  0  0  0
  150.9918  138.5552  158.7251 N   0  0  0  0  0  0  0  0  0  0  0  0
  150.5661  137.3284  158.5952 C   0  0  0  0  0  0  0  0  0  0  0  0
  150.1891  136.9718  157.3211 N   0  0  0  0  0  0  0  0  0  0  0  0
  149.6829  135.6781  156.8964 C   0  0  0  0  0  0  0  0  0  0  0  0
  149.8946  135.4251  155.3879 C   0  0  2  0  0  0  0  0  0  0  0  0
  148.7291  135.8376  154.6994 O   0  0  0  0  0  0  0  0  0  0  0  0
  150.1367  133.9394  155.0542 C   0  0  2  0  0  0  0  0  0  0  0  0
  150.0023  133.5835  153.5729 C   0  0  0  0  0  0  0  0  0  0  0  0
  149.6948  132.0962  153.5942 C   0  0  0  0  0  0  0  0  0  0  0  0
  149.1605  131.8546  155.0082 C   0  0  0  0  0  0  0  0  0  0  0  0
  149.1052  133.1398  155.6136 O   0  0  0  0  0  0  0  0  0  0  0  0
  155.2878  139.6060  160.0444 H   0  0  0  0  0  0  0  0  0  0  0  0
  153.7097  139.6093  160.8253 H   0  0  0  0  0  0  0  0  0  0  0  0
  154.6065  141.1157  160.6377 H   0  0  0  0  0  0  0  0  0  0  0  0
  154.3746  140.9199  158.1286 H   0  0  0  0  0  0  0  0  0  0  0  0
  153.5335  139.4112  158.3361 H   0  0  0  0  0  0  0  0  0  0  0  0
  151.6609  140.5855  159.5092 H   0  0  0  0  0  0  0  0  0  0  0  0
  152.0663  142.5786  160.5078 H   0  0  0  0  0  0  0  0  0  0  0  0
  153.5518  142.8634  159.6123 H   0  0  0  0  0  0  0  0  0  0  0  0
  151.1799  144.2632  159.0931 H   0  0  0  0  0  0  0  0  0  0  0  0
  152.5001  144.0468  157.9534 H   0  0  0  0  0  0  0  0  0  0  0  0
  150.8392  143.0633  156.6858 H   0  0  0  0  0  0  0  0  0  0  0  0
  148.9836  143.3110  158.3481 H   0  0  0  0  0  0  0  0  0  0  0  0
  149.5650  141.9113  159.2420 H   0  0  0  0  0  0  0  0  0  0  0  0
  148.9269  141.7202  157.6112 H   0  0  0  0  0  0  0  0  0  0  0  0
  150.3460  139.6947  153.7629 H   0  0  0  0  0  0  0  0  0  0  0  0
  150.5164  136.6447  159.4300 H   0  0  0  0  0  0  0  0  0  0  0  0
  150.1876  134.9145  157.4886 H   0  0  0  0  0  0  0  0  0  0  0  0
  148.6233  135.6154  157.1482 H   0  0  0  0  0  0  0  0  0  0  0  0
  150.7374  136.0231  155.0385 H   0  0  0  0  0  0  0  0  0  0  0  0
  148.9863  136.2131  153.8714 H   0  0  0  0  0  0  0  0  0  0  0  0
  151.1078  133.6052  155.4258 H   0  0  0  0  0  0  0  0  0  0  0  0
  149.1623  134.1224  153.1323 H   0  0  0  0  0  0  0  0  0  0  0  0
  150.8962  133.8202  152.9951 H   0  0  0  0  0  0  0  0  0  0  0  0
  148.9682  131.8279  152.8265 H   0  0  0  0  0  0  0  0  0  0  0  0
  150.5974  131.5076  153.4255 H   0  0  0  0  0  0  0  0  0  0  0  0
  148.1759  131.3866  155.0083 H   0  0  0  0  0  0  0  0  0  0  0  0
  149.8413  131.2165  155.5733 H   0  0  0  0  0  0  0  0  0  0  0  0
  1  2  1  0  0  0  0
  1 26  1  0  0  0  0
  1 27  1  0  0  0  0
  1 28  1  0  0  0  0
  2  3  1  0  0  0  0
  2 29  1  0  0  0  0
  2 30  1  0  0  0  0
  3  8  1  0  0  0  0
  3  4  1  0  0  0  0
  3 31  1  0  0  0  0
  4  5  1  0  0  0  0
  4 32  1  0  0  0  0
  4 33  1  0  0  0  0
  5  6  1  0  0  0  0
  5 34  1  0  0  0  0
  5 35  1  0  0  0  0
  6  7  1  0  0  0  0
  6  8  1  0  0  0  0
  6 36  1  0  0  0  0
  7 37  1  0  0  0  0
  7 38  1  0  0  0  0
  7 39  1  0  0  0  0
  8  9  1  0  0  0  0
  9 14  1  0  0  0  0
  9 10  2  0  0  0  0
 10 11  1  0  0  0  0
 11 12  2  0  0  0  0
 11 40  1  0  0  0  0
 12 13  1  0  0  0  0
 13 17  1  0  0  0  0
 13 14  2  0  0  0  0
 14 15  1  0  0  0  0
 15 16  2  0  0  0  0
 16 17  1  0  0  0  0
 16 41  1  0  0  0  0
 17 18  1  0  0  0  0
 18 19  1  0  0  0  0
 18 42  1  0  0  0  0
 18 43  1  0  0  0  0
 19 20  1  0  0  0  0
 19 21  1  0  0  0  0
 19 44  1  0  0  0  0
 20 45  1  0  0  0  0
 21 25  1  0  0  0  0
 21 22  1  0  0  0  0
 21 46  1  0  0  0  0
 22 23  1  0  0  0  0
 22 47  1  0  0  0  0
 22 48  1  0  0  0  0
 23 24  1  0  0  0  0
 23 49  1  0  0  0  0
 23 50  1  0  0  0  0
 24 25  1  0  0  0  0
 24 51  1  0  0  0  0
 24 52  1  0  0  0  0
M  END
> <s_m_source_file>
AV-unprocessed.smi

> <i_m_source_file_index>
232

> <i_lp_mmshare_version>
43012

> <i_f3d_flags>
0

> <s_epik_input>
W0NIM11bQ0gyXVtDQEBIXTFbQ0gyXVtDSDJdW0NAQEhdKFtDSDNdKU4xYyhuW2NIXW4yKWMoYzIzKW5bY0hdbjNbQ0gyXVtDQEhdKFtPSF0pW0NAQEhdNFtDSDJdW0NIMl1bQ0gyXU80

> <s_epik_cmdline>
J2VwaWtfcHl0aG9uJywgJy1waCcsICc3LjAnLCAnLXRuJywgJzgnLCAnLW1hJywgJzIwMCcsICctbWV0YWxfYmluZGluZycsICctaW1hZScsICc8aW5maWxlLm1hZT4nLCAnLW9tYWUnLCAnPG91dGZpbGUubWFlPic=

> <r_lp_tautomer_probability>
1

> <r_epik_Ionization_Penalty>
0.00258048

> <r_epik_Ionization_Penalty_Charging>
0

> <r_epik_Ionization_Penalty_Neutral>
0.00258048

> <r_epik_State_Penalty>
0.00168551

> <r_epik_Charging_Adjusted_Penalty>
0.00168551

> <i_epik_Tot_Q>
0

> <i_epik_Tot_abs_Q>
0

> <r_epik_Metal_State_Penalty>
-0

> <b_epik_Metal_Only>
0

> <s_lp_Force_Field>
OPLS_2005

> <r_lp_Energy>
53.6071

> <b_lp_Chiralities_Consistent>
1

> <s_lp_Variant>
AV-unprocessed.smi:232-4

> <Gold.Version>
5.8.1

> <Gold.Id.Protein>
6NUR|6NUR_protein|mol2

> <Gold.PLP.Fitness>
38.3451

> <Gold.PLP.PLP>
-35.5791

> <Gold.PLP.part.hbond>
-2.0000

> <Gold.PLP.part.metal>
0.0000

> <Gold.PLP.part.buried>
-2.8907

> <Gold.PLP.part.nonpolar>
-29.8905

> <Gold.PLP.part.repulsive>
0.1479

> <Gold.PLP.ligand.clash>
0.0000

> <Gold.PLP.ligand.torsion>
1.1439

> <Gold.PLP.Chemscore.Hbond>
1.0000

> <Gold.PLP.Chemscore.CHOScore>
0.5768

> <Gold.PLP.Chemscore.Metal>
0.0000

> <Gold.Chemscore.Hbonds>
donor molecule, donor type, donor heavy atom, donor atom, acceptor molecule, acceptor atom, score
      L1  H    20    45       P1  7948  1.00
      L1  C    11    40       P1  7957  0.53

> <Gold.PLP.Chemscore.Internal.Correction>
0.3233

> <Gold.Rescore>
     Score         DG    S(hbond)    S(metal)    S(lipo)     H(rot)  DE(clash)    DE(int)     intcor
      9.28     -12.80       1.00        0.00      87.13       2.43       0.03       3.49       ----

> <Gold.Chemscore.Fitness>
9.2810

> <Gold.Chemscore.DG>
-12.7958

> <Gold.Chemscore.ZeroCoef>
-5.4800

> <Gold.Chemscore.Hbond>
0.9975

> <Gold.Chemscore.Metal>
0.0000

> <Gold.Chemscore.Lipo>
87.1343

> <Gold.Chemscore.Internal_Hbond>
0.0000

> <Gold.Chemscore.DEClash>
0.0284

> <Gold.Chemscore.DEInternal>
3.4864

> <Gold.Chemscore.Rot>
2.4260

> <Gold.Chemscore.Internal.Correction>
   9.000000E+99

> <Gold.Chemscore.Hbonds>
donor molecule, donor type, donor heavy atom, donor atom, acceptor molecule, acceptor atom, score
      L1  H    20    45       P1  7948  0.91

> <Gold.Chemscore.Hbond.Weighted>
-3.3318

> <Gold.Chemscore.Metal.Weighted>
-0.0000

> <Gold.Chemscore.Lipo.Weighted>
-10.1947

> <Gold.Chemscore.Internal_Hbond.Weighted>
0.0000

> <Gold.Chemscore.DEClash.Weighted>
0.0284

> <Gold.Chemscore.DEInternal.Weighted>
3.4864

> <Gold.Chemscore.Rot.Weighted>
6.2107

> <Gold.Chemscore.Internal.Correction.Weighted>
   9.000000E+99

> <Gold.Protein.RotatedTorsions>
[ 6907 6896 6895 6894 ] final  -52.76 input  -60.11 | X-H torsion
[ 7974 7965 7964 7962 ] final  -21.55 input  175.53 | X-H torsion
[ 8008 7997 7996 7995 ] final  163.88 input   59.86 | X-H torsion
[ 10167 10162 10161 10158 ] final   23.54 input  -65.29 | X-H torsion
[ 10718 10713 10712 10709 ] final -105.20 input   66.30 | X-H torsion
[ 10763 10752 10751 10750 ] final  -56.84 input  -60.55 | X-H torsion
[ 11005 11000 10999 10996 ] final  -94.31 input  -57.11 | X-H torsion

> <Gold.Protein.ActiveResidues>
 VAL166  LYS551  ARG553  GLY616  TRP617  ASP618  TYR619  PRO620  LYS621  CYS622 
 ASP623  PHE694  ASN695  SER759  ASP760  ASP761  ALA762  ILE779  LEU786  VAL792 
 PHE793  MET794  SER795  GLU796  ALA797  LYS798  CYS799  TRP800  GLU811  SER814 

> <Gold.Protein.RotatedAtoms>
  150.8488  134.7806  159.6991 H   0  0  0  0  0  0  0  0  0  0  0  0  # atno 6907 bound_to 6896
  152.4558  134.5291  159.9815 H   0  0  0  0  0  0  0  0  0  0  0  0  # atno 6908 bound_to 6896
  151.5416  133.3394  159.2972 H   0  0  0  0  0  0  0  0  0  0  0  0  # atno 6909 bound_to 6896
  146.1726  140.4356  142.8526 H   0  0  0  0  0  0  0  0  0  0  0  0  # atno 7974 bound_to 7965
  156.1923  140.1712  156.8067 H   0  0  0  0  0  0  0  0  0  0  0  0  # atno 8008 bound_to 7997
  154.5487  140.0722  156.8663 H   0  0  0  0  0  0  0  0  0  0  0  0  # atno 8009 bound_to 7997
  155.3071  140.3365  155.4247 H   0  0  0  0  0  0  0  0  0  0  0  0  # atno 8010 bound_to 7997
  140.5261  143.9921  150.6441 H   0  0  0  0  0  0  0  0  0  0  0  0  # atno 10167 bound_to 10162
  156.0336  130.5552  150.7506 H   0  0  0  0  0  0  0  0  0  0  0  0  # atno 10718 bound_to 10713
  154.2130  135.6391  153.5121 H   0  0  0  0  0  0  0  0  0  0  0  0  # atno 10763 bound_to 10752
  152.9985  135.5478  154.6195 H   0  0  0  0  0  0  0  0  0  0  0  0  # atno 10764 bound_to 10752
  154.5636  135.2911  155.0869 H   0  0  0  0  0  0  0  0  0  0  0  0  # atno 10765 bound_to 10752
  141.1474  133.7947  157.0280 H   0  0  0  0  0  0  0  0  0  0  0  0  # atno 11005 bound_to 11000
  144.8187  140.6513  143.6367 LP  0  0  0  0  0  0  0  0  0  0  0  0  # atno 17320 bound_to 7965
  145.4298  139.1551  143.4029 LP  0  0  0  0  0  0  0  0  0  0  0  0  # atno 17321 bound_to 7965
  140.3283  143.3093  152.0713 LP  0  0  0  0  0  0  0  0  0  0  0  0  # atno 17342 bound_to 10162
  139.4939  144.6527  151.6641 LP  0  0  0  0  0  0  0  0  0  0  0  0  # atno 17343 bound_to 10162
  157.5051  131.0921  151.0267 LP  0  0  0  0  0  0  0  0  0  0  0  0  # atno 17370 bound_to 10713
  157.0637  130.5836  149.5390 LP  0  0  0  0  0  0  0  0  0  0  0  0  # atno 17371 bound_to 10713
  140.0772  134.9669  157.1565 LP  0  0  0  0  0  0  0  0  0  0  0  0  # atno 17394 bound_to 11000
  140.3627  134.2477  155.7185 LP  0  0  0  0  0  0  0  0  0  0  0  0  # atno 17395 bound_to 11000

$$$$
