AV-unprocessed.smi:1006|AV-procd|sdf|4393|dock2
  -GOLD-   22720 2323D 1   1.00000     0.00000
 Structure written by MMmdl.
 46 48  0  0  0  0  0  0  0  0  2 V2000
  144.6350  131.5152  151.5268 C   0  0  0  0  0  0  0  0  0  0  0  0
  144.3635  133.0045  151.5500 C   0  0  0  0  0  0  0  0  0  0  0  0
  144.8130  133.8588  150.5221 C   0  0  0  0  0  0  0  0  0  0  0  0
  144.5035  135.2240  150.6516 C   0  0  0  0  0  0  0  0  0  0  0  0
  144.8998  136.1461  149.6864 N   0  0  0  0  0  0  0  0  0  0  0  0
  143.8136  135.6900  151.7097 N   0  0  0  0  0  0  0  0  0  0  0  0
  143.4166  134.8255  152.6533 C   0  0  0  0  0  0  0  0  0  0  0  0
  142.4965  135.4226  154.0632 S   0  0  0  0  0  0  0  0  0  0  0  0
  141.2262  136.4561  153.2720 C   0  0  0  0  0  0  0  0  0  0  0  0
  141.3975  137.9584  153.5637 C   0  0  1  0  0  0  0  0  0  0  0  0
  141.8836  138.6072  152.4065 O   0  0  0  0  0  0  0  0  0  0  0  0
  140.0844  138.6545  153.9790 C   0  0  0  0  0  0  0  0  0  0  0  0
  139.4406  138.0135  155.1123 N   0  0  0  0  0  0  0  0  0  0  0  0
  140.0327  137.5867  156.2441 C   0  0  0  0  0  0  0  0  0  0  0  0
  139.2573  137.0055  157.1551 N   0  0  0  0  0  0  0  0  0  0  0  0
  138.0166  137.0626  156.5437 C   0  0  0  0  0  0  0  0  0  0  0  0
  136.7561  136.5998  156.9809 C   0  0  0  0  0  0  0  0  0  0  0  0
  135.6064  136.7552  156.1739 C   0  0  0  0  0  0  0  0  0  0  0  0
  134.2725  136.2362  156.6811 C   0  0  0  0  0  0  0  0  0  0  0  0
  135.7068  137.3864  154.9081 C   0  0  0  0  0  0  0  0  0  0  0  0
  134.4873  137.5592  154.0203 C   0  0  0  0  0  0  0  0  0  0  0  0
  136.9565  137.8621  154.4599 C   0  0  0  0  0  0  0  0  0  0  0  0
  138.0950  137.6945  155.2685 C   0  0  0  0  0  0  0  0  0  0  0  0
  143.6704  133.5101  152.6016 N   0  3  0  0  0  0  0  0  0  0  0  0
  144.7106  131.1523  150.5014 H   0  0  0  0  0  0  0  0  0  0  0  0
  143.8350  130.9638  152.0224 H   0  0  0  0  0  0  0  0  0  0  0  0
  145.5723  131.2958  152.0387 H   0  0  0  0  0  0  0  0  0  0  0  0
  145.3677  133.4807  149.6751 H   0  0  0  0  0  0  0  0  0  0  0  0
  145.4193  135.8670  148.8665 H   0  0  0  0  0  0  0  0  0  0  0  0
  144.6471  137.1217  149.7568 H   0  0  0  0  0  0  0  0  0  0  0  0
  141.2424  136.2803  152.1957 H   0  0  0  0  0  0  0  0  0  0  0  0
  140.2603  136.1166  153.6446 H   0  0  0  0  0  0  0  0  0  0  0  0
  142.1357  138.0878  154.3562 H   0  0  0  0  0  0  0  0  0  0  0  0
  141.1809  139.1141  152.0288 H   0  0  0  0  0  0  0  0  0  0  0  0
  140.2750  139.6973  154.2367 H   0  0  0  0  0  0  0  0  0  0  0  0
  139.3796  138.6654  153.1463 H   0  0  0  0  0  0  0  0  0  0  0  0
  141.0946  137.7034  156.4053 H   0  0  0  0  0  0  0  0  0  0  0  0
  136.6804  136.1171  157.9442 H   0  0  0  0  0  0  0  0  0  0  0  0
  133.5373  137.0404  156.7181 H   0  0  0  0  0  0  0  0  0  0  0  0
  134.3623  135.8207  157.6855 H   0  0  0  0  0  0  0  0  0  0  0  0
  133.8952  135.4505  156.0263 H   0  0  0  0  0  0  0  0  0  0  0  0
  134.7528  138.0082  153.0626 H   0  0  0  0  0  0  0  0  0  0  0  0
  133.7539  138.2057  154.5028 H   0  0  0  0  0  0  0  0  0  0  0  0
  134.0198  136.5953  153.8181 H   0  0  0  0  0  0  0  0  0  0  0  0
  137.0468  138.3443  153.4978 H   0  0  0  0  0  0  0  0  0  0  0  0
  143.3475  132.8884  153.3432 H   0  0  0  0  0  0  0  0  0  0  0  0
  1  2  1  0  0  0  0
  1 25  1  0  0  0  0
  1 26  1  0  0  0  0
  1 27  1  0  0  0  0
  2 24  1  0  0  0  0
  2  3  2  0  0  0  0
  3  4  1  0  0  0  0
  3 28  1  0  0  0  0
  4  5  1  0  0  0  0
  4  6  2  0  0  0  0
  5 29  1  0  0  0  0
  5 30  1  0  0  0  0
  6  7  1  0  0  0  0
  7  8  1  0  0  0  0
  7 24  2  0  0  0  0
  8  9  1  0  0  0  0
  9 10  1  0  0  0  0
  9 31  1  0  0  0  0
  9 32  1  0  0  0  0
 10 11  1  0  0  0  0
 10 12  1  0  0  0  0
 10 33  1  0  0  0  0
 11 34  1  0  0  0  0
 12 13  1  0  0  0  0
 12 35  1  0  0  0  0
 12 36  1  0  0  0  0
 13 23  1  0  0  0  0
 13 14  1  0  0  0  0
 14 15  2  0  0  0  0
 14 37  1  0  0  0  0
 15 16  1  0  0  0  0
 16 23  2  0  0  0  0
 16 17  1  0  0  0  0
 17 18  2  0  0  0  0
 17 38  1  0  0  0  0
 18 19  1  0  0  0  0
 18 20  1  0  0  0  0
 19 39  1  0  0  0  0
 19 40  1  0  0  0  0
 19 41  1  0  0  0  0
 20 21  1  0  0  0  0
 20 22  2  0  0  0  0
 21 42  1  0  0  0  0
 21 43  1  0  0  0  0
 21 44  1  0  0  0  0
 22 23  1  0  0  0  0
 22 45  1  0  0  0  0
 24 46  1  0  0  0  0
M  CHG  1  24   1
M  END
> <s_m_source_file>
AV-unprocessed.smi

> <i_m_source_file_index>
1006

> <i_lp_mmshare_version>
43012

> <i_f3d_flags>
0

> <s_epik_input>
W0NIM11jMVtjSF1jKFtOSDJdKW5jKG4xKVNbQ0gyXVtDQEhdKFtPSF0pW0NIMl1uKFtjSF1uMiljKGMyMylbY0hdYyhbQ0gzXSljKFtjSF0zKVtDSDNd

> <s_epik_cmdline>
J2VwaWtfcHl0aG9uJywgJy1waCcsICc3LjAnLCAnLXRuJywgJzgnLCAnLW1hJywgJzIwMCcsICctbWV0YWxfYmluZGluZycsICctaW1hZScsICc8aW5maWxlLm1hZT4nLCAnLW9tYWUnLCAnPG91dGZpbGUubWFlPic=

> <r_lp_tautomer_probability>
0.999762

> <r_epik_Ionization_Penalty>
0.549885

> <r_epik_Ionization_Penalty_Charging>
0.440405

> <r_epik_Ionization_Penalty_Neutral>
0.10948

> <r_epik_State_Penalty>
0.546419

> <r_epik_Charging_Adjusted_Penalty>
0.986823

> <i_epik_Tot_Q>
1

> <i_epik_Tot_abs_Q>
1

> <r_epik_Metal_State_Penalty>
0.699827

> <b_epik_Metal_Only>
0

> <s_lp_Force_Field>
OPLS_2005

> <r_lp_Energy>
7.78967

> <b_lp_Chiralities_Consistent>
1

> <s_lp_Variant>
AV-unprocessed.smi:1006-4

> <Gold.Version>
5.8.1

> <Gold.Id.Protein>
6NUR|6NUR_protein|mol2

> <Gold.PLP.Fitness>
56.7969

> <Gold.PLP.PLP>
-41.7521

> <Gold.PLP.part.hbond>
-5.6725

> <Gold.PLP.part.metal>
0.0000

> <Gold.PLP.part.buried>
-6.1230

> <Gold.PLP.part.nonpolar>
-29.5854

> <Gold.PLP.part.repulsive>
0.3550

> <Gold.PLP.ligand.clash>
0.0000

> <Gold.PLP.ligand.torsion>
1.3450

> <Gold.PLP.Chemscore.Hbond>
5.8954

> <Gold.PLP.Chemscore.CHOScore>
0.0000

> <Gold.PLP.Chemscore.Metal>
0.0000

> <Gold.Chemscore.Hbonds>
donor molecule, donor type, donor heavy atom, donor atom, acceptor molecule, acceptor atom, score
      L1  H     5    29       P1  7921  1.00
      L1  H     5    30       P1 10171  1.00
      L1  H    11    34       P1 10160  1.00
      L1  H    24    46       P1 10957  2.00
      P1  H 11000 11005       L1    15  0.75

> <Gold.PLP.Chemscore.Internal.Correction>
0.0488

> <Gold.Rescore>
     Score         DG    S(hbond)    S(metal)    S(lipo)     H(rot)  DE(clash)    DE(int)     intcor
     19.55     -21.44       4.19        0.00      80.17       2.89       0.24       1.65       ----

> <Gold.Chemscore.Fitness>
19.5547

> <Gold.Chemscore.DG>
-21.4414

> <Gold.Chemscore.ZeroCoef>
-5.4800

> <Gold.Chemscore.Hbond>
4.1857

> <Gold.Chemscore.Metal>
0.0000

> <Gold.Chemscore.Lipo>
80.1698

> <Gold.Chemscore.Internal_Hbond>
0.0000

> <Gold.Chemscore.DEClash>
0.2404

> <Gold.Chemscore.DEInternal>
1.6463

> <Gold.Chemscore.Rot>
2.8901

> <Gold.Chemscore.Internal.Correction>
   9.000000E+99

> <Gold.Chemscore.Hbonds>
donor molecule, donor type, donor heavy atom, donor atom, acceptor molecule, acceptor atom, score
      L1  H     5    29       P1  7921  1.00
      L1  H     5    30       P1 10171  1.00
      L1  H    11    34       P1 10160  0.95
      L1  H    24    46       P1 10957  0.69
      P1  H 11000 11005       L1    15  0.13

> <Gold.Chemscore.Hbond.Weighted>
-13.9802

> <Gold.Chemscore.Metal.Weighted>
-0.0000

> <Gold.Chemscore.Lipo.Weighted>
-9.3799

> <Gold.Chemscore.Internal_Hbond.Weighted>
0.0000

> <Gold.Chemscore.DEClash.Weighted>
0.2404

> <Gold.Chemscore.DEInternal.Weighted>
1.6463

> <Gold.Chemscore.Rot.Weighted>
7.3986

> <Gold.Chemscore.Internal.Correction.Weighted>
   9.000000E+99

> <Gold.Protein.RotatedTorsions>
[ 6907 6896 6895 6894 ] final -114.93 input  -60.11 | X-H torsion
[ 7974 7965 7964 7962 ] final  162.01 input  175.53 | X-H torsion
[ 8008 7997 7996 7995 ] final   28.15 input   59.86 | X-H torsion
[ 10167 10162 10161 10158 ] final -108.14 input  -65.29 | X-H torsion
[ 10718 10713 10712 10709 ] final  -18.55 input   66.30 | X-H torsion
[ 10763 10752 10751 10750 ] final  -94.54 input  -60.55 | X-H torsion
[ 11005 11000 10999 10996 ] final  137.44 input  -57.11 | X-H torsion

> <Gold.Protein.ActiveResidues>
 VAL166  LYS551  ARG553  GLY616  TRP617  ASP618  TYR619  PRO620  LYS621  CYS622 
 ASP623  PHE694  ASN695  SER759  ASP760  ASP761  ALA762  ILE779  LEU786  VAL792 
 PHE793  MET794  SER795  GLU796  ALA797  LYS798  CYS799  TRP800  GLU811  SER814 

> <Gold.Protein.RotatedAtoms>
  150.7939  133.8731  159.3264 H   0  0  0  0  0  0  0  0  0  0  0  0  # atno 6907 bound_to 6896
  151.6561  135.0993  160.0180 H   0  0  0  0  0  0  0  0  0  0  0  0  # atno 6908 bound_to 6896
  152.4018  133.6790  159.6358 H   0  0  0  0  0  0  0  0  0  0  0  0  # atno 6909 bound_to 6896
  144.7657  139.7980  143.6316 H   0  0  0  0  0  0  0  0  0  0  0  0  # atno 7974 bound_to 7965
  155.0541  140.3183  155.4682 H   0  0  0  0  0  0  0  0  0  0  0  0  # atno 8008 bound_to 7997
  156.2828  140.2140  156.5611 H   0  0  0  0  0  0  0  0  0  0  0  0  # atno 8009 bound_to 7997
  154.7186  140.0491  157.0606 H   0  0  0  0  0  0  0  0  0  0  0  0  # atno 8010 bound_to 7997
  140.1694  143.4055  152.1366 H   0  0  0  0  0  0  0  0  0  0  0  0  # atno 10167 bound_to 10162
  156.5580  130.4718  149.6420 H   0  0  0  0  0  0  0  0  0  0  0  0  # atno 10718 bound_to 10713
  154.7064  135.5154  153.8602 H   0  0  0  0  0  0  0  0  0  0  0  0  # atno 10763 bound_to 10752
  153.0745  135.6612  154.0184 H   0  0  0  0  0  0  0  0  0  0  0  0  # atno 10764 bound_to 10752
  154.0034  135.3009  155.3380 H   0  0  0  0  0  0  0  0  0  0  0  0  # atno 10765 bound_to 10752
  140.0114  134.9437  157.0286 H   0  0  0  0  0  0  0  0  0  0  0  0  # atno 11005 bound_to 11000
  146.1762  139.4934  142.9896 LP  0  0  0  0  0  0  0  0  0  0  0  0  # atno 17320 bound_to 7965
  145.6477  141.0270  143.1777 LP  0  0  0  0  0  0  0  0  0  0  0  0  # atno 17321 bound_to 7965
  139.5345  144.7195  151.4941 LP  0  0  0  0  0  0  0  0  0  0  0  0  # atno 17342 bound_to 10162
  140.6592  143.8534  150.6869 LP  0  0  0  0  0  0  0  0  0  0  0  0  # atno 17343 bound_to 10162
  156.2824  130.7078  151.1906 LP  0  0  0  0  0  0  0  0  0  0  0  0  # atno 17370 bound_to 10713
  157.7374  131.0552  150.5356 LP  0  0  0  0  0  0  0  0  0  0  0  0  # atno 17371 bound_to 10713
  140.4547  134.1546  155.7185 LP  0  0  0  0  0  0  0  0  0  0  0  0  # atno 17394 bound_to 11000
  141.1713  133.8602  157.1560 LP  0  0  0  0  0  0  0  0  0  0  0  0  # atno 17395 bound_to 11000

$$$$
