AV-unprocessed.smi:1527|AV-procd|sdf|6150|dock2
  -GOLD-   22720 6293D 1   1.00000     0.00000
 Structure written by MMmdl.
 31 31  0  0  0  0  0  0  0  0  1 V2000
  153.6970  143.0379  161.2886 C   0  0  0  0  0  0  0  0  0  0  0  0
  153.1234  142.7818  159.8871 C   0  0  0  0  0  0  0  0  0  0  0  0
  151.6440  143.1834  159.7398 C   0  0  1  0  0  0  0  0  0  0  0  0
  151.4437  144.6929  159.9467 C   0  0  0  0  0  0  0  0  0  0  0  0
  151.1502  142.7868  158.4246 N   0  0  0  0  0  0  0  0  0  0  0  0
  150.9267  141.5279  158.0107 C   0  0  0  0  0  0  0  0  0  0  0  0
  151.0904  140.5475  158.7363 O   0  0  0  0  0  0  0  0  0  0  0  0
  150.4516  141.3164  156.5622 C   0  0  0  0  0  0  0  0  0  0  0  0
  150.5931  139.9401  156.0581 N   0  0  0  0  0  0  0  0  0  0  0  0
  149.4374  139.4229  155.4924 N   0  0  0  0  0  0  0  0  0  0  0  0
  149.4376  138.2302  155.0007 C   0  0  0  0  0  0  0  0  0  0  0  0
  148.2726  137.7582  154.4476 O   0  0  0  0  0  0  0  0  0  0  0  0
  150.6287  137.4095  155.0284 C   0  0  0  0  0  0  0  0  0  0  0  0
  151.7493  137.9209  155.5834 C   0  0  0  0  0  0  0  0  0  0  0  0
  151.7843  139.2715  156.1472 C   0  0  0  0  0  0  0  0  0  0  0  0
  152.7942  139.7673  156.6459 O   0  0  0  0  0  0  0  0  0  0  0  0
  148.0800  138.3410  153.7294 H   0  0  0  0  0  0  0  0  0  0  0  0
  154.7568  142.7846  161.3242 H   0  0  0  0  0  0  0  0  0  0  0  0
  153.1913  142.4391  162.0466 H   0  0  0  0  0  0  0  0  0  0  0  0
  153.5970  144.0868  161.5687 H   0  0  0  0  0  0  0  0  0  0  0  0
  153.7185  143.3367  159.1612 H   0  0  0  0  0  0  0  0  0  0  0  0
  153.2466  141.7273  159.6367 H   0  0  0  0  0  0  0  0  0  0  0  0
  151.0762  142.6537  160.5071 H   0  0  0  0  0  0  0  0  0  0  0  0
  151.8016  145.0044  160.9282 H   0  0  0  0  0  0  0  0  0  0  0  0
  150.3895  144.9646  159.8821 H   0  0  0  0  0  0  0  0  0  0  0  0
  151.9834  145.2721  159.1966 H   0  0  0  0  0  0  0  0  0  0  0  0
  150.9855  143.5309  157.7623 H   0  0  0  0  0  0  0  0  0  0  0  0
  149.4119  141.6393  156.4856 H   0  0  0  0  0  0  0  0  0  0  0  0
  151.0122  142.0025  155.9248 H   0  0  0  0  0  0  0  0  0  0  0  0
  150.6136  136.4124  154.6137 H   0  0  0  0  0  0  0  0  0  0  0  0
  152.6460  137.3192  155.6112 H   0  0  0  0  0  0  0  0  0  0  0  0
  1  2  1  0  0  0  0
  1 18  1  0  0  0  0
  1 19  1  0  0  0  0
  1 20  1  0  0  0  0
  2  3  1  0  0  0  0
  2 21  1  0  0  0  0
  2 22  1  0  0  0  0
  3  4  1  0  0  0  0
  3  5  1  0  0  0  0
  3 23  1  0  0  0  0
  4 24  1  0  0  0  0
  4 25  1  0  0  0  0
  4 26  1  0  0  0  0
  5  6  1  0  0  0  0
  5 27  1  0  0  0  0
  6  7  2  0  0  0  0
  6  8  1  0  0  0  0
  8 28  1  0  0  0  0
  8 29  1  0  0  0  0
  8  9  1  0  0  0  0
  9 10  1  0  0  0  0
  9 15  1  0  0  0  0
 10 11  2  0  0  0  0
 11 12  1  0  0  0  0
 11 13  1  0  0  0  0
 12 17  1  0  0  0  0
 13 30  1  0  0  0  0
 13 14  2  0  0  0  0
 14 31  1  0  0  0  0
 14 15  1  0  0  0  0
 15 16  2  0  0  0  0
M  END
> <s_m_source_file>
AV-unprocessed.smi

> <i_m_source_file_index>
1527

> <i_lp_mmshare_version>
43012

> <i_f3d_flags>
0

> <s_epik_input>
W0NIM11bQ0gyXVtDQEhdKFtDSDNdKVtOSF1DKD1PKVtDSDJdbjFbbkhdYyg9TylbY0hdW2NIXWMxPU8=

> <s_epik_cmdline>
J2VwaWtfcHl0aG9uJywgJy1waCcsICc3LjAnLCAnLXRuJywgJzgnLCAnLW1hJywgJzIwMCcsICctbWV0YWxfYmluZGluZycsICctaW1hZScsICc8aW5maWxlLm1hZT4nLCAnLW9tYWUnLCAnPG91dGZpbGUubWFlPic=

> <r_lp_tautomer_probability>
0.9996

> <r_epik_Ionization_Penalty>
2.12171

> <r_epik_Ionization_Penalty_Charging>
3.79077e-08

> <r_epik_Ionization_Penalty_Neutral>
2.12171

> <r_epik_State_Penalty>
1.69857

> <r_epik_Charging_Adjusted_Penalty>
1.69857

> <i_epik_Tot_Q>
0

> <i_epik_Tot_abs_Q>
0

> <r_epik_Metal_State_Penalty>
1.69857

> <b_epik_Metal_Only>
0

> <s_lp_Force_Field>
OPLS_2005

> <r_lp_Energy>
12.9148

> <b_lp_Chiralities_Consistent>
1

> <s_lp_Variant>
AV-unprocessed.smi:1527-4

> <Gold.Version>
5.8.1

> <Gold.Id.Protein>
6NUR|6NUR_protein|mol2

> <Gold.PLP.Fitness>
43.7547

> <Gold.PLP.PLP>
-37.2543

> <Gold.PLP.part.hbond>
-3.8267

> <Gold.PLP.part.metal>
0.0000

> <Gold.PLP.part.buried>
-5.6057

> <Gold.PLP.part.nonpolar>
-27.8018

> <Gold.PLP.part.repulsive>
0.1121

> <Gold.PLP.ligand.clash>
0.0000

> <Gold.PLP.ligand.torsion>
0.4337

> <Gold.PLP.Chemscore.Hbond>
2.4500

> <Gold.PLP.Chemscore.CHOScore>
0.0000

> <Gold.PLP.Chemscore.Metal>
0.0000

> <Gold.Chemscore.Hbonds>
donor molecule, donor type, donor heavy atom, donor atom, acceptor molecule, acceptor atom, score
      P1  H  7997  8008       L1    16  0.82

> <Gold.PLP.Chemscore.Internal.Correction>
0.0178

> <Gold.Rescore>
     Score         DG    S(hbond)    S(metal)    S(lipo)     H(rot)  DE(clash)    DE(int)     intcor
     10.22     -13.15       1.95        0.00      66.38       2.58       0.02       2.92       ----

> <Gold.Chemscore.Fitness>
10.2171

> <Gold.Chemscore.DG>
-13.1513

> <Gold.Chemscore.ZeroCoef>
-5.4800

> <Gold.Chemscore.Hbond>
1.9495

> <Gold.Chemscore.Metal>
0.0000

> <Gold.Chemscore.Lipo>
66.3792

> <Gold.Chemscore.Internal_Hbond>
0.0000

> <Gold.Chemscore.DEClash>
0.0164

> <Gold.Chemscore.DEInternal>
2.9179

> <Gold.Chemscore.Rot>
2.5806

> <Gold.Chemscore.Internal.Correction>
   9.000000E+99

> <Gold.Chemscore.Hbonds>
donor molecule, donor type, donor heavy atom, donor atom, acceptor molecule, acceptor atom, score
      P1  H  7997  8008       L1    16  0.81

> <Gold.Chemscore.Hbond.Weighted>
-6.5112

> <Gold.Chemscore.Metal.Weighted>
-0.0000

> <Gold.Chemscore.Lipo.Weighted>
-7.7664

> <Gold.Chemscore.Internal_Hbond.Weighted>
0.0000

> <Gold.Chemscore.DEClash.Weighted>
0.0164

> <Gold.Chemscore.DEInternal.Weighted>
2.9179

> <Gold.Chemscore.Rot.Weighted>
6.6063

> <Gold.Chemscore.Internal.Correction.Weighted>
   9.000000E+99

> <Gold.Protein.RotatedTorsions>
[ 6907 6896 6895 6894 ] final  -38.77 input  -60.11 | X-H torsion
[ 7974 7965 7964 7962 ] final  -16.34 input  175.53 | X-H torsion
[ 8008 7997 7996 7995 ] final  -76.53 input   59.86 | X-H torsion
[ 10167 10162 10161 10158 ] final -139.04 input  -65.29 | X-H torsion
[ 10718 10713 10712 10709 ] final  103.56 input   66.30 | X-H torsion
[ 10763 10752 10751 10750 ] final  -93.83 input  -60.55 | X-H torsion
[ 11005 11000 10999 10996 ] final   -1.15 input  -57.11 | X-H torsion

> <Gold.Protein.ActiveResidues>
 VAL166  LYS551  ARG553  GLY616  TRP617  ASP618  TYR619  PRO620  LYS621  CYS622 
 ASP623  PHE694  ASN695  SER759  ASP760  ASP761  ALA762  ILE779  LEU786  VAL792 
 PHE793  MET794  SER795  GLU796  ALA797  LYS798  CYS799  TRP800  GLU811  SER814 

> <Gold.Protein.RotatedAtoms>
  150.9985  134.9302  159.7939 H   0  0  0  0  0  0  0  0  0  0  0  0  # atno 6907 bound_to 6896
  152.5271  134.3186  159.9150 H   0  0  0  0  0  0  0  0  0  0  0  0  # atno 6908 bound_to 6896
  151.3192  133.4006  159.2687 H   0  0  0  0  0  0  0  0  0  0  0  0  # atno 6909 bound_to 6896
  146.1992  140.3623  142.8429 H   0  0  0  0  0  0  0  0  0  0  0  0  # atno 7974 bound_to 7965
  154.5514  140.0725  156.8673 H   0  0  0  0  0  0  0  0  0  0  0  0  # atno 8008 bound_to 7997
  155.2986  140.3383  155.4230 H   0  0  0  0  0  0  0  0  0  0  0  0  # atno 8009 bound_to 7997
  156.1964  140.1705  156.7975 H   0  0  0  0  0  0  0  0  0  0  0  0  # atno 8010 bound_to 7997
  139.8418  143.7312  152.2663 H   0  0  0  0  0  0  0  0  0  0  0  0  # atno 10167 bound_to 10162
  157.6768  131.0782  150.5574 H   0  0  0  0  0  0  0  0  0  0  0  0  # atno 10718 bound_to 10713
  154.6997  135.5180  153.8509 H   0  0  0  0  0  0  0  0  0  0  0  0  # atno 10763 bound_to 10752
  153.0694  135.6596  154.0290 H   0  0  0  0  0  0  0  0  0  0  0  0  # atno 10764 bound_to 10752
  154.0151  135.2998  155.3367 H   0  0  0  0  0  0  0  0  0  0  0  0  # atno 10765 bound_to 10752
  140.6442  133.9462  155.8343 H   0  0  0  0  0  0  0  0  0  0  0  0  # atno 11005 bound_to 11000
  144.8645  140.7187  143.6086 LP  0  0  0  0  0  0  0  0  0  0  0  0  # atno 17320 bound_to 7965
  145.3543  139.1698  143.4418 LP  0  0  0  0  0  0  0  0  0  0  0  0  # atno 17321 bound_to 7965
  139.7551  144.7523  151.0448 LP  0  0  0  0  0  0  0  0  0  0  0  0  # atno 17342 bound_to 10162
  140.7797  143.4815  151.0012 LP  0  0  0  0  0  0  0  0  0  0  0  0  # atno 17343 bound_to 10162
  156.5877  130.4321  149.5950 LP  0  0  0  0  0  0  0  0  0  0  0  0  # atno 17370 bound_to 10713
  156.2609  130.6962  151.1730 LP  0  0  0  0  0  0  0  0  0  0  0  0  # atno 17371 bound_to 10713
  141.0584  134.0382  157.3691 LP  0  0  0  0  0  0  0  0  0  0  0  0  # atno 17394 bound_to 11000
  139.9069  135.0181  156.7524 LP  0  0  0  0  0  0  0  0  0  0  0  0  # atno 17395 bound_to 11000

$$$$
