#       Name:                AV-unprocessed.smi:1672
#       Creating user name   scv26
#       Creation time:       Fri Mar 27 07:44:37 2020


#       File generated by GOLD software.
#

@<TRIPOS>MOLECULE
AV-unprocessed.smi:1672
    53    55     1
SMALL
NO_CHARGES


@<TRIPOS>ATOM
      1 ****        -5.6353  -0.1766  -1.1548 C.3            1 S1                 0.0000
      2 ****        -4.1033  -0.2076  -1.2447 C.3            1 S1                 0.0000
      3 ****        -3.4528  -0.2705   0.1475 C.3            1 S1                 0.0000
      4 ****        -1.9185  -0.2686   0.0474 C.3            1 S1                 0.0000
      5 ****        -1.4317   0.9241  -0.6960 N.4            1 S1                 1.0000
      6 ****         0.0490   1.0397  -0.7100 C.3            1 S1                 0.0000
      7 ****         0.6159   1.6055   0.6114 C.3            1 S1                 0.0000
      8 ****         0.2156   2.9540   0.7457 O.3            1 S1                 0.0000
      9 ****         2.1564   1.5772   0.6800 C.3            1 S1                 0.0000
     10 ****         2.7133   0.2184   0.5858 N.pl3          1 S1                 0.0000
     11 ****         3.2671  -0.4516  -0.4684 C.2            1 S1                 0.0000
     12 ****         3.4505   0.0446  -1.8673 C.3            1 S1                 0.0000
     13 ****         3.0540  -0.9037  -2.8337 O.3            1 S1                 0.0000
     14 ****         3.6288  -1.6853  -0.0141 N.pl3          1 S1                 1.0000
     15 ****         3.3082  -1.8072   1.3377 C.ar           1 S1                 0.0000
     16 ****         3.4826  -2.8652   2.2244 C.ar           1 S1                 0.0000
     17 ****         3.0436  -2.6596   3.5488 C.ar           1 S1                 0.0000
     18 ****         2.4581  -1.4404   3.9472 C.ar           1 S1                 0.0000
     19 ****         2.2857  -0.3753   3.0386 C.ar           1 S1                 0.0000
     20 ****         2.7222  -0.5871   1.7309 C.ar           1 S1                 0.0000
     21 ****        -2.0156   0.9879  -2.0604 C.3            1 S1                 0.0000
     22 ****        -3.5526   1.0098  -2.0059 C.3            1 S1                 0.0000
     23 ****        -5.9843   0.7039  -0.6143 H              1 S1                 0.0000
     24 ****        -6.0157  -1.0573  -0.6366 H              1 S1                 0.0000
     25 ****        -6.0864  -0.1585  -2.1474 H              1 S1                 0.0000
     26 ****        -3.8214  -1.1077  -1.7931 H              1 S1                 0.0000
     27 ****        -3.7795   0.5792   0.7489 H              1 S1                 0.0000
     28 ****        -3.7843  -1.1663   0.6739 H              1 S1                 0.0000
     29 ****        -1.4994  -0.2896   1.0526 H              1 S1                 0.0000
     30 ****        -1.5765  -1.1759  -0.4531 H              1 S1                 0.0000
     31 ****         0.4676   0.0572  -0.9306 H              1 S1                 0.0000
     32 ****         0.3669   1.6905  -1.5261 H              1 S1                 0.0000
     33 ****         0.2222   1.0554   1.4648 H              1 S1                 0.0000
     34 ****        -0.7205   2.9884   0.8681 H              1 S1                 0.0000
     35 ****         2.5869   2.1750  -0.1237 H              1 S1                 0.0000
     36 ****         2.5116   2.0265   1.6086 H              1 S1                 0.0000
     37 ****         2.8730   0.9546  -2.0253 H              1 S1                 0.0000
     38 ****         4.5000   0.2954  -2.0216 H              1 S1                 0.0000
     39 ****         3.2226  -0.5464  -3.6927 H              1 S1                 0.0000
     40 ****         3.9327  -3.7996   1.9223 H              1 S1                 0.0000
     41 ****         3.1599  -3.4521   4.2741 H              1 S1                 0.0000
     42 ****         2.1360  -1.3192   4.9715 H              1 S1                 0.0000
     43 ****         1.8382   0.5551   3.3558 H              1 S1                 0.0000
     44 ****        -1.6657   1.8869  -2.5694 H              1 S1                 0.0000
     45 ****        -1.6699   0.1353  -2.6473 H              1 S1                 0.0000
     46 ****        -3.9547   1.0297  -3.0195 H              1 S1                 0.0000
     47 ****        -3.8861   1.9301  -1.5242 H              1 S1                 0.0000
     48 ****        -1.7769   1.7391  -0.2097 H              1 S1                 0.0000
     49 ****         4.0635  -2.3917  -0.5943 H              1 S1                 0.0000
     50 ****         0.4641   3.4607  -0.0799 LP             1 S1                 0.0000
     51 ****         0.6718   3.3614   1.5368 LP             1 S1                 0.0000
     52 ****         2.0780  -1.0978  -2.7350 LP             1 S1                 0.0000
     53 ****         3.5757  -1.7480  -2.7115 LP             1 S1                 0.0000
@<TRIPOS>BOND
    1    1    2 1     
    2    1   23 1     
    3    1   24 1     
    4    1   25 1     
    5    2   22 1     
    6    2    3 1     
    7    2   26 1     
    8    3    4 1     
    9    3   27 1     
   10    3   28 1     
   11    4    5 1     
   12    4   29 1     
   13    4   30 1     
   14    5    6 1     
   15    5   21 1     
   16    5   48 1     
   17    6    7 1     
   18    6   31 1     
   19    6   32 1     
   20    7    8 1     
   21    7    9 1     
   22    7   33 1     
   23    8   34 1     
   24    9   10 1     
   25    9   35 1     
   26    9   36 1     
   27   10   20 1     
   28   10   11 1     
   29   11   12 1     
   30   11   14 2     
   31   12   13 1     
   32   12   37 1     
   33   12   38 1     
   34   13   39 1     
   35   14   15 1     
   36   14   49 1     
   37   15   20 ar    
   38   15   16 ar    
   39   16   17 ar    
   40   16   40 1     
   41   17   18 ar    
   42   17   41 1     
   43   18   19 ar    
   44   18   42 1     
   45   19   20 ar    
   46   19   43 1     
   47   21   22 1     
   48   21   44 1     
   49   21   45 1     
   50   22   46 1     
   51   22   47 1     
   52    8   50 1     
   53    8   51 1     
   54   13   52 1     
   55   13   53 1     
@<TRIPOS>SUBSTRUCTURE
      1 S1             1
@<TRIPOS>SET
LONE_PAIRS      STATIC     ATOMS    <user>   **** ""
4 50 51 52 53
DONOR_HYDROGENS      STATIC     ATOMS    <user>   **** ""
4 48 34 39 49
ATOM$BLUE        STATIC     ATOMS    COLORGROUP SYSTEM
4 50 51 52 53
ATOM$RED        STATIC     ATOMS    COLORGROUP SYSTEM
4 48 34 39 49
