AV-unprocessed.smi:254|AV-procd|sdf|1947|dock7
  -GOLD-   2262021 83D 1   1.00000     0.00000
 Structure written by MMmdl.
 50 53  0  0  0  0  0  0  0  0  1 V2000
  152.5549  140.9473  159.6144 O   0  0  0  0  0  0  0  0  0  0  0  0
  152.0191  141.1017  158.5183 C   0  0  0  0  0  0  0  0  0  0  0  0
  152.1878  140.1312  157.3660 C   0  0  0  0  0  0  0  0  0  0  0  0
  151.3718  140.7339  156.3139 N   0  0  0  0  0  0  0  0  0  0  0  0
  150.5904  139.8599  155.6417 C   0  0  0  0  0  0  0  0  0  0  0  0
  151.1537  138.9253  154.8315 N   0  0  0  0  0  0  0  0  0  0  0  0
  150.3759  138.0714  154.1587 C   0  0  0  0  0  0  0  0  0  0  0  0
  149.0436  137.9840  154.1506 N   0  0  0  0  0  0  0  0  0  0  0  0
  148.4792  138.9285  154.9573 C   0  0  0  0  0  0  0  0  0  0  0  0
  149.1750  139.8989  155.7300 C   0  0  0  0  0  0  0  0  0  0  0  0
  148.2733  140.6933  156.4260 N   0  0  0  0  0  0  0  0  0  0  0  0
  147.1065  140.2159  156.0873 C   0  0  0  0  0  0  0  0  0  0  0  0
  147.1366  139.1653  155.1966 N   0  0  0  0  0  0  0  0  0  0  0  0
  145.9938  138.4413  154.6677 C   0  0  0  0  0  0  0  0  0  0  0  0
  146.2276  137.7869  153.2809 C   0  0  2  0  0  0  0  0  0  0  0  0
  146.6702  138.8994  152.2990 C   0  0  0  0  0  0  0  0  0  0  0  0
  148.0461  138.8169  151.9901 O   0  0  0  0  0  0  0  0  0  0  0  0
  144.9820  137.0039  152.7620 C   0  0  1  0  0  0  0  0  0  0  0  0
  145.1823  136.2408  151.4617 C   0  0  0  0  0  0  0  0  0  0  0  0
  144.0085  135.2736  151.4692 C   0  0  0  0  0  0  0  0  0  0  0  0
  143.8893  134.8787  152.8265 O   0  0  0  0  0  0  0  0  0  0  0  0
  144.4721  135.8702  153.6678 C   0  0  0  0  0  0  0  0  0  0  0  0
  150.7280  141.9558  156.7997 C   0  0  0  0  0  0  0  0  0  0  0  0
  151.2168  142.1058  158.1596 N   0  0  0  0  0  0  0  0  0  0  0  0
  150.7912  143.2282  158.9931 C   0  0  0  0  0  0  0  0  0  0  0  0
  151.9574  144.1626  159.3612 C   0  0  0  0  0  0  0  0  0  0  0  0
  152.5570  144.5674  158.2424 F   0  0  0  0  0  0  0  0  0  0  0  0
  151.5256  145.2369  160.0212 F   0  0  0  0  0  0  0  0  0  0  0  0
  152.8501  143.5165  160.1114 F   0  0  0  0  0  0  0  0  0  0  0  0
  153.2321  140.0798  157.0574 H   0  0  0  0  0  0  0  0  0  0  0  0
  151.8551  139.1331  157.6574 H   0  0  0  0  0  0  0  0  0  0  0  0
  150.8950  137.3569  153.5372 H   0  0  0  0  0  0  0  0  0  0  0  0
  146.1845  140.6242  156.4752 H   0  0  0  0  0  0  0  0  0  0  0  0
  145.6863  137.6841  155.3898 H   0  0  0  0  0  0  0  0  0  0  0  0
  145.1731  139.1573  154.6117 H   0  0  0  0  0  0  0  0  0  0  0  0
  147.0613  137.0903  153.3812 H   0  0  0  0  0  0  0  0  0  0  0  0
  146.0824  138.8665  151.3814 H   0  0  0  0  0  0  0  0  0  0  0  0
  146.5143  139.8866  152.7346 H   0  0  0  0  0  0  0  0  0  0  0  0
  148.2960  137.9056  151.9713 H   0  0  0  0  0  0  0  0  0  0  0  0
  144.1641  137.7094  152.6058 H   0  0  0  0  0  0  0  0  0  0  0  0
  145.1818  136.8829  150.5807 H   0  0  0  0  0  0  0  0  0  0  0  0
  146.1203  135.6842  151.4837 H   0  0  0  0  0  0  0  0  0  0  0  0
  143.0918  135.7804  151.1644 H   0  0  0  0  0  0  0  0  0  0  0  0
  144.1618  134.4171  150.8125 H   0  0  0  0  0  0  0  0  0  0  0  0
  145.2901  135.4042  154.2177 H   0  0  0  0  0  0  0  0  0  0  0  0
  143.7346  136.2218  154.3880 H   0  0  0  0  0  0  0  0  0  0  0  0
  151.0416  142.8040  156.1903 H   0  0  0  0  0  0  0  0  0  0  0  0
  149.6377  141.9143  156.7893 H   0  0  0  0  0  0  0  0  0  0  0  0
  150.0238  143.7931  158.4620 H   0  0  0  0  0  0  0  0  0  0  0  0
  150.3155  142.8493  159.8991 H   0  0  0  0  0  0  0  0  0  0  0  0
  1  2  2  0  0  0  0
  2 24  1  0  0  0  0
  2  3  1  0  0  0  0
  3  4  1  0  0  0  0
  3 30  1  0  0  0  0
  3 31  1  0  0  0  0
  4  5  1  0  0  0  0
  4 23  1  0  0  0  0
  5 10  1  0  0  0  0
  5  6  2  0  0  0  0
  6  7  1  0  0  0  0
  7  8  2  0  0  0  0
  7 32  1  0  0  0  0
  8  9  1  0  0  0  0
  9 13  1  0  0  0  0
  9 10  2  0  0  0  0
 10 11  1  0  0  0  0
 11 12  2  0  0  0  0
 12 13  1  0  0  0  0
 12 33  1  0  0  0  0
 13 14  1  0  0  0  0
 14 15  1  0  0  0  0
 14 34  1  0  0  0  0
 14 35  1  0  0  0  0
 15 16  1  0  0  0  0
 15 18  1  0  0  0  0
 15 36  1  0  0  0  0
 16 17  1  0  0  0  0
 16 37  1  0  0  0  0
 16 38  1  0  0  0  0
 17 39  1  0  0  0  0
 18 22  1  0  0  0  0
 18 19  1  0  0  0  0
 18 40  1  0  0  0  0
 19 20  1  0  0  0  0
 19 41  1  0  0  0  0
 19 42  1  0  0  0  0
 20 21  1  0  0  0  0
 20 43  1  0  0  0  0
 20 44  1  0  0  0  0
 21 22  1  0  0  0  0
 22 45  1  0  0  0  0
 22 46  1  0  0  0  0
 23 24  1  0  0  0  0
 23 47  1  0  0  0  0
 23 48  1  0  0  0  0
 24 25  1  0  0  0  0
 25 26  1  0  0  0  0
 25 49  1  0  0  0  0
 25 50  1  0  0  0  0
 26 27  1  0  0  0  0
 26 28  1  0  0  0  0
 26 29  1  0  0  0  0
M  END
> <s_m_source_file>
AV-unprocessed.smi

> <i_m_source_file_index>
254

> <i_lp_mmshare_version>
43012

> <i_f3d_flags>
0

> <s_epik_input>
RkMoRikoRilbQ0gyXU4xW0NIMl1OKFtDSDJdQzE9TyljKG5bY0hdbjIpYyhjMjMpbltjSF1uM1tDSDJdW0NASF0oW0NIMl1bT0hdKVtDQEBIXTRbQ0gyXVtDSDJdT1tDSDJdNA==

> <s_epik_cmdline>
J2VwaWtfcHl0aG9uJywgJy1waCcsICc3LjAnLCAnLXRuJywgJzgnLCAnLW1hJywgJzIwMCcsICctbWV0YWxfYmluZGluZycsICctaW1hZScsICc8aW5maWxlLm1hZT4nLCAnLW9tYWUnLCAnPG91dGZpbGUubWFlPic=

> <r_lp_tautomer_probability>
1

> <r_epik_Ionization_Penalty>
0.000292924

> <r_epik_Ionization_Penalty_Charging>
0

> <r_epik_Ionization_Penalty_Neutral>
0.000292924

> <r_epik_State_Penalty>
-0

> <r_epik_Charging_Adjusted_Penalty>
0

> <i_epik_Tot_Q>
0

> <i_epik_Tot_abs_Q>
0

> <r_epik_Metal_State_Penalty>
-0

> <b_epik_Metal_Only>
0

> <s_epik_Chemistry_Notes>
This compound contains an acetal/aminal-like group ( X-CH(R)-Y where X, Y are N, S, or O) that may be acid/base labile, releasing an aldehyde.

> <s_lp_Force_Field>
OPLS_2005

> <r_lp_Energy>
43.3232

> <b_lp_Chiralities_Consistent>
1

> <s_lp_Variant>
AV-unprocessed.smi:254-3

> <Gold.Version>
5.8.1

> <Gold.Id.Protein>
6NUR|6NUR_protein|mol2

> <Gold.PLP.Fitness>
49.3481

> <Gold.PLP.PLP>
-45.5705

> <Gold.PLP.part.hbond>
-1.2437

> <Gold.PLP.part.metal>
0.0000

> <Gold.PLP.part.buried>
-7.2953

> <Gold.PLP.part.nonpolar>
-39.8882

> <Gold.PLP.part.repulsive>
1.9438

> <Gold.PLP.ligand.clash>
0.0000

> <Gold.PLP.ligand.torsion>
1.4271

> <Gold.PLP.Chemscore.Hbond>
1.0008

> <Gold.PLP.Chemscore.CHOScore>
1.0367

> <Gold.PLP.Chemscore.Metal>
0.0000

> <Gold.Chemscore.Hbonds>
donor molecule, donor type, donor heavy atom, donor atom, acceptor molecule, acceptor atom, score
      L1  H    17    39       P1  7948  1.00
      P1  H  7989  7998       L1     6  0.01
      L1  C     7    32       P1  7948  0.09
      L1  C     7    32       P1  7949  0.96

> <Gold.PLP.Chemscore.Internal.Correction>
0.5191

> <Gold.Rescore>
     Score         DG    S(hbond)    S(metal)    S(lipo)     H(rot)  DE(clash)    DE(int)     intcor
     -0.30      -5.78       1.00        0.00      56.82       3.78       0.05       6.03       ----

> <Gold.Chemscore.Fitness>
-0.3005

> <Gold.Chemscore.DG>
-5.7808

> <Gold.Chemscore.ZeroCoef>
-5.4800

> <Gold.Chemscore.Hbond>
1.0000

> <Gold.Chemscore.Metal>
0.0000

> <Gold.Chemscore.Lipo>
56.8197

> <Gold.Chemscore.Internal_Hbond>
0.0000

> <Gold.Chemscore.DEClash>
0.0526

> <Gold.Chemscore.DEInternal>
6.0287

> <Gold.Chemscore.Rot>
3.7840

> <Gold.Chemscore.Internal.Correction>
   9.000000E+99

> <Gold.Chemscore.Hbonds>
donor molecule, donor type, donor heavy atom, donor atom, acceptor molecule, acceptor atom, score
      L1  H    17    39       P1  7948  1.00

> <Gold.Chemscore.Hbond.Weighted>
-3.3399

> <Gold.Chemscore.Metal.Weighted>
-0.0000

> <Gold.Chemscore.Lipo.Weighted>
-6.6479

> <Gold.Chemscore.Internal_Hbond.Weighted>
0.0000

> <Gold.Chemscore.DEClash.Weighted>
0.0526

> <Gold.Chemscore.DEInternal.Weighted>
6.0287

> <Gold.Chemscore.Rot.Weighted>
9.6871

> <Gold.Chemscore.Internal.Correction.Weighted>
   9.000000E+99

> <Gold.Protein.RotatedTorsions>
[ 6907 6896 6895 6894 ] final  -53.16 input  -60.11 | X-H torsion
[ 7974 7965 7964 7962 ] final -124.61 input  175.53 | X-H torsion
[ 8008 7997 7996 7995 ] final  -56.40 input   59.86 | X-H torsion
[ 10167 10162 10161 10158 ] final  135.06 input  -65.29 | X-H torsion
[ 10718 10713 10712 10709 ] final  102.52 input   66.30 | X-H torsion
[ 10763 10752 10751 10750 ] final -114.95 input  -60.55 | X-H torsion
[ 11005 11000 10999 10996 ] final  138.43 input  -57.11 | X-H torsion

> <Gold.Protein.ActiveResidues>
 VAL166  LYS551  ARG553  GLY616  TRP617  ASP618  TYR619  PRO620  LYS621  CYS622 
 ASP623  PHE694  ASN695  SER759  ASP760  ASP761  ALA762  ILE779  LEU786  VAL792 
 PHE793  MET794  SER795  GLU796  ALA797  LYS798  CYS799  TRP800  GLU811  SER814 

> <Gold.Protein.RotatedAtoms>
  150.8452  134.7758  159.6963 H   0  0  0  0  0  0  0  0  0  0  0  0  # atno 6907 bound_to 6896
  152.4530  134.5349  159.9832 H   0  0  0  0  0  0  0  0  0  0  0  0  # atno 6908 bound_to 6896
  151.5481  133.3384  159.2983 H   0  0  0  0  0  0  0  0  0  0  0  0  # atno 6909 bound_to 6896
  145.0062  140.7865  143.4466 H   0  0  0  0  0  0  0  0  0  0  0  0  # atno 7974 bound_to 7965
  154.4229  140.1130  156.5632 H   0  0  0  0  0  0  0  0  0  0  0  0  # atno 8008 bound_to 7997
  155.6290  140.3495  155.4657 H   0  0  0  0  0  0  0  0  0  0  0  0  # atno 8009 bound_to 7997
  155.9963  140.1190  157.0579 H   0  0  0  0  0  0  0  0  0  0  0  0  # atno 8010 bound_to 7997
  139.5232  144.6536  151.5229 H   0  0  0  0  0  0  0  0  0  0  0  0  # atno 10167 bound_to 10162
  157.6799  131.0755  150.5417 H   0  0  0  0  0  0  0  0  0  0  0  0  # atno 10718 bound_to 10713
  154.8461  135.4399  154.1586 H   0  0  0  0  0  0  0  0  0  0  0  0  # atno 10763 bound_to 10752
  153.2729  135.6946  153.7469 H   0  0  0  0  0  0  0  0  0  0  0  0  # atno 10764 bound_to 10752
  153.6702  135.3420  155.3126 H   0  0  0  0  0  0  0  0  0  0  0  0  # atno 10765 bound_to 10752
  140.0183  134.9408  157.0422 H   0  0  0  0  0  0  0  0  0  0  0  0  # atno 11005 bound_to 11000
  145.2085  139.2216  143.5155 LP  0  0  0  0  0  0  0  0  0  0  0  0  # atno 17320 bound_to 7965
  146.3461  140.1918  142.8589 LP  0  0  0  0  0  0  0  0  0  0  0  0  # atno 17321 bound_to 7965
  140.6352  143.8999  150.6640 LP  0  0  0  0  0  0  0  0  0  0  0  0  # atno 17342 bound_to 10162
  140.2315  143.3732  152.1561 LP  0  0  0  0  0  0  0  0  0  0  0  0  # atno 17343 bound_to 10162
  156.5724  130.4283  149.6013 LP  0  0  0  0  0  0  0  0  0  0  0  0  # atno 17370 bound_to 10713
  156.2730  130.7027  151.1830 LP  0  0  0  0  0  0  0  0  0  0  0  0  # atno 17371 bound_to 10713
  140.4432  134.1660  155.7175 LP  0  0  0  0  0  0  0  0  0  0  0  0  # atno 17394 bound_to 11000
  141.1757  133.8518  157.1427 LP  0  0  0  0  0  0  0  0  0  0  0  0  # atno 17395 bound_to 11000

$$$$
