AV-unprocessed.smi:20|AV-procd|sdf|120|dock5
  -GOLD-   2262015293D 1   1.00000     0.00000
 Structure written by MMmdl.
 57 61  0  0  0  0  0  0  0  0  1 V2000
  146.0657  131.9891  152.4750 O   0  0  0  0  0  0  0  0  0  0  0  0
  145.9519  133.2005  152.3036 C   0  0  0  0  0  0  0  0  0  0  0  0
  145.7331  134.1955  153.4301 C   0  0  0  0  0  0  0  0  0  0  0  0
  145.2822  135.4796  152.6925 C   0  0  1  0  0  0  0  0  0  0  0  0
  143.7351  135.5868  152.6193 C   0  0  0  0  0  0  0  0  0  0  0  0
  143.1119  135.9438  153.9806 C   0  0  0  0  0  0  0  0  0  0  0  0
  143.7654  137.1985  154.5759 C   0  0  0  0  0  0  0  0  0  0  0  0
  145.2180  137.0498  154.6223 N   0  0  0  0  0  0  0  0  0  0  0  0
  145.8504  137.9056  155.4635 C   0  0  0  0  0  0  0  0  0  0  0  0
  145.4835  137.9687  156.7717 N   0  0  0  0  0  0  0  0  0  0  0  0
  146.1030  138.8078  157.6069 C   0  0  0  0  0  0  0  0  0  0  0  0
  147.0947  139.6620  157.3477 N   0  0  0  0  0  0  0  0  0  0  0  0
  147.4643  139.6061  156.0364 C   0  0  0  0  0  0  0  0  0  0  0  0
  146.9015  138.7645  155.0360 C   0  0  0  0  0  0  0  0  0  0  0  0
  147.5254  138.9982  153.8159 N   0  0  0  0  0  0  0  0  0  0  0  0
  148.4098  139.9209  154.0806 C   0  0  0  0  0  0  0  0  0  0  0  0
  148.4341  140.3500  155.3879 N   0  0  0  0  0  0  0  0  0  0  0  0
  149.3036  141.3689  155.9484 C   0  0  0  0  0  0  0  0  0  0  0  0
  150.3290  140.8239  156.9779 C   0  0  1  0  0  0  0  0  0  0  0  0
  151.5938  140.2353  156.3010 C   0  0  0  0  0  0  0  0  0  0  0  0
  151.2819  139.5268  155.1191 O   0  0  0  0  0  0  0  0  0  0  0  0
  150.7131  141.9296  157.9956 C   0  0  1  0  0  0  0  0  0  0  0  0
  151.8860  141.5926  158.9014 C   0  0  0  0  0  0  0  0  0  0  0  0
  152.3034  142.9666  159.4087 C   0  0  0  0  0  0  0  0  0  0  0  0
  152.0853  143.8476  158.3151 O   0  0  0  0  0  0  0  0  0  0  0  0
  151.2129  143.2388  157.3675 C   0  0  0  0  0  0  0  0  0  0  0  0
  145.8532  136.7639  153.3350 C   0  0  0  0  0  0  0  0  0  0  0  0
  145.8570  135.2696  151.2712 C   0  0  0  0  0  0  0  0  0  0  0  0
  145.9995  133.8333  151.1341 N   0  0  0  0  0  0  0  0  0  0  0  0
  145.0060  133.8236  154.1511 H   0  0  0  0  0  0  0  0  0  0  0  0
  146.6806  134.3406  153.9506 H   0  0  0  0  0  0  0  0  0  0  0  0
  143.4596  136.3632  151.9044 H   0  0  0  0  0  0  0  0  0  0  0  0
  143.2992  134.6605  152.2425 H   0  0  0  0  0  0  0  0  0  0  0  0
  142.0395  136.1046  153.8674 H   0  0  0  0  0  0  0  0  0  0  0  0
  143.2211  135.1127  154.6772 H   0  0  0  0  0  0  0  0  0  0  0  0
  143.5243  138.0681  153.9630 H   0  0  0  0  0  0  0  0  0  0  0  0
  143.3484  137.3888  155.5644 H   0  0  0  0  0  0  0  0  0  0  0  0
  145.7534  138.7934  158.6286 H   0  0  0  0  0  0  0  0  0  0  0  0
  149.0661  140.3246  153.3231 H   0  0  0  0  0  0  0  0  0  0  0  0
  149.8241  141.8695  155.1310 H   0  0  0  0  0  0  0  0  0  0  0  0
  148.6611  142.1207  156.4070 H   0  0  0  0  0  0  0  0  0  0  0  0
  149.8466  140.0230  157.5409 H   0  0  0  0  0  0  0  0  0  0  0  0
  152.3164  141.0212  156.0787 H   0  0  0  0  0  0  0  0  0  0  0  0
  152.0983  139.5250  156.9540 H   0  0  0  0  0  0  0  0  0  0  0  0
  150.4546  139.0871  155.2429 H   0  0  0  0  0  0  0  0  0  0  0  0
  149.8508  142.1549  158.6256 H   0  0  0  0  0  0  0  0  0  0  0  0
  151.6235  140.9162  159.7150 H   0  0  0  0  0  0  0  0  0  0  0  0
  152.6977  141.1427  158.3278 H   0  0  0  0  0  0  0  0  0  0  0  0
  151.6665  143.2746  160.2389 H   0  0  0  0  0  0  0  0  0  0  0  0
  153.3397  142.9939  159.7457 H   0  0  0  0  0  0  0  0  0  0  0  0
  151.7839  143.0424  156.4593 H   0  0  0  0  0  0  0  0  0  0  0  0
  150.3964  143.9140  157.1113 H   0  0  0  0  0  0  0  0  0  0  0  0
  146.9322  136.6618  153.4627 H   0  0  0  0  0  0  0  0  0  0  0  0
  145.6925  137.6136  152.6696 H   0  0  0  0  0  0  0  0  0  0  0  0
  145.2206  135.6806  150.4865 H   0  0  0  0  0  0  0  0  0  0  0  0
  146.8445  135.7218  151.1680 H   0  0  0  0  0  0  0  0  0  0  0  0
  146.1363  133.3774  150.2434 H   0  0  0  0  0  0  0  0  0  0  0  0
  1  2  2  0  0  0  0
  2 29  1  0  0  0  0
  2  3  1  0  0  0  0
  3  4  1  0  0  0  0
  3 30  1  0  0  0  0
  3 31  1  0  0  0  0
  4 27  1  0  0  0  0
  4  5  1  0  0  0  0
  4 28  1  0  0  0  0
  5  6  1  0  0  0  0
  5 32  1  0  0  0  0
  5 33  1  0  0  0  0
  6  7  1  0  0  0  0
  6 34  1  0  0  0  0
  6 35  1  0  0  0  0
  7  8  1  0  0  0  0
  7 36  1  0  0  0  0
  7 37  1  0  0  0  0
  8  9  1  0  0  0  0
  8 27  1  0  0  0  0
  9 14  1  0  0  0  0
  9 10  2  0  0  0  0
 10 11  1  0  0  0  0
 11 12  2  0  0  0  0
 11 38  1  0  0  0  0
 12 13  1  0  0  0  0
 13 17  1  0  0  0  0
 13 14  2  0  0  0  0
 14 15  1  0  0  0  0
 15 16  2  0  0  0  0
 16 17  1  0  0  0  0
 16 39  1  0  0  0  0
 17 18  1  0  0  0  0
 18 19  1  0  0  0  0
 18 40  1  0  0  0  0
 18 41  1  0  0  0  0
 19 20  1  0  0  0  0
 19 22  1  0  0  0  0
 19 42  1  0  0  0  0
 20 21  1  0  0  0  0
 20 43  1  0  0  0  0
 20 44  1  0  0  0  0
 21 45  1  0  0  0  0
 22 26  1  0  0  0  0
 22 23  1  0  0  0  0
 22 46  1  0  0  0  0
 23 24  1  0  0  0  0
 23 47  1  0  0  0  0
 23 48  1  0  0  0  0
 24 25  1  0  0  0  0
 24 49  1  0  0  0  0
 24 50  1  0  0  0  0
 25 26  1  0  0  0  0
 26 51  1  0  0  0  0
 26 52  1  0  0  0  0
 27 53  1  0  0  0  0
 27 54  1  0  0  0  0
 28 29  1  0  0  0  0
 28 55  1  0  0  0  0
 28 56  1  0  0  0  0
 29 57  1  0  0  0  0
M  END
> <s_m_source_file>
AV-unprocessed.smi

> <i_m_source_file_index>
20

> <i_lp_mmshare_version>
43012

> <i_f3d_flags>
0

> <s_epik_input>
W0NIMl0xW05IXUMoPU8pW0NIMl1bQ0BAXTEyW0NIMl1bQ0gyXVtDSDJdTihbQ0gyXTIpYyhuW2NIXW4zKWMoYzM0KW5bY0hdbjRbQ0gyXVtDQEhdKFtDSDJdW09IXSlbQ0BASF01W0NIMl1bQ0gyXU9bQ0gyXTU=

> <s_epik_cmdline>
J2VwaWtfcHl0aG9uJywgJy1waCcsICc3LjAnLCAnLXRuJywgJzgnLCAnLW1hJywgJzIwMCcsICctbWV0YWxfYmluZGluZycsICctaW1hZScsICc8aW5maWxlLm1hZT4nLCAnLW9tYWUnLCAnPG91dGZpbGUubWFlPic=

> <r_lp_tautomer_probability>
1

> <r_epik_Ionization_Penalty>
0.0019697

> <r_epik_Ionization_Penalty_Charging>
0

> <r_epik_Ionization_Penalty_Neutral>
0.0019697

> <r_epik_State_Penalty>
0.00113613

> <r_epik_Charging_Adjusted_Penalty>
0.00113613

> <i_epik_Tot_Q>
0

> <i_epik_Tot_abs_Q>
0

> <r_epik_Metal_State_Penalty>
-0

> <b_epik_Metal_Only>
0

> <s_lp_Force_Field>
OPLS_2005

> <r_lp_Energy>
57.3449

> <b_lp_Chiralities_Consistent>
1

> <s_lp_Variant>
AV-unprocessed.smi:20-8

> <Gold.Version>
5.8.1

> <Gold.Id.Protein>
6NUR|6NUR_protein|mol2

> <Gold.PLP.Fitness>
43.6974

> <Gold.PLP.PLP>
-36.3460

> <Gold.PLP.part.hbond>
-2.0000

> <Gold.PLP.part.metal>
0.0000

> <Gold.PLP.part.buried>
-6.9071

> <Gold.PLP.part.nonpolar>
-28.8692

> <Gold.PLP.part.repulsive>
0.4941

> <Gold.PLP.ligand.clash>
0.0000

> <Gold.PLP.ligand.torsion>
0.8489

> <Gold.PLP.Chemscore.Hbond>
1.8640

> <Gold.PLP.Chemscore.CHOScore>
0.9906

> <Gold.PLP.Chemscore.Metal>
0.0000

> <Gold.Chemscore.Hbonds>
donor molecule, donor type, donor heavy atom, donor atom, acceptor molecule, acceptor atom, score
      P1  H  7989  7998       L1    21  0.75
      L1  C    16    39       P1  7957  1.00

> <Gold.PLP.Chemscore.Internal.Correction>
0.4853

> <Gold.Rescore>
     Score         DG    S(hbond)    S(metal)    S(lipo)     H(rot)  DE(clash)    DE(int)     intcor
     10.77     -14.33       1.82        0.00      83.75       2.74       0.20       3.35       ----

> <Gold.Chemscore.Fitness>
10.7746

> <Gold.Chemscore.DG>
-14.3285

> <Gold.Chemscore.ZeroCoef>
-5.4800

> <Gold.Chemscore.Hbond>
1.8168

> <Gold.Chemscore.Metal>
0.0000

> <Gold.Chemscore.Lipo>
83.7483

> <Gold.Chemscore.Internal_Hbond>
0.0000

> <Gold.Chemscore.DEClash>
0.2026

> <Gold.Chemscore.DEInternal>
3.3513

> <Gold.Chemscore.Rot>
2.7415

> <Gold.Chemscore.Internal.Correction>
   9.000000E+99

> <Gold.Chemscore.Hbonds>
donor molecule, donor type, donor heavy atom, donor atom, acceptor molecule, acceptor atom, score
      P1  H  7989  7998       L1    21  0.41

> <Gold.Chemscore.Hbond.Weighted>
-6.0681

> <Gold.Chemscore.Metal.Weighted>
-0.0000

> <Gold.Chemscore.Lipo.Weighted>
-9.7985

> <Gold.Chemscore.Internal_Hbond.Weighted>
0.0000

> <Gold.Chemscore.DEClash.Weighted>
0.2026

> <Gold.Chemscore.DEInternal.Weighted>
3.3513

> <Gold.Chemscore.Rot.Weighted>
7.0182

> <Gold.Chemscore.Internal.Correction.Weighted>
   9.000000E+99

> <Gold.Protein.RotatedTorsions>
[ 6907 6896 6895 6894 ] final -163.55 input  -60.11 | X-H torsion
[ 7974 7965 7964 7962 ] final  154.62 input  175.53 | X-H torsion
[ 8008 7997 7996 7995 ] final  128.83 input   59.86 | X-H torsion
[ 10167 10162 10161 10158 ] final  110.30 input  -65.29 | X-H torsion
[ 10718 10713 10712 10709 ] final  -14.46 input   66.30 | X-H torsion
[ 10763 10752 10751 10750 ] final   95.15 input  -60.55 | X-H torsion
[ 11005 11000 10999 10996 ] final  -72.72 input  -57.11 | X-H torsion

> <Gold.Protein.ActiveResidues>
 VAL166  LYS551  ARG553  GLY616  TRP617  ASP618  TYR619  PRO620  LYS621  CYS622 
 ASP623  PHE694  ASN695  SER759  ASP760  ASP761  ALA762  ILE779  LEU786  VAL792 
 PHE793  MET794  SER795  GLU796  ALA797  LYS798  CYS799  TRP800  GLU811  SER814 

> <Gold.Protein.RotatedAtoms>
  151.3979  133.3767  159.2728 H   0  0  0  0  0  0  0  0  0  0  0  0  # atno 6907 bound_to 6896
  150.9456  134.8862  159.7650 H   0  0  0  0  0  0  0  0  0  0  0  0  # atno 6908 bound_to 6896
  152.5090  134.3932  159.9443 H   0  0  0  0  0  0  0  0  0  0  0  0  # atno 6909 bound_to 6896
  144.8077  139.6958  143.6155 H   0  0  0  0  0  0  0  0  0  0  0  0  # atno 7974 bound_to 7965
  156.2923  140.2635  156.2500 H   0  0  0  0  0  0  0  0  0  0  0  0  # atno 8008 bound_to 7997
  154.9892  140.0389  157.2330 H   0  0  0  0  0  0  0  0  0  0  0  0  # atno 8009 bound_to 7997
  154.7701  140.2776  155.6149 H   0  0  0  0  0  0  0  0  0  0  0  0  # atno 8010 bound_to 7997
  139.6699  144.7126  151.1707 H   0  0  0  0  0  0  0  0  0  0  0  0  # atno 10167 bound_to 10162
  156.6156  130.4861  149.6184 H   0  0  0  0  0  0  0  0  0  0  0  0  # atno 10718 bound_to 10713
  153.2498  135.4264  155.0785 H   0  0  0  0  0  0  0  0  0  0  0  0  # atno 10763 bound_to 10752
  154.8377  135.3423  154.6529 H   0  0  0  0  0  0  0  0  0  0  0  0  # atno 10764 bound_to 10752
  153.6951  135.7031  153.5136 H   0  0  0  0  0  0  0  0  0  0  0  0  # atno 10765 bound_to 10752
  141.1612  133.6855  156.7102 H   0  0  0  0  0  0  0  0  0  0  0  0  # atno 11005 bound_to 11000
  146.2371  139.5927  142.9516 LP  0  0  0  0  0  0  0  0  0  0  0  0  # atno 17320 bound_to 7965
  145.5398  141.0421  143.2337 LP  0  0  0  0  0  0  0  0  0  0  0  0  # atno 17321 bound_to 7965
  140.7614  143.5860  150.8845 LP  0  0  0  0  0  0  0  0  0  0  0  0  # atno 17342 bound_to 10162
  139.9525  143.6256  152.3025 LP  0  0  0  0  0  0  0  0  0  0  0  0  # atno 17343 bound_to 10162
  156.2354  130.6819  151.1504 LP  0  0  0  0  0  0  0  0  0  0  0  0  # atno 17370 bound_to 10713
  157.7242  131.0661  150.6005 LP  0  0  0  0  0  0  0  0  0  0  0  0  # atno 17371 bound_to 10713
  140.2893  134.8254  157.4002 LP  0  0  0  0  0  0  0  0  0  0  0  0  # atno 17394 bound_to 11000
  140.1361  134.5031  155.8067 LP  0  0  0  0  0  0  0  0  0  0  0  0  # atno 17395 bound_to 11000

$$$$
