AV-unprocessed.smi:102|AV-procd|sdf|951|dock10
  -GOLD-   2262017483D 1   1.00000     0.00000
 Structure written by MMmdl.
 44 45  0  0  0  0  0  0  0  0  1 V2000
  146.6517  133.2732  162.2561 C   0  0  0  0  0  0  0  0  0  0  0  0
  146.7293  134.7584  161.9273 C   0  0  0  0  0  0  0  0  0  0  0  0
  145.8716  135.5480  162.3234 O   0  0  0  0  0  0  0  0  0  0  0  0
  147.8101  135.0650  161.1864 O   0  0  0  0  0  0  0  0  0  0  0  0
  147.9585  136.3654  160.6334 C   0  0  0  0  0  0  0  0  0  0  0  0
  148.4123  136.2944  159.1673 C   0  0  2  0  0  0  0  0  0  0  0  0
  149.8192  136.1157  159.0958 O   0  0  0  0  0  0  0  0  0  0  0  0
  150.3038  136.6226  157.8911 C   0  0  2  0  0  0  0  0  0  0  0  0
  151.6761  137.2122  158.1540 N   0  0  0  0  0  0  0  0  0  0  0  0
  151.8166  138.2941  159.0120 C   0  0  0  0  0  0  0  0  0  0  0  0
  153.0063  138.8920  159.2578 C   0  0  0  0  0  0  0  0  0  0  0  0
  153.0634  139.9308  160.1085 F   0  0  0  0  0  0  0  0  0  0  0  0
  154.2250  138.4221  158.6058 C   0  0  0  0  0  0  0  0  0  0  0  0
  155.3482  138.8948  158.7687 O   0  0  0  0  0  0  0  0  0  0  0  0
  154.0345  137.3467  157.7338 N   0  0  0  0  0  0  0  0  0  0  0  0
  152.8141  136.7238  157.4682 C   0  0  0  0  0  0  0  0  0  0  0  0
  152.7646  135.7904  156.6685 O   0  0  0  0  0  0  0  0  0  0  0  0
  149.2594  137.6138  157.3238 C   0  0  2  0  0  0  0  0  0  0  0  0
  149.7941  138.9154  157.1068 O   0  0  0  0  0  0  0  0  0  0  0  0
  150.7148  139.1224  156.1527 C   0  0  0  0  0  0  0  0  0  0  0  0
  151.1591  140.5772  156.0856 C   0  0  0  0  0  0  0  0  0  0  0  0
  151.1780  138.2717  155.3933 O   0  0  0  0  0  0  0  0  0  0  0  0
  148.1856  137.6121  158.4123 C   0  0  1  0  0  0  0  0  0  0  0  0
  146.8474  137.8198  157.9476 O   0  0  0  0  0  0  0  0  0  0  0  0
  145.7714  137.9015  158.7639 C   0  0  0  0  0  0  0  0  0  0  0  0
  144.4629  137.9627  157.9872 C   0  0  0  0  0  0  0  0  0  0  0  0
  145.7826  137.9279  159.9942 O   0  0  0  0  0  0  0  0  0  0  0  0
  154.8480  136.9946  157.2502 H   0  0  0  0  0  0  0  0  0  0  0  0
  147.1744  133.0669  163.1902 H   0  0  0  0  0  0  0  0  0  0  0  0
  147.1084  132.6789  161.4645 H   0  0  0  0  0  0  0  0  0  0  0  0
  145.6126  132.9613  162.3643 H   0  0  0  0  0  0  0  0  0  0  0  0
  146.9799  136.8434  160.6793 H   0  0  0  0  0  0  0  0  0  0  0  0
  148.6329  136.9852  161.2266 H   0  0  0  0  0  0  0  0  0  0  0  0
  147.9389  135.4550  158.6588 H   0  0  0  0  0  0  0  0  0  0  0  0
  150.4612  135.7850  157.2105 H   0  0  0  0  0  0  0  0  0  0  0  0
  150.9456  138.6831  159.5196 H   0  0  0  0  0  0  0  0  0  0  0  0
  148.9017  137.1845  156.3880 H   0  0  0  0  0  0  0  0  0  0  0  0
  151.5341  140.9038  157.0557 H   0  0  0  0  0  0  0  0  0  0  0  0
  150.3211  141.2154  155.8049 H   0  0  0  0  0  0  0  0  0  0  0  0
  151.9521  140.7026  155.3483 H   0  0  0  0  0  0  0  0  0  0  0  0
  148.4112  138.4267  159.1014 H   0  0  0  0  0  0  0  0  0  0  0  0
  144.5558  137.4412  157.0344 H   0  0  0  0  0  0  0  0  0  0  0  0
  144.1897  138.9995  157.7904 H   0  0  0  0  0  0  0  0  0  0  0  0
  143.6600  137.4953  158.5578 H   0  0  0  0  0  0  0  0  0  0  0  0
  1  2  1  0  0  0  0
  1 29  1  0  0  0  0
  1 30  1  0  0  0  0
  1 31  1  0  0  0  0
  2  3  2  0  0  0  0
  2  4  1  0  0  0  0
  4  5  1  0  0  0  0
  5  6  1  0  0  0  0
  5 32  1  0  0  0  0
  5 33  1  0  0  0  0
  6 23  1  0  0  0  0
  6  7  1  0  0  0  0
  6 34  1  0  0  0  0
  7  8  1  0  0  0  0
  8  9  1  0  0  0  0
  8 18  1  0  0  0  0
  8 35  1  0  0  0  0
  9 16  1  0  0  0  0
  9 10  1  0  0  0  0
 10 11  2  0  0  0  0
 10 36  1  0  0  0  0
 11 12  1  0  0  0  0
 11 13  1  0  0  0  0
 13 14  2  0  0  0  0
 13 15  1  0  0  0  0
 15 28  1  0  0  0  0
 15 16  1  0  0  0  0
 16 17  2  0  0  0  0
 18 19  1  0  0  0  0
 18 23  1  0  0  0  0
 18 37  1  0  0  0  0
 19 20  1  0  0  0  0
 20 21  1  0  0  0  0
 20 22  2  0  0  0  0
 21 38  1  0  0  0  0
 21 39  1  0  0  0  0
 21 40  1  0  0  0  0
 23 24  1  0  0  0  0
 23 41  1  0  0  0  0
 24 25  1  0  0  0  0
 25 26  1  0  0  0  0
 25 27  2  0  0  0  0
 26 42  1  0  0  0  0
 26 43  1  0  0  0  0
 26 44  1  0  0  0  0
M  END
> <s_m_source_file>
AV-unprocessed.smi

> <i_m_source_file_index>
102

> <i_lp_mmshare_version>
43012

> <i_f3d_flags>
0

> <s_epik_input>
W0NIM11DKD1PKU9bQ0gyXVtDQEBIXTFPW0NASF0oW0NAQEhdKE9DKD1PKVtDSDNdKVtDQEhdMU9DKD1PKVtDSDNdKW4yW2NIXWMoRiljKD1PKVtuSF1jMj1P

> <s_epik_cmdline>
J2VwaWtfcHl0aG9uJywgJy1waCcsICc3LjAnLCAnLXRuJywgJzgnLCAnLW1hJywgJzIwMCcsICctbWV0YWxfYmluZGluZycsICctaW1hZScsICc8aW5maWxlLm1hZT4nLCAnLW9tYWUnLCAnPG91dGZpbGUubWFlPic=

> <r_lp_tautomer_probability>
0.999537

> <r_epik_Ionization_Penalty>
0.058267

> <r_epik_Ionization_Penalty_Charging>
0.058267

> <r_epik_Ionization_Penalty_Neutral>
6.57791e-16

> <r_epik_State_Penalty>
0.0503774

> <r_epik_Charging_Adjusted_Penalty>
0.108644

> <i_epik_Tot_Q>
0

> <i_epik_Tot_abs_Q>
0

> <r_epik_Metal_State_Penalty>
2.6644

> <b_epik_Metal_Only>
0

> <s_epik_Chemistry_Notes>
This compound has an ester and may undergo hydrolysis at high or low pH. This compound contains an acetal/aminal-like group ( X-CH(R)-Y where X, Y are N, S, or O) that may be acid/base labile, releasing an aldehyde.

> <s_lp_Force_Field>
OPLS_2005

> <r_lp_Energy>
7.12504

> <b_lp_Chiralities_Consistent>
1

> <s_lp_Variant>
AV-unprocessed.smi:102-7

> <Gold.Version>
5.8.1

> <Gold.Id.Protein>
6NUR|6NUR_protein|mol2

> <Gold.PLP.Fitness>
38.8394

> <Gold.PLP.PLP>
-28.5549

> <Gold.PLP.part.hbond>
-4.0000

> <Gold.PLP.part.metal>
0.0000

> <Gold.PLP.part.buried>
-3.8934

> <Gold.PLP.part.nonpolar>
-21.6479

> <Gold.PLP.part.repulsive>
0.1847

> <Gold.PLP.ligand.clash>
0.0000

> <Gold.PLP.ligand.torsion>
0.6426

> <Gold.PLP.Chemscore.Hbond>
3.8000

> <Gold.PLP.Chemscore.CHOScore>
0.0000

> <Gold.PLP.Chemscore.Metal>
0.0000

> <Gold.Chemscore.Hbonds>
donor molecule, donor type, donor heavy atom, donor atom, acceptor molecule, acceptor atom, score
      P1  H  6896  6909       L1     7  1.00
      P1  H  6934  6947       L1    27  0.90
      P1  H  7997  8010       L1    14  1.00
      P1  H 10752 10765       L1    17  1.00

> <Gold.PLP.Chemscore.Internal.Correction>
0.1697

> <Gold.Rescore>
     Score         DG    S(hbond)    S(metal)    S(lipo)     H(rot)  DE(clash)    DE(int)     intcor
      7.50     -11.03       3.45        0.00      37.66       4.05       0.08       3.45       ----

> <Gold.Chemscore.Fitness>
7.5011

> <Gold.Chemscore.DG>
-11.0266

> <Gold.Chemscore.ZeroCoef>
-5.4800

> <Gold.Chemscore.Hbond>
3.4472

> <Gold.Chemscore.Metal>
0.0000

> <Gold.Chemscore.Lipo>
37.6598

> <Gold.Chemscore.Internal_Hbond>
0.0000

> <Gold.Chemscore.DEClash>
0.0777

> <Gold.Chemscore.DEInternal>
3.4479

> <Gold.Chemscore.Rot>
4.0520

> <Gold.Chemscore.Internal.Correction>
   9.000000E+99

> <Gold.Chemscore.Hbonds>
donor molecule, donor type, donor heavy atom, donor atom, acceptor molecule, acceptor atom, score
      P1  H  6896  6909       L1     7  0.82
      P1  H  6934  6947       L1    27  0.83
      P1  H  7997  8010       L1    14  0.35
      P1  H 10752 10765       L1    17  0.97

> <Gold.Chemscore.Hbond.Weighted>
-11.5136

> <Gold.Chemscore.Metal.Weighted>
-0.0000

> <Gold.Chemscore.Lipo.Weighted>
-4.4062

> <Gold.Chemscore.Internal_Hbond.Weighted>
0.0000

> <Gold.Chemscore.DEClash.Weighted>
0.0777

> <Gold.Chemscore.DEInternal.Weighted>
3.4479

> <Gold.Chemscore.Rot.Weighted>
10.3732

> <Gold.Chemscore.Internal.Correction.Weighted>
   9.000000E+99

> <Gold.Protein.RotatedTorsions>
[ 6907 6896 6895 6894 ] final   62.06 input  -60.11 | X-H torsion
[ 7974 7965 7964 7962 ] final  -39.39 input  175.53 | X-H torsion
[ 8008 7997 7996 7995 ] final  -21.65 input   59.86 | X-H torsion
[ 10167 10162 10161 10158 ] final -172.35 input  -65.29 | X-H torsion
[ 10718 10713 10712 10709 ] final  169.61 input   66.30 | X-H torsion
[ 10763 10752 10751 10750 ] final -130.00 input  -60.55 | X-H torsion
[ 11005 11000 10999 10996 ] final   -5.00 input  -57.11 | X-H torsion

> <Gold.Protein.ActiveResidues>
 VAL166  LYS551  ARG553  GLY616  TRP617  ASP618  TYR619  PRO620  LYS621  CYS622 
 ASP623  PHE694  ASN695  SER759  ASP760  ASP761  ALA762  ILE779  LEU786  VAL792 
 PHE793  MET794  SER795  GLU796  ALA797  LYS798  CYS799  TRP800  GLU811  SER814 

> <Gold.Protein.RotatedAtoms>
  152.4141  134.6073  160.0015 H   0  0  0  0  0  0  0  0  0  0  0  0  # atno 6907 bound_to 6896
  151.6241  133.3331  159.3102 H   0  0  0  0  0  0  0  0  0  0  0  0  # atno 6908 bound_to 6896
  150.8030  134.7177  159.6685 H   0  0  0  0  0  0  0  0  0  0  0  0  # atno 6909 bound_to 6896
  146.0401  140.6620  142.9091 H   0  0  0  0  0  0  0  0  0  0  0  0  # atno 7974 bound_to 7965
  154.4693  140.2029  156.0037 H   0  0  0  0  0  0  0  0  0  0  0  0  # atno 8008 bound_to 7997
  156.0982  140.3248  155.7877 H   0  0  0  0  0  0  0  0  0  0  0  0  # atno 8009 bound_to 7997
  155.4842  140.0541  157.2953 H   0  0  0  0  0  0  0  0  0  0  0  0  # atno 8010 bound_to 7997
  139.5749  144.1555  152.1437 H   0  0  0  0  0  0  0  0  0  0  0  0  # atno 10167 bound_to 10162
  157.0201  131.0229  151.2777 H   0  0  0  0  0  0  0  0  0  0  0  0  # atno 10718 bound_to 10713
  154.8756  135.3877  154.4012 H   0  0  0  0  0  0  0  0  0  0  0  0  # atno 10763 bound_to 10752
  153.4736  135.7030  153.5984 H   0  0  0  0  0  0  0  0  0  0  0  0  # atno 10764 bound_to 10752
  153.4430  135.3851  155.2207 H   0  0  0  0  0  0  0  0  0  0  0  0  # atno 10765 bound_to 10752
  140.6864  133.9109  155.8589 H   0  0  0  0  0  0  0  0  0  0  0  0  # atno 11005 bound_to 11000
  144.7070  140.3892  143.7110 LP  0  0  0  0  0  0  0  0  0  0  0  0  # atno 17320 bound_to 7965
  145.6899  139.1637  143.2653 LP  0  0  0  0  0  0  0  0  0  0  0  0  # atno 17321 bound_to 7965
  140.1096  144.5469  150.6934 LP  0  0  0  0  0  0  0  0  0  0  0  0  # atno 17342 bound_to 10162
  140.7032  143.2449  151.4803 LP  0  0  0  0  0  0  0  0  0  0  0  0  # atno 17343 bound_to 10162
  157.5256  130.8025  149.7858 LP  0  0  0  0  0  0  0  0  0  0  0  0  # atno 17370 bound_to 10713
  156.0105  130.3835  150.2281 LP  0  0  0  0  0  0  0  0  0  0  0  0  # atno 17371 bound_to 10713
  141.0277  134.0800  157.4050 LP  0  0  0  0  0  0  0  0  0  0  0  0  # atno 17394 bound_to 11000
  139.8936  135.0131  156.6909 LP  0  0  0  0  0  0  0  0  0  0  0  0  # atno 17395 bound_to 11000

$$$$
