AV-unprocessed.smi:740|AV-procd|sdf|3553|dock8
  -GOLD-   22720 0553D 1   1.00000     0.00000
 Structure written by MMmdl.
 45 47  0  0  0  0  0  0  0  0  2 V2000
  153.4885  143.3086  163.3117 C   0  0  0  0  0  0  0  0  0  0  0  0
  153.0346  143.0181  161.8914 C   0  0  0  0  0  0  0  0  0  0  0  0
  152.2355  143.9772  161.2295 C   0  0  0  0  0  0  0  0  0  0  0  0
  151.8366  143.6835  159.9310 C   0  0  0  0  0  0  0  0  0  0  0  0
  151.0619  144.4125  159.0263 N   0  3  0  0  0  0  0  0  0  0  0  0
  150.9414  143.7128  157.8646 C   0  0  0  0  0  0  0  0  0  0  0  0
  151.6247  142.5459  158.0150 N   0  0  0  0  0  0  0  0  0  0  0  0
  151.8078  141.4418  157.0623 C   0  0  0  0  0  0  0  0  0  0  0  0
  150.6964  141.3861  155.9960 C   0  0  1  0  0  0  0  0  0  0  0  0
  150.8272  140.1849  155.2608 O   0  0  0  0  0  0  0  0  0  0  0  0
  149.2938  141.4257  156.6362 C   0  0  0  0  0  0  0  0  0  0  0  0
  148.2542  140.9517  155.7153 N   0  0  0  0  0  0  0  0  0  0  0  0
  147.2631  140.1208  156.0657 C   0  0  0  0  0  0  0  0  0  0  0  0
  147.0784  139.6382  157.1827 O   0  0  0  0  0  0  0  0  0  0  0  0
  146.3464  139.8352  154.8845 C   0  0  0  0  0  0  0  0  0  0  0  0
  146.9703  140.6574  153.7466 C   0  0  2  0  0  0  0  0  0  0  0  0
  147.3851  139.8149  152.5291 C   0  0  0  0  0  0  0  0  0  0  0  0
  148.1742  141.3079  154.4255 C   0  0  0  0  0  0  0  0  0  0  0  0
  148.9476  142.0593  153.8311 O   0  0  0  0  0  0  0  0  0  0  0  0
  152.2024  142.4842  159.2890 C   0  0  0  0  0  0  0  0  0  0  0  0
  152.9908  141.5292  159.9272 C   0  0  0  0  0  0  0  0  0  0  0  0
  153.4095  141.8106  161.2473 C   0  0  0  0  0  0  0  0  0  0  0  0
  154.2759  140.7897  161.9651 C   0  0  0  0  0  0  0  0  0  0  0  0
  153.0912  144.2583  163.6710 H   0  0  0  0  0  0  0  0  0  0  0  0
  154.5762  143.3615  163.3623 H   0  0  0  0  0  0  0  0  0  0  0  0
  153.1467  142.5274  163.9912 H   0  0  0  0  0  0  0  0  0  0  0  0
  151.9492  144.9003  161.7119 H   0  0  0  0  0  0  0  0  0  0  0  0
  150.4025  144.0270  156.9823 H   0  0  0  0  0  0  0  0  0  0  0  0
  152.7962  141.5110  156.6075 H   0  0  0  0  0  0  0  0  0  0  0  0
  151.8053  140.5201  157.6454 H   0  0  0  0  0  0  0  0  0  0  0  0
  150.8244  142.2280  155.3141 H   0  0  0  0  0  0  0  0  0  0  0  0
  150.3768  139.4966  155.7258 H   0  0  0  0  0  0  0  0  0  0  0  0
  149.2821  140.8660  157.5734 H   0  0  0  0  0  0  0  0  0  0  0  0
  149.0516  142.4523  156.9169 H   0  0  0  0  0  0  0  0  0  0  0  0
  146.3329  138.7658  154.6701 H   0  0  0  0  0  0  0  0  0  0  0  0
  145.3284  140.1577  155.1060 H   0  0  0  0  0  0  0  0  0  0  0  0
  146.2816  141.4432  153.4335 H   0  0  0  0  0  0  0  0  0  0  0  0
  147.8204  140.4380  151.7470 H   0  0  0  0  0  0  0  0  0  0  0  0
  146.5229  139.3046  152.0992 H   0  0  0  0  0  0  0  0  0  0  0  0
  148.1199  139.0551  152.7984 H   0  0  0  0  0  0  0  0  0  0  0  0
  153.2803  140.6112  159.4381 H   0  0  0  0  0  0  0  0  0  0  0  0
  154.5007  139.9362  161.3248 H   0  0  0  0  0  0  0  0  0  0  0  0
  153.7687  140.4147  162.8542 H   0  0  0  0  0  0  0  0  0  0  0  0
  155.2234  141.2356  162.2680 H   0  0  0  0  0  0  0  0  0  0  0  0
  150.6467  145.3216  159.1864 H   0  0  0  0  0  0  0  0  0  0  0  0
  1  2  1  0  0  0  0
  1 24  1  0  0  0  0
  1 25  1  0  0  0  0
  1 26  1  0  0  0  0
  2 22  1  0  0  0  0
  2  3  2  0  0  0  0
  3  4  1  0  0  0  0
  3 27  1  0  0  0  0
  4 20  2  0  0  0  0
  4  5  1  0  0  0  0
  5  6  2  0  0  0  0
  5 45  1  0  0  0  0
  6  7  1  0  0  0  0
  6 28  1  0  0  0  0
  7  8  1  0  0  0  0
  7 20  1  0  0  0  0
  8  9  1  0  0  0  0
  8 29  1  0  0  0  0
  8 30  1  0  0  0  0
  9 10  1  0  0  0  0
  9 11  1  0  0  0  0
  9 31  1  0  0  0  0
 10 32  1  0  0  0  0
 11 12  1  0  0  0  0
 11 33  1  0  0  0  0
 11 34  1  0  0  0  0
 12 18  1  0  0  0  0
 12 13  1  0  0  0  0
 13 14  2  0  0  0  0
 13 15  1  0  0  0  0
 15 16  1  0  0  0  0
 15 35  1  0  0  0  0
 15 36  1  0  0  0  0
 16 17  1  0  0  0  0
 16 18  1  0  0  0  0
 16 37  1  0  0  0  0
 17 38  1  0  0  0  0
 17 39  1  0  0  0  0
 17 40  1  0  0  0  0
 18 19  2  0  0  0  0
 20 21  1  0  0  0  0
 21 22  2  0  0  0  0
 21 41  1  0  0  0  0
 22 23  1  0  0  0  0
 23 42  1  0  0  0  0
 23 43  1  0  0  0  0
 23 44  1  0  0  0  0
M  CHG  1   5   1
M  END
> <s_m_source_file>
AV-unprocessed.smi

> <i_m_source_file_index>
740

> <i_lp_mmshare_version>
43012

> <i_f3d_flags>
0

> <s_epik_input>
W0NIM11jKFtjSF0xKWMoW0NIM10pW2NIXWMoYzEyKW4oW2NIXW4yKVtDSDJdW0NASF0oW09IXSlbQ0gyXU4zQyg9TylbQ0gyXVtDQEBIXShbQ0gzXSlDMz1P

> <s_epik_cmdline>
J2VwaWtfcHl0aG9uJywgJy1waCcsICc3LjAnLCAnLXRuJywgJzgnLCAnLW1hJywgJzIwMCcsICctbWV0YWxfYmluZGluZycsICctaW1hZScsICc8aW5maWxlLm1hZT4nLCAnLW9tYWUnLCAnPG91dGZpbGUubWFlPic=

> <r_lp_tautomer_probability>
1

> <r_epik_Ionization_Penalty>
1.08202

> <r_epik_Ionization_Penalty_Charging>
1.08202

> <r_epik_Ionization_Penalty_Neutral>
1.16605e-06

> <r_epik_State_Penalty>
1.13754

> <r_epik_Charging_Adjusted_Penalty>
2.21956

> <i_epik_Tot_Q>
1

> <i_epik_Tot_abs_Q>
1

> <r_epik_Metal_State_Penalty>
5.13645

> <b_epik_Metal_Only>
0

> <s_lp_Force_Field>
OPLS_2005

> <r_lp_Energy>
22.4261

> <b_lp_Chiralities_Consistent>
1

> <s_lp_Variant>
AV-unprocessed.smi:740-8

> <Gold.Version>
5.8.1

> <Gold.Id.Protein>
6NUR|6NUR_protein|mol2

> <Gold.PLP.Fitness>
51.3083

> <Gold.PLP.PLP>
-45.5342

> <Gold.PLP.part.hbond>
-1.8889

> <Gold.PLP.part.metal>
0.0000

> <Gold.PLP.part.buried>
-2.2610

> <Gold.PLP.part.nonpolar>
-40.5477

> <Gold.PLP.part.repulsive>
0.3239

> <Gold.PLP.ligand.clash>
0.0172

> <Gold.PLP.ligand.torsion>
0.7396

> <Gold.PLP.Chemscore.Hbond>
1.4160

> <Gold.PLP.Chemscore.CHOScore>
1.0000

> <Gold.PLP.Chemscore.Metal>
0.0000

> <Gold.Chemscore.Hbonds>
donor molecule, donor type, donor heavy atom, donor atom, acceptor molecule, acceptor atom, score
      P1  H  7989  7998       L1    10  0.94
      P1  H  8011  8017       L1    19  0.42
      L1  C     6    28       P1  8028  1.00

> <Gold.PLP.Chemscore.Internal.Correction>
0.0226

> <Gold.Rescore>
     Score         DG    S(hbond)    S(metal)    S(lipo)     H(rot)  DE(clash)    DE(int)     intcor
     13.60     -19.88       1.60        0.00     129.43       2.37       4.69       1.59       ----

> <Gold.Chemscore.Fitness>
13.6014

> <Gold.Chemscore.DG>
-19.8810

> <Gold.Chemscore.ZeroCoef>
-5.4800

> <Gold.Chemscore.Hbond>
1.5960

> <Gold.Chemscore.Metal>
0.0000

> <Gold.Chemscore.Lipo>
129.4346

> <Gold.Chemscore.Internal_Hbond>
0.0000

> <Gold.Chemscore.DEClash>
4.6913

> <Gold.Chemscore.DEInternal>
1.5884

> <Gold.Chemscore.Rot>
2.3724

> <Gold.Chemscore.Internal.Correction>
   9.000000E+99

> <Gold.Chemscore.Hbonds>
donor molecule, donor type, donor heavy atom, donor atom, acceptor molecule, acceptor atom, score
      P1  H  7989  7998       L1    10  0.27
      P1  H  8011  8017       L1    19  0.42

> <Gold.Chemscore.Hbond.Weighted>
-5.3306

> <Gold.Chemscore.Metal.Weighted>
-0.0000

> <Gold.Chemscore.Lipo.Weighted>
-15.1439

> <Gold.Chemscore.Internal_Hbond.Weighted>
0.0000

> <Gold.Chemscore.DEClash.Weighted>
4.6913

> <Gold.Chemscore.DEInternal.Weighted>
1.5884

> <Gold.Chemscore.Rot.Weighted>
6.0734

> <Gold.Chemscore.Internal.Correction.Weighted>
   9.000000E+99

> <Gold.Protein.RotatedTorsions>
[ 6907 6896 6895 6894 ] final   88.61 input  -60.11 | X-H torsion
[ 7974 7965 7964 7962 ] final  108.81 input  175.53 | X-H torsion
[ 8008 7997 7996 7995 ] final  -12.44 input   59.86 | X-H torsion
[ 10167 10162 10161 10158 ] final   35.70 input  -65.29 | X-H torsion
[ 10718 10713 10712 10709 ] final  158.50 input   66.30 | X-H torsion
[ 10763 10752 10751 10750 ] final -179.05 input  -60.55 | X-H torsion
[ 11005 11000 10999 10996 ] final  111.00 input  -57.11 | X-H torsion

> <Gold.Protein.ActiveResidues>
 VAL166  LYS551  ARG553  GLY616  TRP617  ASP618  TYR619  PRO620  LYS621  CYS622 
 ASP623  PHE694  ASN695  SER759  ASP760  ASP761  ALA762  ILE779  LEU786  VAL792 
 PHE793  MET794  SER795  GLU796  ALA797  LYS798  CYS799  TRP800  GLU811  SER814 

> <Gold.Protein.RotatedAtoms>
  152.5427  134.2095  159.8743 H   0  0  0  0  0  0  0  0  0  0  0  0  # atno 6907 bound_to 6896
  151.2078  133.4566  159.2605 H   0  0  0  0  0  0  0  0  0  0  0  0  # atno 6908 bound_to 6896
  151.0926  134.9938  159.8466 H   0  0  0  0  0  0  0  0  0  0  0  0  # atno 6909 bound_to 6896
  145.2759  139.2650  143.3941 H   0  0  0  0  0  0  0  0  0  0  0  0  # atno 7974 bound_to 7965
  154.5377  140.2276  155.8694 H   0  0  0  0  0  0  0  0  0  0  0  0  # atno 8008 bound_to 7997
  156.1828  140.3096  155.9143 H   0  0  0  0  0  0  0  0  0  0  0  0  # atno 8009 bound_to 7997
  155.3321  140.0446  157.3033 H   0  0  0  0  0  0  0  0  0  0  0  0  # atno 8010 bound_to 7997
  140.4197  144.1477  150.6147 H   0  0  0  0  0  0  0  0  0  0  0  0  # atno 10167 bound_to 10162
  157.1770  131.0623  151.2152 H   0  0  0  0  0  0  0  0  0  0  0  0  # atno 10718 bound_to 10713
  154.5400  135.2805  155.1104 H   0  0  0  0  0  0  0  0  0  0  0  0  # atno 10763 bound_to 10752
  154.2591  135.6325  153.5271 H   0  0  0  0  0  0  0  0  0  0  0  0  # atno 10764 bound_to 10752
  152.9976  135.5601  154.5936 H   0  0  0  0  0  0  0  0  0  0  0  0  # atno 10765 bound_to 10752
  139.8894  134.9497  156.6365 H   0  0  0  0  0  0  0  0  0  0  0  0  # atno 11005 bound_to 11000
  146.3232  140.3214  142.8633 LP  0  0  0  0  0  0  0  0  0  0  0  0  # atno 17320 bound_to 7965
  144.9295  140.7959  143.5698 LP  0  0  0  0  0  0  0  0  0  0  0  0  # atno 17321 bound_to 7965
  140.4547  143.2472  151.9301 LP  0  0  0  0  0  0  0  0  0  0  0  0  # atno 17342 bound_to 10162
  139.4782  144.5527  151.8360 LP  0  0  0  0  0  0  0  0  0  0  0  0  # atno 17343 bound_to 10162
  157.3989  130.7322  149.6752 LP  0  0  0  0  0  0  0  0  0  0  0  0  # atno 17370 bound_to 10713
  155.9730  130.4126  150.4040 LP  0  0  0  0  0  0  0  0  0  0  0  0  # atno 17371 bound_to 10713
  140.7626  133.8804  155.8430 LP  0  0  0  0  0  0  0  0  0  0  0  0  # atno 17394 bound_to 11000
  140.9909  134.1280  157.4409 LP  0  0  0  0  0  0  0  0  0  0  0  0  # atno 17395 bound_to 11000

$$$$
