AV-unprocessed.smi:1807|AV-procd|sdf|7302|dock1
  -GOLD-   22720 8563D 1   1.00000     0.00000
 Structure written by MMmdl.
 44 45  0  0  0  0  0  0  0  0  1 V2000
  148.9723  141.1183  154.8742 C   0  0  0  0  0  0  0  0  0  0  0  0
  150.3277  140.8707  155.5582 C   0  0  1  0  0  0  0  0  0  0  0  0
  150.2178  140.9858  157.0926 C   0  0  0  0  0  0  0  0  0  0  0  0
  151.5850  140.8065  157.7717 C   0  0  0  0  0  0  0  0  0  0  0  0
  152.2395  139.4763  157.3702 C   0  0  0  0  0  0  0  0  0  0  0  0
  152.3500  139.3476  155.8408 C   0  0  0  0  0  0  0  0  0  0  0  0
  150.9896  139.5324  155.1385 C   0  0  1  0  0  0  0  0  0  0  0  0
  150.1264  138.3828  155.4196 N   0  0  0  0  0  0  0  0  0  0  0  0
  150.3576  137.1096  155.0639 C   0  0  0  0  0  0  0  0  0  0  0  0
  151.3570  136.7509  154.4386 O   0  0  0  0  0  0  0  0  0  0  0  0
  149.2877  136.1014  155.4919 C   0  0  0  0  0  0  0  0  0  0  0  0
  148.7581  135.3473  154.3639 N   0  0  0  0  0  0  0  0  0  0  0  0
  149.0278  133.9792  154.2565 C   0  0  0  0  0  0  0  0  0  0  0  0
  148.5366  133.1940  153.1785 C   0  0  0  0  0  0  0  0  0  0  0  0
  149.0247  131.9481  153.4532 C   0  0  0  0  0  0  0  0  0  0  0  0
  149.7511  132.0345  154.6254 N   0  0  0  0  0  0  0  0  0  0  0  0
  150.4672  130.9804  155.3216 C   0  0  0  0  0  0  0  0  0  0  0  0
  151.4569  131.5586  156.3359 C   0  0  0  0  0  0  0  0  0  0  0  0
  152.7485  131.2682  156.1614 N   0  0  0  0  0  0  0  0  0  0  0  0
  151.0625  132.2608  157.2645 O   0  0  0  0  0  0  0  0  0  0  0  0
  149.7500  133.2897  155.1263 N   0  0  0  0  0  0  0  0  0  0  0  0
  148.2170  140.4040  155.2023 H   0  0  0  0  0  0  0  0  0  0  0  0
  149.0603  141.0372  153.7904 H   0  0  0  0  0  0  0  0  0  0  0  0
  148.5983  142.1171  155.0998 H   0  0  0  0  0  0  0  0  0  0  0  0
  150.9918  141.6694  155.2247 H   0  0  0  0  0  0  0  0  0  0  0  0
  149.8038  141.9573  157.3639 H   0  0  0  0  0  0  0  0  0  0  0  0
  149.5196  140.2393  157.4736 H   0  0  0  0  0  0  0  0  0  0  0  0
  152.2406  141.6334  157.4956 H   0  0  0  0  0  0  0  0  0  0  0  0
  151.4706  140.8521  158.8550 H   0  0  0  0  0  0  0  0  0  0  0  0
  153.2296  139.4003  157.8201 H   0  0  0  0  0  0  0  0  0  0  0  0
  151.6566  138.6458  157.7705 H   0  0  0  0  0  0  0  0  0  0  0  0
  153.0472  140.1008  155.4713 H   0  0  0  0  0  0  0  0  0  0  0  0
  152.7830  138.3816  155.5775 H   0  0  0  0  0  0  0  0  0  0  0  0
  151.1880  139.5758  154.0662 H   0  0  0  0  0  0  0  0  0  0  0  0
  149.2773  138.5760  155.9302 H   0  0  0  0  0  0  0  0  0  0  0  0
  149.7233  135.4149  156.2193 H   0  0  0  0  0  0  0  0  0  0  0  0
  148.4720  136.6317  155.9860 H   0  0  0  0  0  0  0  0  0  0  0  0
  148.2728  135.8386  153.6267 H   0  0  0  0  0  0  0  0  0  0  0  0
  147.9280  133.4946  152.3386 H   0  0  0  0  0  0  0  0  0  0  0  0
  148.9200  131.0169  152.9166 H   0  0  0  0  0  0  0  0  0  0  0  0
  149.7551  130.3340  155.8373 H   0  0  0  0  0  0  0  0  0  0  0  0
  150.9831  130.3643  154.5837 H   0  0  0  0  0  0  0  0  0  0  0  0
  153.4398  131.6288  156.8028 H   0  0  0  0  0  0  0  0  0  0  0  0
  153.0292  130.6888  155.3833 H   0  0  0  0  0  0  0  0  0  0  0  0
  1  2  1  0  0  0  0
  1 22  1  0  0  0  0
  1 23  1  0  0  0  0
  1 24  1  0  0  0  0
  2  7  1  0  0  0  0
  2  3  1  0  0  0  0
  2 25  1  0  0  0  0
  3  4  1  0  0  0  0
  3 26  1  0  0  0  0
  3 27  1  0  0  0  0
  4  5  1  0  0  0  0
  4 28  1  0  0  0  0
  4 29  1  0  0  0  0
  5  6  1  0  0  0  0
  5 30  1  0  0  0  0
  5 31  1  0  0  0  0
  6  7  1  0  0  0  0
  6 32  1  0  0  0  0
  6 33  1  0  0  0  0
  7  8  1  0  0  0  0
  7 34  1  0  0  0  0
  8  9  1  0  0  0  0
  8 35  1  0  0  0  0
  9 10  2  0  0  0  0
  9 11  1  0  0  0  0
 11 12  1  0  0  0  0
 11 36  1  0  0  0  0
 11 37  1  0  0  0  0
 12 13  1  0  0  0  0
 12 38  1  0  0  0  0
 13 21  2  0  0  0  0
 13 14  1  0  0  0  0
 14 15  2  0  0  0  0
 14 39  1  0  0  0  0
 15 16  1  0  0  0  0
 15 40  1  0  0  0  0
 16 17  1  0  0  0  0
 16 21  1  0  0  0  0
 17 18  1  0  0  0  0
 17 41  1  0  0  0  0
 17 42  1  0  0  0  0
 18 19  1  0  0  0  0
 18 20  2  0  0  0  0
 19 43  1  0  0  0  0
 19 44  1  0  0  0  0
M  END
> <s_m_source_file>
AV-unprocessed.smi

> <i_m_source_file_index>
1807

> <i_lp_mmshare_version>
43012

> <i_f3d_flags>
0

> <s_epik_input>
W0NIM11bQ0BASF0xW0NIMl1bQ0gyXVtDSDJdW0NIMl1bQ0BIXTFbTkhdQyg9TylbQ0gyXVtOSF1jMltjSF1bY0hdbihuMilbQ0gyXUMoPU8pW05IMl0=

> <s_epik_cmdline>
J2VwaWtfcHl0aG9uJywgJy1waCcsICc3LjAnLCAnLXRuJywgJzgnLCAnLW1hJywgJzIwMCcsICctbWV0YWxfYmluZGluZycsICctaW1hZScsICc8aW5maWxlLm1hZT4nLCAnLW9tYWUnLCAnPG91dGZpbGUubWFlPic=

> <r_lp_tautomer_probability>
1

> <r_epik_Ionization_Penalty>
0.000167642

> <r_epik_Ionization_Penalty_Charging>
0

> <r_epik_Ionization_Penalty_Neutral>
0.000167642

> <r_epik_State_Penalty>
-0

> <r_epik_Charging_Adjusted_Penalty>
0

> <i_epik_Tot_Q>
0

> <i_epik_Tot_abs_Q>
0

> <r_epik_Metal_State_Penalty>
-0

> <b_epik_Metal_Only>
0

> <s_lp_Force_Field>
OPLS_2005

> <r_lp_Energy>
4.94833

> <b_lp_Chiralities_Consistent>
1

> <s_lp_Variant>
AV-unprocessed.smi:1807-2

> <Gold.Version>
5.8.1

> <Gold.Id.Protein>
6NUR|6NUR_protein|mol2

> <Gold.PLP.Fitness>
44.3603

> <Gold.PLP.PLP>
-35.5365

> <Gold.PLP.part.hbond>
-2.9356

> <Gold.PLP.part.metal>
0.0000

> <Gold.PLP.part.buried>
-2.2501

> <Gold.PLP.part.nonpolar>
-29.7857

> <Gold.PLP.part.repulsive>
0.4798

> <Gold.PLP.ligand.clash>
0.0000

> <Gold.PLP.ligand.torsion>
0.2898

> <Gold.PLP.Chemscore.Hbond>
2.7040

> <Gold.PLP.Chemscore.CHOScore>
0.4233

> <Gold.PLP.Chemscore.Metal>
0.0000

> <Gold.Chemscore.Hbonds>
donor molecule, donor type, donor heavy atom, donor atom, acceptor molecule, acceptor atom, score
      L1  H    12    38       P1  7948  0.51
      P1  H  6896  6907       L1    20  0.46
      P1  H 10752 10763       L1    10  1.00
      L1  C    15    40       P1 10747  0.68

> <Gold.PLP.Chemscore.Internal.Correction>
0.0213

> <Gold.Rescore>
     Score         DG    S(hbond)    S(metal)    S(lipo)     H(rot)  DE(clash)    DE(int)     intcor
     14.26     -16.04       2.93        0.00      64.32       2.64       0.02       1.76       ----

> <Gold.Chemscore.Fitness>
14.2646

> <Gold.Chemscore.DG>
-16.0427

> <Gold.Chemscore.ZeroCoef>
-5.4800

> <Gold.Chemscore.Hbond>
2.9306

> <Gold.Chemscore.Metal>
0.0000

> <Gold.Chemscore.Lipo>
64.3165

> <Gold.Chemscore.Internal_Hbond>
0.0000

> <Gold.Chemscore.DEClash>
0.0192

> <Gold.Chemscore.DEInternal>
1.7590

> <Gold.Chemscore.Rot>
2.6369

> <Gold.Chemscore.Internal.Correction>
   9.000000E+99

> <Gold.Chemscore.Hbonds>
donor molecule, donor type, donor heavy atom, donor atom, acceptor molecule, acceptor atom, score
      L1  H    12    38       P1  7948  0.52
      P1  H  6896  6907       L1    20  0.46
      P1  H 10752 10763       L1    10  1.00

> <Gold.Chemscore.Hbond.Weighted>
-9.7881

> <Gold.Chemscore.Metal.Weighted>
-0.0000

> <Gold.Chemscore.Lipo.Weighted>
-7.5250

> <Gold.Chemscore.Internal_Hbond.Weighted>
0.0000

> <Gold.Chemscore.DEClash.Weighted>
0.0192

> <Gold.Chemscore.DEInternal.Weighted>
1.7590

> <Gold.Chemscore.Rot.Weighted>
6.7504

> <Gold.Chemscore.Internal.Correction.Weighted>
   9.000000E+99

> <Gold.Protein.RotatedTorsions>
[ 6907 6896 6895 6894 ] final -158.41 input  -60.11 | X-H torsion
[ 7974 7965 7964 7962 ] final   73.53 input  175.53 | X-H torsion
[ 8008 7997 7996 7995 ] final  164.24 input   59.86 | X-H torsion
[ 10167 10162 10161 10158 ] final  -10.66 input  -65.29 | X-H torsion
[ 10718 10713 10712 10709 ] final   33.05 input   66.30 | X-H torsion
[ 10763 10752 10751 10750 ] final   40.39 input  -60.55 | X-H torsion
[ 11005 11000 10999 10996 ] final  171.75 input  -57.11 | X-H torsion

> <Gold.Protein.ActiveResidues>
 VAL166  LYS551  ARG553  GLY616  TRP617  ASP618  TYR619  PRO620  LYS621  CYS622 
 ASP623  PHE694  ASN695  SER759  ASP760  ASP761  ALA762  ILE779  LEU786  VAL792 
 PHE793  MET794  SER795  GLU796  ALA797  LYS798  CYS799  TRP800  GLU811  SER814 

> <Gold.Protein.RotatedAtoms>
  151.3178  133.4053  159.2651 H   0  0  0  0  0  0  0  0  0  0  0  0  # atno 6907 bound_to 6896
  151.0060  134.9360  159.7991 H   0  0  0  0  0  0  0  0  0  0  0  0  # atno 6908 bound_to 6896
  152.5288  134.3143  159.9177 H   0  0  0  0  0  0  0  0  0  0  0  0  # atno 6909 bound_to 6896
  145.7396  139.2716  143.1494 H   0  0  0  0  0  0  0  0  0  0  0  0  # atno 7974 bound_to 7965
  156.1895  140.1702  156.8119 H   0  0  0  0  0  0  0  0  0  0  0  0  # atno 8008 bound_to 7997
  154.5455  140.0728  156.8613 H   0  0  0  0  0  0  0  0  0  0  0  0  # atno 8009 bound_to 7997
  155.3131  140.3369  155.4245 H   0  0  0  0  0  0  0  0  0  0  0  0  # atno 8010 bound_to 7997
  140.7119  143.5724  150.9078 H   0  0  0  0  0  0  0  0  0  0  0  0  # atno 10167 bound_to 10162
  157.2930  130.7312  149.6621 H   0  0  0  0  0  0  0  0  0  0  0  0  # atno 10718 bound_to 10713
  152.9938  135.6192  154.2619 H   0  0  0  0  0  0  0  0  0  0  0  0  # atno 10763 bound_to 10752
  154.2355  135.2790  155.2875 H   0  0  0  0  0  0  0  0  0  0  0  0  # atno 10764 bound_to 10752
  154.5413  135.5760  153.6900 H   0  0  0  0  0  0  0  0  0  0  0  0  # atno 10765 bound_to 10752
  140.3223  134.7427  157.4073 H   0  0  0  0  0  0  0  0  0  0  0  0  # atno 11005 bound_to 11000
  146.0460  140.8117  142.9805 LP  0  0  0  0  0  0  0  0  0  0  0  0  # atno 17320 bound_to 7965
  144.6873  140.2981  143.7267 LP  0  0  0  0  0  0  0  0  0  0  0  0  # atno 17321 bound_to 7965
  139.9450  143.6338  152.3044 LP  0  0  0  0  0  0  0  0  0  0  0  0  # atno 17342 bound_to 10162
  139.6836  144.7653  151.1564 LP  0  0  0  0  0  0  0  0  0  0  0  0  # atno 17343 bound_to 10162
  155.9668  130.4303  150.4871 LP  0  0  0  0  0  0  0  0  0  0  0  0  # atno 17370 bound_to 10713
  157.2837  131.0612  151.2181 LP  0  0  0  0  0  0  0  0  0  0  0  0  # atno 17371 bound_to 10713
  140.0931  134.5574  155.8425 LP  0  0  0  0  0  0  0  0  0  0  0  0  # atno 17394 bound_to 11000
  141.2083  133.6673  156.6365 LP  0  0  0  0  0  0  0  0  0  0  0  0  # atno 17395 bound_to 11000

$$$$
