AV-unprocessed.smi:873|AV-procd|sdf|4015|dock3
  -GOLD-   22720 1503D 1   1.00000     0.00000
 Structure written by MMmdl.
 46 49  0  0  0  0  0  0  0  0  2 V2000
  146.1065  138.9666  153.4450 O   0  0  0  0  0  0  0  0  0  0  0  0
  146.9810  138.2287  152.9924 C   0  0  0  0  0  0  0  0  0  0  0  0
  148.3000  138.3648  153.2097 N   0  0  0  0  0  0  0  0  0  0  0  0
  148.9664  139.3168  154.0271 C   0  0  0  0  0  0  0  0  0  0  0  0
  148.2433  140.4277  154.5102 C   0  0  0  0  0  0  0  0  0  0  0  0
  148.8194  141.3817  155.2722 N   0  0  0  0  0  0  0  0  0  0  0  0
  150.1207  141.2370  155.5367 C   0  0  0  0  0  0  0  0  0  0  0  0
  150.7512  142.2785  156.4082 C   0  0  0  0  0  0  0  0  0  0  0  0
  151.5053  141.8897  157.6639 C   0  0  0  0  0  0  0  0  0  0  0  0
  150.1803  142.5902  157.7765 C   0  0  0  0  0  0  0  0  0  0  0  0
  150.9063  140.2318  155.1412 N   0  0  0  0  0  0  0  0  0  0  0  0
  150.3377  139.2712  154.3808 C   0  0  0  0  0  0  0  0  0  0  0  0
  146.7298  137.1836  152.1900 N   0  0  0  0  0  0  0  0  0  0  0  0
  145.4101  136.7555  151.7316 C   0  0  2  0  0  0  0  0  0  0  0  0
  144.7465  135.8635  152.7944 C   0  0  0  0  0  0  0  0  0  0  0  0
  143.4023  135.3037  152.2907 C   0  0  0  0  0  0  0  0  0  0  0  0
  143.5453  134.5801  151.0010 N   0  3  2  0  0  0  0  0  0  0  0  0
  144.1778  133.2475  151.1426 C   0  0  0  0  0  0  0  0  0  0  0  0
  144.7911  132.7289  149.8630 C   0  0  0  0  0  0  0  0  0  0  0  0
  143.4814  132.1590  150.3596 C   0  0  0  0  0  0  0  0  0  0  0  0
  144.1773  135.4233  149.9536 C   0  0  0  0  0  0  0  0  0  0  0  0
  145.5380  135.9878  150.4050 C   0  0  0  0  0  0  0  0  0  0  0  0
  148.9031  137.7313  152.7054 H   0  0  0  0  0  0  0  0  0  0  0  0
  147.1936  140.5524  154.2872 H   0  0  0  0  0  0  0  0  0  0  0  0
  151.1370  143.1078  155.8182 H   0  0  0  0  0  0  0  0  0  0  0  0
  151.5377  140.8355  157.9327 H   0  0  0  0  0  0  0  0  0  0  0  0
  152.3983  142.4608  157.9092 H   0  0  0  0  0  0  0  0  0  0  0  0
  150.1853  143.6302  158.0957 H   0  0  0  0  0  0  0  0  0  0  0  0
  149.3318  142.0016  158.1198 H   0  0  0  0  0  0  0  0  0  0  0  0
  151.0013  138.4881  154.0497 H   0  0  0  0  0  0  0  0  0  0  0  0
  147.5179  136.6420  151.8660 H   0  0  0  0  0  0  0  0  0  0  0  0
  144.7644  137.6193  151.5635 H   0  0  0  0  0  0  0  0  0  0  0  0
  145.4118  135.0419  153.0629 H   0  0  0  0  0  0  0  0  0  0  0  0
  144.5843  136.4351  153.7090 H   0  0  0  0  0  0  0  0  0  0  0  0
  142.9588  134.6471  153.0401 H   0  0  0  0  0  0  0  0  0  0  0  0
  142.6979  136.1240  152.1475 H   0  0  0  0  0  0  0  0  0  0  0  0
  144.6393  133.0215  152.1019 H   0  0  0  0  0  0  0  0  0  0  0  0
  144.7583  133.3636  148.9792 H   0  0  0  0  0  0  0  0  0  0  0  0
  145.6730  132.0971  149.9488 H   0  0  0  0  0  0  0  0  0  0  0  0
  143.5012  131.1526  150.7729 H   0  0  0  0  0  0  0  0  0  0  0  0
  142.5807  132.4163  149.8050 H   0  0  0  0  0  0  0  0  0  0  0  0
  144.2892  134.8513  149.0318 H   0  0  0  0  0  0  0  0  0  0  0  0
  143.5011  136.2472  149.7227 H   0  0  0  0  0  0  0  0  0  0  0  0
  145.9343  136.6471  149.6317 H   0  0  0  0  0  0  0  0  0  0  0  0
  146.2579  135.1751  150.5106 H   0  0  0  0  0  0  0  0  0  0  0  0
  142.6058  134.3944  150.6802 H   0  0  0  0  0  0  0  0  0  0  0  0
  1  2  2  0  0  0  0
  2  3  1  0  0  0  0
  2 13  1  0  0  0  0
  3  4  1  0  0  0  0
  3 23  1  0  0  0  0
  4 12  1  0  0  0  0
  4  5  2  0  0  0  0
  5  6  1  0  0  0  0
  5 24  1  0  0  0  0
  6  7  2  0  0  0  0
  7  8  1  0  0  0  0
  7 11  1  0  0  0  0
  8 10  1  0  0  0  0
  8  9  1  0  0  0  0
  8 25  1  0  0  0  0
  9 10  1  0  0  0  0
  9 26  1  0  0  0  0
  9 27  1  0  0  0  0
 10 28  1  0  0  0  0
 10 29  1  0  0  0  0
 11 12  2  0  0  0  0
 12 30  1  0  0  0  0
 13 14  1  0  0  0  0
 13 31  1  0  0  0  0
 14 22  1  0  0  0  0
 14 15  1  0  0  0  0
 14 32  1  0  0  0  0
 15 16  1  0  0  0  0
 15 33  1  0  0  0  0
 15 34  1  0  0  0  0
 16 17  1  0  0  0  0
 16 35  1  0  0  0  0
 16 36  1  0  0  0  0
 17 18  1  0  0  0  0
 17 21  1  0  0  0  0
 17 46  1  0  0  0  0
 18 20  1  0  0  0  0
 18 19  1  0  0  0  0
 18 37  1  0  0  0  0
 19 20  1  0  0  0  0
 19 38  1  0  0  0  0
 19 39  1  0  0  0  0
 20 40  1  0  0  0  0
 20 41  1  0  0  0  0
 21 22  1  0  0  0  0
 21 42  1  0  0  0  0
 21 43  1  0  0  0  0
 22 44  1  0  0  0  0
 22 45  1  0  0  0  0
M  CHG  1  17   1
M  END
> <s_m_source_file>
AV-unprocessed.smi

> <i_m_source_file_index>
873

> <i_lp_mmshare_version>
43012

> <i_f3d_flags>
0

> <s_epik_input>
W0NIMl0xW0NIMl1bQ0hdMU4oW0NIMl1bQ0gyXTIpW0NIMl1bQ0gyXVtDSF0yW05IXUMoPU8pW05IXWMzW2NIXW5jKG5bY0hdMylbQ0hdNFtDSDJdW0NIMl00

> <s_epik_cmdline>
J2VwaWtfcHl0aG9uJywgJy1waCcsICc3LjAnLCAnLXRuJywgJzgnLCAnLW1hJywgJzIwMCcsICctbWV0YWxfYmluZGluZycsICctaW1hZScsICc8aW5maWxlLm1hZT4nLCAnLW9tYWUnLCAnPG91dGZpbGUubWFlPic=

> <r_lp_tautomer_probability>
1

> <r_epik_Ionization_Penalty>
0.123264

> <r_epik_Ionization_Penalty_Charging>
0.123242

> <r_epik_Ionization_Penalty_Neutral>
2.24743e-05

> <r_epik_State_Penalty>
0.112739

> <r_epik_Charging_Adjusted_Penalty>
0.235981

> <i_epik_Tot_Q>
1

> <i_epik_Tot_abs_Q>
1

> <r_epik_Metal_State_Penalty>
0.112739

> <b_epik_Metal_Only>
0

> <s_lp_Force_Field>
OPLS_2005

> <r_lp_Energy>
28.8241

> <b_lp_Chiralities_Consistent>
1

> <s_lp_Variant>
AV-unprocessed.smi:873-2

> <Gold.Version>
5.8.1

> <Gold.Id.Protein>
6NUR|6NUR_protein|mol2

> <Gold.PLP.Fitness>
48.5589

> <Gold.PLP.PLP>
-37.3916

> <Gold.PLP.part.hbond>
-4.7270

> <Gold.PLP.part.metal>
0.0000

> <Gold.PLP.part.buried>
-0.9613

> <Gold.PLP.part.nonpolar>
-32.6601

> <Gold.PLP.part.repulsive>
0.6434

> <Gold.PLP.ligand.clash>
0.0000

> <Gold.PLP.ligand.torsion>
1.2985

> <Gold.PLP.Chemscore.Hbond>
4.1205

> <Gold.PLP.Chemscore.CHOScore>
0.0000

> <Gold.PLP.Chemscore.Metal>
0.0000

> <Gold.Chemscore.Hbonds>
donor molecule, donor type, donor heavy atom, donor atom, acceptor molecule, acceptor atom, score
      L1  H     3    23       P1  7948  0.91
      L1  H    13    31       P1  7948  0.84
      L1  H    17    46       P1 10186  2.00
      P1  H  7989  7998       L1    11  0.25

> <Gold.PLP.Chemscore.Internal.Correction>
1.4027

> <Gold.Rescore>
     Score         DG    S(hbond)    S(metal)    S(lipo)     H(rot)  DE(clash)    DE(int)     intcor
     17.00     -20.17       2.02        0.00      97.67       1.36       0.49       2.68       ----

> <Gold.Chemscore.Fitness>
17.0016

> <Gold.Chemscore.DG>
-20.1694

> <Gold.Chemscore.ZeroCoef>
-5.4800

> <Gold.Chemscore.Hbond>
2.0167

> <Gold.Chemscore.Metal>
0.0000

> <Gold.Chemscore.Lipo>
97.6747

> <Gold.Chemscore.Internal_Hbond>
0.0000

> <Gold.Chemscore.DEClash>
0.4866

> <Gold.Chemscore.DEInternal>
2.6812

> <Gold.Chemscore.Rot>
1.3571

> <Gold.Chemscore.Internal.Correction>
   9.000000E+99

> <Gold.Chemscore.Hbonds>
donor molecule, donor type, donor heavy atom, donor atom, acceptor molecule, acceptor atom, score
      L1  H     3    23       P1  7948  0.89
      L1  H    13    31       P1  7948  0.81
      L1  H    17    46       P1 10186  0.34

> <Gold.Chemscore.Hbond.Weighted>
-6.7357

> <Gold.Chemscore.Metal.Weighted>
-0.0000

> <Gold.Chemscore.Lipo.Weighted>
-11.4279

> <Gold.Chemscore.Internal_Hbond.Weighted>
0.0000

> <Gold.Chemscore.DEClash.Weighted>
0.4866

> <Gold.Chemscore.DEInternal.Weighted>
2.6812

> <Gold.Chemscore.Rot.Weighted>
3.4742

> <Gold.Chemscore.Internal.Correction.Weighted>
   9.000000E+99

> <Gold.Protein.RotatedTorsions>
[ 6907 6896 6895 6894 ] final   80.30 input  -60.11 | X-H torsion
[ 7974 7965 7964 7962 ] final    1.65 input  175.53 | X-H torsion
[ 8008 7997 7996 7995 ] final  117.75 input   59.86 | X-H torsion
[ 10167 10162 10161 10158 ] final  -63.96 input  -65.29 | X-H torsion
[ 10718 10713 10712 10709 ] final    8.61 input   66.30 | X-H torsion
[ 10763 10752 10751 10750 ] final  -69.07 input  -60.55 | X-H torsion
[ 11005 11000 10999 10996 ] final   85.38 input  -57.11 | X-H torsion

> <Gold.Protein.ActiveResidues>
 VAL166  LYS551  ARG553  GLY616  TRP617  ASP618  TYR619  PRO620  LYS621  CYS622 
 ASP623  PHE694  ASN695  SER759  ASP760  ASP761  ALA762  ILE779  LEU786  VAL792 
 PHE793  MET794  SER795  GLU796  ALA797  LYS798  CYS799  TRP800  GLU811  SER814 

> <Gold.Protein.RotatedAtoms>
  152.5230  134.3379  159.9206 H   0  0  0  0  0  0  0  0  0  0  0  0  # atno 6907 bound_to 6896
  151.3328  133.3987  159.2672 H   0  0  0  0  0  0  0  0  0  0  0  0  # atno 6908 bound_to 6896
  150.9866  134.9228  159.7933 H   0  0  0  0  0  0  0  0  0  0  0  0  # atno 6909 bound_to 6896
  146.2441  140.0956  142.8350 H   0  0  0  0  0  0  0  0  0  0  0  0  # atno 7974 bound_to 7965
  156.2510  140.2889  156.0727 H   0  0  0  0  0  0  0  0  0  0  0  0  # atno 8008 bound_to 7997
  155.1653  140.0400  157.2869 H   0  0  0  0  0  0  0  0  0  0  0  0  # atno 8009 bound_to 7997
  154.6364  140.2511  155.7380 H   0  0  0  0  0  0  0  0  0  0  0  0  # atno 8010 bound_to 7997
  140.5834  143.2330  151.6293 H   0  0  0  0  0  0  0  0  0  0  0  0  # atno 10167 bound_to 10162
  156.9542  130.5908  149.5658 H   0  0  0  0  0  0  0  0  0  0  0  0  # atno 10718 bound_to 10713
  154.3981  135.6037  153.5881 H   0  0  0  0  0  0  0  0  0  0  0  0  # atno 10763 bound_to 10752
  152.9788  135.5900  154.4217 H   0  0  0  0  0  0  0  0  0  0  0  0  # atno 10764 bound_to 10752
  154.4011  135.2843  155.2074 H   0  0  0  0  0  0  0  0  0  0  0  0  # atno 10765 bound_to 10752
  139.8973  134.8282  156.2574 H   0  0  0  0  0  0  0  0  0  0  0  0  # atno 11005 bound_to 11000
  145.0613  140.9089  143.4937 LP  0  0  0  0  0  0  0  0  0  0  0  0  # atno 17320 bound_to 7965
  145.1072  139.2782  143.5656 LP  0  0  0  0  0  0  0  0  0  0  0  0  # atno 17321 bound_to 7965
  139.5183  144.3287  152.0845 LP  0  0  0  0  0  0  0  0  0  0  0  0  # atno 17342 bound_to 10162
  140.2441  144.4238  150.6248 LP  0  0  0  0  0  0  0  0  0  0  0  0  # atno 17343 bound_to 10162
  156.0350  130.5438  150.8630 LP  0  0  0  0  0  0  0  0  0  0  0  0  # atno 17370 bound_to 10713
  157.5702  131.0946  150.9430 LP  0  0  0  0  0  0  0  0  0  0  0  0  # atno 17371 bound_to 10713
  141.0184  133.7055  156.1227 LP  0  0  0  0  0  0  0  0  0  0  0  0  # atno 17394 bound_to 11000
  140.7268  134.4298  157.5570 LP  0  0  0  0  0  0  0  0  0  0  0  0  # atno 17395 bound_to 11000

$$$$
