AV-unprocessed.smi:356|AV-procd|sdf|2413|dock8
  -GOLD-   2262022343D 1   1.00000     0.00000
 Structure written by MMmdl.
 42 44  0  0  0  0  0  0  0  0  2 V2000
  149.1972  141.4017  154.3658 C   0  0  0  0  0  0  0  0  0  0  0  0
  150.0262  141.5424  155.5979 C   0  0  0  0  0  0  0  0  0  0  0  0
  149.9921  142.5879  156.4720 N   0  3  0  0  0  0  0  0  0  0  0  0
  150.9074  142.3712  157.5033 C   0  0  0  0  0  0  0  0  0  0  0  0
  151.2304  143.1448  158.6141 C   0  0  0  0  0  0  0  0  0  0  0  0
  152.2177  142.6286  159.4792 C   0  0  0  0  0  0  0  0  0  0  0  0
  152.8424  141.3901  159.2252 C   0  0  0  0  0  0  0  0  0  0  0  0
  152.5070  140.6149  158.0954 C   0  0  0  0  0  0  0  0  0  0  0  0
  151.5298  141.1326  157.2461 C   0  0  0  0  0  0  0  0  0  0  0  0
  150.9541  140.6577  156.0631 N   0  0  0  0  0  0  0  0  0  0  0  0
  151.3914  139.3622  155.5204 C   0  0  0  0  0  0  0  0  0  0  0  0
  150.2147  138.4472  155.1277 C   0  0  1  0  0  0  0  0  0  0  0  0
  150.0156  138.5209  153.7299 O   0  0  0  0  0  0  0  0  0  0  0  0
  150.4928  136.9792  155.5062 C   0  0  0  0  0  0  0  0  0  0  0  0
  149.6838  135.9808  154.8042 N   0  0  0  0  0  0  0  0  0  0  0  0
  148.2894  135.9661  155.2444 C   0  0  0  0  0  0  0  0  0  0  0  0
  147.4681  134.8867  154.5171 C   0  0  0  0  0  0  0  0  0  0  0  0
  148.0740  133.6127  154.7078 O   0  0  0  0  0  0  0  0  0  0  0  0
  149.4201  133.5719  154.2462 C   0  0  0  0  0  0  0  0  0  0  0  0
  150.2459  134.6448  154.9763 C   0  0  0  0  0  0  0  0  0  0  0  0
  148.5238  142.2521  154.2570 H   0  0  0  0  0  0  0  0  0  0  0  0
  148.6000  140.4911  154.4147 H   0  0  0  0  0  0  0  0  0  0  0  0
  149.8377  141.3513  153.4850 H   0  0  0  0  0  0  0  0  0  0  0  0
  150.7533  144.0937  158.8109 H   0  0  0  0  0  0  0  0  0  0  0  0
  152.5016  143.1938  160.3551 H   0  0  0  0  0  0  0  0  0  0  0  0
  153.5944  141.0271  159.9108 H   0  0  0  0  0  0  0  0  0  0  0  0
  152.9904  139.6672  157.9091 H   0  0  0  0  0  0  0  0  0  0  0  0
  152.0220  139.5617  154.6531 H   0  0  0  0  0  0  0  0  0  0  0  0
  152.0321  138.8784  156.2588 H   0  0  0  0  0  0  0  0  0  0  0  0
  149.3143  138.8089  155.6217 H   0  0  0  0  0  0  0  0  0  0  0  0
  150.5601  137.8665  153.3186 H   0  0  0  0  0  0  0  0  0  0  0  0
  151.5494  136.7798  155.3203 H   0  0  0  0  0  0  0  0  0  0  0  0
  150.3551  136.8557  156.5815 H   0  0  0  0  0  0  0  0  0  0  0  0
  148.2424  135.7901  156.3201 H   0  0  0  0  0  0  0  0  0  0  0  0
  147.8214  136.9326  155.0642 H   0  0  0  0  0  0  0  0  0  0  0  0
  146.4500  134.8589  154.9056 H   0  0  0  0  0  0  0  0  0  0  0  0
  147.3981  135.1076  153.4508 H   0  0  0  0  0  0  0  0  0  0  0  0
  149.8325  132.5809  154.4364 H   0  0  0  0  0  0  0  0  0  0  0  0
  149.4482  133.7301  153.1670 H   0  0  0  0  0  0  0  0  0  0  0  0
  151.2702  134.6231  154.6027 H   0  0  0  0  0  0  0  0  0  0  0  0
  150.2964  134.3986  156.0382 H   0  0  0  0  0  0  0  0  0  0  0  0
  149.3843  143.3902  156.3683 H   0  0  0  0  0  0  0  0  0  0  0  0
  1  2  1  0  0  0  0
  1 21  1  0  0  0  0
  1 22  1  0  0  0  0
  1 23  1  0  0  0  0
  2 10  1  0  0  0  0
  2  3  2  0  0  0  0
  3  4  1  0  0  0  0
  3 42  1  0  0  0  0
  4  9  2  0  0  0  0
  4  5  1  0  0  0  0
  5  6  2  0  0  0  0
  5 24  1  0  0  0  0
  6  7  1  0  0  0  0
  6 25  1  0  0  0  0
  7  8  2  0  0  0  0
  7 26  1  0  0  0  0
  8  9  1  0  0  0  0
  8 27  1  0  0  0  0
  9 10  1  0  0  0  0
 10 11  1  0  0  0  0
 11 12  1  0  0  0  0
 11 28  1  0  0  0  0
 11 29  1  0  0  0  0
 12 13  1  0  0  0  0
 12 14  1  0  0  0  0
 12 30  1  0  0  0  0
 13 31  1  0  0  0  0
 14 15  1  0  0  0  0
 14 32  1  0  0  0  0
 14 33  1  0  0  0  0
 15 20  1  0  0  0  0
 15 16  1  0  0  0  0
 16 17  1  0  0  0  0
 16 34  1  0  0  0  0
 16 35  1  0  0  0  0
 17 18  1  0  0  0  0
 17 36  1  0  0  0  0
 17 37  1  0  0  0  0
 18 19  1  0  0  0  0
 19 20  1  0  0  0  0
 19 38  1  0  0  0  0
 19 39  1  0  0  0  0
 20 40  1  0  0  0  0
 20 41  1  0  0  0  0
M  CHG  1   3   1
M  END
> <s_m_source_file>
AV-unprocessed.smi

> <i_m_source_file_index>
356

> <i_lp_mmshare_version>
43012

> <i_f3d_flags>
0

> <s_epik_input>
W2NIXTFbY0hdW2NIXVtjSF1jKGMxMiluKGMobjIpW0NIM10pW0NIMl1bQ0BIXShbT0hdKVtDSDJdTjNbQ0gyXVtDSDJdT1tDSDJdW0NIMl0z

> <s_epik_cmdline>
J2VwaWtfcHl0aG9uJywgJy1waCcsICc3LjAnLCAnLXRuJywgJzgnLCAnLW1hJywgJzIwMCcsICctbWV0YWxfYmluZGluZycsICctaW1hZScsICc8aW5maWxlLm1hZT4nLCAnLW9tYWUnLCAnPG91dGZpbGUubWFlPic=

> <r_epik_Ionization_Penalty>
1.35865

> <r_epik_Ionization_Penalty_Charging>
1.14429

> <r_epik_Ionization_Penalty_Neutral>
0.214359

> <r_epik_State_Penalty>
1.39809

> <r_epik_Charging_Adjusted_Penalty>
2.54238

> <i_epik_Tot_Q>
1

> <i_epik_Tot_abs_Q>
1

> <r_epik_Metal_State_Penalty>
5.40564

> <b_epik_Metal_Only>
0

> <s_lp_Force_Field>
OPLS_2005

> <r_lp_Energy>
32.3817

> <b_lp_Chiralities_Consistent>
1

> <s_lp_Variant>
AV-unprocessed.smi:356-6

> <Gold.Version>
5.8.1

> <Gold.Id.Protein>
6NUR|6NUR_protein|mol2

> <Gold.PLP.Fitness>
40.5776

> <Gold.PLP.PLP>
-36.5051

> <Gold.PLP.part.hbond>
-2.8024

> <Gold.PLP.part.metal>
0.0000

> <Gold.PLP.part.buried>
-4.3674

> <Gold.PLP.part.nonpolar>
-30.6846

> <Gold.PLP.part.repulsive>
0.9389

> <Gold.PLP.ligand.clash>
0.0000

> <Gold.PLP.ligand.torsion>
0.9662

> <Gold.PLP.Chemscore.Hbond>
2.0000

> <Gold.PLP.Chemscore.CHOScore>
0.0000

> <Gold.PLP.Chemscore.Metal>
0.0000

> <Gold.Chemscore.Hbonds>
donor molecule, donor type, donor heavy atom, donor atom, acceptor molecule, acceptor atom, score
      L1  H     3    42       P1  8028  2.00

> <Gold.PLP.Chemscore.Internal.Correction>
0.0049

> <Gold.Rescore>
     Score         DG    S(hbond)    S(metal)    S(lipo)     H(rot)  DE(clash)    DE(int)     intcor
     13.23     -14.32       0.99        0.00      92.35       2.05       0.07       1.02       ----

> <Gold.Chemscore.Fitness>
13.2299

> <Gold.Chemscore.DG>
-14.3206

> <Gold.Chemscore.ZeroCoef>
-5.4800

> <Gold.Chemscore.Hbond>
0.9862

> <Gold.Chemscore.Metal>
0.0000

> <Gold.Chemscore.Lipo>
92.3476

> <Gold.Chemscore.Internal_Hbond>
0.0000

> <Gold.Chemscore.DEClash>
0.0666

> <Gold.Chemscore.DEInternal>
1.0240

> <Gold.Chemscore.Rot>
2.0539

> <Gold.Chemscore.Internal.Correction>
   9.000000E+99

> <Gold.Chemscore.Hbonds>
donor molecule, donor type, donor heavy atom, donor atom, acceptor molecule, acceptor atom, score
      L1  H     3    42       P1  8028  0.95

> <Gold.Chemscore.Hbond.Weighted>
-3.2938

> <Gold.Chemscore.Metal.Weighted>
-0.0000

> <Gold.Chemscore.Lipo.Weighted>
-10.8047

> <Gold.Chemscore.Internal_Hbond.Weighted>
0.0000

> <Gold.Chemscore.DEClash.Weighted>
0.0666

> <Gold.Chemscore.DEInternal.Weighted>
1.0240

> <Gold.Chemscore.Rot.Weighted>
5.2579

> <Gold.Chemscore.Internal.Correction.Weighted>
   9.000000E+99

> <Gold.Protein.RotatedTorsions>
[ 6907 6896 6895 6894 ] final -122.24 input  -60.11 | X-H torsion
[ 7974 7965 7964 7962 ] final   -7.98 input  175.53 | X-H torsion
[ 8008 7997 7996 7995 ] final  -35.14 input   59.86 | X-H torsion
[ 10167 10162 10161 10158 ] final   16.24 input  -65.29 | X-H torsion
[ 10718 10713 10712 10709 ] final   62.07 input   66.30 | X-H torsion
[ 10763 10752 10751 10750 ] final   77.26 input  -60.55 | X-H torsion
[ 11005 11000 10999 10996 ] final  -12.70 input  -57.11 | X-H torsion

> <Gold.Protein.ActiveResidues>
 VAL166  LYS551  ARG553  GLY616  TRP617  ASP618  TYR619  PRO620  LYS621  CYS622 
 ASP623  PHE694  ASN695  SER759  ASP760  ASP761  ALA762  ILE779  LEU786  VAL792 
 PHE793  MET794  SER795  GLU796  ALA797  LYS798  CYS799  TRP800  GLU811  SER814 

> <Gold.Protein.RotatedAtoms>
  150.8557  133.7718  159.3009 H   0  0  0  0  0  0  0  0  0  0  0  0  # atno 6907 bound_to 6896
  151.5376  135.1067  159.9928 H   0  0  0  0  0  0  0  0  0  0  0  0  # atno 6908 bound_to 6896
  152.4588  133.7735  159.6867 H   0  0  0  0  0  0  0  0  0  0  0  0  # atno 6909 bound_to 6896
  146.2292  140.2401  142.8343 H   0  0  0  0  0  0  0  0  0  0  0  0  # atno 7974 bound_to 7965
  154.4103  140.1665  156.2164 H   0  0  0  0  0  0  0  0  0  0  0  0  # atno 8008 bound_to 7997
  155.9401  140.3408  155.6297 H   0  0  0  0  0  0  0  0  0  0  0  0  # atno 8009 bound_to 7997
  155.7000  140.0744  157.2405 H   0  0  0  0  0  0  0  0  0  0  0  0  # atno 8010 bound_to 7997
  140.5811  143.8979  150.6790 H   0  0  0  0  0  0  0  0  0  0  0  0  # atno 10167 bound_to 10162
  157.5874  130.9030  149.9541 H   0  0  0  0  0  0  0  0  0  0  0  0  # atno 10718 bound_to 10713
  153.0785  135.4921  154.8454 H   0  0  0  0  0  0  0  0  0  0  0  0  # atno 10763 bound_to 10752
  154.7120  135.3022  154.9185 H   0  0  0  0  0  0  0  0  0  0  0  0  # atno 10764 bound_to 10752
  153.9876  135.6782  153.4805 H   0  0  0  0  0  0  0  0  0  0  0  0  # atno 10765 bound_to 10752
  140.7684  133.8458  155.9185 H   0  0  0  0  0  0  0  0  0  0  0  0  # atno 11005 bound_to 11000
  144.9491  140.8159  143.5583 LP  0  0  0  0  0  0  0  0  0  0  0  0  # atno 17320 bound_to 7965
  145.2360  139.2094  143.5018 LP  0  0  0  0  0  0  0  0  0  0  0  0  # atno 17321 bound_to 7965
  140.2479  143.3615  152.1431 LP  0  0  0  0  0  0  0  0  0  0  0  0  # atno 17342 bound_to 10162
  139.5170  144.6986  151.5560 LP  0  0  0  0  0  0  0  0  0  0  0  0  # atno 17343 bound_to 10162
  156.0925  130.3662  150.0369 LP  0  0  0  0  0  0  0  0  0  0  0  0  # atno 17370 bound_to 10713
  156.8497  130.9454  151.3626 LP  0  0  0  0  0  0  0  0  0  0  0  0  # atno 17371 bound_to 10713
  140.9597  134.1672  157.4664 LP  0  0  0  0  0  0  0  0  0  0  0  0  # atno 17394 bound_to 11000
  139.8759  134.9940  156.5672 LP  0  0  0  0  0  0  0  0  0  0  0  0  # atno 17395 bound_to 11000

$$$$
