AV-unprocessed.smi:3266|AV-procd|sdf|12500|dock3
  -GOLD-   2272018403D 1   1.00000     0.00000
 Structure written by MMmdl.
 38 39  0  0  0  0  0  0  0  0  1 V2000
  152.7956  137.0574  155.1665 O   0  0  0  0  0  0  0  0  0  0  0  0
  151.7940  137.1703  154.4595 C   0  0  0  0  0  0  0  0  0  0  0  0
  151.2377  138.5568  154.1303 C   0  0  0  0  0  0  0  0  0  0  0  0
  151.9435  139.6693  154.9262 C   0  0  0  0  0  0  0  0  0  0  0  0
  151.4699  139.7457  156.3847 C   0  0  2  0  0  0  0  0  0  0  0  0
  150.3898  140.7981  156.6278 C   0  0  0  0  0  0  0  0  0  0  0  0
  150.5612  141.0711  158.1045 C   0  0  0  0  0  0  0  0  0  0  0  0
  152.0784  141.0083  158.2596 C   0  0  0  0  0  0  0  0  0  0  0  0
  152.5418  140.1164  157.2484 O   0  0  0  0  0  0  0  0  0  0  0  0
  151.1437  136.1238  153.9260 N   0  0  0  0  0  0  0  0  0  0  0  0
  151.5471  134.7243  154.0427 C   0  0  0  0  0  0  0  0  0  0  0  0
  150.7344  133.8036  153.1110 C   0  0  0  0  0  0  0  0  0  0  0  0
  151.4372  132.4987  152.7763 C   0  0  0  0  0  0  0  0  0  0  0  0
  150.7965  131.5138  151.9933 C   0  0  0  0  0  0  0  0  0  0  0  0
  151.5062  130.3382  151.6821 C   0  0  0  0  0  0  0  0  0  0  0  0
  152.8198  130.1907  152.1670 C   0  0  0  0  0  0  0  0  0  0  0  0
  153.3676  131.2300  152.9454 C   0  0  0  0  0  0  0  0  0  0  0  0
  152.6964  132.3618  153.2490 N   0  0  0  0  0  0  0  0  0  0  0  0
  151.3403  138.7487  153.0612 H   0  0  0  0  0  0  0  0  0  0  0  0
  150.1690  138.5596  154.3473 H   0  0  0  0  0  0  0  0  0  0  0  0
  153.0239  139.5177  154.9043 H   0  0  0  0  0  0  0  0  0  0  0  0
  151.7585  140.6304  154.4436 H   0  0  0  0  0  0  0  0  0  0  0  0
  151.0962  138.7736  156.7109 H   0  0  0  0  0  0  0  0  0  0  0  0
  150.5962  141.7039  156.0554 H   0  0  0  0  0  0  0  0  0  0  0  0
  149.3897  140.4495  156.3687 H   0  0  0  0  0  0  0  0  0  0  0  0
  150.1389  142.0261  158.4183 H   0  0  0  0  0  0  0  0  0  0  0  0
  150.0897  140.2790  158.6881 H   0  0  0  0  0  0  0  0  0  0  0  0
  152.5211  141.9893  158.0828 H   0  0  0  0  0  0  0  0  0  0  0  0
  152.3797  140.6753  159.2530 H   0  0  0  0  0  0  0  0  0  0  0  0
  150.3262  136.3146  153.3647 H   0  0  0  0  0  0  0  0  0  0  0  0
  152.6144  134.6110  153.8448 H   0  0  0  0  0  0  0  0  0  0  0  0
  151.3977  134.4158  155.0774 H   0  0  0  0  0  0  0  0  0  0  0  0
  149.7729  133.5754  153.5727 H   0  0  0  0  0  0  0  0  0  0  0  0
  150.5044  134.3316  152.1847 H   0  0  0  0  0  0  0  0  0  0  0  0
  149.7910  131.6608  151.6278 H   0  0  0  0  0  0  0  0  0  0  0  0
  151.0526  129.5652  151.0798 H   0  0  0  0  0  0  0  0  0  0  0  0
  153.3943  129.3031  151.9474 H   0  0  0  0  0  0  0  0  0  0  0  0
  154.3722  131.1505  153.3338 H   0  0  0  0  0  0  0  0  0  0  0  0
  1  2  2  0  0  0  0
  2  3  1  0  0  0  0
  2 10  1  0  0  0  0
  3  4  1  0  0  0  0
  3 19  1  0  0  0  0
  3 20  1  0  0  0  0
  4  5  1  0  0  0  0
  4 21  1  0  0  0  0
  4 22  1  0  0  0  0
  5  9  1  0  0  0  0
  5  6  1  0  0  0  0
  5 23  1  0  0  0  0
  6  7  1  0  0  0  0
  6 24  1  0  0  0  0
  6 25  1  0  0  0  0
  7  8  1  0  0  0  0
  7 26  1  0  0  0  0
  7 27  1  0  0  0  0
  8  9  1  0  0  0  0
  8 28  1  0  0  0  0
  8 29  1  0  0  0  0
 10 11  1  0  0  0  0
 10 30  1  0  0  0  0
 11 12  1  0  0  0  0
 11 31  1  0  0  0  0
 11 32  1  0  0  0  0
 12 13  1  0  0  0  0
 12 33  1  0  0  0  0
 12 34  1  0  0  0  0
 13 18  1  0  0  0  0
 13 14  2  0  0  0  0
 14 15  1  0  0  0  0
 14 35  1  0  0  0  0
 15 16  2  0  0  0  0
 15 36  1  0  0  0  0
 16 17  1  0  0  0  0
 16 37  1  0  0  0  0
 17 18  2  0  0  0  0
 17 38  1  0  0  0  0
M  END
> <s_m_source_file>
AV-unprocessed.smi

> <i_m_source_file_index>
3266

> <i_lp_mmshare_version>
43012

> <i_f3d_flags>
0

> <s_epik_input>
TzFbQ0gyXVtDSDJdW0NIMl1bQ0BIXTFbQ0gyXVtDSDJdQyg9TylbTkhdW0NIMl1bQ0gyXWMyW2NIXVtjSF1bY0hdW2NIXW4y

> <s_epik_cmdline>
J2VwaWtfcHl0aG9uJywgJy1waCcsICc3LjAnLCAnLXRuJywgJzgnLCAnLW1hJywgJzIwMCcsICctbWV0YWxfYmluZGluZycsICctaW1hZScsICc8aW5maWxlLm1hZT4nLCAnLW9tYWUnLCAnPG91dGZpbGUubWFlPic=

> <r_epik_Ionization_Penalty>
0.0267142

> <r_epik_Ionization_Penalty_Charging>
0

> <r_epik_Ionization_Penalty_Neutral>
0.0267142

> <r_epik_State_Penalty>
0.0218233

> <r_epik_Charging_Adjusted_Penalty>
0.0218233

> <i_epik_Tot_Q>
0

> <i_epik_Tot_abs_Q>
0

> <r_epik_Metal_State_Penalty>
0.0208786

> <b_epik_Metal_Only>
0

> <s_lp_Force_Field>
OPLS_2005

> <r_lp_Energy>
16.3587

> <b_lp_Chiralities_Consistent>
1

> <s_lp_Variant>
AV-unprocessed.smi:3266-1

> <Gold.Version>
5.8.1

> <Gold.Id.Protein>
6NUR|6NUR_protein|mol2

> <Gold.PLP.Fitness>
44.0353

> <Gold.PLP.PLP>
-36.5524

> <Gold.PLP.part.hbond>
-3.5733

> <Gold.PLP.part.metal>
0.0000

> <Gold.PLP.part.buried>
-2.2936

> <Gold.PLP.part.nonpolar>
-30.5931

> <Gold.PLP.part.repulsive>
0.0924

> <Gold.PLP.ligand.clash>
0.0000

> <Gold.PLP.ligand.torsion>
0.7981

> <Gold.PLP.Chemscore.Hbond>
3.0000

> <Gold.PLP.Chemscore.CHOScore>
0.0000

> <Gold.PLP.Chemscore.Metal>
0.0000

> <Gold.Chemscore.Hbonds>
donor molecule, donor type, donor heavy atom, donor atom, acceptor molecule, acceptor atom, score
      L1  H    10    30       P1  7948  0.25
      P1  H  7997  8009       L1     9  1.00
      P1  H 10752 10765       L1     1  0.30

> <Gold.PLP.Chemscore.Internal.Correction>
0.0792

> <Gold.Rescore>
     Score         DG    S(hbond)    S(metal)    S(lipo)     H(rot)  DE(clash)    DE(int)     intcor
     17.32     -18.33       2.47        0.00      76.84       1.71       0.04       0.97       ----

> <Gold.Chemscore.Fitness>
17.3165

> <Gold.Chemscore.DG>
-18.3324

> <Gold.Chemscore.ZeroCoef>
-5.4800

> <Gold.Chemscore.Hbond>
2.4690

> <Gold.Chemscore.Metal>
0.0000

> <Gold.Chemscore.Lipo>
76.8414

> <Gold.Chemscore.Internal_Hbond>
0.0000

> <Gold.Chemscore.DEClash>
0.0421

> <Gold.Chemscore.DEInternal>
0.9739

> <Gold.Chemscore.Rot>
1.7127

> <Gold.Chemscore.Internal.Correction>
   9.000000E+99

> <Gold.Chemscore.Hbonds>
donor molecule, donor type, donor heavy atom, donor atom, acceptor molecule, acceptor atom, score
      P1  H  7997  8009       L1     9  0.95
      P1  H 10752 10765       L1     1  0.21

> <Gold.Chemscore.Hbond.Weighted>
-8.2465

> <Gold.Chemscore.Metal.Weighted>
-0.0000

> <Gold.Chemscore.Lipo.Weighted>
-8.9904

> <Gold.Chemscore.Internal_Hbond.Weighted>
0.0000

> <Gold.Chemscore.DEClash.Weighted>
0.0421

> <Gold.Chemscore.DEInternal.Weighted>
0.9739

> <Gold.Chemscore.Rot.Weighted>
4.3846

> <Gold.Chemscore.Internal.Correction.Weighted>
   9.000000E+99

> <Gold.Protein.RotatedTorsions>
[ 6907 6896 6895 6894 ] final -166.29 input  -60.11 | X-H torsion
[ 7974 7965 7964 7962 ] final  -80.07 input  175.53 | X-H torsion
[ 8008 7997 7996 7995 ] final -178.20 input   59.86 | X-H torsion
[ 10167 10162 10161 10158 ] final   59.01 input  -65.29 | X-H torsion
[ 10718 10713 10712 10709 ] final  163.95 input   66.30 | X-H torsion
[ 10763 10752 10751 10750 ] final -139.73 input  -60.55 | X-H torsion
[ 11005 11000 10999 10996 ] final   29.02 input  -57.11 | X-H torsion

> <Gold.Protein.ActiveResidues>
 VAL166  LYS551  ARG553  GLY616  TRP617  ASP618  TYR619  PRO620  LYS621  CYS622 
 ASP623  PHE694  ASN695  SER759  ASP760  ASP761  ALA762  ILE779  LEU786  VAL792 
 PHE793  MET794  SER795  GLU796  ALA797  LYS798  CYS799  TRP800  GLU811  SER814 

> <Gold.Protein.RotatedAtoms>
  151.4412  133.3643  159.2781 H   0  0  0  0  0  0  0  0  0  0  0  0  # atno 6907 bound_to 6896
  150.9156  134.8575  159.7465 H   0  0  0  0  0  0  0  0  0  0  0  0  # atno 6908 bound_to 6896
  152.4955  134.4345  159.9575 H   0  0  0  0  0  0  0  0  0  0  0  0  # atno 6909 bound_to 6896
  145.5648  140.9476  143.1428 H   0  0  0  0  0  0  0  0  0  0  0  0  # atno 7974 bound_to 7965
  156.0160  140.1251  157.0405 H   0  0  0  0  0  0  0  0  0  0  0  0  # atno 8008 bound_to 7997
  154.4293  140.1078  156.5967 H   0  0  0  0  0  0  0  0  0  0  0  0  # atno 8009 bound_to 7997
  155.6012  140.3470  155.4596 H   0  0  0  0  0  0  0  0  0  0  0  0  # atno 8010 bound_to 7997
  140.1810  144.4182  150.6615 H   0  0  0  0  0  0  0  0  0  0  0  0  # atno 10167 bound_to 10162
  157.1013  131.0443  151.2496 H   0  0  0  0  0  0  0  0  0  0  0  0  # atno 10718 bound_to 10713
  154.8600  135.3574  154.5593 H   0  0  0  0  0  0  0  0  0  0  0  0  # atno 10763 bound_to 10752
  153.6209  135.7006  153.5315 H   0  0  0  0  0  0  0  0  0  0  0  0  # atno 10764 bound_to 10752
  153.3129  135.4173  155.1312 H   0  0  0  0  0  0  0  0  0  0  0  0  # atno 10765 bound_to 10752
  140.3094  134.2666  155.7737 H   0  0  0  0  0  0  0  0  0  0  0  0  # atno 11005 bound_to 11000
  144.7466  139.7305  143.7290 LP  0  0  0  0  0  0  0  0  0  0  0  0  # atno 17320 bound_to 7965
  146.1826  139.5025  142.9857 LP  0  0  0  0  0  0  0  0  0  0  0  0  # atno 17321 bound_to 7965
  140.6520  143.2227  151.6056 LP  0  0  0  0  0  0  0  0  0  0  0  0  # atno 17342 bound_to 10162
  139.5296  144.2955  152.1117 LP  0  0  0  0  0  0  0  0  0  0  0  0  # atno 17343 bound_to 10162
  157.4638  130.7669  149.7260 LP  0  0  0  0  0  0  0  0  0  0  0  0  # atno 17370 bound_to 10713
  155.9873  130.3968  150.3172 LP  0  0  0  0  0  0  0  0  0  0  0  0  # atno 17371 bound_to 10713
  141.2111  133.7698  156.9885 LP  0  0  0  0  0  0  0  0  0  0  0  0  # atno 17394 bound_to 11000
  140.1038  134.9519  157.1963 LP  0  0  0  0  0  0  0  0  0  0  0  0  # atno 17395 bound_to 11000

$$$$
