#       Name:                AV-unprocessed.smi:810
#       Creating user name   scv26
#       Creation time:       Fri Mar 27 01:24:57 2020


#       File generated by GOLD software.
#

@<TRIPOS>MOLECULE
AV-unprocessed.smi:810
    39    40     1
SMALL
NO_CHARGES


@<TRIPOS>ATOM
      1 ****        -1.1514  -0.6006  -0.8539 O.2            1 S1                 0.0000
      2 ****        -0.4461  -0.4154   0.1374 C.2            1 S1                 0.0000
      3 ****        -0.5909  -1.0352   1.3210 N.am           1 S1                 0.0000
      4 ****        -1.5438  -2.0222   1.6917 C.ar           1 S1                 0.0000
      5 ****        -2.2234  -2.8594   0.7738 C.ar           1 S1                 0.0000
      6 ****        -3.1343  -3.8121   1.2694 C.ar           1 S1                 0.0000
      7 ****        -3.3273  -3.8985   2.6617 C.ar           1 S1                 0.0000
      8 ****        -2.6759  -3.1172   3.5487 N.ar           1 S1                 0.0000
      9 ****        -1.8037  -2.2066   3.0665 C.ar           1 S1                 0.0000
     10 ****         0.5671   0.4620   0.1726 N.am           1 S1                 0.0000
     11 ****         0.9789   1.3255  -0.9316 C.3            1 S1                 0.0000
     12 ****         2.4968   1.5794  -0.8517 C.3            1 S1                 0.0000
     13 ****         3.3459   0.3050  -0.9918 C.3            1 S1                 0.0000
     14 ****         4.7164   0.6392  -0.9538 O.3            1 S1                 0.0000
     15 ****         0.2141   2.6380  -0.9700 C.3            1 S1                 0.0000
     16 ****        -1.1045   2.7587  -1.6967 C.3            1 S1                 0.0000
     17 ****         0.1249   3.4501  -2.2405 C.3            1 S1                 0.0000
     18 ****         0.0132  -0.7174   2.0648 H              1 S1                 0.0000
     19 ****        -2.0573  -2.8011  -0.2905 H              1 S1                 0.0000
     20 ****        -3.6707  -4.4648   0.5967 H              1 S1                 0.0000
     21 ****        -4.0186  -4.6185   3.0741 H              1 S1                 0.0000
     22 ****        -1.2993  -1.6006   3.8051 H              1 S1                 0.0000
     23 ****         1.0874   0.5500   1.0331 H              1 S1                 0.0000
     24 ****         0.7888   0.8059  -1.8731 H              1 S1                 0.0000
     25 ****         2.7814   2.2755  -1.6422 H              1 S1                 0.0000
     26 ****         2.7359   2.0773   0.0892 H              1 S1                 0.0000
     27 ****         3.1358  -0.4009  -0.1879 H              1 S1                 0.0000
     28 ****         3.1296  -0.1985  -1.9344 H              1 S1                 0.0000
     29 ****         5.2226  -0.1506  -1.0682 H              1 S1                 0.0000
     30 ****         0.3015   3.2164  -0.0520 H              1 S1                 0.0000
     31 ****        -1.4696   1.8878  -2.2377 H              1 S1                 0.0000
     32 ****        -1.8727   3.3797  -1.2406 H              1 S1                 0.0000
     33 ****         0.1756   4.5330  -2.1493 H              1 S1                 0.0000
     34 ****         0.5747   3.0361  -3.1409 H              1 S1                 0.0000
     35 ****        -1.9042  -1.2578  -0.8162 LP             1 S1                 0.0000
     36 ****        -0.9718  -0.0939  -1.6971 LP             1 S1                 0.0000
     37 ****        -2.8343  -3.2099   4.5317 LP             1 S1                 0.0000
     38 ****         4.9372   1.0561  -0.0720 LP             1 S1                 0.0000
     39 ****         4.9265   1.2835  -1.6891 LP             1 S1                 0.0000
@<TRIPOS>BOND
    1    1    2 2     
    2    2    3 am    
    3    2   10 am    
    4    3    4 1     
    5    3   18 1     
    6    4    9 ar    
    7    4    5 ar    
    8    5    6 ar    
    9    5   19 1     
   10    6    7 ar    
   11    6   20 1     
   12    7    8 ar    
   13    7   21 1     
   14    8    9 ar    
   15    9   22 1     
   16   10   11 1     
   17   10   23 1     
   18   11   12 1     
   19   11   15 1     
   20   11   24 1     
   21   12   13 1     
   22   12   25 1     
   23   12   26 1     
   24   13   14 1     
   25   13   27 1     
   26   13   28 1     
   27   14   29 1     
   28   15   17 1     
   29   15   16 1     
   30   15   30 1     
   31   16   17 1     
   32   16   31 1     
   33   16   32 1     
   34   17   33 1     
   35   17   34 1     
   36    1   35 1     
   37    1   36 1     
   38    8   37 1     
   39   14   38 1     
   40   14   39 1     
@<TRIPOS>SUBSTRUCTURE
      1 S1             1
@<TRIPOS>SET
LONE_PAIRS      STATIC     ATOMS    <user>   **** ""
5 35 36 37 38 39
DONOR_HYDROGENS      STATIC     ATOMS    <user>   **** ""
3 18 23 29
ATOM$BLUE        STATIC     ATOMS    COLORGROUP SYSTEM
5 35 36 37 38 39
ATOM$RED        STATIC     ATOMS    COLORGROUP SYSTEM
3 18 23 29
