AV-unprocessed.smi:1958|AV-procd|sdf|7908|dock5
  -GOLD-   2272010 73D 1   1.00000     0.00000
 Structure written by MMmdl.
 48 49  0  0  0  0  0  0  0  0  2 V2000
  152.5688  142.1202  159.8577 C   0  0  0  0  0  0  0  0  0  0  0  0
  152.6492  142.1130  158.4432 O   0  0  0  0  0  0  0  0  0  0  0  0
  151.4362  141.7076  157.8324 C   0  0  0  0  0  0  0  0  0  0  0  0
  151.5254  141.9809  156.3235 C   0  0  0  0  0  0  0  0  0  0  0  0
  151.1464  140.8008  155.5401 N   0  0  0  0  0  0  0  0  0  0  0  0
  150.0342  140.9902  154.7368 N   0  0  0  0  0  0  0  0  0  0  0  0
  149.5939  140.0233  153.9982 C   0  0  0  0  0  0  0  0  0  0  0  0
  148.3996  140.1863  153.1231 C   0  0  0  0  0  0  0  0  0  0  0  0
  147.7813  141.2498  153.0540 O   0  0  0  0  0  0  0  0  0  0  0  0
  148.0496  139.0972  152.4176 N   0  0  0  0  0  0  0  0  0  0  0  0
  146.9262  139.0367  151.4899 C   0  0  0  0  0  0  0  0  0  0  0  0
  145.7370  138.2169  152.0579 C   0  0  2  0  0  0  0  0  0  0  0  0
  145.4468  138.6383  153.5183 C   0  0  0  0  0  0  0  0  0  0  0  0
  145.9431  136.7325  151.9728 N   0  3  0  0  0  0  0  0  0  0  0  0
  145.0845  135.9765  152.9262 C   0  0  0  0  0  0  0  0  0  0  0  0
  145.3728  134.4676  152.8623 C   0  0  0  0  0  0  0  0  0  0  0  0
  145.1654  134.0023  151.5376 O   0  0  0  0  0  0  0  0  0  0  0  0
  146.0537  134.6281  150.6249 C   0  0  0  0  0  0  0  0  0  0  0  0
  145.8063  136.1466  150.6097 C   0  0  0  0  0  0  0  0  0  0  0  0
  150.2528  138.7284  153.9960 C   0  0  0  0  0  0  0  0  0  0  0  0
  151.3322  138.5567  154.7903 C   0  0  0  0  0  0  0  0  0  0  0  0
  151.8474  139.6313  155.6403 C   0  0  0  0  0  0  0  0  0  0  0  0
  152.8200  139.4951  156.3818 O   0  0  0  0  0  0  0  0  0  0  0  0
  153.5223  142.4404  160.2777 H   0  0  0  0  0  0  0  0  0  0  0  0
  152.3481  141.1248  160.2451 H   0  0  0  0  0  0  0  0  0  0  0  0
  151.7992  142.8106  160.2055 H   0  0  0  0  0  0  0  0  0  0  0  0
  151.2624  140.6463  158.0175 H   0  0  0  0  0  0  0  0  0  0  0  0
  150.5999  142.2595  158.2647 H   0  0  0  0  0  0  0  0  0  0  0  0
  150.8746  142.8194  156.0688 H   0  0  0  0  0  0  0  0  0  0  0  0
  152.5334  142.3070  156.0612 H   0  0  0  0  0  0  0  0  0  0  0  0
  148.6043  138.2603  152.5294 H   0  0  0  0  0  0  0  0  0  0  0  0
  146.6352  140.0700  151.2995 H   0  0  0  0  0  0  0  0  0  0  0  0
  147.2573  138.6076  150.5423 H   0  0  0  0  0  0  0  0  0  0  0  0
  144.8634  138.4626  151.4517 H   0  0  0  0  0  0  0  0  0  0  0  0
  145.2887  139.7126  153.6107 H   0  0  0  0  0  0  0  0  0  0  0  0
  146.2762  138.3732  154.1747 H   0  0  0  0  0  0  0  0  0  0  0  0
  144.5464  138.1767  153.9190 H   0  0  0  0  0  0  0  0  0  0  0  0
  145.2453  136.3071  153.9502 H   0  0  0  0  0  0  0  0  0  0  0  0
  144.0341  136.1599  152.6950 H   0  0  0  0  0  0  0  0  0  0  0  0
  146.3911  134.2482  153.1875 H   0  0  0  0  0  0  0  0  0  0  0  0
  144.7024  133.9293  153.5324 H   0  0  0  0  0  0  0  0  0  0  0  0
  147.0877  134.4046  150.8925 H   0  0  0  0  0  0  0  0  0  0  0  0
  145.8872  134.2118  149.6312 H   0  0  0  0  0  0  0  0  0  0  0  0
  144.8114  136.3607  150.2162 H   0  0  0  0  0  0  0  0  0  0  0  0
  146.5327  136.5816  149.9241 H   0  0  0  0  0  0  0  0  0  0  0  0
  149.8941  137.9173  153.3790 H   0  0  0  0  0  0  0  0  0  0  0  0
  151.8314  137.5989  154.7996 H   0  0  0  0  0  0  0  0  0  0  0  0
  146.9010  136.5655  152.2463 H   0  0  0  0  0  0  0  0  0  0  0  0
  1  2  1  0  0  0  0
  1 24  1  0  0  0  0
  1 25  1  0  0  0  0
  1 26  1  0  0  0  0
  2  3  1  0  0  0  0
  3  4  1  0  0  0  0
  3 27  1  0  0  0  0
  3 28  1  0  0  0  0
  4  5  1  0  0  0  0
  4 29  1  0  0  0  0
  4 30  1  0  0  0  0
  5 22  1  0  0  0  0
  5  6  1  0  0  0  0
  6  7  2  0  0  0  0
  7  8  1  0  0  0  0
  7 20  1  0  0  0  0
  8  9  2  0  0  0  0
  8 10  1  0  0  0  0
 10 11  1  0  0  0  0
 10 31  1  0  0  0  0
 11 12  1  0  0  0  0
 11 32  1  0  0  0  0
 11 33  1  0  0  0  0
 12 13  1  0  0  0  0
 12 14  1  0  0  0  0
 12 34  1  0  0  0  0
 13 35  1  0  0  0  0
 13 36  1  0  0  0  0
 13 37  1  0  0  0  0
 14 19  1  0  0  0  0
 14 15  1  0  0  0  0
 14 48  1  0  0  0  0
 15 16  1  0  0  0  0
 15 38  1  0  0  0  0
 15 39  1  0  0  0  0
 16 17  1  0  0  0  0
 16 40  1  0  0  0  0
 16 41  1  0  0  0  0
 17 18  1  0  0  0  0
 18 19  1  0  0  0  0
 18 42  1  0  0  0  0
 18 43  1  0  0  0  0
 19 44  1  0  0  0  0
 19 45  1  0  0  0  0
 20 21  2  0  0  0  0
 20 46  1  0  0  0  0
 21 22  1  0  0  0  0
 21 47  1  0  0  0  0
 22 23  2  0  0  0  0
M  CHG  1  14   1
M  END
> <s_m_source_file>
AV-unprocessed.smi

> <i_m_source_file_index>
1958

> <i_lp_mmshare_version>
43012

> <i_f3d_flags>
0

> <s_epik_input>
W0NIM11PW0NIMl1bQ0gyXW4xbmMoW2NIXVtjSF1jMT1PKUMoPU8pW05IXVtDSDJdW0NASF0oW0NIM10pTjJbQ0gyXVtDSDJdT1tDSDJdW0NIMl0y

> <s_epik_cmdline>
J2VwaWtfcHl0aG9uJywgJy1waCcsICc3LjAnLCAnLXRuJywgJzgnLCAnLW1hJywgJzIwMCcsICctbWV0YWxfYmluZGluZycsICctaW1hZScsICc8aW5maWxlLm1hZT4nLCAnLW9tYWUnLCAnPG91dGZpbGUubWFlPic=

> <r_lp_tautomer_probability>
1

> <r_epik_Ionization_Penalty>
0.724355

> <r_epik_Ionization_Penalty_Charging>
0.724348

> <r_epik_Ionization_Penalty_Neutral>
6.31911e-06

> <r_epik_State_Penalty>
0.749058

> <r_epik_Charging_Adjusted_Penalty>
1.47341

> <i_epik_Tot_Q>
1

> <i_epik_Tot_abs_Q>
1

> <r_epik_Metal_State_Penalty>
0.750821

> <b_epik_Metal_Only>
0

> <s_lp_Force_Field>
OPLS_2005

> <r_lp_Energy>
41.4704

> <b_lp_Chiralities_Consistent>
1

> <s_lp_Variant>
AV-unprocessed.smi:1958-3

> <Gold.Version>
5.8.1

> <Gold.Id.Protein>
6NUR|6NUR_protein|mol2

> <Gold.PLP.Fitness>
49.8553

> <Gold.PLP.PLP>
-40.4631

> <Gold.PLP.part.hbond>
-4.0000

> <Gold.PLP.part.metal>
0.0000

> <Gold.PLP.part.buried>
-3.5247

> <Gold.PLP.part.nonpolar>
-32.6927

> <Gold.PLP.part.repulsive>
0.4430

> <Gold.PLP.ligand.clash>
0.5358

> <Gold.PLP.ligand.torsion>
0.9519

> <Gold.PLP.Chemscore.Hbond>
3.8723

> <Gold.PLP.Chemscore.CHOScore>
0.0000

> <Gold.PLP.Chemscore.Metal>
0.0000

> <Gold.Chemscore.Hbonds>
donor molecule, donor type, donor heavy atom, donor atom, acceptor molecule, acceptor atom, score
      L1  H    10    31       P1  7948  0.69
      L1  H    14    48       P1  7948  1.66
      P1  H  7997  8009       L1    23  1.00
      P1  H  8011  8017       L1     9  0.01

> <Gold.PLP.Chemscore.Internal.Correction>
0.2148

> <Gold.Rescore>
     Score         DG    S(hbond)    S(metal)    S(lipo)     H(rot)  DE(clash)    DE(int)     intcor
     17.27     -18.60       2.81        0.00      78.24       2.12       0.17       1.16       ----

> <Gold.Chemscore.Fitness>
17.2671

> <Gold.Chemscore.DG>
-18.5974

> <Gold.Chemscore.ZeroCoef>
-5.4800

> <Gold.Chemscore.Hbond>
2.8131

> <Gold.Chemscore.Metal>
0.0000

> <Gold.Chemscore.Lipo>
78.2411

> <Gold.Chemscore.Internal_Hbond>
0.0000

> <Gold.Chemscore.DEClash>
0.1703

> <Gold.Chemscore.DEInternal>
1.1600

> <Gold.Chemscore.Rot>
2.1221

> <Gold.Chemscore.Internal.Correction>
   9.000000E+99

> <Gold.Chemscore.Hbonds>
donor molecule, donor type, donor heavy atom, donor atom, acceptor molecule, acceptor atom, score
      L1  H    10    31       P1  7948  0.67
      L1  H    14    48       P1  7948  0.80
      P1  H  7997  8009       L1    23  1.00

> <Gold.Chemscore.Hbond.Weighted>
-9.3957

> <Gold.Chemscore.Metal.Weighted>
-0.0000

> <Gold.Chemscore.Lipo.Weighted>
-9.1542

> <Gold.Chemscore.Internal_Hbond.Weighted>
0.0000

> <Gold.Chemscore.DEClash.Weighted>
0.1703

> <Gold.Chemscore.DEInternal.Weighted>
1.1600

> <Gold.Chemscore.Rot.Weighted>
5.4325

> <Gold.Chemscore.Internal.Correction.Weighted>
   9.000000E+99

> <Gold.Protein.RotatedTorsions>
[ 6907 6896 6895 6894 ] final   -2.56 input  -60.11 | X-H torsion
[ 7974 7965 7964 7962 ] final  -24.16 input  175.53 | X-H torsion
[ 8008 7997 7996 7995 ] final -160.93 input   59.86 | X-H torsion
[ 10167 10162 10161 10158 ] final   86.91 input  -65.29 | X-H torsion
[ 10718 10713 10712 10709 ] final  159.18 input   66.30 | X-H torsion
[ 10763 10752 10751 10750 ] final   43.21 input  -60.55 | X-H torsion
[ 11005 11000 10999 10996 ] final   -1.03 input  -57.11 | X-H torsion

> <Gold.Protein.ActiveResidues>
 VAL166  LYS551  ARG553  GLY616  TRP617  ASP618  TYR619  PRO620  LYS621  CYS622 
 ASP623  PHE694  ASN695  SER759  ASP760  ASP761  ALA762  ILE779  LEU786  VAL792 
 PHE793  MET794  SER795  GLU796  ALA797  LYS798  CYS799  TRP800  GLU811  SER814 

> <Gold.Protein.RotatedAtoms>
  151.5279  135.1068  159.9894 H   0  0  0  0  0  0  0  0  0  0  0  0  # atno 6907 bound_to 6896
  152.4591  133.7781  159.6846 H   0  0  0  0  0  0  0  0  0  0  0  0  # atno 6908 bound_to 6896
  150.8547  133.7669  159.3038 H   0  0  0  0  0  0  0  0  0  0  0  0  # atno 6909 bound_to 6896
  146.1572  140.4714  142.8586 H   0  0  0  0  0  0  0  0  0  0  0  0  # atno 7974 bound_to 7965
  155.7847  140.0870  157.2041 H   0  0  0  0  0  0  0  0  0  0  0  0  # atno 8008 bound_to 7997
  154.3988  140.1501  156.3151 H   0  0  0  0  0  0  0  0  0  0  0  0  # atno 8009 bound_to 7997
  155.8619  140.3430  155.5764 H   0  0  0  0  0  0  0  0  0  0  0  0  # atno 8010 bound_to 7997
  139.8827  144.6431  150.8825 H   0  0  0  0  0  0  0  0  0  0  0  0  # atno 10167 bound_to 10162
  157.1677  131.0602  151.2199 H   0  0  0  0  0  0  0  0  0  0  0  0  # atno 10718 bound_to 10713
  152.9865  135.6108  154.3074 H   0  0  0  0  0  0  0  0  0  0  0  0  # atno 10763 bound_to 10752
  154.2791  135.2777  155.2707 H   0  0  0  0  0  0  0  0  0  0  0  0  # atno 10764 bound_to 10752
  154.5054  135.5855  153.6620 H   0  0  0  0  0  0  0  0  0  0  0  0  # atno 10765 bound_to 10752
  140.6428  133.9474  155.8336 H   0  0  0  0  0  0  0  0  0  0  0  0  # atno 11005 bound_to 11000
  144.7978  140.6156  143.6498 LP  0  0  0  0  0  0  0  0  0  0  0  0  # atno 17320 bound_to 7965
  145.4680  139.1506  143.3830 LP  0  0  0  0  0  0  0  0  0  0  0  0  # atno 17321 bound_to 7965
  140.7741  143.3572  151.1897 LP  0  0  0  0  0  0  0  0  0  0  0  0  # atno 17342 bound_to 10162
  139.7181  143.9268  152.2974 LP  0  0  0  0  0  0  0  0  0  0  0  0  # atno 17343 bound_to 10162
  157.4072  130.7365  149.6811 LP  0  0  0  0  0  0  0  0  0  0  0  0  # atno 17370 bound_to 10713
  155.9743  130.4105  150.3932 LP  0  0  0  0  0  0  0  0  0  0  0  0  # atno 17371 bound_to 10713
  141.0594  134.0368  157.3678 LP  0  0  0  0  0  0  0  0  0  0  0  0  # atno 17394 bound_to 11000
  139.9074  135.0183  156.7545 LP  0  0  0  0  0  0  0  0  0  0  0  0  # atno 17395 bound_to 11000

$$$$
