#       Name:                AV-unprocessed.smi:1183
#       Creating user name   scv26
#       Creation time:       Fri Mar 27 03:56:11 2020


#       File generated by GOLD software.
#

@<TRIPOS>MOLECULE
AV-unprocessed.smi:1183
    47    48     1
SMALL
NO_CHARGES


@<TRIPOS>ATOM
      1 ****        -3.8245  -3.5039   2.8818 C.3            1 S1                 0.0000
      2 ****        -3.4678  -3.7936   1.4219 C.2            1 S1                 0.0000
      3 ****        -3.3786  -4.9701   1.0706 O.2            1 S1                 0.0000
      4 ****        -3.2564  -2.7587   0.5736 N.am           1 S1                 0.0000
      5 ****        -3.2797  -1.3385   0.9431 C.3            1 S1                 0.0000
      6 ****        -1.8398  -0.7969   0.9175 C.3            1 S1                 0.0000
      7 ****        -1.1744  -1.0290  -0.4593 C.3            1 S1                 0.0000
      8 ****         0.2477  -0.7052  -0.4026 N.am           1 S1                 0.0000
      9 ****         0.7677   0.5290  -0.4825 C.2            1 S1                 0.0000
     10 ****         0.0798   1.5416  -0.6233 O.2            1 S1                 0.0000
     11 ****         2.2964   0.6103  -0.3862 C.3            1 S1                 0.0000
     12 ****         2.8028   1.9724  -0.4819 N.pl3          1 S1                 0.0000
     13 ****         3.0646   2.6586   0.6520 N.2            1 S1                 0.0000
     14 ****         3.4980   3.8392   0.2420 C.2            1 S1                 0.0000
     15 ****         3.8856   4.8752   1.2555 C.3            1 S1                 0.0000
     16 ****         3.5285   3.9391  -1.1771 C.2            1 S1                 0.0000
     17 ****         3.0747   2.7254  -1.6105 C.2            1 S1                 0.0000
     18 ****         2.8718   2.2111  -2.9977 C.3            1 S1                 0.0000
     19 ****        -1.3525  -2.4873  -0.9355 C.3            1 S1                 0.0000
     20 ****        -2.8172  -2.9459  -0.8137 C.3            1 S1                 0.0000
     21 ****        -3.0485  -2.9045   3.3589 H              1 S1                 0.0000
     22 ****        -3.9197  -4.4328   3.4452 H              1 S1                 0.0000
     23 ****        -4.7749  -2.9741   2.9500 H              1 S1                 0.0000
     24 ****        -3.8941  -0.7918   0.2263 H              1 S1                 0.0000
     25 ****        -3.7317  -1.1474   1.9151 H              1 S1                 0.0000
     26 ****        -1.8412   0.2661   1.1610 H              1 S1                 0.0000
     27 ****        -1.2587  -1.2913   1.6977 H              1 S1                 0.0000
     28 ****        -1.6608  -0.3812  -1.1914 H              1 S1                 0.0000
     29 ****         0.8851  -1.4801  -0.2893 H              1 S1                 0.0000
     30 ****         2.6223   0.1736   0.5593 H              1 S1                 0.0000
     31 ****         2.7433   0.0125  -1.1810 H              1 S1                 0.0000
     32 ****         4.2176   5.7941   0.7720 H              1 S1                 0.0000
     33 ****         4.6996   4.5205   1.8882 H              1 S1                 0.0000
     34 ****         3.0442   5.1262   1.9019 H              1 S1                 0.0000
     35 ****         3.8353   4.7768  -1.7855 H              1 S1                 0.0000
     36 ****         3.1204   2.9737  -3.7359 H              1 S1                 0.0000
     37 ****         1.8337   1.9180  -3.1559 H              1 S1                 0.0000
     38 ****         3.5031   1.3428  -3.1870 H              1 S1                 0.0000
     39 ****        -1.0158  -2.5872  -1.9680 H              1 S1                 0.0000
     40 ****        -0.7234  -3.1508  -0.3398 H              1 S1                 0.0000
     41 ****        -2.9126  -3.9787  -1.1516 H              1 S1                 0.0000
     42 ****        -3.4519  -2.3573  -1.4778 H              1 S1                 0.0000
     43 ****        -3.5376  -5.7029   1.7322 LP             1 S1                 0.0000
     44 ****        -3.1471  -5.1930   0.1236 LP             1 S1                 0.0000
     45 ****        -0.9154   1.4656  -0.6834 LP             1 S1                 0.0000
     46 ****         0.5169   2.4394  -0.6775 LP             1 S1                 0.0000
     47 ****         2.9549   2.3432   1.5946 LP             1 S1                 0.0000
@<TRIPOS>BOND
    1    1    2 1     
    2    1   21 1     
    3    1   22 1     
    4    1   23 1     
    5    2    3 2     
    6    2    4 am    
    7    4   20 1     
    8    4    5 1     
    9    5    6 1     
   10    5   24 1     
   11    5   25 1     
   12    6    7 1     
   13    6   26 1     
   14    6   27 1     
   15    7    8 1     
   16    7   19 1     
   17    7   28 1     
   18    8    9 am    
   19    8   29 1     
   20    9   10 2     
   21    9   11 1     
   22   11   12 1     
   23   11   30 1     
   24   11   31 1     
   25   12   17 1     
   26   12   13 1     
   27   13   14 2     
   28   14   15 1     
   29   14   16 1     
   30   15   32 1     
   31   15   33 1     
   32   15   34 1     
   33   16   17 2     
   34   16   35 1     
   35   17   18 1     
   36   18   36 1     
   37   18   37 1     
   38   18   38 1     
   39   19   20 1     
   40   19   39 1     
   41   19   40 1     
   42   20   41 1     
   43   20   42 1     
   44    3   43 1     
   45    3   44 1     
   46   10   45 1     
   47   10   46 1     
   48   13   47 1     
@<TRIPOS>SUBSTRUCTURE
      1 S1             1
@<TRIPOS>SET
LONE_PAIRS      STATIC     ATOMS    <user>   **** ""
5 43 44 45 46 47
DONOR_HYDROGENS      STATIC     ATOMS    <user>   **** ""
1 29
ATOM$BLUE        STATIC     ATOMS    COLORGROUP SYSTEM
5 43 44 45 46 47
ATOM$RED        STATIC     ATOMS    COLORGROUP SYSTEM
1 29
