#       Name:                AV-unprocessed.smi:2127
#       Creating user name   scv26
#       Creation time:       Fri Mar 27 11:43:27 2020


#       File generated by GOLD software.
#

@<TRIPOS>MOLECULE
AV-unprocessed.smi:2127
    39    40     1
SMALL
NO_CHARGES


@<TRIPOS>ATOM
      1 ****         1.3431   0.8385  -0.3892 O.2            1 S1                 0.0000
      2 ****         1.0375  -0.2517   0.0920 C.2            1 S1                 0.0000
      3 ****         1.8854  -1.2634   0.3482 N.am           1 S1                 0.0000
      4 ****         3.2917  -1.3449   0.1460 C.ar           1 S1                 0.0000
      5 ****         4.1018  -0.3071  -0.3782 C.ar           1 S1                 0.0000
      6 ****         5.4847  -0.5307  -0.5231 C.ar           1 S1                 0.0000
      7 ****         6.0095  -1.7796  -0.1395 C.ar           1 S1                 0.0000
      8 ****         5.2517  -2.7768   0.3620 N.ar           1 S1                 0.0000
      9 ****         3.9269  -2.5553   0.4976 C.ar           1 S1                 0.0000
     10 ****        -0.2176  -0.5816   0.4301 N.am           1 S1                 0.0000
     11 ****        -1.3920   0.2851   0.3144 C.3            1 S1                 0.0000
     12 ****        -1.9588   0.2257  -1.1219 C.3            1 S1                 0.0000
     13 ****        -2.8041   1.4490  -1.5117 C.3            1 S1                 0.0000
     14 ****        -4.0792   1.6454  -0.6781 C.3            1 S1                 0.0000
     15 ****        -3.8081   1.9584   0.8036 C.3            1 S1                 0.0000
     16 ****        -3.4796   0.7675   1.5772 N.am           1 S1                 0.0000
     17 ****        -2.4208  -0.0404   1.4136 C.2            1 S1                 0.0000
     18 ****        -2.2768  -1.0326   2.1277 O.2            1 S1                 0.0000
     19 ****         1.4655  -2.0926   0.7422 H              1 S1                 0.0000
     20 ****         3.7057   0.6510  -0.6720 H              1 S1                 0.0000
     21 ****         6.1295   0.2395  -0.9200 H              1 S1                 0.0000
     22 ****         7.0656  -1.9828  -0.2382 H              1 S1                 0.0000
     23 ****         3.3531  -3.3766   0.9021 H              1 S1                 0.0000
     24 ****        -0.3778  -1.4977   0.8236 H              1 S1                 0.0000
     25 ****        -1.0523   1.3042   0.5092 H              1 S1                 0.0000
     26 ****        -1.1369   0.1612  -1.8363 H              1 S1                 0.0000
     27 ****        -2.5386  -0.6882  -1.2583 H              1 S1                 0.0000
     28 ****        -2.1899   2.3486  -1.4551 H              1 S1                 0.0000
     29 ****        -3.0887   1.3513  -2.5599 H              1 S1                 0.0000
     30 ****        -4.6344   2.4804  -1.1068 H              1 S1                 0.0000
     31 ****        -4.7310   0.7756  -0.7700 H              1 S1                 0.0000
     32 ****        -3.0261   2.7113   0.9119 H              1 S1                 0.0000
     33 ****        -4.7073   2.3865   1.2470 H              1 S1                 0.0000
     34 ****        -4.1301   0.5232   2.3102 H              1 S1                 0.0000
     35 ****         2.2954   1.0315  -0.6255 LP             1 S1                 0.0000
     36 ****         0.6391   1.5317  -0.5441 LP             1 S1                 0.0000
     37 ****         5.6582  -3.6518   0.6248 LP             1 S1                 0.0000
     38 ****        -1.4882  -1.6332   1.9961 LP             1 S1                 0.0000
     39 ****        -2.9485  -1.2381   2.8395 LP             1 S1                 0.0000
@<TRIPOS>BOND
    1    1    2 2     
    2    2    3 am    
    3    2   10 am    
    4    3    4 1     
    5    3   19 1     
    6    4    9 ar    
    7    4    5 ar    
    8    5    6 ar    
    9    5   20 1     
   10    6    7 ar    
   11    6   21 1     
   12    7    8 ar    
   13    7   22 1     
   14    8    9 ar    
   15    9   23 1     
   16   10   11 1     
   17   10   24 1     
   18   11   17 1     
   19   11   12 1     
   20   11   25 1     
   21   12   13 1     
   22   12   26 1     
   23   12   27 1     
   24   13   14 1     
   25   13   28 1     
   26   13   29 1     
   27   14   15 1     
   28   14   30 1     
   29   14   31 1     
   30   15   16 1     
   31   15   32 1     
   32   15   33 1     
   33   16   17 am    
   34   16   34 1     
   35   17   18 2     
   36    1   35 1     
   37    1   36 1     
   38    8   37 1     
   39   18   38 1     
   40   18   39 1     
@<TRIPOS>SUBSTRUCTURE
      1 S1             1
@<TRIPOS>SET
LONE_PAIRS      STATIC     ATOMS    <user>   **** ""
5 35 36 37 38 39
DONOR_HYDROGENS      STATIC     ATOMS    <user>   **** ""
3 19 24 34
ATOM$BLUE        STATIC     ATOMS    COLORGROUP SYSTEM
5 35 36 37 38 39
ATOM$RED        STATIC     ATOMS    COLORGROUP SYSTEM
3 19 24 34
