AV-unprocessed.smi:2686|AV-procd|sdf|10384|dock9
  -GOLD-   2272014413D 1   1.00000     0.00000
 Structure written by MMmdl.
 32 32  0  0  0  0  0  0  0  0  1 V2000
  145.8443  142.8264  154.2764 C   0  0  0  0  0  0  0  0  0  0  0  0
  147.2695  142.5668  154.4118 N   0  0  0  0  0  0  0  0  0  0  0  0
  147.8177  141.3438  154.4084 C   0  0  0  0  0  0  0  0  0  0  0  0
  147.1601  140.3117  154.2678 O   0  0  0  0  0  0  0  0  0  0  0  0
  149.3426  141.2861  154.5666 C   0  0  0  0  0  0  0  0  0  0  0  0
  149.7595  140.7623  155.8652 N   0  0  0  0  0  0  0  0  0  0  0  0
  150.9783  140.2749  156.1458 C   0  0  0  0  0  0  0  0  0  0  0  0
  151.8805  140.2008  155.3098 O   0  0  0  0  0  0  0  0  0  0  0  0
  151.1947  139.8107  157.5934 C   0  0  0  0  0  0  0  0  0  0  0  0
  151.9329  140.7811  158.4191 N   0  0  0  0  0  0  0  0  0  0  0  0
  151.3227  142.0334  158.6281 C   0  0  0  0  0  0  0  0  0  0  0  0
  151.8843  143.0087  159.3679 C   0  0  0  0  0  0  0  0  0  0  0  0
  151.2290  144.3721  159.5237 C   0  0  0  0  0  0  0  0  0  0  0  0
  150.0068  144.2608  160.0449 F   0  0  0  0  0  0  0  0  0  0  0  0
  151.9509  145.1668  160.3148 F   0  0  0  0  0  0  0  0  0  0  0  0
  151.1202  144.9607  158.3334 F   0  0  0  0  0  0  0  0  0  0  0  0
  153.1900  142.7216  159.9285 C   0  0  0  0  0  0  0  0  0  0  0  0
  153.7942  141.5342  159.7263 C   0  0  0  0  0  0  0  0  0  0  0  0
  153.1625  140.4774  158.9328 C   0  0  0  0  0  0  0  0  0  0  0  0
  153.7055  139.3893  158.7405 O   0  0  0  0  0  0  0  0  0  0  0  0
  145.6650  143.9004  154.2275 H   0  0  0  0  0  0  0  0  0  0  0  0
  145.2975  142.4276  155.1316 H   0  0  0  0  0  0  0  0  0  0  0  0
  145.4471  142.3723  153.3674 H   0  0  0  0  0  0  0  0  0  0  0  0
  147.8764  143.3655  154.5275 H   0  0  0  0  0  0  0  0  0  0  0  0
  149.7464  140.6368  153.7896 H   0  0  0  0  0  0  0  0  0  0  0  0
  149.7773  142.2746  154.4062 H   0  0  0  0  0  0  0  0  0  0  0  0
  149.0775  140.7942  156.6090 H   0  0  0  0  0  0  0  0  0  0  0  0
  150.2204  139.6069  158.0404 H   0  0  0  0  0  0  0  0  0  0  0  0
  151.7070  138.8471  157.5801 H   0  0  0  0  0  0  0  0  0  0  0  0
  150.3682  142.1540  158.1361 H   0  0  0  0  0  0  0  0  0  0  0  0
  153.6920  143.4704  160.5232 H   0  0  0  0  0  0  0  0  0  0  0  0
  154.7670  141.3554  160.1600 H   0  0  0  0  0  0  0  0  0  0  0  0
  1  2  1  0  0  0  0
  1 21  1  0  0  0  0
  1 22  1  0  0  0  0
  1 23  1  0  0  0  0
  2  3  1  0  0  0  0
  2 24  1  0  0  0  0
  3  4  2  0  0  0  0
  3  5  1  0  0  0  0
  5  6  1  0  0  0  0
  5 25  1  0  0  0  0
  5 26  1  0  0  0  0
  6  7  1  0  0  0  0
  6 27  1  0  0  0  0
  7  8  2  0  0  0  0
  7  9  1  0  0  0  0
  9 10  1  0  0  0  0
  9 28  1  0  0  0  0
  9 29  1  0  0  0  0
 10 19  1  0  0  0  0
 10 11  1  0  0  0  0
 11 12  2  0  0  0  0
 11 30  1  0  0  0  0
 12 13  1  0  0  0  0
 12 17  1  0  0  0  0
 13 14  1  0  0  0  0
 13 15  1  0  0  0  0
 13 16  1  0  0  0  0
 17 18  2  0  0  0  0
 17 31  1  0  0  0  0
 18 19  1  0  0  0  0
 18 32  1  0  0  0  0
 19 20  2  0  0  0  0
M  END
> <s_m_source_file>
AV-unprocessed.smi

> <i_m_source_file_index>
2686

> <i_lp_mmshare_version>
43012

> <i_f3d_flags>
0

> <s_epik_input>
W0NIM11bTkhdQyg9TylbQ0gyXVtOSF1DKD1PKVtDSDJdbjFbY0hdYyhDKEYpKEYpRilbY0hdW2NIXWMxPU8=

> <s_epik_cmdline>
J2VwaWtfcHl0aG9uJywgJy1waCcsICc3LjAnLCAnLXRuJywgJzgnLCAnLW1hJywgJzIwMCcsICctbWV0YWxfYmluZGluZycsICctaW1hZScsICc8aW5maWxlLm1hZT4nLCAnLW9tYWUnLCAnPG91dGZpbGUubWFlPic=

> <r_lp_tautomer_probability>
1

> <r_epik_Ionization_Penalty>
8.267e-08

> <r_epik_Ionization_Penalty_Charging>
1.5129e-08

> <r_epik_Ionization_Penalty_Neutral>
6.7541e-08

> <r_epik_State_Penalty>
-0

> <r_epik_Charging_Adjusted_Penalty>
1.5129e-08

> <i_epik_Tot_Q>
0

> <i_epik_Tot_abs_Q>
0

> <r_epik_Metal_State_Penalty>
-0

> <b_epik_Metal_Only>
0

> <s_lp_Force_Field>
OPLS_2005

> <r_lp_Energy>
10.5627

> <b_lp_Chiralities_Consistent>
1

> <s_lp_Variant>
AV-unprocessed.smi:2686-1

> <Gold.Version>
5.8.1

> <Gold.Id.Protein>
6NUR|6NUR_protein|mol2

> <Gold.PLP.Fitness>
52.1479

> <Gold.PLP.PLP>
-45.3410

> <Gold.PLP.part.hbond>
-3.0000

> <Gold.PLP.part.metal>
0.0000

> <Gold.PLP.part.buried>
-5.2339

> <Gold.PLP.part.nonpolar>
-37.3402

> <Gold.PLP.part.repulsive>
0.4112

> <Gold.PLP.ligand.clash>
0.0000

> <Gold.PLP.ligand.torsion>
0.5712

> <Gold.PLP.Chemscore.Hbond>
2.6346

> <Gold.PLP.Chemscore.CHOScore>
0.0000

> <Gold.PLP.Chemscore.Metal>
0.0000

> <Gold.Chemscore.Hbonds>
donor molecule, donor type, donor heavy atom, donor atom, acceptor molecule, acceptor atom, score
      L1  H     2    24       P1  8028  1.00
      P1  H  7989  7998       L1     8  0.82
      P1  H  7997  8010       L1    20  0.80

> <Gold.PLP.Chemscore.Internal.Correction>
0.0455

> <Gold.Rescore>
     Score         DG    S(hbond)    S(metal)    S(lipo)     H(rot)  DE(clash)    DE(int)     intcor
     12.73     -13.43       1.72        0.00      69.71       2.32       0.02       0.68       ----

> <Gold.Chemscore.Fitness>
12.7289

> <Gold.Chemscore.DG>
-13.4304

> <Gold.Chemscore.ZeroCoef>
-5.4800

> <Gold.Chemscore.Hbond>
1.7154

> <Gold.Chemscore.Metal>
0.0000

> <Gold.Chemscore.Lipo>
69.7111

> <Gold.Chemscore.Internal_Hbond>
0.0000

> <Gold.Chemscore.DEClash>
0.0202

> <Gold.Chemscore.DEInternal>
0.6813

> <Gold.Chemscore.Rot>
2.3184

> <Gold.Chemscore.Internal.Correction>
   9.000000E+99

> <Gold.Chemscore.Hbonds>
donor molecule, donor type, donor heavy atom, donor atom, acceptor molecule, acceptor atom, score
      L1  H     2    24       P1  8028  0.71
      P1  H  7989  7998       L1     8  0.80
      P1  H  7997  8010       L1    20  0.11

> <Gold.Chemscore.Hbond.Weighted>
-5.7294

> <Gold.Chemscore.Metal.Weighted>
-0.0000

> <Gold.Chemscore.Lipo.Weighted>
-8.1562

> <Gold.Chemscore.Internal_Hbond.Weighted>
0.0000

> <Gold.Chemscore.DEClash.Weighted>
0.0202

> <Gold.Chemscore.DEInternal.Weighted>
0.6813

> <Gold.Chemscore.Rot.Weighted>
5.9352

> <Gold.Chemscore.Internal.Correction.Weighted>
   9.000000E+99

> <Gold.Protein.RotatedTorsions>
[ 6907 6896 6895 6894 ] final   55.46 input  -60.11 | X-H torsion
[ 7974 7965 7964 7962 ] final  163.10 input  175.53 | X-H torsion
[ 8008 7997 7996 7995 ] final   10.52 input   59.86 | X-H torsion
[ 10167 10162 10161 10158 ] final  -46.02 input  -65.29 | X-H torsion
[ 10718 10713 10712 10709 ] final   -5.01 input   66.30 | X-H torsion
[ 10763 10752 10751 10750 ] final   90.96 input  -60.55 | X-H torsion
[ 11005 11000 10999 10996 ] final   36.62 input  -57.11 | X-H torsion

> <Gold.Protein.ActiveResidues>
 VAL166  LYS551  ARG553  GLY616  TRP617  ASP618  TYR619  PRO620  LYS621  CYS622 
 ASP623  PHE694  ASN695  SER759  ASP760  ASP761  ALA762  ILE779  LEU786  VAL792 
 PHE793  MET794  SER795  GLU796  ALA797  LYS798  CYS799  TRP800  GLU811  SER814 

> <Gold.Protein.RotatedAtoms>
  152.3541  134.6964  160.0227 H   0  0  0  0  0  0  0  0  0  0  0  0  # atno 6907 bound_to 6896
  151.7309  133.3312  159.3348 H   0  0  0  0  0  0  0  0  0  0  0  0  # atno 6908 bound_to 6896
  150.7560  134.6298  159.6225 H   0  0  0  0  0  0  0  0  0  0  0  0  # atno 6909 bound_to 6896
  144.7605  139.8134  143.6334 H   0  0  0  0  0  0  0  0  0  0  0  0  # atno 7974 bound_to 7965
  154.7945  140.2841  155.5967 H   0  0  0  0  0  0  0  0  0  0  0  0  # atno 8008 bound_to 7997
  156.2969  140.2598  156.2728 H   0  0  0  0  0  0  0  0  0  0  0  0  # atno 8009 bound_to 7997
  154.9631  140.0377  157.2189 H   0  0  0  0  0  0  0  0  0  0  0  0  # atno 8010 bound_to 7997
  140.6834  143.2851  151.3723 H   0  0  0  0  0  0  0  0  0  0  0  0  # atno 10167 bound_to 10162
  156.7529  130.5245  149.5800 H   0  0  0  0  0  0  0  0  0  0  0  0  # atno 10718 bound_to 10713
  153.2031  135.4415  155.0291 H   0  0  0  0  0  0  0  0  0  0  0  0  # atno 10763 bound_to 10752
  154.8158  135.3315  154.7181 H   0  0  0  0  0  0  0  0  0  0  0  0  # atno 10764 bound_to 10752
  153.7625  135.6990  153.4978 H   0  0  0  0  0  0  0  0  0  0  0  0  # atno 10765 bound_to 10752
  140.2308  134.3530  155.7965 H   0  0  0  0  0  0  0  0  0  0  0  0  # atno 11005 bound_to 11000
  146.1664  139.4797  142.9956 LP  0  0  0  0  0  0  0  0  0  0  0  0  # atno 17320 bound_to 7965
  145.6634  141.0235  143.1697 LP  0  0  0  0  0  0  0  0  0  0  0  0  # atno 17321 bound_to 7965
  139.6174  144.0975  152.2359 LP  0  0  0  0  0  0  0  0  0  0  0  0  # atno 17342 bound_to 10162
  140.0409  144.6008  150.7412 LP  0  0  0  0  0  0  0  0  0  0  0  0  # atno 17343 bound_to 10162
  156.1390  130.6231  151.0440 LP  0  0  0  0  0  0  0  0  0  0  0  0  # atno 17370 bound_to 10713
  157.6769  131.0848  150.7471 LP  0  0  0  0  0  0  0  0  0  0  0  0  # atno 17371 bound_to 10713
  141.2218  133.7244  156.8728 LP  0  0  0  0  0  0  0  0  0  0  0  0  # atno 17394 bound_to 11000
  140.1753  134.9071  157.2883 LP  0  0  0  0  0  0  0  0  0  0  0  0  # atno 17395 bound_to 11000

$$$$
