AV-unprocessed.smi:1417|AV-procd|sdf|5768|dock4
  -GOLD-   22720 5413D 1   1.00000     0.00000
 Structure written by MMmdl.
 38 39  0  0  0  0  0  0  0  0  2 V2000
  151.9119  145.6079  159.7891 C   0  0  0  0  0  0  0  0  0  0  0  0
  152.2005  144.2401  160.3063 C   0  0  0  0  0  0  0  0  0  0  0  0
  152.7683  143.1351  159.7384 C   0  0  0  0  0  0  0  0  0  0  0  0
  152.7287  142.1743  160.7856 C   0  0  0  0  0  0  0  0  0  0  0  0
  153.1877  140.9150  160.7179 N   0  5  0  0  0  0  0  0  0  0  0  0
  153.1735  140.2475  159.5408 C   0  0  0  0  0  0  0  0  0  0  0  0
  154.1558  139.8074  158.9387 O   0  0  0  0  0  0  0  0  0  0  0  0
  151.9447  140.0783  159.0306 N   0  0  0  0  0  0  0  0  0  0  0  0
  151.6204  139.3939  157.7817 C   0  0  0  0  0  0  0  0  0  0  0  0
  151.9501  140.2769  156.5678 C   0  0  0  0  0  0  0  0  0  0  0  0
  151.4919  139.6149  155.2557 C   0  0  0  0  0  0  0  0  0  0  0  0
  150.0494  139.3282  155.2915 N   0  0  0  0  0  0  0  0  0  0  0  0
  149.5599  138.7373  154.0246 C   0  0  0  0  0  0  0  0  0  0  0  0
  148.0773  138.9917  153.7305 C   0  0  0  0  0  0  0  0  0  0  0  0
  147.4902  138.1929  152.8357 N   0  0  0  0  0  0  0  0  0  0  0  0
  147.4747  139.9000  154.2982 O   0  0  0  0  0  0  0  0  0  0  0  0
  149.7410  138.4149  156.3971 C   0  0  0  0  0  0  0  0  0  0  0  0
  150.1272  139.0434  157.7472 C   0  0  0  0  0  0  0  0  0  0  0  0
  152.2007  142.6597  161.8969 N   0  0  0  0  0  0  0  0  0  0  0  0
  151.8529  143.9821  161.5957 O   0  0  0  0  0  0  0  0  0  0  0  0
  152.8330  146.1103  159.4938 H   0  0  0  0  0  0  0  0  0  0  0  0
  151.4211  146.2199  160.5463 H   0  0  0  0  0  0  0  0  0  0  0  0
  151.2580  145.5600  158.9183 H   0  0  0  0  0  0  0  0  0  0  0  0
  153.1470  143.0277  158.7332 H   0  0  0  0  0  0  0  0  0  0  0  0
  151.1710  140.4580  159.5563 H   0  0  0  0  0  0  0  0  0  0  0  0
  152.1912  138.4654  157.7164 H   0  0  0  0  0  0  0  0  0  0  0  0
  151.4657  141.2491  156.6721 H   0  0  0  0  0  0  0  0  0  0  0  0
  153.0226  140.4705  156.5250 H   0  0  0  0  0  0  0  0  0  0  0  0
  151.7348  140.2904  154.4356 H   0  0  0  0  0  0  0  0  0  0  0  0
  152.0534  138.6951  155.0824 H   0  0  0  0  0  0  0  0  0  0  0  0
  150.1565  139.1102  153.1897 H   0  0  0  0  0  0  0  0  0  0  0  0
  149.7039  137.6560  154.0475 H   0  0  0  0  0  0  0  0  0  0  0  0
  146.5169  138.3296  152.6044 H   0  0  0  0  0  0  0  0  0  0  0  0
  148.0239  137.4620  152.3883 H   0  0  0  0  0  0  0  0  0  0  0  0
  148.6731  138.1930  156.4067 H   0  0  0  0  0  0  0  0  0  0  0  0
  150.2609  137.4647  156.2619 H   0  0  0  0  0  0  0  0  0  0  0  0
  149.8873  138.3529  158.5566 H   0  0  0  0  0  0  0  0  0  0  0  0
  149.5275  139.9394  157.9164 H   0  0  0  0  0  0  0  0  0  0  0  0
  1  2  1  0  0  0  0
  1 21  1  0  0  0  0
  1 22  1  0  0  0  0
  1 23  1  0  0  0  0
  2 20  1  0  0  0  0
  2  3  2  0  0  0  0
  3  4  1  0  0  0  0
  3 24  1  0  0  0  0
  4  5  1  0  0  0  0
  4 19  2  0  0  0  0
  5  6  1  0  0  0  0
  6  7  2  0  0  0  0
  6  8  1  0  0  0  0
  8  9  1  0  0  0  0
  8 25  1  0  0  0  0
  9 18  1  0  0  0  0
  9 10  1  0  0  0  0
  9 26  1  0  0  0  0
 10 11  1  0  0  0  0
 10 27  1  0  0  0  0
 10 28  1  0  0  0  0
 11 12  1  0  0  0  0
 11 29  1  0  0  0  0
 11 30  1  0  0  0  0
 12 13  1  0  0  0  0
 12 17  1  0  0  0  0
 13 14  1  0  0  0  0
 13 31  1  0  0  0  0
 13 32  1  0  0  0  0
 14 15  1  0  0  0  0
 14 16  2  0  0  0  0
 15 33  1  0  0  0  0
 15 34  1  0  0  0  0
 17 18  1  0  0  0  0
 17 35  1  0  0  0  0
 17 36  1  0  0  0  0
 18 37  1  0  0  0  0
 18 38  1  0  0  0  0
 19 20  1  0  0  0  0
M  CHG  1   5  -1
M  END
> <s_m_source_file>
AV-unprocessed.smi

> <i_m_source_file_index>
1417

> <i_lp_mmshare_version>
43012

> <i_f3d_flags>
0

> <s_epik_input>
W0NIM11jMVtjSF1jKG5vMSlbTkhdQyg9TylbTkhdW0NIXTJbQ0gyXVtDSDJdTihbQ0gyXVtDSDJdMilbQ0gyXUMoPU8pW05IMl0=

> <s_epik_cmdline>
J2VwaWtfcHl0aG9uJywgJy1waCcsICc3LjAnLCAnLXRuJywgJzgnLCAnLW1hJywgJzIwMCcsICctbWV0YWxfYmluZGluZycsICctaW1hZScsICc8aW5maWxlLm1hZT4nLCAnLW9tYWUnLCAnPG91dGZpbGUubWFlPic=

> <r_epik_Ionization_Penalty>
6.76533

> <r_epik_Ionization_Penalty_Charging>
6.59228

> <r_epik_Ionization_Penalty_Neutral>
0.17305

> <r_epik_State_Penalty>
6.73737

> <r_epik_Charging_Adjusted_Penalty>
13.3296

> <i_epik_Tot_Q>
-1

> <i_epik_Tot_abs_Q>
1

> <r_epik_Metal_State_Penalty>
2.67929

> <b_epik_Metal_Only>
1

> <s_lp_Force_Field>
OPLS_2005

> <r_lp_Energy>
4.40981

> <b_lp_Chiralities_Consistent>
1

> <s_lp_Variant>
AV-unprocessed.smi:1417-4

> <Gold.Version>
5.8.1

> <Gold.Id.Protein>
6NUR|6NUR_protein|mol2

> <Gold.PLP.Fitness>
37.9914

> <Gold.PLP.PLP>
-34.7034

> <Gold.PLP.part.hbond>
-2.2502

> <Gold.PLP.part.metal>
0.0000

> <Gold.PLP.part.buried>
-5.2294

> <Gold.PLP.part.nonpolar>
-27.4194

> <Gold.PLP.part.repulsive>
0.6486

> <Gold.PLP.ligand.clash>
0.0000

> <Gold.PLP.ligand.torsion>
1.5159

> <Gold.PLP.Chemscore.Hbond>
2.0951

> <Gold.PLP.Chemscore.CHOScore>
0.0000

> <Gold.PLP.Chemscore.Metal>
0.0000

> <Gold.Chemscore.Hbonds>
donor molecule, donor type, donor heavy atom, donor atom, acceptor molecule, acceptor atom, score
      L1  H    15    34       P1  7948  1.00
      P1  H  6933  6945       L1    19  0.15
      P1  H  7997  8010       L1     7  1.00

> <Gold.PLP.Chemscore.Internal.Correction>
0.0345

> <Gold.Rescore>
     Score         DG    S(hbond)    S(metal)    S(lipo)     H(rot)  DE(clash)    DE(int)     intcor
     14.66     -16.01       2.38        0.00      65.87       2.00       0.03       1.32       ----

> <Gold.Chemscore.Fitness>
14.6634

> <Gold.Chemscore.DG>
-16.0141

> <Gold.Chemscore.ZeroCoef>
-5.4800

> <Gold.Chemscore.Hbond>
2.3775

> <Gold.Chemscore.Metal>
0.0000

> <Gold.Chemscore.Lipo>
65.8661

> <Gold.Chemscore.Internal_Hbond>
0.0000

> <Gold.Chemscore.DEClash>
0.0340

> <Gold.Chemscore.DEInternal>
1.3166

> <Gold.Chemscore.Rot>
1.9973

> <Gold.Chemscore.Internal.Correction>
   9.000000E+99

> <Gold.Chemscore.Hbonds>
donor molecule, donor type, donor heavy atom, donor atom, acceptor molecule, acceptor atom, score
      L1  H    15    34       P1  7948  0.99
      P1  H  6933  6945       L1    19  0.03
      P1  H  7997  8010       L1     7  0.99

> <Gold.Chemscore.Hbond.Weighted>
-7.9409

> <Gold.Chemscore.Metal.Weighted>
-0.0000

> <Gold.Chemscore.Lipo.Weighted>
-7.7063

> <Gold.Chemscore.Internal_Hbond.Weighted>
0.0000

> <Gold.Chemscore.DEClash.Weighted>
0.0340

> <Gold.Chemscore.DEInternal.Weighted>
1.3166

> <Gold.Chemscore.Rot.Weighted>
5.1131

> <Gold.Chemscore.Internal.Correction.Weighted>
   9.000000E+99

> <Gold.Protein.RotatedTorsions>
[ 6907 6896 6895 6894 ] final  164.23 input  -60.11 | X-H torsion
[ 7974 7965 7964 7962 ] final   19.31 input  175.53 | X-H torsion
[ 8008 7997 7996 7995 ] final   10.22 input   59.86 | X-H torsion
[ 10167 10162 10161 10158 ] final   55.11 input  -65.29 | X-H torsion
[ 10718 10713 10712 10709 ] final  105.71 input   66.30 | X-H torsion
[ 10763 10752 10751 10750 ] final   34.18 input  -60.55 | X-H torsion
[ 11005 11000 10999 10996 ] final -102.23 input  -57.11 | X-H torsion

> <Gold.Protein.ActiveResidues>
 VAL166  LYS551  ARG553  GLY616  TRP617  ASP618  TYR619  PRO620  LYS621  CYS622 
 ASP623  PHE694  ASN695  SER759  ASP760  ASP761  ALA762  ILE779  LEU786  VAL792 
 PHE793  MET794  SER795  GLU796  ALA797  LYS798  CYS799  TRP800  GLU811  SER814 

> <Gold.Protein.RotatedAtoms>
  151.9130  133.3566  159.3869 H   0  0  0  0  0  0  0  0  0  0  0  0  # atno 6907 bound_to 6896
  150.7054  134.4713  159.5436 H   0  0  0  0  0  0  0  0  0  0  0  0  # atno 6908 bound_to 6896
  152.2322  134.8311  160.0523 H   0  0  0  0  0  0  0  0  0  0  0  0  # atno 6909 bound_to 6896
  146.2154  139.8331  142.8656 H   0  0  0  0  0  0  0  0  0  0  0  0  # atno 7974 bound_to 7965
  154.7905  140.2835  155.5995 H   0  0  0  0  0  0  0  0  0  0  0  0  # atno 8008 bound_to 7997
  156.2963  140.2605  156.2680 H   0  0  0  0  0  0  0  0  0  0  0  0  # atno 8009 bound_to 7997
  154.9676  140.0376  157.2209 H   0  0  0  0  0  0  0  0  0  0  0  0  # atno 8010 bound_to 7997
  140.2230  144.3769  150.6443 H   0  0  0  0  0  0  0  0  0  0  0  0  # atno 10167 bound_to 10162
  157.6695  131.0834  150.5897 H   0  0  0  0  0  0  0  0  0  0  0  0  # atno 10718 bound_to 10713
  153.0176  135.6367  154.1628 H   0  0  0  0  0  0  0  0  0  0  0  0  # atno 10763 bound_to 10752
  154.1365  135.2837  155.3173 H   0  0  0  0  0  0  0  0  0  0  0  0  # atno 10764 bound_to 10752
  154.6156  135.5542  153.7581 H   0  0  0  0  0  0  0  0  0  0  0  0  # atno 10765 bound_to 10752
  141.1198  133.8541  157.1333 H   0  0  0  0  0  0  0  0  0  0  0  0  # atno 11005 bound_to 11000
  145.2977  141.0185  143.3627 LP  0  0  0  0  0  0  0  0  0  0  0  0  # atno 17320 bound_to 7965
  144.9030  139.4626  143.6623 LP  0  0  0  0  0  0  0  0  0  0  0  0  # atno 17321 bound_to 7965
  140.6241  143.2179  151.6632 LP  0  0  0  0  0  0  0  0  0  0  0  0  # atno 17342 bound_to 10162
  139.5137  144.3433  152.0720 LP  0  0  0  0  0  0  0  0  0  0  0  0  # atno 17343 bound_to 10162
  156.6198  130.4402  149.5827 LP  0  0  0  0  0  0  0  0  0  0  0  0  # atno 17370 bound_to 10713
  156.2365  130.6825  151.1514 LP  0  0  0  0  0  0  0  0  0  0  0  0  # atno 17371 bound_to 10713
  140.0146  134.9973  157.0467 LP  0  0  0  0  0  0  0  0  0  0  0  0  # atno 17394 bound_to 11000
  140.4541  134.1552  155.7184 LP  0  0  0  0  0  0  0  0  0  0  0  0  # atno 17395 bound_to 11000

$$$$
