AV-unprocessed.smi:991|AV-procd|sdf|4328|dock2
  -GOLD-   22720 2233D 1   1.00000     0.00000
 Structure written by MMmdl.
 32 33  0  0  0  0  0  0  0  0  1 V2000
  152.6585  139.8447  154.8615 O   0  0  0  0  0  0  0  0  0  0  0  0
  151.4957  139.4717  155.0145 C   0  0  0  0  0  0  0  0  0  0  0  0
  151.0546  138.1074  154.4829 C   0  0  0  0  0  0  0  0  0  0  0  0
  150.9686  137.1286  155.5517 N   0  0  0  0  0  0  0  0  0  0  0  0
  150.2856  137.1526  156.6978 C   0  0  0  0  0  0  0  0  0  0  0  0
  150.4530  136.0690  157.4433 N   0  0  0  0  0  0  0  0  0  0  0  0
  151.3088  135.3691  156.6401 C   0  0  0  0  0  0  0  0  0  0  0  0
  151.6497  135.9595  155.4944 N   0  0  0  0  0  0  0  0  0  0  0  0
  150.5603  140.2031  155.6421 N   0  0  0  0  0  0  0  0  0  0  0  0
  150.7798  141.5193  156.2381 C   0  0  0  0  0  0  0  0  0  0  0  0
  151.2584  141.4531  157.7004 C   0  0  0  0  0  0  0  0  0  0  0  0
  151.3992  140.3597  158.2517 O   0  0  0  0  0  0  0  0  0  0  0  0
  151.4994  142.6138  158.3443 N   0  0  0  0  0  0  0  0  0  0  0  0
  151.3345  143.9539  157.7822 C   0  0  0  0  0  0  0  0  0  0  0  0
  151.5115  144.9196  158.9547 C   0  0  0  0  0  0  0  0  0  0  0  0
  152.3683  144.1472  159.9482 C   0  0  0  0  0  0  0  0  0  0  0  0
  151.9727  142.6876  159.7251 C   0  0  0  0  0  0  0  0  0  0  0  0
  150.0771  138.1899  154.0056 H   0  0  0  0  0  0  0  0  0  0  0  0
  151.7561  137.7602  153.7224 H   0  0  0  0  0  0  0  0  0  0  0  0
  149.6569  137.9801  156.9933 H   0  0  0  0  0  0  0  0  0  0  0  0
  151.6922  134.3954  156.9077 H   0  0  0  0  0  0  0  0  0  0  0  0
  149.6315  139.8148  155.7236 H   0  0  0  0  0  0  0  0  0  0  0  0
  151.4930  142.0783  155.6304 H   0  0  0  0  0  0  0  0  0  0  0  0
  149.8381  142.0675  156.2035 H   0  0  0  0  0  0  0  0  0  0  0  0
  152.1073  144.1239  157.0313 H   0  0  0  0  0  0  0  0  0  0  0  0
  150.3609  144.0868  157.3082 H   0  0  0  0  0  0  0  0  0  0  0  0
  151.9590  145.8686  158.6575 H   0  0  0  0  0  0  0  0  0  0  0  0
  150.5401  145.1341  159.4024 H   0  0  0  0  0  0  0  0  0  0  0  0
  153.4227  144.2817  159.7022 H   0  0  0  0  0  0  0  0  0  0  0  0
  152.2218  144.4726  160.9786 H   0  0  0  0  0  0  0  0  0  0  0  0
  151.1589  142.4039  160.3942 H   0  0  0  0  0  0  0  0  0  0  0  0
  152.8131  142.0162  159.9094 H   0  0  0  0  0  0  0  0  0  0  0  0
  1  2  2  0  0  0  0
  2  3  1  0  0  0  0
  2  9  1  0  0  0  0
  3  4  1  0  0  0  0
  3 18  1  0  0  0  0
  3 19  1  0  0  0  0
  4  8  1  0  0  0  0
  4  5  1  0  0  0  0
  5  6  2  0  0  0  0
  5 20  1  0  0  0  0
  6  7  1  0  0  0  0
  7  8  2  0  0  0  0
  7 21  1  0  0  0  0
  9 10  1  0  0  0  0
  9 22  1  0  0  0  0
 10 11  1  0  0  0  0
 10 23  1  0  0  0  0
 10 24  1  0  0  0  0
 11 12  2  0  0  0  0
 11 13  1  0  0  0  0
 13 17  1  0  0  0  0
 13 14  1  0  0  0  0
 14 15  1  0  0  0  0
 14 25  1  0  0  0  0
 14 26  1  0  0  0  0
 15 16  1  0  0  0  0
 15 27  1  0  0  0  0
 15 28  1  0  0  0  0
 16 17  1  0  0  0  0
 16 29  1  0  0  0  0
 16 30  1  0  0  0  0
 17 31  1  0  0  0  0
 17 32  1  0  0  0  0
M  END
> <s_m_source_file>
AV-unprocessed.smi

> <i_m_source_file_index>
991

> <i_lp_mmshare_version>
43012

> <i_f3d_flags>
0

> <s_epik_input>
bjFbY0hdbltjSF1uMVtDSDJdQyg9TylbTkhdW0NIMl1DKD1PKU4yW0NIMl1bQ0gyXVtDSDJdW0NIMl0y

> <s_epik_cmdline>
J2VwaWtfcHl0aG9uJywgJy1waCcsICc3LjAnLCAnLXRuJywgJzgnLCAnLW1hJywgJzIwMCcsICctbWV0YWxfYmluZGluZycsICctaW1hZScsICc8aW5maWxlLm1hZT4nLCAnLW9tYWUnLCAnPG91dGZpbGUubWFlPic=

> <r_lp_tautomer_probability>
1

> <r_epik_Ionization_Penalty>
7.3183e-06

> <r_epik_Ionization_Penalty_Charging>
0

> <r_epik_Ionization_Penalty_Neutral>
7.3183e-06

> <r_epik_State_Penalty>
-0

> <r_epik_Charging_Adjusted_Penalty>
0

> <i_epik_Tot_Q>
0

> <i_epik_Tot_abs_Q>
0

> <r_epik_Metal_State_Penalty>
-0

> <b_epik_Metal_Only>
0

> <s_lp_Force_Field>
OPLS_2005

> <r_lp_Energy>
26.0119

> <b_lp_Chiralities_Consistent>
1

> <s_lp_Variant>
AV-unprocessed.smi:991-1

> <Gold.Version>
5.8.1

> <Gold.Id.Protein>
6NUR|6NUR_protein|mol2

> <Gold.PLP.Fitness>
40.6928

> <Gold.PLP.PLP>
-35.5692

> <Gold.PLP.part.hbond>
-3.0000

> <Gold.PLP.part.metal>
0.0000

> <Gold.PLP.part.buried>
-4.9681

> <Gold.PLP.part.nonpolar>
-28.5852

> <Gold.PLP.part.repulsive>
0.2159

> <Gold.PLP.ligand.clash>
0.0000

> <Gold.PLP.ligand.torsion>
0.4480

> <Gold.PLP.Chemscore.Hbond>
2.0000

> <Gold.PLP.Chemscore.CHOScore>
0.0000

> <Gold.PLP.Chemscore.Metal>
0.0000

> <Gold.Chemscore.Hbonds>
donor molecule, donor type, donor heavy atom, donor atom, acceptor molecule, acceptor atom, score
      P1  H  7997  8008       L1     1  0.83
      P1  H 10752 10765       L1     8  1.00

> <Gold.PLP.Chemscore.Internal.Correction>
0.0196

> <Gold.Rescore>
     Score         DG    S(hbond)    S(metal)    S(lipo)     H(rot)  DE(clash)    DE(int)     intcor
     12.85     -13.26       2.00        0.00      65.07       2.54       0.02       0.39       ----

> <Gold.Chemscore.Fitness>
12.8531

> <Gold.Chemscore.DG>
-13.2636

> <Gold.Chemscore.ZeroCoef>
-5.4800

> <Gold.Chemscore.Hbond>
1.9953

> <Gold.Chemscore.Metal>
0.0000

> <Gold.Chemscore.Lipo>
65.0684

> <Gold.Chemscore.Internal_Hbond>
0.0000

> <Gold.Chemscore.DEClash>
0.0199

> <Gold.Chemscore.DEInternal>
0.3905

> <Gold.Chemscore.Rot>
2.5366

> <Gold.Chemscore.Internal.Correction>
   9.000000E+99

> <Gold.Chemscore.Hbonds>
donor molecule, donor type, donor heavy atom, donor atom, acceptor molecule, acceptor atom, score
      P1  H  7997  8008       L1     1  0.80
      P1  H 10752 10765       L1     8  0.91

> <Gold.Chemscore.Hbond.Weighted>
-6.6643

> <Gold.Chemscore.Metal.Weighted>
-0.0000

> <Gold.Chemscore.Lipo.Weighted>
-7.6130

> <Gold.Chemscore.Internal_Hbond.Weighted>
0.0000

> <Gold.Chemscore.DEClash.Weighted>
0.0199

> <Gold.Chemscore.DEInternal.Weighted>
0.3905

> <Gold.Chemscore.Rot.Weighted>
6.4937

> <Gold.Chemscore.Internal.Correction.Weighted>
   9.000000E+99

> <Gold.Protein.RotatedTorsions>
[ 6907 6896 6895 6894 ] final -158.24 input  -60.11 | X-H torsion
[ 7974 7965 7964 7962 ] final  -69.28 input  175.53 | X-H torsion
[ 8008 7997 7996 7995 ] final  -21.41 input   59.86 | X-H torsion
[ 10167 10162 10161 10158 ] final  168.22 input  -65.29 | X-H torsion
[ 10718 10713 10712 10709 ] final  -89.02 input   66.30 | X-H torsion
[ 10763 10752 10751 10750 ] final -165.20 input  -60.55 | X-H torsion
[ 11005 11000 10999 10996 ] final  -86.57 input  -57.11 | X-H torsion

> <Gold.Protein.ActiveResidues>
 VAL166  LYS551  ARG553  GLY616  TRP617  ASP618  TYR619  PRO620  LYS621  CYS622 
 ASP623  PHE694  ASN695  SER759  ASP760  ASP761  ALA762  ILE779  LEU786  VAL792 
 PHE793  MET794  SER795  GLU796  ALA797  LYS798  CYS799  TRP800  GLU811  SER814 

> <Gold.Protein.RotatedAtoms>
  151.3152  133.4063  159.2649 H   0  0  0  0  0  0  0  0  0  0  0  0  # atno 6907 bound_to 6896
  151.0081  134.9375  159.8002 H   0  0  0  0  0  0  0  0  0  0  0  0  # atno 6908 bound_to 6896
  152.5293  134.3117  159.9168 H   0  0  0  0  0  0  0  0  0  0  0  0  # atno 6909 bound_to 6896
  145.7058  140.9098  143.0707 H   0  0  0  0  0  0  0  0  0  0  0  0  # atno 7974 bound_to 7965
  154.4708  140.2035  156.0001 H   0  0  0  0  0  0  0  0  0  0  0  0  # atno 8008 bound_to 7997
  156.1007  140.3244  155.7908 H   0  0  0  0  0  0  0  0  0  0  0  0  # atno 8009 bound_to 7997
  155.4803  140.0538  157.2959 H   0  0  0  0  0  0  0  0  0  0  0  0  # atno 8010 bound_to 7997
  139.4963  144.3838  151.9593 H   0  0  0  0  0  0  0  0  0  0  0  0  # atno 10167 bound_to 10162
  155.9984  130.4857  150.5108 H   0  0  0  0  0  0  0  0  0  0  0  0  # atno 10718 bound_to 10713
  154.6955  135.2978  154.9418 H   0  0  0  0  0  0  0  0  0  0  0  0  # atno 10763 bound_to 10752
  154.0367  135.6663  153.4790 H   0  0  0  0  0  0  0  0  0  0  0  0  # atno 10764 bound_to 10752
  153.0643  135.5097  154.8070 H   0  0  0  0  0  0  0  0  0  0  0  0  # atno 10765 bound_to 10752
  141.1628  133.7462  156.9181 H   0  0  0  0  0  0  0  0  0  0  0  0  # atno 11005 bound_to 11000
  144.6956  139.9008  143.7458 LP  0  0  0  0  0  0  0  0  0  0  0  0  # atno 17320 bound_to 7965
  146.0757  139.3745  143.0495 LP  0  0  0  0  0  0  0  0  0  0  0  0  # atno 17321 bound_to 7965
  140.3275  144.3355  150.5995 LP  0  0  0  0  0  0  0  0  0  0  0  0  # atno 17342 bound_to 10162
  140.5672  143.2185  151.7662 LP  0  0  0  0  0  0  0  0  0  0  0  0  # atno 17343 bound_to 10162
  157.3081  131.0658  151.2020 LP  0  0  0  0  0  0  0  0  0  0  0  0  # atno 17370 bound_to 10713
  157.2976  130.6827  149.6147 LP  0  0  0  0  0  0  0  0  0  0  0  0  # atno 17371 bound_to 10713
  140.1470  134.9255  157.2543 LP  0  0  0  0  0  0  0  0  0  0  0  0  # atno 17394 bound_to 11000
  140.2768  134.3396  155.7356 LP  0  0  0  0  0  0  0  0  0  0  0  0  # atno 17395 bound_to 11000

$$$$
