AV-unprocessed.smi:2063|AV-procd|sdf|8411|dock7
  -GOLD-   2272011103D 1   1.00000     0.00000
 Structure written by MMmdl.
 39 40  0  0  0  0  0  0  0  0  1 V2000
  146.5509  137.4780  154.2900 C   0  0  0  0  0  0  0  0  0  0  0  0
  146.6418  138.8621  153.6310 C   0  0  0  0  0  0  0  0  0  0  0  0
  146.6887  138.7976  152.0976 C   0  0  0  0  0  0  0  0  0  0  0  0
  147.7585  139.6835  154.1957 C   0  0  0  0  0  0  0  0  0  0  0  0
  149.0464  139.3242  154.1066 N   0  0  0  0  0  0  0  0  0  0  0  0
  149.8943  140.2443  154.7061 N   0  0  0  0  0  0  0  0  0  0  0  0
  149.2199  141.2753  155.2329 C   0  0  0  0  0  0  0  0  0  0  0  0
  149.8376  142.3582  155.9123 N   0  0  0  0  0  0  0  0  0  0  0  0
  150.8842  142.3254  156.7554 C   0  0  0  0  0  0  0  0  0  0  0  0
  151.5172  141.3161  157.0661 O   0  0  0  0  0  0  0  0  0  0  0  0
  151.1635  143.5499  157.2247 N   0  0  0  0  0  0  0  0  0  0  0  0
  152.2321  143.8750  158.1671 C   0  0  1  0  0  0  0  0  0  0  0  0
  152.2149  145.3821  158.4672 C   0  0  0  0  0  0  0  0  0  0  0  0
  152.0731  143.0310  159.4458 C   0  0  1  0  0  0  0  0  0  0  0  0
  153.1569  141.9708  159.6508 C   0  0  0  0  0  0  0  0  0  0  0  0
  153.1598  141.7502  161.1548 C   0  0  0  0  0  0  0  0  0  0  0  0
  152.4095  142.9635  161.7120 C   0  0  0  0  0  0  0  0  0  0  0  0
  152.2286  143.8351  160.6044 O   0  0  0  0  0  0  0  0  0  0  0  0
  147.4776  141.2045  155.0366 S   0  0  0  0  0  0  0  0  0  0  0  0
  146.4360  137.5652  155.3709 H   0  0  0  0  0  0  0  0  0  0  0  0
  147.4465  136.8871  154.0962 H   0  0  0  0  0  0  0  0  0  0  0  0
  145.6958  136.9177  153.9112 H   0  0  0  0  0  0  0  0  0  0  0  0
  145.7182  139.3831  153.8864 H   0  0  0  0  0  0  0  0  0  0  0  0
  146.6698  139.7974  151.6624 H   0  0  0  0  0  0  0  0  0  0  0  0
  145.8343  138.2485  151.7015 H   0  0  0  0  0  0  0  0  0  0  0  0
  147.5937  138.2991  151.7487 H   0  0  0  0  0  0  0  0  0  0  0  0
  149.4281  143.2647  155.7420 H   0  0  0  0  0  0  0  0  0  0  0  0
  150.5905  144.3193  156.9111 H   0  0  0  0  0  0  0  0  0  0  0  0
  153.1961  143.6242  157.7204 H   0  0  0  0  0  0  0  0  0  0  0  0
  153.0185  145.6563  159.1509 H   0  0  0  0  0  0  0  0  0  0  0  0
  151.2720  145.6856  158.9236 H   0  0  0  0  0  0  0  0  0  0  0  0
  152.3479  145.9666  157.5563 H   0  0  0  0  0  0  0  0  0  0  0  0
  151.0880  142.5605  159.4728 H   0  0  0  0  0  0  0  0  0  0  0  0
  152.9649  141.0563  159.0890 H   0  0  0  0  0  0  0  0  0  0  0  0
  154.1271  142.3598  159.3380 H   0  0  0  0  0  0  0  0  0  0  0  0
  152.6450  140.8267  161.4214 H   0  0  0  0  0  0  0  0  0  0  0  0
  154.1784  141.6905  161.5397 H   0  0  0  0  0  0  0  0  0  0  0  0
  151.4335  142.6666  162.0983 H   0  0  0  0  0  0  0  0  0  0  0  0
  152.9556  143.4609  162.5140 H   0  0  0  0  0  0  0  0  0  0  0  0
  1  2  1  0  0  0  0
  1 20  1  0  0  0  0
  1 21  1  0  0  0  0
  1 22  1  0  0  0  0
  2  3  1  0  0  0  0
  2  4  1  0  0  0  0
  2 23  1  0  0  0  0
  3 24  1  0  0  0  0
  3 25  1  0  0  0  0
  3 26  1  0  0  0  0
  4 19  1  0  0  0  0
  4  5  2  0  0  0  0
  5  6  1  0  0  0  0
  6  7  2  0  0  0  0
  7  8  1  0  0  0  0
  7 19  1  0  0  0  0
  8  9  1  0  0  0  0
  8 27  1  0  0  0  0
  9 10  2  0  0  0  0
  9 11  1  0  0  0  0
 11 12  1  0  0  0  0
 11 28  1  0  0  0  0
 12 13  1  0  0  0  0
 12 14  1  0  0  0  0
 12 29  1  0  0  0  0
 13 30  1  0  0  0  0
 13 31  1  0  0  0  0
 13 32  1  0  0  0  0
 14 18  1  0  0  0  0
 14 15  1  0  0  0  0
 14 33  1  0  0  0  0
 15 16  1  0  0  0  0
 15 34  1  0  0  0  0
 15 35  1  0  0  0  0
 16 17  1  0  0  0  0
 16 36  1  0  0  0  0
 16 37  1  0  0  0  0
 17 18  1  0  0  0  0
 17 38  1  0  0  0  0
 17 39  1  0  0  0  0
M  END
> <s_m_source_file>
AV-unprocessed.smi

> <i_m_source_file_index>
2063

> <i_lp_mmshare_version>
43012

> <i_f3d_flags>
0

> <s_epik_input>
W0NIM11bQ0hdKFtDSDNdKWMxbm5jKHMxKVtOSF1DKD1PKVtOSF1bQ0BIXShbQ0gzXSlbQ0BASF0yW0NIMl1bQ0gyXVtDSDJdTzI=

> <s_epik_cmdline>
J2VwaWtfcHl0aG9uJywgJy1waCcsICc3LjAnLCAnLXRuJywgJzgnLCAnLW1hJywgJzIwMCcsICctbWV0YWxfYmluZGluZycsICctaW1hZScsICc8aW5maWxlLm1hZT4nLCAnLW9tYWUnLCAnPG91dGZpbGUubWFlPic=

> <r_lp_tautomer_probability>
1

> <r_epik_Ionization_Penalty>
0.00050567

> <r_epik_Ionization_Penalty_Charging>
0

> <r_epik_Ionization_Penalty_Neutral>
0.00050567

> <r_epik_State_Penalty>
-0

> <r_epik_Charging_Adjusted_Penalty>
0

> <i_epik_Tot_Q>
0

> <i_epik_Tot_abs_Q>
0

> <r_epik_Metal_State_Penalty>
0.219912

> <b_epik_Metal_Only>
0

> <s_lp_Force_Field>
OPLS_2005

> <r_lp_Energy>
10.6247

> <b_lp_Chiralities_Consistent>
1

> <s_lp_Variant>
AV-unprocessed.smi:2063-4

> <Gold.Version>
5.8.1

> <Gold.Id.Protein>
6NUR|6NUR_protein|mol2

> <Gold.PLP.Fitness>
44.5948

> <Gold.PLP.PLP>
-39.9440

> <Gold.PLP.part.hbond>
-3.0000

> <Gold.PLP.part.metal>
0.0000

> <Gold.PLP.part.buried>
-5.4120

> <Gold.PLP.part.nonpolar>
-32.9726

> <Gold.PLP.part.repulsive>
1.9615

> <Gold.PLP.ligand.clash>
0.0000

> <Gold.PLP.ligand.torsion>
1.7278

> <Gold.PLP.Chemscore.Hbond>
2.6695

> <Gold.PLP.Chemscore.CHOScore>
0.0000

> <Gold.PLP.Chemscore.Metal>
0.0000

> <Gold.Chemscore.Hbonds>
donor molecule, donor type, donor heavy atom, donor atom, acceptor molecule, acceptor atom, score
      L1  H     8    27       P1  8028  1.00
      L1  H    11    28       P1  8028  0.65
      P1  H  7989  7998       L1     6  0.56

> <Gold.PLP.Chemscore.Internal.Correction>
0.0980

> <Gold.Rescore>
     Score         DG    S(hbond)    S(metal)    S(lipo)     H(rot)  DE(clash)    DE(int)     intcor
     17.89     -21.14       2.47        0.00      94.37       1.42       0.90       2.35       ----

> <Gold.Chemscore.Fitness>
17.8851

> <Gold.Chemscore.DG>
-21.1362

> <Gold.Chemscore.ZeroCoef>
-5.4800

> <Gold.Chemscore.Hbond>
2.4666

> <Gold.Chemscore.Metal>
0.0000

> <Gold.Chemscore.Lipo>
94.3651

> <Gold.Chemscore.Internal_Hbond>
0.0000

> <Gold.Chemscore.DEClash>
0.8995

> <Gold.Chemscore.DEInternal>
2.3516

> <Gold.Chemscore.Rot>
1.4152

> <Gold.Chemscore.Internal.Correction>
   9.000000E+99

> <Gold.Chemscore.Hbonds>
donor molecule, donor type, donor heavy atom, donor atom, acceptor molecule, acceptor atom, score
      L1  H     8    27       P1  8028  0.95
      L1  H    11    28       P1  8028  0.61
      P1  H  7989  7998       L1     6  0.42

> <Gold.Chemscore.Hbond.Weighted>
-8.2384

> <Gold.Chemscore.Metal.Weighted>
-0.0000

> <Gold.Chemscore.Lipo.Weighted>
-11.0407

> <Gold.Chemscore.Internal_Hbond.Weighted>
0.0000

> <Gold.Chemscore.DEClash.Weighted>
0.8995

> <Gold.Chemscore.DEInternal.Weighted>
2.3516

> <Gold.Chemscore.Rot.Weighted>
3.6229

> <Gold.Chemscore.Internal.Correction.Weighted>
   9.000000E+99

> <Gold.Protein.RotatedTorsions>
[ 6907 6896 6895 6894 ] final  -56.39 input  -60.11 | X-H torsion
[ 7974 7965 7964 7962 ] final  107.66 input  175.53 | X-H torsion
[ 8008 7997 7996 7995 ] final  -12.04 input   59.86 | X-H torsion
[ 10167 10162 10161 10158 ] final  -58.10 input  -65.29 | X-H torsion
[ 10718 10713 10712 10709 ] final   50.30 input   66.30 | X-H torsion
[ 10763 10752 10751 10750 ] final   71.75 input  -60.55 | X-H torsion
[ 11005 11000 10999 10996 ] final -125.08 input  -57.11 | X-H torsion

> <Gold.Protein.ActiveResidues>
 VAL166  LYS551  ARG553  GLY616  TRP617  ASP618  TYR619  PRO620  LYS621  CYS622 
 ASP623  PHE694  ASN695  SER759  ASP760  ASP761  ALA762  ILE779  LEU786  VAL792 
 PHE793  MET794  SER795  GLU796  ALA797  LYS798  CYS799  TRP800  GLU811  SER814 

> <Gold.Protein.RotatedAtoms>
  150.8172  134.7360  159.6739 H   0  0  0  0  0  0  0  0  0  0  0  0  # atno 6907 bound_to 6896
  152.4290  134.5811  159.9958 H   0  0  0  0  0  0  0  0  0  0  0  0  # atno 6908 bound_to 6896
  151.6005  133.3319  159.3082 H   0  0  0  0  0  0  0  0  0  0  0  0  # atno 6909 bound_to 6896
  145.2907  139.2601  143.3866 H   0  0  0  0  0  0  0  0  0  0  0  0  # atno 7974 bound_to 7965
  154.5411  140.2286  155.8639 H   0  0  0  0  0  0  0  0  0  0  0  0  # atno 8008 bound_to 7997
  156.1859  140.3089  155.9200 H   0  0  0  0  0  0  0  0  0  0  0  0  # atno 8009 bound_to 7997
  155.3255  140.0442  157.3031 H   0  0  0  0  0  0  0  0  0  0  0  0  # atno 8010 bound_to 7997
  140.6218  143.2422  151.5462 H   0  0  0  0  0  0  0  0  0  0  0  0  # atno 10167 bound_to 10162
  157.4871  130.8352  149.8159 H   0  0  0  0  0  0  0  0  0  0  0  0  # atno 10718 bound_to 10713
  153.0417  135.5125  154.7641 H   0  0  0  0  0  0  0  0  0  0  0  0  # atno 10763 bound_to 10752
  154.6572  135.2933  154.9914 H   0  0  0  0  0  0  0  0  0  0  0  0  # atno 10764 bound_to 10752
  154.0778  135.6668  153.4886 H   0  0  0  0  0  0  0  0  0  0  0  0  # atno 10765 bound_to 10752
  140.9790  134.0699  157.3786 H   0  0  0  0  0  0  0  0  0  0  0  0  # atno 11005 bound_to 11000
  146.3186  140.3397  142.8647 LP  0  0  0  0  0  0  0  0  0  0  0  0  # atno 17320 bound_to 7965
  144.9175  140.7830  143.5769 LP  0  0  0  0  0  0  0  0  0  0  0  0  # atno 17321 bound_to 7965
  139.5445  144.2558  152.1416 LP  0  0  0  0  0  0  0  0  0  0  0  0  # atno 17342 bound_to 10162
  140.1780  144.4872  150.6544 LP  0  0  0  0  0  0  0  0  0  0  0  0  # atno 17343 bound_to 10162
  156.0153  130.3816  150.2132 LP  0  0  0  0  0  0  0  0  0  0  0  0  # atno 17370 bound_to 10713
  157.0320  131.0010  151.3309 LP  0  0  0  0  0  0  0  0  0  0  0  0  # atno 17371 bound_to 10713
  139.8942  135.0135  156.6941 LP  0  0  0  0  0  0  0  0  0  0  0  0  # atno 17394 bound_to 11000
  140.7214  133.9137  155.8149 LP  0  0  0  0  0  0  0  0  0  0  0  0  # atno 17395 bound_to 11000

$$$$
