#       Name:                AV-unprocessed.smi:1410
#       Creating user name   scv26
#       Creation time:       Fri Mar 27 05:37:00 2020


#       File generated by GOLD software.
#

@<TRIPOS>MOLECULE
AV-unprocessed.smi:1410
    45    46     1
SMALL
NO_CHARGES


@<TRIPOS>ATOM
      1 ****        -4.1925   2.8426   2.1212 N.pl3          1 S1                -1.0000
      2 ****        -3.5502   2.1298   3.0662 C.2            1 S1                 0.0000
      3 ****        -3.3201   2.4510   4.2300 O.2            1 S1                 0.0000
      4 ****        -3.0580   0.7763   2.5439 C.3            1 S1                 0.0000
      5 ****        -1.5749   0.7555   2.4770 N.4            1 S1                 1.0000
      6 ****        -1.0307   1.4959   1.3061 C.3            1 S1                 0.0000
      7 ****         0.5064   1.5480   1.3455 C.3            1 S1                 0.0000
      8 ****         1.1279   0.1404   1.4289 C.3            1 S1                 0.0000
      9 ****         0.9470  -0.6062   0.1842 N.am           1 S1                 0.0000
     10 ****         1.6681  -0.4375  -0.9338 C.2            1 S1                 0.0000
     11 ****         2.5874   0.3750  -1.0295 O.2            1 S1                 0.0000
     12 ****         1.2358  -1.2482  -1.9153 N.am           1 S1                 0.0000
     13 ****         1.7060  -1.3567  -3.2523 C.ar           1 S1                 0.0000
     14 ****         0.8465  -1.9460  -4.2025 C.ar           1 S1                 0.0000
     15 ****         1.2927  -2.0778  -5.5327 C.ar           1 S1                 0.0000
     16 ****         2.5116  -1.6756  -5.9493 N.ar           1 S1                 0.0000
     17 ****         3.3385  -1.1249  -5.0355 C.ar           1 S1                 0.0000
     18 ****         2.9914  -0.9466  -3.6812 C.ar           1 S1                 0.0000
     19 ****         0.5071  -0.6243   2.6102 C.3            1 S1                 0.0000
     20 ****        -1.0321  -0.6250   2.5543 C.3            1 S1                 0.0000
     21 ****        -4.5608   3.7689   2.3688 H              1 S1                 0.0000
     22 ****        -3.4088   0.0215   3.2490 H              1 S1                 0.0000
     23 ****        -3.4889   0.5158   1.5745 H              1 S1                 0.0000
     24 ****        -1.3704   1.0231   0.3834 H              1 S1                 0.0000
     25 ****        -1.4144   2.5161   1.2926 H              1 S1                 0.0000
     26 ****         0.8843   2.0857   0.4753 H              1 S1                 0.0000
     27 ****         0.8191   2.1287   2.2143 H              1 S1                 0.0000
     28 ****         2.1996   0.2370   1.6125 H              1 S1                 0.0000
     29 ****         0.2114  -1.2974   0.1717 H              1 S1                 0.0000
     30 ****         0.4252  -1.8094  -1.6995 H              1 S1                 0.0000
     31 ****        -0.1401  -2.2868  -3.9243 H              1 S1                 0.0000
     32 ****         0.6526  -2.5200  -6.2819 H              1 S1                 0.0000
     33 ****         4.3112  -0.8208  -5.3930 H              1 S1                 0.0000
     34 ****         3.7150  -0.5145  -3.0080 H              1 S1                 0.0000
     35 ****         0.8822  -1.6482   2.6376 H              1 S1                 0.0000
     36 ****         0.8278  -0.1601   3.5438 H              1 S1                 0.0000
     37 ****        -1.4187  -1.1209   3.4455 H              1 S1                 0.0000
     38 ****        -1.3819  -1.2012   1.6964 H              1 S1                 0.0000
     39 ****        -1.2541   1.2372   3.3048 H              1 S1                 0.0000
     40 ****        -4.3084   2.4776   1.1975 LP             1 S1                 0.0000
     41 ****        -3.6239   3.3399   4.5728 LP             1 S1                 0.0000
     42 ****        -2.8290   1.8234   4.8342 LP             1 S1                 0.0000
     43 ****         2.8291   0.9508  -0.2485 LP             1 S1                 0.0000
     44 ****         3.0928   0.4594  -1.8883 LP             1 S1                 0.0000
     45 ****         2.7929  -1.7820  -6.9030 LP             1 S1                 0.0000
@<TRIPOS>BOND
    1    1    2 1     
    2    1   21 1     
    3    2    3 2     
    4    2    4 1     
    5    4    5 1     
    6    4   22 1     
    7    4   23 1     
    8    5   20 1     
    9    5    6 1     
   10    5   39 1     
   11    6    7 1     
   12    6   24 1     
   13    6   25 1     
   14    7    8 1     
   15    7   26 1     
   16    7   27 1     
   17    8    9 1     
   18    8   19 1     
   19    8   28 1     
   20    9   10 am    
   21    9   29 1     
   22   10   11 2     
   23   10   12 am    
   24   12   13 1     
   25   12   30 1     
   26   13   18 ar    
   27   13   14 ar    
   28   14   15 ar    
   29   14   31 1     
   30   15   16 ar    
   31   15   32 1     
   32   16   17 ar    
   33   17   18 ar    
   34   17   33 1     
   35   18   34 1     
   36   19   20 1     
   37   19   35 1     
   38   19   36 1     
   39   20   37 1     
   40   20   38 1     
   41    1   40 1     
   42    3   41 1     
   43    3   42 1     
   44   11   43 1     
   45   11   44 1     
   46   16   45 1     
@<TRIPOS>SUBSTRUCTURE
      1 S1             1
@<TRIPOS>SET
LONE_PAIRS      STATIC     ATOMS    <user>   **** ""
6 40 41 42 43 44 45
DONOR_HYDROGENS      STATIC     ATOMS    <user>   **** ""
4 21 39 29 30
ATOM$BLUE        STATIC     ATOMS    COLORGROUP SYSTEM
6 40 41 42 43 44 45
ATOM$RED        STATIC     ATOMS    COLORGROUP SYSTEM
4 21 39 29 30
