AV-unprocessed.smi:1966|AV-procd|sdf|7953|dock2
  -GOLD-   2272010123D 1   1.00000     0.00000
 Structure written by MMmdl.
 53 54  0  0  0  0  0  0  0  0  1 V2000
  148.3999  134.3329  154.4162 C   0  0  0  0  0  0  0  0  0  0  0  0
  147.3073  135.3472  154.7355 C   0  0  0  0  0  0  0  0  0  0  0  0
  146.6696  135.2615  155.7846 O   0  0  0  0  0  0  0  0  0  0  0  0
  147.1020  136.3046  153.8175 N   0  0  0  0  0  0  0  0  0  0  0  0
  146.1202  137.3868  153.9205 C   0  0  1  0  0  0  0  0  0  0  0  0
  146.8382  138.6714  154.3803 C   0  0  0  0  0  0  0  0  0  0  0  0
  146.4895  139.7639  153.9313 O   0  0  0  0  0  0  0  0  0  0  0  0
  147.8292  138.4915  155.2736 N   0  0  0  0  0  0  0  0  0  0  0  0
  148.6612  139.4605  155.8976 C   0  0  0  0  0  0  0  0  0  0  0  0
  149.1310  140.6396  155.2735 C   0  0  0  0  0  0  0  0  0  0  0  0
  149.9342  141.5290  156.0129 C   0  0  0  0  0  0  0  0  0  0  0  0
  150.2439  141.2273  157.3595 C   0  0  0  0  0  0  0  0  0  0  0  0
  151.0437  142.1101  158.1158 N   0  0  0  0  0  0  0  0  0  0  0  0
  152.0667  141.5385  158.9866 C   0  0  0  0  0  0  0  0  0  0  0  0
  152.5818  142.6004  159.9742 C   0  0  1  0  0  0  0  0  0  0  0  0
  153.7464  142.0765  160.8209 C   0  0  0  0  0  0  0  0  0  0  0  0
  153.0382  143.7431  159.2512 O   0  0  0  0  0  0  0  0  0  0  0  0
  152.0562  144.3491  158.4071 C   0  0  2  0  0  0  0  0  0  0  0  0
  150.9699  145.0836  159.2130 C   0  0  0  0  0  0  0  0  0  0  0  0
  151.4882  143.3127  157.4172 C   0  0  0  0  0  0  0  0  0  0  0  0
  149.7789  140.1044  157.9594 N   0  0  0  0  0  0  0  0  0  0  0  0
  149.0123  139.2535  157.2463 C   0  0  0  0  0  0  0  0  0  0  0  0
  145.4685  137.6065  152.5230 C   0  0  0  0  0  0  0  0  0  0  0  0
  145.0132  136.2946  151.8501 C   0  0  0  0  0  0  0  0  0  0  0  0
  146.4120  138.3610  151.5653 C   0  0  0  0  0  0  0  0  0  0  0  0
  149.3524  134.8372  154.2512 H   0  0  0  0  0  0  0  0  0  0  0  0
  148.1449  133.7710  153.5174 H   0  0  0  0  0  0  0  0  0  0  0  0
  148.5254  133.6261  155.2374 H   0  0  0  0  0  0  0  0  0  0  0  0
  147.6794  136.2965  152.9894 H   0  0  0  0  0  0  0  0  0  0  0  0
  145.3469  137.1124  154.6413 H   0  0  0  0  0  0  0  0  0  0  0  0
  148.0458  137.5311  155.4977 H   0  0  0  0  0  0  0  0  0  0  0  0
  148.8819  140.8924  154.2554 H   0  0  0  0  0  0  0  0  0  0  0  0
  150.2851  142.4382  155.5477 H   0  0  0  0  0  0  0  0  0  0  0  0
  151.6580  140.6950  159.5446 H   0  0  0  0  0  0  0  0  0  0  0  0
  152.8874  141.1596  158.3756 H   0  0  0  0  0  0  0  0  0  0  0  0
  151.7782  142.8912  160.6509 H   0  0  0  0  0  0  0  0  0  0  0  0
  153.4466  141.2055  161.4042 H   0  0  0  0  0  0  0  0  0  0  0  0
  154.0951  142.8387  161.5179 H   0  0  0  0  0  0  0  0  0  0  0  0
  154.5908  141.7863  160.1948 H   0  0  0  0  0  0  0  0  0  0  0  0
  152.5833  145.1067  157.8266 H   0  0  0  0  0  0  0  0  0  0  0  0
  150.3205  145.6568  158.5510 H   0  0  0  0  0  0  0  0  0  0  0  0
  151.4162  145.7814  159.9216 H   0  0  0  0  0  0  0  0  0  0  0  0
  150.3347  144.3971  159.7722 H   0  0  0  0  0  0  0  0  0  0  0  0
  152.2644  143.0242  156.7071 H   0  0  0  0  0  0  0  0  0  0  0  0
  150.6877  143.7671  156.8345 H   0  0  0  0  0  0  0  0  0  0  0  0
  148.6682  138.3753  157.7734 H   0  0  0  0  0  0  0  0  0  0  0  0
  144.5798  138.2276  152.6509 H   0  0  0  0  0  0  0  0  0  0  0  0
  145.8442  135.5970  151.7420 H   0  0  0  0  0  0  0  0  0  0  0  0
  144.6106  136.4847  150.8548 H   0  0  0  0  0  0  0  0  0  0  0  0
  144.2268  135.7934  152.4142 H   0  0  0  0  0  0  0  0  0  0  0  0
  147.3414  137.8113  151.4141 H   0  0  0  0  0  0  0  0  0  0  0  0
  146.6693  139.3519  151.9401 H   0  0  0  0  0  0  0  0  0  0  0  0
  145.9490  138.5031  150.5884 H   0  0  0  0  0  0  0  0  0  0  0  0
  1  2  1  0  0  0  0
  1 26  1  0  0  0  0
  1 27  1  0  0  0  0
  1 28  1  0  0  0  0
  2  3  2  0  0  0  0
  2  4  1  0  0  0  0
  4  5  1  0  0  0  0
  4 29  1  0  0  0  0
  5  6  1  0  0  0  0
  5 23  1  0  0  0  0
  5 30  1  0  0  0  0
  6  7  2  0  0  0  0
  6  8  1  0  0  0  0
  8  9  1  0  0  0  0
  8 31  1  0  0  0  0
  9 22  1  0  0  0  0
  9 10  2  0  0  0  0
 10 11  1  0  0  0  0
 10 32  1  0  0  0  0
 11 12  2  0  0  0  0
 11 33  1  0  0  0  0
 12 13  1  0  0  0  0
 12 21  1  0  0  0  0
 13 20  1  0  0  0  0
 13 14  1  0  0  0  0
 14 15  1  0  0  0  0
 14 34  1  0  0  0  0
 14 35  1  0  0  0  0
 15 16  1  0  0  0  0
 15 17  1  0  0  0  0
 15 36  1  0  0  0  0
 16 37  1  0  0  0  0
 16 38  1  0  0  0  0
 16 39  1  0  0  0  0
 17 18  1  0  0  0  0
 18 19  1  0  0  0  0
 18 20  1  0  0  0  0
 18 40  1  0  0  0  0
 19 41  1  0  0  0  0
 19 42  1  0  0  0  0
 19 43  1  0  0  0  0
 20 44  1  0  0  0  0
 20 45  1  0  0  0  0
 21 22  2  0  0  0  0
 22 46  1  0  0  0  0
 23 24  1  0  0  0  0
 23 25  1  0  0  0  0
 23 47  1  0  0  0  0
 24 48  1  0  0  0  0
 24 49  1  0  0  0  0
 24 50  1  0  0  0  0
 25 51  1  0  0  0  0
 25 52  1  0  0  0  0
 25 53  1  0  0  0  0
M  END
> <s_m_source_file>
AV-unprocessed.smi

> <i_m_source_file_index>
1966

> <i_lp_mmshare_version>
43012

> <i_f3d_flags>
0

> <s_epik_input>
W0NIM11DKD1PKVtOSF1bQ0BASF0oW0NIXShbQ0gzXSlbQ0gzXSlDKD1PKVtOSF1jMVtjSF1bY0hdYyhuW2NIXTEpTjJbQ0gyXVtDQEBIXShbQ0gzXSlPW0NAQEhdKFtDSDNdKVtDSDJdMg==

> <s_epik_cmdline>
J2VwaWtfcHl0aG9uJywgJy1waCcsICc3LjAnLCAnLXRuJywgJzgnLCAnLW1hJywgJzIwMCcsICctbWV0YWxfYmluZGluZycsICctaW1hZScsICc8aW5maWxlLm1hZT4nLCAnLW9tYWUnLCAnPG91dGZpbGUubWFlPic=

> <r_lp_tautomer_probability>
1

> <r_epik_Ionization_Penalty>
0.000679699

> <r_epik_Ionization_Penalty_Charging>
0

> <r_epik_Ionization_Penalty_Neutral>
0.000679699

> <r_epik_State_Penalty>
0.000430485

> <r_epik_Charging_Adjusted_Penalty>
0.000430485

> <i_epik_Tot_Q>
0

> <i_epik_Tot_abs_Q>
0

> <r_epik_Metal_State_Penalty>
-0

> <b_epik_Metal_Only>
0

> <s_lp_Force_Field>
OPLS_2005

> <r_lp_Energy>
28.3815

> <b_lp_Chiralities_Consistent>
1

> <s_lp_Variant>
AV-unprocessed.smi:1966-6

> <Gold.Version>
5.8.1

> <Gold.Id.Protein>
6NUR|6NUR_protein|mol2

> <Gold.PLP.Fitness>
39.4927

> <Gold.PLP.PLP>
-39.4602

> <Gold.PLP.part.hbond>
-1.0000

> <Gold.PLP.part.metal>
0.0000

> <Gold.PLP.part.buried>
-3.5019

> <Gold.PLP.part.nonpolar>
-35.6993

> <Gold.PLP.part.repulsive>
0.2216

> <Gold.PLP.ligand.clash>
0.0000

> <Gold.PLP.ligand.torsion>
1.6808

> <Gold.PLP.Chemscore.Hbond>
0.9913

> <Gold.PLP.Chemscore.CHOScore>
0.0000

> <Gold.PLP.Chemscore.Metal>
0.0000

> <Gold.Chemscore.Hbonds>
donor molecule, donor type, donor heavy atom, donor atom, acceptor molecule, acceptor atom, score
      L1  H     4    29       P1  7948  1.00

> <Gold.PLP.Chemscore.Internal.Correction>
0.4204

> <Gold.Rescore>
     Score         DG    S(hbond)    S(metal)    S(lipo)     H(rot)  DE(clash)    DE(int)     intcor
     14.53     -17.54       0.99        0.00     111.47       1.68       0.12       2.89       ----

> <Gold.Chemscore.Fitness>
14.5309

> <Gold.Chemscore.DG>
-17.5429

> <Gold.Chemscore.ZeroCoef>
-5.4800

> <Gold.Chemscore.Hbond>
0.9915

> <Gold.Chemscore.Metal>
0.0000

> <Gold.Chemscore.Lipo>
111.4668

> <Gold.Chemscore.Internal_Hbond>
0.0000

> <Gold.Chemscore.DEClash>
0.1195

> <Gold.Chemscore.DEInternal>
2.8926

> <Gold.Chemscore.Rot>
1.6759

> <Gold.Chemscore.Internal.Correction>
   9.000000E+99

> <Gold.Chemscore.Hbonds>
donor molecule, donor type, donor heavy atom, donor atom, acceptor molecule, acceptor atom, score
      L1  H     4    29       P1  7948  1.00

> <Gold.Chemscore.Hbond.Weighted>
-3.3115

> <Gold.Chemscore.Metal.Weighted>
-0.0000

> <Gold.Chemscore.Lipo.Weighted>
-13.0416

> <Gold.Chemscore.Internal_Hbond.Weighted>
0.0000

> <Gold.Chemscore.DEClash.Weighted>
0.1195

> <Gold.Chemscore.DEInternal.Weighted>
2.8926

> <Gold.Chemscore.Rot.Weighted>
4.2902

> <Gold.Chemscore.Internal.Correction.Weighted>
   9.000000E+99

> <Gold.Protein.RotatedTorsions>
[ 6907 6896 6895 6894 ] final -146.43 input  -60.11 | X-H torsion
[ 7974 7965 7964 7962 ] final -161.17 input  175.53 | X-H torsion
[ 8008 7997 7996 7995 ] final  148.90 input   59.86 | X-H torsion
[ 10167 10162 10161 10158 ] final   71.06 input  -65.29 | X-H torsion
[ 10718 10713 10712 10709 ] final -146.82 input   66.30 | X-H torsion
[ 10763 10752 10751 10750 ] final  -10.77 input  -60.55 | X-H torsion
[ 11005 11000 10999 10996 ] final  -99.50 input  -57.11 | X-H torsion

> <Gold.Protein.ActiveResidues>
 VAL166  LYS551  ARG553  GLY616  TRP617  ASP618  TYR619  PRO620  LYS621  CYS622 
 ASP623  PHE694  ASN695  SER759  ASP760  ASP761  ALA762  ILE779  LEU786  VAL792 
 PHE793  MET794  SER795  GLU796  ALA797  LYS798  CYS799  TRP800  GLU811  SER814 

> <Gold.Protein.RotatedAtoms>
  151.1415  133.4968  159.2596 H   0  0  0  0  0  0  0  0  0  0  0  0  # atno 6907 bound_to 6896
  151.1650  135.0291  159.8737 H   0  0  0  0  0  0  0  0  0  0  0  0  # atno 6908 bound_to 6896
  152.5462  134.1285  159.8482 H   0  0  0  0  0  0  0  0  0  0  0  0  # atno 6909 bound_to 6896
  144.7401  140.3436  143.6129 H   0  0  0  0  0  0  0  0  0  0  0  0  # atno 7974 bound_to 7965
  156.2775  140.2116  156.5772 H   0  0  0  0  0  0  0  0  0  0  0  0  # atno 8008 bound_to 7997
  154.7088  140.0514  157.0553 H   0  0  0  0  0  0  0  0  0  0  0  0  # atno 8009 bound_to 7997
  155.0634  140.3169  155.4656 H   0  0  0  0  0  0  0  0  0  0  0  0  # atno 8010 bound_to 7997
  140.0502  144.5318  150.7369 H   0  0  0  0  0  0  0  0  0  0  0  0  # atno 10167 bound_to 10162
  156.3997  130.7927  151.2137 H   0  0  0  0  0  0  0  0  0  0  0  0  # atno 10718 bound_to 10713
  153.4740  135.7017  153.5977 H   0  0  0  0  0  0  0  0  0  0  0  0  # atno 10763 bound_to 10752
  153.4218  135.3823  155.2116 H   0  0  0  0  0  0  0  0  0  0  0  0  # atno 10764 bound_to 10752
  154.8724  135.3929  154.4181 H   0  0  0  0  0  0  0  0  0  0  0  0  # atno 10765 bound_to 10752
  141.1306  133.8326  157.0980 H   0  0  0  0  0  0  0  0  0  0  0  0  # atno 11005 bound_to 11000
  145.7348  139.1747  143.2409 LP  0  0  0  0  0  0  0  0  0  0  0  0  # atno 17320 bound_to 7965
  146.1179  140.7347  142.9472 LP  0  0  0  0  0  0  0  0  0  0  0  0  # atno 17321 bound_to 7965
  140.7220  143.2598  151.4246 LP  0  0  0  0  0  0  0  0  0  0  0  0  # atno 17342 bound_to 10162
  139.5958  144.1400  152.2142 LP  0  0  0  0  0  0  0  0  0  0  0  0  # atno 17343 bound_to 10162
  157.7503  131.0290  150.4075 LP  0  0  0  0  0  0  0  0  0  0  0  0  # atno 17370 bound_to 10713
  156.4352  130.3980  149.6733 LP  0  0  0  0  0  0  0  0  0  0  0  0  # atno 17371 bound_to 10713
  140.0351  134.9882  157.0856 LP  0  0  0  0  0  0  0  0  0  0  0  0  # atno 17394 bound_to 11000
  140.4223  134.1867  155.7165 LP  0  0  0  0  0  0  0  0  0  0  0  0  # atno 17395 bound_to 11000

$$$$
