AV-unprocessed.smi:2093|AV-procd|sdf|8544|dock4
  -GOLD-   2272011263D 1   1.00000     0.00000
 Structure written by MMmdl.
 31 32  0  0  0  0  0  0  0  0  1 V2000
  147.6887  141.5156  154.2708 C   0  0  0  0  0  0  0  0  0  0  0  0
  148.6825  140.9873  155.3168 C   0  0  2  0  0  0  0  0  0  0  0  0
  149.1963  142.1160  156.0900 N   0  0  0  0  0  0  0  0  0  0  0  0
  149.8782  142.0347  157.2421 C   0  0  0  0  0  0  0  0  0  0  0  0
  150.1409  140.9732  157.8081 O   0  0  0  0  0  0  0  0  0  0  0  0
  150.2288  143.2557  157.6826 N   0  0  0  0  0  0  0  0  0  0  0  0
  150.9531  143.5919  158.8561 C   0  0  0  0  0  0  0  0  0  0  0  0
  151.3735  142.7041  159.7651 N   0  0  0  0  0  0  0  0  0  0  0  0
  152.0603  143.3157  160.8170 C   0  0  0  0  0  0  0  0  0  0  0  0
  152.1535  144.6794  160.6924 C   0  0  0  0  0  0  0  0  0  0  0  0
  151.3777  145.2537  159.2405 S   0  0  0  0  0  0  0  0  0  0  0  0
  149.8628  140.2299  154.6779 C   0  0  2  0  0  0  0  0  0  0  0  0
  149.5154  138.8444  154.1292 C   0  0  0  0  0  0  0  0  0  0  0  0
  150.8317  138.0845  154.1992 C   0  0  0  0  0  0  0  0  0  0  0  0
  151.7240  138.9612  155.0813 C   0  0  0  0  0  0  0  0  0  0  0  0
  150.8461  139.9192  155.6535 O   0  0  0  0  0  0  0  0  0  0  0  0
  147.2448  140.7015  153.6976 H   0  0  0  0  0  0  0  0  0  0  0  0
  148.1745  142.1926  153.5672 H   0  0  0  0  0  0  0  0  0  0  0  0
  146.8723  142.0597  154.7469 H   0  0  0  0  0  0  0  0  0  0  0  0
  148.1448  140.2956  155.9677 H   0  0  0  0  0  0  0  0  0  0  0  0
  149.0336  143.0342  155.7039 H   0  0  0  0  0  0  0  0  0  0  0  0
  149.9469  144.0369  157.1092 H   0  0  0  0  0  0  0  0  0  0  0  0
  152.4507  142.7025  161.6157 H   0  0  0  0  0  0  0  0  0  0  0  0
  152.6298  145.3779  161.3642 H   0  0  0  0  0  0  0  0  0  0  0  0
  150.3248  140.8338  153.8940 H   0  0  0  0  0  0  0  0  0  0  0  0
  148.7805  138.3569  154.7712 H   0  0  0  0  0  0  0  0  0  0  0  0
  149.1050  138.8842  153.1198 H   0  0  0  0  0  0  0  0  0  0  0  0
  150.6842  137.0959  154.6357 H   0  0  0  0  0  0  0  0  0  0  0  0
  151.2744  137.9531  153.2113 H   0  0  0  0  0  0  0  0  0  0  0  0
  152.2423  138.3912  155.8528 H   0  0  0  0  0  0  0  0  0  0  0  0
  152.4725  139.4766  154.4778 H   0  0  0  0  0  0  0  0  0  0  0  0
  1  2  1  0  0  0  0
  1 17  1  0  0  0  0
  1 18  1  0  0  0  0
  1 19  1  0  0  0  0
  2  3  1  0  0  0  0
  2 12  1  0  0  0  0
  2 20  1  0  0  0  0
  3  4  1  0  0  0  0
  3 21  1  0  0  0  0
  4  5  2  0  0  0  0
  4  6  1  0  0  0  0
  6  7  1  0  0  0  0
  6 22  1  0  0  0  0
  7 11  1  0  0  0  0
  7  8  2  0  0  0  0
  8  9  1  0  0  0  0
  9 10  2  0  0  0  0
  9 23  1  0  0  0  0
 10 11  1  0  0  0  0
 10 24  1  0  0  0  0
 12 16  1  0  0  0  0
 12 13  1  0  0  0  0
 12 25  1  0  0  0  0
 13 14  1  0  0  0  0
 13 26  1  0  0  0  0
 13 27  1  0  0  0  0
 14 15  1  0  0  0  0
 14 28  1  0  0  0  0
 14 29  1  0  0  0  0
 15 16  1  0  0  0  0
 15 30  1  0  0  0  0
 15 31  1  0  0  0  0
M  END
> <s_m_source_file>
AV-unprocessed.smi

> <i_m_source_file_index>
2093

> <i_lp_mmshare_version>
43012

> <i_f3d_flags>
0

> <s_epik_input>
TzFbQ0gyXVtDSDJdW0NIMl1bQ0BIXTFbQ0BIXShbQ0gzXSlbTkhdQyg9TylbTkhdYzJuW2NIXVtjSF1zMg==

> <s_epik_cmdline>
J2VwaWtfcHl0aG9uJywgJy1waCcsICc3LjAnLCAnLXRuJywgJzgnLCAnLW1hJywgJzIwMCcsICctbWV0YWxfYmluZGluZycsICctaW1hZScsICc8aW5maWxlLm1hZT4nLCAnLW9tYWUnLCAnPG91dGZpbGUubWFlPic=

> <r_lp_tautomer_probability>
0.999

> <r_epik_Ionization_Penalty>
0.000334433

> <r_epik_Ionization_Penalty_Charging>
0

> <r_epik_Ionization_Penalty_Neutral>
0.000334433

> <r_epik_State_Penalty>
0.000177984

> <r_epik_Charging_Adjusted_Penalty>
0.000177984

> <i_epik_Tot_Q>
0

> <i_epik_Tot_abs_Q>
0

> <r_epik_Metal_State_Penalty>
0.00767616

> <b_epik_Metal_Only>
0

> <s_lp_Force_Field>
OPLS_2005

> <r_lp_Energy>
16.8099

> <b_lp_Chiralities_Consistent>
1

> <s_lp_Variant>
AV-unprocessed.smi:2093-1

> <Gold.Version>
5.8.1

> <Gold.Id.Protein>
6NUR|6NUR_protein|mol2

> <Gold.PLP.Fitness>
40.4669

> <Gold.PLP.PLP>
-34.9728

> <Gold.PLP.part.hbond>
-2.3024

> <Gold.PLP.part.metal>
0.0000

> <Gold.PLP.part.buried>
-4.5098

> <Gold.PLP.part.nonpolar>
-28.0018

> <Gold.PLP.part.repulsive>
0.1520

> <Gold.PLP.ligand.clash>
0.0000

> <Gold.PLP.ligand.torsion>
0.2632

> <Gold.PLP.Chemscore.Hbond>
2.0000

> <Gold.PLP.Chemscore.CHOScore>
0.0000

> <Gold.PLP.Chemscore.Metal>
0.0000

> <Gold.Chemscore.Hbonds>
donor molecule, donor type, donor heavy atom, donor atom, acceptor molecule, acceptor atom, score
      L1  H     3    21       P1  8028  1.00
      L1  H     6    22       P1  8028  1.00

> <Gold.PLP.Chemscore.Internal.Correction>
0.0206

> <Gold.Rescore>
     Score         DG    S(hbond)    S(metal)    S(lipo)     H(rot)  DE(clash)    DE(int)     intcor
     13.17     -17.88       1.91        0.00      79.68       1.29       0.05       4.67       ----

> <Gold.Chemscore.Fitness>
13.1684

> <Gold.Chemscore.DG>
-17.8836

> <Gold.Chemscore.ZeroCoef>
-5.4800

> <Gold.Chemscore.Hbond>
1.9141

> <Gold.Chemscore.Metal>
0.0000

> <Gold.Chemscore.Lipo>
79.6807

> <Gold.Chemscore.Internal_Hbond>
0.0000

> <Gold.Chemscore.DEClash>
0.0497

> <Gold.Chemscore.DEInternal>
4.6655

> <Gold.Chemscore.Rot>
1.2938

> <Gold.Chemscore.Internal.Correction>
   9.000000E+99

> <Gold.Chemscore.Hbonds>
donor molecule, donor type, donor heavy atom, donor atom, acceptor molecule, acceptor atom, score
      L1  H     3    21       P1  8028  0.99
      L1  H     6    22       P1  8028  0.80

> <Gold.Chemscore.Hbond.Weighted>
-6.3932

> <Gold.Chemscore.Metal.Weighted>
-0.0000

> <Gold.Chemscore.Lipo.Weighted>
-9.3226

> <Gold.Chemscore.Internal_Hbond.Weighted>
0.0000

> <Gold.Chemscore.DEClash.Weighted>
0.0497

> <Gold.Chemscore.DEInternal.Weighted>
4.6655

> <Gold.Chemscore.Rot.Weighted>
3.3122

> <Gold.Chemscore.Internal.Correction.Weighted>
   9.000000E+99

> <Gold.Protein.RotatedTorsions>
[ 6907 6896 6895 6894 ] final  144.24 input  -60.11 | X-H torsion
[ 7974 7965 7964 7962 ] final -141.23 input  175.53 | X-H torsion
[ 8008 7997 7996 7995 ] final  -65.35 input   59.86 | X-H torsion
[ 10167 10162 10161 10158 ] final  -73.43 input  -65.29 | X-H torsion
[ 10718 10713 10712 10709 ] final  129.39 input   66.30 | X-H torsion
[ 10763 10752 10751 10750 ] final  -48.61 input  -60.55 | X-H torsion
[ 11005 11000 10999 10996 ] final  -28.28 input  -57.11 | X-H torsion

> <Gold.Protein.ActiveResidues>
 VAL166  LYS551  ARG553  GLY616  TRP617  ASP618  TYR619  PRO620  LYS621  CYS622 
 ASP623  PHE694  ASN695  SER759  ASP760  ASP761  ALA762  ILE779  LEU786  VAL792 
 PHE793  MET794  SER795  GLU796  ALA797  LYS798  CYS799  TRP800  GLU811  SER814 

> <Gold.Protein.RotatedAtoms>
  152.1961  133.4808  159.5033 H   0  0  0  0  0  0  0  0  0  0  0  0  # atno 6907 bound_to 6896
  150.6960  134.1650  159.4199 H   0  0  0  0  0  0  0  0  0  0  0  0  # atno 6908 bound_to 6896
  151.9566  135.0143  160.0596 H   0  0  0  0  0  0  0  0  0  0  0  0  # atno 6909 bound_to 6896
  144.8535  140.6104  143.5374 H   0  0  0  0  0  0  0  0  0  0  0  0  # atno 7974 bound_to 7965
  154.4666  140.0935  156.7036 H   0  0  0  0  0  0  0  0  0  0  0  0  # atno 8008 bound_to 7997
  155.4840  140.3468  155.4326 H   0  0  0  0  0  0  0  0  0  0  0  0  # atno 8009 bound_to 7997
  156.0967  140.1411  156.9510 H   0  0  0  0  0  0  0  0  0  0  0  0  # atno 8010 bound_to 7997
  140.5110  143.2345  151.7592 H   0  0  0  0  0  0  0  0  0  0  0  0  # atno 10167 bound_to 10162
  157.5159  131.1097  150.9225 H   0  0  0  0  0  0  0  0  0  0  0  0  # atno 10718 bound_to 10713
  154.0806  135.6591  153.4837 H   0  0  0  0  0  0  0  0  0  0  0  0  # atno 10763 bound_to 10752
  153.0357  135.5179  154.7478 H   0  0  0  0  0  0  0  0  0  0  0  0  # atno 10764 bound_to 10752
  154.6571  135.3009  154.9881 H   0  0  0  0  0  0  0  0  0  0  0  0  # atno 10765 bound_to 10752
  140.9194  133.7408  156.0781 H   0  0  0  0  0  0  0  0  0  0  0  0  # atno 11005 bound_to 11000
  145.4452  139.1530  143.3948 LP  0  0  0  0  0  0  0  0  0  0  0  0  # atno 17320 bound_to 7965
  146.2804  140.4575  142.8778 LP  0  0  0  0  0  0  0  0  0  0  0  0  # atno 17321 bound_to 7965
  139.4896  144.4390  151.9786 LP  0  0  0  0  0  0  0  0  0  0  0  0  # atno 17342 bound_to 10162
  140.3482  144.3121  150.5954 LP  0  0  0  0  0  0  0  0  0  0  0  0  # atno 17343 bound_to 10162
  156.9851  130.5542  149.5299 LP  0  0  0  0  0  0  0  0  0  0  0  0  # atno 17370 bound_to 10713
  156.0320  130.5410  150.8558 LP  0  0  0  0  0  0  0  0  0  0  0  0  # atno 17371 bound_to 10713
  140.8007  134.3512  157.5440 LP  0  0  0  0  0  0  0  0  0  0  0  0  # atno 17394 bound_to 11000
  139.8772  134.9196  156.3230 LP  0  0  0  0  0  0  0  0  0  0  0  0  # atno 17395 bound_to 11000

$$$$
