AV-unprocessed.smi:159|AV-procd|sdf|1342|dock10
  -GOLD-   2262019 43D 1   1.00000     0.00000
 Structure written by MMmdl.
 28 29  0  0  0  0  0  0  0  0  1 V2000
  148.7629  138.6568  153.3936 N   0  0  0  0  0  0  0  0  0  0  0  0
  149.4782  139.4392  154.2140 C   0  0  0  0  0  0  0  0  0  0  0  0
  148.9051  140.6538  154.7488 C   0  0  0  0  0  0  0  0  0  0  0  0
  149.6905  141.3911  155.5646 C   0  0  0  0  0  0  0  0  0  0  0  0
  150.9910  141.0184  155.8751 N   0  0  0  0  0  0  0  0  0  0  0  0
  151.8455  141.8613  156.7954 C   0  0  2  0  0  0  0  0  0  0  0  0
  152.1970  141.0791  158.0662 C   0  0  0  0  0  0  0  0  0  0  0  0
  151.2662  141.6994  159.0865 C   0  0  0  0  0  0  0  0  0  0  0  0
  151.1702  143.1413  158.5924 C   0  0  2  0  0  0  0  0  0  0  0  0
  149.9229  143.8790  159.1005 C   0  0  0  0  0  0  0  0  0  0  0  0
  148.7863  143.4668  158.3722 O   0  0  0  0  0  0  0  0  0  0  0  0
  151.1176  142.9920  157.1772 O   0  0  0  0  0  0  0  0  0  0  0  0
  151.5167  139.8115  155.3534 C   0  0  0  0  0  0  0  0  0  0  0  0
  152.6494  139.4199  155.6323 O   0  0  0  0  0  0  0  0  0  0  0  0
  150.7081  139.0794  154.5257 N   0  0  0  0  0  0  0  0  0  0  0  0
  152.7189  142.1829  156.2256 H   0  0  0  0  0  0  0  0  0  0  0  0
  152.0825  143.6738  158.8679 H   0  0  0  0  0  0  0  0  0  0  0  0
  149.1648  137.8075  153.0240 H   0  0  0  0  0  0  0  0  0  0  0  0
  147.8181  138.9181  153.1504 H   0  0  0  0  0  0  0  0  0  0  0  0
  147.9008  140.9856  154.5274 H   0  0  0  0  0  0  0  0  0  0  0  0
  149.2740  142.2974  155.9792 H   0  0  0  0  0  0  0  0  0  0  0  0
  152.0642  140.0034  157.9432 H   0  0  0  0  0  0  0  0  0  0  0  0
  153.2379  141.2801  158.3226 H   0  0  0  0  0  0  0  0  0  0  0  0
  150.2903  141.2135  159.0467 H   0  0  0  0  0  0  0  0  0  0  0  0
  151.6427  141.6244  160.1069 H   0  0  0  0  0  0  0  0  0  0  0  0
  149.7716  143.7159  160.1679 H   0  0  0  0  0  0  0  0  0  0  0  0
  150.0354  144.9530  158.9491 H   0  0  0  0  0  0  0  0  0  0  0  0
  148.2632  144.2286  158.1743 H   0  0  0  0  0  0  0  0  0  0  0  0
  1  2  1  0  0  0  0
  1 18  1  0  0  0  0
  1 19  1  0  0  0  0
  2 15  2  0  0  0  0
  2  3  1  0  0  0  0
  3  4  2  0  0  0  0
  3 20  1  0  0  0  0
  4  5  1  0  0  0  0
  4 21  1  0  0  0  0
  5  6  1  0  0  0  0
  5 13  1  0  0  0  0
  6 16  1  0  0  0  0
  6 12  1  0  0  0  0
  6  7  1  0  0  0  0
  7  8  1  0  0  0  0
  7 22  1  0  0  0  0
  7 23  1  0  0  0  0
  8  9  1  0  0  0  0
  8 24  1  0  0  0  0
  8 25  1  0  0  0  0
  9 17  1  0  0  0  0
  9 10  1  0  0  0  0
  9 12  1  0  0  0  0
 10 11  1  0  0  0  0
 10 26  1  0  0  0  0
 10 27  1  0  0  0  0
 11 28  1  0  0  0  0
 13 14  2  0  0  0  0
 13 15  1  0  0  0  0
M  END
> <s_m_source_file>
AV-unprocessed.smi

> <i_m_source_file_index>
159

> <i_lp_mmshare_version>
43012

> <i_f3d_flags>
0

> <s_epik_input>
W05IMl1jMVtjSF1bY0hdbihjKD1PKW4xKVtDQEhdMltDSDJdW0NIMl1bQ0BIXShPMilbQ0gyXVtPSF0=

> <s_epik_cmdline>
J2VwaWtfcHl0aG9uJywgJy1waCcsICc3LjAnLCAnLXRuJywgJzgnLCAnLW1hJywgJzIwMCcsICctbWV0YWxfYmluZGluZycsICctaW1hZScsICc8aW5maWxlLm1hZT4nLCAnLW9tYWUnLCAnPG91dGZpbGUubWFlPic=

> <r_lp_tautomer_probability>
0.99996

> <r_epik_Ionization_Penalty>
0.00126102

> <r_epik_Ionization_Penalty_Charging>
4.46248e-08

> <r_epik_Ionization_Penalty_Neutral>
0.00126097

> <r_epik_State_Penalty>
1.15523e-05

> <r_epik_Charging_Adjusted_Penalty>
1.1597e-05

> <i_epik_Tot_Q>
0

> <i_epik_Tot_abs_Q>
0

> <r_epik_Metal_State_Penalty>
-0

> <b_epik_Metal_Only>
0

> <s_epik_Chemistry_Notes>
This compound contains an acetal/aminal-like group ( X-CH(R)-Y where X, Y are N, S, or O) that may be acid/base labile, releasing an aldehyde.

> <s_lp_Force_Field>
OPLS_2005

> <r_lp_Energy>
25.8801

> <b_lp_Chiralities_Consistent>
1

> <s_lp_Variant>
AV-unprocessed.smi:159-4

> <Gold.Version>
5.8.1

> <Gold.Id.Protein>
6NUR|6NUR_protein|mol2

> <Gold.PLP.Fitness>
35.7672

> <Gold.PLP.PLP>
-24.2051

> <Gold.PLP.part.hbond>
-5.1653

> <Gold.PLP.part.metal>
0.0000

> <Gold.PLP.part.buried>
-2.7872

> <Gold.PLP.part.nonpolar>
-16.4476

> <Gold.PLP.part.repulsive>
0.3281

> <Gold.PLP.ligand.clash>
0.0000

> <Gold.PLP.ligand.torsion>
0.1895

> <Gold.PLP.Chemscore.Hbond>
2.9760

> <Gold.PLP.Chemscore.CHOScore>
1.0000

> <Gold.PLP.Chemscore.Metal>
0.0000

> <Gold.Chemscore.Hbonds>
donor molecule, donor type, donor heavy atom, donor atom, acceptor molecule, acceptor atom, score
      L1  H     1    18       P1  7948  0.98
      L1  H    11    28       P1  8029  1.00
      P1  H  7997  8010       L1    14  1.00
      L1  C     4    21       P1  8028  1.00

> <Gold.PLP.Chemscore.Internal.Correction>
0.0130

> <Gold.Rescore>
     Score         DG    S(hbond)    S(metal)    S(lipo)     H(rot)  DE(clash)    DE(int)     intcor
     10.12     -12.37       2.22        0.00      41.42       2.09       1.40       0.84       ----

> <Gold.Chemscore.Fitness>
10.1229

> <Gold.Chemscore.DG>
-12.3655

> <Gold.Chemscore.ZeroCoef>
-5.4800

> <Gold.Chemscore.Hbond>
2.2152

> <Gold.Chemscore.Metal>
0.0000

> <Gold.Chemscore.Lipo>
41.4187

> <Gold.Chemscore.Internal_Hbond>
0.0000

> <Gold.Chemscore.DEClash>
1.4018

> <Gold.Chemscore.DEInternal>
0.8407

> <Gold.Chemscore.Rot>
2.0935

> <Gold.Chemscore.Internal.Correction>
   9.000000E+99

> <Gold.Chemscore.Hbonds>
donor molecule, donor type, donor heavy atom, donor atom, acceptor molecule, acceptor atom, score
      L1  H     1    18       P1  7948  0.92
      L1  H    11    28       P1  8029  0.29
      P1  H  7997  8010       L1    14  0.98

> <Gold.Chemscore.Hbond.Weighted>
-7.3989

> <Gold.Chemscore.Metal.Weighted>
-0.0000

> <Gold.Chemscore.Lipo.Weighted>
-4.8460

> <Gold.Chemscore.Internal_Hbond.Weighted>
0.0000

> <Gold.Chemscore.DEClash.Weighted>
1.4018

> <Gold.Chemscore.DEInternal.Weighted>
0.8407

> <Gold.Chemscore.Rot.Weighted>
5.3594

> <Gold.Chemscore.Internal.Correction.Weighted>
   9.000000E+99

> <Gold.Protein.RotatedTorsions>
[ 6907 6896 6895 6894 ] final -176.21 input  -60.11 | X-H torsion
[ 7974 7965 7964 7962 ] final   49.18 input  175.53 | X-H torsion
[ 8008 7997 7996 7995 ] final   76.17 input   59.86 | X-H torsion
[ 10167 10162 10161 10158 ] final -100.32 input  -65.29 | X-H torsion
[ 10718 10713 10712 10709 ] final  -59.84 input   66.30 | X-H torsion
[ 10763 10752 10751 10750 ] final  135.28 input  -60.55 | X-H torsion
[ 11005 11000 10999 10996 ] final  120.10 input  -57.11 | X-H torsion

> <Gold.Protein.ActiveResidues>
 VAL166  LYS551  ARG553  GLY616  TRP617  ASP618  TYR619  PRO620  LYS621  CYS622 
 ASP623  PHE694  ASN695  SER759  ASP760  ASP761  ALA762  ILE779  LEU786  VAL792 
 PHE793  MET794  SER795  GLU796  ALA797  LYS798  CYS799  TRP800  GLU811  SER814 

> <Gold.Protein.RotatedAtoms>
  151.6011  133.3356  159.3047 H   0  0  0  0  0  0  0  0  0  0  0  0  # atno 6907 bound_to 6896
  150.8207  134.7417  159.6781 H   0  0  0  0  0  0  0  0  0  0  0  0  # atno 6908 bound_to 6896
  152.4301  134.5800  159.9996 H   0  0  0  0  0  0  0  0  0  0  0  0  # atno 6909 bound_to 6896
  146.0133  139.4568  142.9942 H   0  0  0  0  0  0  0  0  0  0  0  0  # atno 7974 bound_to 7965
  155.8234  140.3469  155.5528 H   0  0  0  0  0  0  0  0  0  0  0  0  # atno 8008 bound_to 7997
  155.8318  140.0928  157.1808 H   0  0  0  0  0  0  0  0  0  0  0  0  # atno 8009 bound_to 7997
  154.4004  140.1411  156.3610 H   0  0  0  0  0  0  0  0  0  0  0  0  # atno 8010 bound_to 7997
  140.2532  143.3458  152.0695 H   0  0  0  0  0  0  0  0  0  0  0  0  # atno 10167 bound_to 10162
  156.1033  130.4183  150.0771 H   0  0  0  0  0  0  0  0  0  0  0  0  # atno 10718 bound_to 10713
  153.8374  135.3096  155.3423 H   0  0  0  0  0  0  0  0  0  0  0  0  # atno 10763 bound_to 10752
  154.7947  135.4762  154.0137 H   0  0  0  0  0  0  0  0  0  0  0  0  # atno 10764 bound_to 10752
  153.1597  135.6858  153.8852 H   0  0  0  0  0  0  0  0  0  0  0  0  # atno 10765 bound_to 10752
  139.9172  134.9632  156.7755 H   0  0  0  0  0  0  0  0  0  0  0  0  # atno 11005 bound_to 11000
  145.7307  141.0043  143.1353 LP  0  0  0  0  0  0  0  0  0  0  0  0  # atno 17320 bound_to 7965
  144.6961  139.8981  143.7457 LP  0  0  0  0  0  0  0  0  0  0  0  0  # atno 17321 bound_to 7965
  139.5040  144.6766  151.6113 LP  0  0  0  0  0  0  0  0  0  0  0  0  # atno 17342 bound_to 10162
  140.6024  143.9585  150.6395 LP  0  0  0  0  0  0  0  0  0  0  0  0  # atno 17343 bound_to 10162
  156.8753  130.9538  151.3605 LP  0  0  0  0  0  0  0  0  0  0  0  0  # atno 17370 bound_to 10713
  157.6206  130.8652  149.9102 LP  0  0  0  0  0  0  0  0  0  0  0  0  # atno 17371 bound_to 10713
  140.6586  133.9666  155.7793 LP  0  0  0  0  0  0  0  0  0  0  0  0  # atno 17394 bound_to 11000
  141.0659  134.0278  157.3595 LP  0  0  0  0  0  0  0  0  0  0  0  0  # atno 17395 bound_to 11000

$$$$
