AV-unprocessed.smi:688|AV-procd|sdf|3354|dock5
  -GOLD-   22720 0333D 1   1.00000     0.00000
 Structure written by MMmdl.
 36 37  0  0  0  0  0  0  0  0  1 V2000
  143.4392  144.7924  155.2354 O   0  0  0  0  0  0  0  0  0  0  0  0
  144.2819  143.9094  155.0885 C   0  0  0  0  0  0  0  0  0  0  0  0
  144.4798  142.9615  156.0972 N   0  0  0  0  0  0  0  0  0  0  0  0
  145.3988  141.9123  156.0567 C   0  0  0  0  0  0  0  0  0  0  0  0
  145.4937  141.1413  157.0120 O   0  0  0  0  0  0  0  0  0  0  0  0
  146.1866  141.8006  154.8877 N   0  0  0  0  0  0  0  0  0  0  0  0
  147.1540  140.7315  154.8202 C   0  0  0  0  0  0  0  0  0  0  0  0
  148.5909  141.2226  154.5340 C   0  0  2  0  0  0  0  0  0  0  0  0
  148.7420  141.3319  153.1318 O   0  0  0  0  0  0  0  0  0  0  0  0
  149.6445  140.2182  155.0304 C   0  0  0  0  0  0  0  0  0  0  0  0
  150.8270  140.9177  155.3820 O   0  0  0  0  0  0  0  0  0  0  0  0
  151.3476  140.5206  156.6408 C   0  0  0  0  0  0  0  0  0  0  0  0
  151.4640  141.6846  157.6071 C   0  0  0  0  0  0  0  0  0  0  0  0
  151.0867  142.9858  157.2108 C   0  0  0  0  0  0  0  0  0  0  0  0
  151.2137  144.0647  158.1074 C   0  0  0  0  0  0  0  0  0  0  0  0
  151.7254  143.8492  159.4018 C   0  0  0  0  0  0  0  0  0  0  0  0
  151.8811  145.1707  160.5003 Cl  0  0  0  0  0  0  0  0  0  0  0  0
  152.1131  142.5544  159.7978 C   0  0  0  0  0  0  0  0  0  0  0  0
  151.9855  141.4754  158.9013 C   0  0  0  0  0  0  0  0  0  0  0  0
  146.0299  142.7236  153.8653 C   0  0  0  0  0  0  0  0  0  0  0  0
  145.1381  143.7425  153.9146 C   0  0  0  0  0  0  0  0  0  0  0  0
  145.0020  144.8536  152.5989 Cl  0  0  0  0  0  0  0  0  0  0  0  0
  143.9115  143.0458  156.9275 H   0  0  0  0  0  0  0  0  0  0  0  0
  147.0839  140.1906  155.7665 H   0  0  0  0  0  0  0  0  0  0  0  0
  146.8018  140.0337  154.0580 H   0  0  0  0  0  0  0  0  0  0  0  0
  148.7646  142.1926  155.0020 H   0  0  0  0  0  0  0  0  0  0  0  0
  147.9384  141.0536  152.7203 H   0  0  0  0  0  0  0  0  0  0  0  0
  149.2771  139.7094  155.9229 H   0  0  0  0  0  0  0  0  0  0  0  0
  149.8417  139.4500  154.2804 H   0  0  0  0  0  0  0  0  0  0  0  0
  150.7058  139.7533  157.0768 H   0  0  0  0  0  0  0  0  0  0  0  0
  152.3386  140.0826  156.5126 H   0  0  0  0  0  0  0  0  0  0  0  0
  150.6981  143.1626  156.2184 H   0  0  0  0  0  0  0  0  0  0  0  0
  150.9192  145.0576  157.8000 H   0  0  0  0  0  0  0  0  0  0  0  0
  152.5095  142.3864  160.7884 H   0  0  0  0  0  0  0  0  0  0  0  0
  152.2885  140.4861  159.2115 H   0  0  0  0  0  0  0  0  0  0  0  0
  146.6500  142.6311  152.9849 H   0  0  0  0  0  0  0  0  0  0  0  0
  1  2  2  0  0  0  0
  2 21  1  0  0  0  0
  2  3  1  0  0  0  0
  3 23  1  0  0  0  0
  3  4  1  0  0  0  0
  4  5  2  0  0  0  0
  4  6  1  0  0  0  0
  6  7  1  0  0  0  0
  6 20  1  0  0  0  0
  7  8  1  0  0  0  0
  7 24  1  0  0  0  0
  7 25  1  0  0  0  0
  8  9  1  0  0  0  0
  8 10  1  0  0  0  0
  8 26  1  0  0  0  0
  9 27  1  0  0  0  0
 10 11  1  0  0  0  0
 10 28  1  0  0  0  0
 10 29  1  0  0  0  0
 11 12  1  0  0  0  0
 12 13  1  0  0  0  0
 12 30  1  0  0  0  0
 12 31  1  0  0  0  0
 13 19  1  0  0  0  0
 13 14  2  0  0  0  0
 14 15  1  0  0  0  0
 14 32  1  0  0  0  0
 15 16  2  0  0  0  0
 15 33  1  0  0  0  0
 16 17  1  0  0  0  0
 16 18  1  0  0  0  0
 18 19  2  0  0  0  0
 18 34  1  0  0  0  0
 19 35  1  0  0  0  0
 20 21  2  0  0  0  0
 20 36  1  0  0  0  0
 21 22  1  0  0  0  0
M  END
> <s_m_source_file>
AV-unprocessed.smi

> <i_m_source_file_index>
688

> <i_lp_mmshare_version>
43012

> <i_f3d_flags>
0

> <s_epik_input>
Tz1jMVtuSF1jKD1PKW4oW2NIXWMxQ2wpW0NIMl1bQ0BIXShbT0hdKVtDSDJdT1tDSDJdYzJbY0hdW2NIXWMoQ2wpW2NIXVtjSF0y

> <s_epik_cmdline>
J2VwaWtfcHl0aG9uJywgJy1waCcsICc3LjAnLCAnLXRuJywgJzgnLCAnLW1hJywgJzIwMCcsICctbWV0YWxfYmluZGluZycsICctaW1hZScsICc8aW5maWxlLm1hZT4nLCAnLW9tYWUnLCAnPG91dGZpbGUubWFlPic=

> <r_lp_tautomer_probability>
0.999537

> <r_epik_Ionization_Penalty>
0.0280571

> <r_epik_Ionization_Penalty_Charging>
0.028057

> <r_epik_Ionization_Penalty_Neutral>
6.25502e-08

> <r_epik_State_Penalty>
0.0230008

> <r_epik_Charging_Adjusted_Penalty>
0.0510579

> <i_epik_Tot_Q>
0

> <i_epik_Tot_abs_Q>
0

> <r_epik_Metal_State_Penalty>
2.1942

> <b_epik_Metal_Only>
0

> <s_lp_Force_Field>
OPLS_2005

> <r_lp_Energy>
17.1949

> <b_lp_Chiralities_Consistent>
1

> <s_lp_Variant>
AV-unprocessed.smi:688-1

> <Gold.Version>
5.8.1

> <Gold.Id.Protein>
6NUR|6NUR_protein|mol2

> <Gold.PLP.Fitness>
51.3441

> <Gold.PLP.PLP>
-48.7433

> <Gold.PLP.part.hbond>
-2.8506

> <Gold.PLP.part.metal>
0.0000

> <Gold.PLP.part.buried>
-5.4574

> <Gold.PLP.part.nonpolar>
-39.9770

> <Gold.PLP.part.repulsive>
0.1292

> <Gold.PLP.ligand.clash>
0.0000

> <Gold.PLP.ligand.torsion>
1.3926

> <Gold.PLP.Chemscore.Hbond>
1.7752

> <Gold.PLP.Chemscore.CHOScore>
0.0000

> <Gold.PLP.Chemscore.Metal>
0.0000

> <Gold.Chemscore.Hbonds>
donor molecule, donor type, donor heavy atom, donor atom, acceptor molecule, acceptor atom, score
      P1  H  7989  7998       L1    11  0.59
      P1  H  8011  8017       L1     9  0.96

> <Gold.PLP.Chemscore.Internal.Correction>
0.0604

> <Gold.Rescore>
     Score         DG    S(hbond)    S(metal)    S(lipo)     H(rot)  DE(clash)    DE(int)     intcor
     12.91     -15.82       1.30        0.00     115.75       2.94       1.28       1.63       ----

> <Gold.Chemscore.Fitness>
12.9136

> <Gold.Chemscore.DG>
-15.8194

> <Gold.Chemscore.ZeroCoef>
-5.4800

> <Gold.Chemscore.Hbond>
1.2965

> <Gold.Chemscore.Metal>
0.0000

> <Gold.Chemscore.Lipo>
115.7504

> <Gold.Chemscore.Internal_Hbond>
0.0000

> <Gold.Chemscore.DEClash>
1.2777

> <Gold.Chemscore.DEInternal>
1.6280

> <Gold.Chemscore.Rot>
2.9429

> <Gold.Chemscore.Internal.Correction>
   9.000000E+99

> <Gold.Chemscore.Hbonds>
donor molecule, donor type, donor heavy atom, donor atom, acceptor molecule, acceptor atom, score
      P1  H  7989  7998       L1    11  0.08
      P1  H  8011  8017       L1     9  0.90

> <Gold.Chemscore.Hbond.Weighted>
-4.3303

> <Gold.Chemscore.Metal.Weighted>
-0.0000

> <Gold.Chemscore.Lipo.Weighted>
-13.5428

> <Gold.Chemscore.Internal_Hbond.Weighted>
0.0000

> <Gold.Chemscore.DEClash.Weighted>
1.2777

> <Gold.Chemscore.DEInternal.Weighted>
1.6280

> <Gold.Chemscore.Rot.Weighted>
7.5337

> <Gold.Chemscore.Internal.Correction.Weighted>
   9.000000E+99

> <Gold.Protein.RotatedTorsions>
[ 6907 6896 6895 6894 ] final -127.14 input  -60.11 | X-H torsion
[ 7974 7965 7964 7962 ] final   85.24 input  175.53 | X-H torsion
[ 8008 7997 7996 7995 ] final -151.92 input   59.86 | X-H torsion
[ 10167 10162 10161 10158 ] final -160.60 input  -65.29 | X-H torsion
[ 10718 10713 10712 10709 ] final   23.80 input   66.30 | X-H torsion
[ 10763 10752 10751 10750 ] final -113.68 input  -60.55 | X-H torsion
[ 11005 11000 10999 10996 ] final -122.08 input  -57.11 | X-H torsion

> <Gold.Protein.ActiveResidues>
 VAL166  LYS551  ARG553  GLY616  TRP617  ASP618  TYR619  PRO620  LYS621  CYS622 
 ASP623  PHE694  ASN695  SER759  ASP760  ASP761  ALA762  ILE779  LEU786  VAL792 
 PHE793  MET794  SER795  GLU796  ALA797  LYS798  CYS799  TRP800  GLU811  SER814 

> <Gold.Protein.RotatedAtoms>
  150.9042  133.7079  159.2870 H   0  0  0  0  0  0  0  0  0  0  0  0  # atno 6907 bound_to 6896
  151.4588  135.1035  159.9728 H   0  0  0  0  0  0  0  0  0  0  0  0  # atno 6908 bound_to 6896
  152.4894  133.8410  159.7208 H   0  0  0  0  0  0  0  0  0  0  0  0  # atno 6909 bound_to 6896
  145.5882  139.2334  143.2314 H   0  0  0  0  0  0  0  0  0  0  0  0  # atno 7974 bound_to 7965
  155.6470  140.0708  157.2599 H   0  0  0  0  0  0  0  0  0  0  0  0  # atno 8008 bound_to 7997
  154.4171  140.1740  156.1684 H   0  0  0  0  0  0  0  0  0  0  0  0  # atno 8009 bound_to 7997
  155.9808  140.3354  155.6664 H   0  0  0  0  0  0  0  0  0  0  0  0  # atno 8010 bound_to 7997
  139.6527  144.0054  152.2173 H   0  0  0  0  0  0  0  0  0  0  0  0  # atno 10167 bound_to 10162
  157.1711  130.6760  149.6078 H   0  0  0  0  0  0  0  0  0  0  0  0  # atno 10718 bound_to 10713
  154.8407  135.4445  154.1388 H   0  0  0  0  0  0  0  0  0  0  0  0  # atno 10763 bound_to 10752
  153.2578  135.6933  153.7616 H   0  0  0  0  0  0  0  0  0  0  0  0  # atno 10764 bound_to 10752
  153.6904  135.3388  155.3176 H   0  0  0  0  0  0  0  0  0  0  0  0  # atno 10765 bound_to 10752
  141.0022  134.0386  157.3523 H   0  0  0  0  0  0  0  0  0  0  0  0  # atno 11005 bound_to 11000
  146.1666  140.6708  142.9252 LP  0  0  0  0  0  0  0  0  0  0  0  0  # atno 17320 bound_to 7965
  144.7363  140.4818  143.6901 LP  0  0  0  0  0  0  0  0  0  0  0  0  # atno 17321 bound_to 7965
  139.9773  144.6453  150.7933 LP  0  0  0  0  0  0  0  0  0  0  0  0  # atno 17342 bound_to 10162
  140.7545  143.3028  151.3036 LP  0  0  0  0  0  0  0  0  0  0  0  0  # atno 17343 bound_to 10162
  155.9738  130.4679  150.6340 LP  0  0  0  0  0  0  0  0  0  0  0  0  # atno 17370 bound_to 10713
  157.4042  131.0814  151.1280 LP  0  0  0  0  0  0  0  0  0  0  0  0  # atno 17371 bound_to 10713
  139.9045  135.0175  156.7421 LP  0  0  0  0  0  0  0  0  0  0  0  0  # atno 17394 bound_to 11000
  140.6870  133.9423  155.7944 LP  0  0  0  0  0  0  0  0  0  0  0  0  # atno 17395 bound_to 11000

$$$$
