AV-unprocessed.smi:1356|AV-procd|sdf|5547|dock2
  -GOLD-   22720 5133D 1   1.00000     0.00000
 Structure written by MMmdl.
 42 43  0  0  0  0  0  0  0  0  2 V2000
  148.1476  132.9228  152.3481 C   0  0  0  0  0  0  0  0  0  0  0  0
  148.6748  133.4469  153.6664 C   0  0  1  0  0  0  0  0  0  0  0  0
  149.4708  132.5572  154.5902 C   0  0  0  0  0  0  0  0  0  0  0  0
  150.1603  133.6894  153.8560 C   0  0  2  0  0  0  0  0  0  0  0  0
  150.5748  134.8803  154.6572 C   0  0  0  0  0  0  0  0  0  0  0  0
  151.3090  134.8051  155.6439 O   0  0  0  0  0  0  0  0  0  0  0  0
  150.0783  136.0414  154.2033 N   0  0  0  0  0  0  0  0  0  0  0  0
  150.3356  137.3509  154.7918 C   0  0  0  0  0  0  0  0  0  0  0  0
  151.8432  137.6678  154.8196 C   0  0  0  0  0  0  0  0  0  0  0  0
  152.1494  139.0552  155.3901 C   0  0  0  0  0  0  0  0  0  0  0  0
  153.2805  139.3330  155.7898 O   0  0  0  0  0  0  0  0  0  0  0  0
  151.1245  139.9206  155.4285 N   0  0  0  0  0  0  0  0  0  0  0  0
  151.1962  141.2823  155.9449 C   0  0  0  0  0  0  0  0  0  0  0  0
  150.5240  141.4057  157.3227 C   0  0  0  0  0  0  0  0  0  0  0  0
  151.1310  142.5160  158.1576 C   0  0  0  0  0  0  0  0  0  0  0  0
  152.1910  142.2827  159.0606 C   0  0  0  0  0  0  0  0  0  0  0  0
  152.7029  143.3592  159.8147 C   0  0  0  0  0  0  0  0  0  0  0  0
  152.1446  144.6440  159.6510 C   0  0  0  0  0  0  0  0  0  0  0  0
  151.0865  144.8200  158.7361 C   0  0  0  0  0  0  0  0  0  0  0  0
  150.6234  143.7636  158.0322 N   0  3  0  0  0  0  0  0  0  0  0  0
  148.8528  132.2225  151.8992 H   0  0  0  0  0  0  0  0  0  0  0  0
  147.9880  133.7483  151.6543 H   0  0  0  0  0  0  0  0  0  0  0  0
  147.1987  132.4091  152.5025 H   0  0  0  0  0  0  0  0  0  0  0  0
  147.9936  134.1437  154.1521 H   0  0  0  0  0  0  0  0  0  0  0  0
  149.2927  132.6610  155.6593 H   0  0  0  0  0  0  0  0  0  0  0  0
  149.7012  131.5457  154.2614 H   0  0  0  0  0  0  0  0  0  0  0  0
  150.8147  133.4081  153.0319 H   0  0  0  0  0  0  0  0  0  0  0  0
  149.4812  136.0158  153.3894 H   0  0  0  0  0  0  0  0  0  0  0  0
  149.8047  138.0935  154.1952 H   0  0  0  0  0  0  0  0  0  0  0  0
  149.9105  137.3985  155.7964 H   0  0  0  0  0  0  0  0  0  0  0  0
  152.3676  136.9167  155.4128 H   0  0  0  0  0  0  0  0  0  0  0  0
  152.2545  137.6117  153.8112 H   0  0  0  0  0  0  0  0  0  0  0  0
  150.2285  139.6082  155.0822 H   0  0  0  0  0  0  0  0  0  0  0  0
  152.2485  141.5582  156.0162 H   0  0  0  0  0  0  0  0  0  0  0  0
  150.7412  141.9744  155.2340 H   0  0  0  0  0  0  0  0  0  0  0  0
  149.4560  141.5954  157.2078 H   0  0  0  0  0  0  0  0  0  0  0  0
  150.6113  140.4645  157.8676 H   0  0  0  0  0  0  0  0  0  0  0  0
  152.6060  141.2918  159.1769 H   0  0  0  0  0  0  0  0  0  0  0  0
  153.5135  143.2008  160.5109 H   0  0  0  0  0  0  0  0  0  0  0  0
  152.5220  145.4816  160.2196 H   0  0  0  0  0  0  0  0  0  0  0  0
  150.5998  145.7659  158.5480 H   0  0  0  0  0  0  0  0  0  0  0  0
  149.8564  143.9135  157.3762 H   0  0  0  0  0  0  0  0  0  0  0  0
  1  2  1  0  0  0  0
  1 21  1  0  0  0  0
  1 22  1  0  0  0  0
  1 23  1  0  0  0  0
  2  4  1  0  0  0  0
  2  3  1  0  0  0  0
  2 24  1  0  0  0  0
  3  4  1  0  0  0  0
  3 25  1  0  0  0  0
  3 26  1  0  0  0  0
  4  5  1  0  0  0  0
  4 27  1  0  0  0  0
  5  6  2  0  0  0  0
  5  7  1  0  0  0  0
  7  8  1  0  0  0  0
  7 28  1  0  0  0  0
  8  9  1  0  0  0  0
  8 29  1  0  0  0  0
  8 30  1  0  0  0  0
  9 10  1  0  0  0  0
  9 31  1  0  0  0  0
  9 32  1  0  0  0  0
 10 11  2  0  0  0  0
 10 12  1  0  0  0  0
 12 13  1  0  0  0  0
 12 33  1  0  0  0  0
 13 14  1  0  0  0  0
 13 34  1  0  0  0  0
 13 35  1  0  0  0  0
 14 15  1  0  0  0  0
 14 36  1  0  0  0  0
 14 37  1  0  0  0  0
 15 20  1  0  0  0  0
 15 16  2  0  0  0  0
 16 17  1  0  0  0  0
 16 38  1  0  0  0  0
 17 18  2  0  0  0  0
 17 39  1  0  0  0  0
 18 19  1  0  0  0  0
 18 40  1  0  0  0  0
 19 20  2  0  0  0  0
 19 41  1  0  0  0  0
 20 42  1  0  0  0  0
M  CHG  1  20   1
M  END
> <s_m_source_file>
AV-unprocessed.smi

> <i_m_source_file_index>
1356

> <i_lp_mmshare_version>
43012

> <i_f3d_flags>
0

> <s_epik_input>
W0NIM11bQ0BASF0xW0NIMl1bQ0BIXTFDKD1PKVtOSF1bQ0gyXVtDSDJdQyg9TylbTkhdW0NIMl1bQ0gyXWMyW2NIXVtjSF1bY0hdW2NIXW4y

> <s_epik_cmdline>
J2VwaWtfcHl0aG9uJywgJy1waCcsICc3LjAnLCAnLXRuJywgJzgnLCAnLW1hJywgJzIwMCcsICctbWV0YWxfYmluZGluZycsICctaW1hZScsICc8aW5maWxlLm1hZT4nLCAnLW9tYWUnLCAnPG91dGZpbGUubWFlPic=

> <r_epik_Ionization_Penalty>
1.86966

> <r_epik_Ionization_Penalty_Charging>
1.86966

> <r_epik_Ionization_Penalty_Neutral>
5.0403e-08

> <r_epik_State_Penalty>
1.98858

> <r_epik_Charging_Adjusted_Penalty>
3.85824

> <i_epik_Tot_Q>
1

> <i_epik_Tot_abs_Q>
1

> <r_epik_Metal_State_Penalty>
2.01347

> <b_epik_Metal_Only>
0

> <s_lp_Force_Field>
OPLS_2005

> <r_lp_Energy>
12.6209

> <b_lp_Chiralities_Consistent>
1

> <s_lp_Variant>
AV-unprocessed.smi:1356-8

> <Gold.Version>
5.8.1

> <Gold.Id.Protein>
6NUR|6NUR_protein|mol2

> <Gold.PLP.Fitness>
57.4770

> <Gold.PLP.PLP>
-44.8339

> <Gold.PLP.part.hbond>
-4.2837

> <Gold.PLP.part.metal>
0.0000

> <Gold.PLP.part.buried>
-4.4155

> <Gold.PLP.part.nonpolar>
-34.2221

> <Gold.PLP.part.repulsive>
0.2662

> <Gold.PLP.ligand.clash>
0.0000

> <Gold.PLP.ligand.torsion>
0.9179

> <Gold.PLP.Chemscore.Hbond>
4.7610

> <Gold.PLP.Chemscore.CHOScore>
0.0000

> <Gold.PLP.Chemscore.Metal>
0.0000

> <Gold.Chemscore.Hbonds>
donor molecule, donor type, donor heavy atom, donor atom, acceptor molecule, acceptor atom, score
      L1  H     7    28       P1  7948  1.00
      L1  H    20    42       P1  8028  1.59
      P1  H  7997  8010       L1    11  0.81
      P1  H 10752 10763       L1     6  0.72

> <Gold.PLP.Chemscore.Internal.Correction>
0.1959

> <Gold.Rescore>
     Score         DG    S(hbond)    S(metal)    S(lipo)     H(rot)  DE(clash)    DE(int)     intcor
     16.93     -17.80       1.86        0.00     102.92       2.31       0.05       0.82       ----

> <Gold.Chemscore.Fitness>
16.9283

> <Gold.Chemscore.DG>
-17.7989

> <Gold.Chemscore.ZeroCoef>
-5.4800

> <Gold.Chemscore.Hbond>
1.8566

> <Gold.Chemscore.Metal>
0.0000

> <Gold.Chemscore.Lipo>
102.9201

> <Gold.Chemscore.Internal_Hbond>
0.0000

> <Gold.Chemscore.DEClash>
0.0463

> <Gold.Chemscore.DEInternal>
0.8243

> <Gold.Chemscore.Rot>
2.3140

> <Gold.Chemscore.Internal.Correction>
   9.000000E+99

> <Gold.Chemscore.Hbonds>
donor molecule, donor type, donor heavy atom, donor atom, acceptor molecule, acceptor atom, score
      L1  H     7    28       P1  7948  0.39
      L1  H    20    42       P1  8028  0.54
      P1  H  7997  8010       L1    11  0.77
      P1  H 10752 10763       L1     6  0.14

> <Gold.Chemscore.Hbond.Weighted>
-6.2010

> <Gold.Chemscore.Metal.Weighted>
-0.0000

> <Gold.Chemscore.Lipo.Weighted>
-12.0417

> <Gold.Chemscore.Internal_Hbond.Weighted>
0.0000

> <Gold.Chemscore.DEClash.Weighted>
0.0463

> <Gold.Chemscore.DEInternal.Weighted>
0.8243

> <Gold.Chemscore.Rot.Weighted>
5.9238

> <Gold.Chemscore.Internal.Correction.Weighted>
   9.000000E+99

> <Gold.Protein.RotatedTorsions>
[ 6907 6896 6895 6894 ] final  -18.30 input  -60.11 | X-H torsion
[ 7974 7965 7964 7962 ] final   45.79 input  175.53 | X-H torsion
[ 8008 7997 7996 7995 ] final  108.63 input   59.86 | X-H torsion
[ 10167 10162 10161 10158 ] final   19.49 input  -65.29 | X-H torsion
[ 10718 10713 10712 10709 ] final   45.36 input   66.30 | X-H torsion
[ 10763 10752 10751 10750 ] final   71.98 input  -60.55 | X-H torsion
[ 11005 11000 10999 10996 ] final  154.72 input  -57.11 | X-H torsion

> <Gold.Protein.ActiveResidues>
 VAL166  LYS551  ARG553  GLY616  TRP617  ASP618  TYR619  PRO620  LYS621  CYS622 
 ASP623  PHE694  ASN695  SER759  ASP760  ASP761  ALA762  ILE779  LEU786  VAL792 
 PHE793  MET794  SER795  GLU796  ALA797  LYS798  CYS799  TRP800  GLU811  SER814 

> <Gold.Protein.RotatedAtoms>
  151.2802  135.0711  159.9166 H   0  0  0  0  0  0  0  0  0  0  0  0  # atno 6907 bound_to 6896
  152.5335  134.0039  159.7917 H   0  0  0  0  0  0  0  0  0  0  0  0  # atno 6908 bound_to 6896
  151.0291  133.5756  159.2693 H   0  0  0  0  0  0  0  0  0  0  0  0  # atno 6909 bound_to 6896
  146.0448  139.4925  142.9755 H   0  0  0  0  0  0  0  0  0  0  0  0  # atno 7974 bound_to 7965
  156.1918  140.3073  155.9347 H   0  0  0  0  0  0  0  0  0  0  0  0  # atno 8008 bound_to 7997
  155.3157  140.0453  157.3054 H   0  0  0  0  0  0  0  0  0  0  0  0  # atno 8009 bound_to 7997
  154.5461  140.2277  155.8570 H   0  0  0  0  0  0  0  0  0  0  0  0  # atno 8010 bound_to 7997
  140.5575  143.9398  150.6619 H   0  0  0  0  0  0  0  0  0  0  0  0  # atno 10167 bound_to 10162
  157.4367  130.8057  149.7654 H   0  0  0  0  0  0  0  0  0  0  0  0  # atno 10718 bound_to 10713
  153.0431  135.5117  154.7675 H   0  0  0  0  0  0  0  0  0  0  0  0  # atno 10763 bound_to 10752
  154.6596  135.2937  154.9885 H   0  0  0  0  0  0  0  0  0  0  0  0  # atno 10764 bound_to 10752
  154.0741  135.6673  153.4881 H   0  0  0  0  0  0  0  0  0  0  0  0  # atno 10765 bound_to 10752
  140.1515  134.8671  157.2460 H   0  0  0  0  0  0  0  0  0  0  0  0  # atno 11005 bound_to 11000
  145.6824  141.0187  143.1599 LP  0  0  0  0  0  0  0  0  0  0  0  0  # atno 17320 bound_to 7965
  144.7092  139.8437  143.7420 LP  0  0  0  0  0  0  0  0  0  0  0  0  # atno 17321 bound_to 7965
  140.2840  143.3370  152.1125 LP  0  0  0  0  0  0  0  0  0  0  0  0  # atno 17342 bound_to 10162
  139.5055  144.6795  151.6044 LP  0  0  0  0  0  0  0  0  0  0  0  0  # atno 17343 bound_to 10162
  155.9933  130.3925  150.2906 LP  0  0  0  0  0  0  0  0  0  0  0  0  # atno 17370 bound_to 10713
  157.1067  131.0210  151.3064 LP  0  0  0  0  0  0  0  0  0  0  0  0  # atno 17371 bound_to 10713
  140.2599  134.3584  155.7410 LP  0  0  0  0  0  0  0  0  0  0  0  0  # atno 17394 bound_to 11000
  141.2199  133.7363  156.9064 LP  0  0  0  0  0  0  0  0  0  0  0  0  # atno 17395 bound_to 11000

$$$$
