AV-unprocessed.smi:2091|AV-procd|sdf|8541|dock1
  -GOLD-   2272011263D 1   1.00000     0.00000
 Structure written by MMmdl.
 35 36  0  0  0  0  0  0  0  0  2 V2000
  147.9797  132.0391  153.6565 O   0  0  0  0  0  0  0  0  0  0  0  0
  148.3708  133.1725  153.3735 C   0  0  0  0  0  0  0  0  0  0  0  0
  149.7197  133.6883  153.8921 C   0  0  0  0  0  0  0  0  0  0  0  0
  150.2543  132.8824  155.0016 N   0  0  0  0  0  0  0  0  0  0  0  0
  150.5978  131.5455  154.7335 C   0  0  0  0  0  0  0  0  0  0  0  0
  151.0946  130.7346  155.6870 C   0  0  0  0  0  0  0  0  0  0  0  0
  151.2747  131.2758  157.0284 C   0  0  0  0  0  0  0  0  0  0  0  0
  151.7329  130.5515  157.9100 O   0  0  0  0  0  0  0  0  0  0  0  0
  150.9209  132.5773  157.2404 N   0  5  0  0  0  0  0  0  0  0  0  0
  150.4138  133.3896  156.2614 C   0  0  0  0  0  0  0  0  0  0  0  0
  150.0983  134.5609  156.4748 O   0  0  0  0  0  0  0  0  0  0  0  0
  147.6817  134.0135  152.5860 N   0  0  0  0  0  0  0  0  0  0  0  0
  146.3862  133.7292  151.9648 C   0  0  1  0  0  0  0  0  0  0  0  0
  146.5888  132.5514  150.9841 C   0  0  0  0  0  0  0  0  0  0  0  0
  145.5182  132.4690  149.8820 C   0  0  0  0  0  0  0  0  0  0  0  0
  144.0959  132.1705  150.3797 C   0  0  0  0  0  0  0  0  0  0  0  0
  143.5261  133.2543  151.3106 C   0  0  0  0  0  0  0  0  0  0  0  0
  144.0646  133.1557  152.6609 N   0  0  0  0  0  0  0  0  0  0  0  0
  145.3425  133.3263  153.0331 C   0  0  0  0  0  0  0  0  0  0  0  0
  145.6749  133.1587  154.2066 O   0  0  0  0  0  0  0  0  0  0  0  0
  150.4203  133.6994  153.0563 H   0  0  0  0  0  0  0  0  0  0  0  0
  149.6251  134.7317  154.1996 H   0  0  0  0  0  0  0  0  0  0  0  0
  150.4278  131.2217  153.7173 H   0  0  0  0  0  0  0  0  0  0  0  0
  151.3509  129.7093  155.4652 H   0  0  0  0  0  0  0  0  0  0  0  0
  148.0856  134.9194  152.3989 H   0  0  0  0  0  0  0  0  0  0  0  0
  146.0486  134.6151  151.4241 H   0  0  0  0  0  0  0  0  0  0  0  0
  147.5510  132.6682  150.4832 H   0  0  0  0  0  0  0  0  0  0  0  0
  146.6534  131.6026  151.5198 H   0  0  0  0  0  0  0  0  0  0  0  0
  145.5150  133.3985  149.3112 H   0  0  0  0  0  0  0  0  0  0  0  0
  145.8071  131.6899  149.1760 H   0  0  0  0  0  0  0  0  0  0  0  0
  143.4445  132.0865  149.5091 H   0  0  0  0  0  0  0  0  0  0  0  0
  144.0640  131.1970  150.8709 H   0  0  0  0  0  0  0  0  0  0  0  0
  143.6915  134.2530  150.9039 H   0  0  0  0  0  0  0  0  0  0  0  0
  142.4458  133.1292  151.3865 H   0  0  0  0  0  0  0  0  0  0  0  0
  143.4071  132.9041  153.3849 H   0  0  0  0  0  0  0  0  0  0  0  0
  1  2  2  0  0  0  0
  2  3  1  0  0  0  0
  2 12  1  0  0  0  0
  3  4  1  0  0  0  0
  3 21  1  0  0  0  0
  3 22  1  0  0  0  0
  4 10  1  0  0  0  0
  4  5  1  0  0  0  0
  5  6  2  0  0  0  0
  5 23  1  0  0  0  0
  6  7  1  0  0  0  0
  6 24  1  0  0  0  0
  7  8  2  0  0  0  0
  7  9  1  0  0  0  0
  9 10  1  0  0  0  0
 10 11  2  0  0  0  0
 12 13  1  0  0  0  0
 12 25  1  0  0  0  0
 13 19  1  0  0  0  0
 13 14  1  0  0  0  0
 13 26  1  0  0  0  0
 14 15  1  0  0  0  0
 14 27  1  0  0  0  0
 14 28  1  0  0  0  0
 15 16  1  0  0  0  0
 15 29  1  0  0  0  0
 15 30  1  0  0  0  0
 16 17  1  0  0  0  0
 16 31  1  0  0  0  0
 16 32  1  0  0  0  0
 17 18  1  0  0  0  0
 17 33  1  0  0  0  0
 17 34  1  0  0  0  0
 18 19  1  0  0  0  0
 18 35  1  0  0  0  0
 19 20  2  0  0  0  0
M  CHG  1   9  -1
M  END
> <s_m_source_file>
AV-unprocessed.smi

> <i_m_source_file_index>
2091

> <i_lp_mmshare_version>
43012

> <i_f3d_flags>
0

> <s_epik_input>
Tz1jMVtuSF1jKD1PKVtjSF1bY0hdbjFbQ0gyXUMoPU8pW05IXVtDQEBIXTJbQ0gyXVtDSDJdW0NIMl1bQ0gyXVtOSF1DMj1P

> <s_epik_cmdline>
J2VwaWtfcHl0aG9uJywgJy1waCcsICc3LjAnLCAnLXRuJywgJzgnLCAnLW1hJywgJzIwMCcsICctbWV0YWxfYmluZGluZycsICctaW1hZScsICc8aW5maWxlLm1hZT4nLCAnLW9tYWUnLCAnPG91dGZpbGUubWFlPic=

> <r_lp_tautomer_probability>
0.999537

> <r_epik_Ionization_Penalty>
3.03155

> <r_epik_Ionization_Penalty_Charging>
2.38195e-08

> <r_epik_Ionization_Penalty_Neutral>
3.03155

> <r_epik_State_Penalty>
3.03052

> <r_epik_Charging_Adjusted_Penalty>
3.03052

> <i_epik_Tot_Q>
-1

> <i_epik_Tot_abs_Q>
1

> <r_epik_Metal_State_Penalty>
0.455936

> <b_epik_Metal_Only>
1

> <s_lp_Force_Field>
OPLS_2005

> <r_lp_Energy>
21.0556

> <b_lp_Chiralities_Consistent>
1

> <s_lp_Variant>
AV-unprocessed.smi:2091-4

> <Gold.Version>
5.8.1

> <Gold.Id.Protein>
6NUR|6NUR_protein|mol2

> <Gold.PLP.Fitness>
41.6523

> <Gold.PLP.PLP>
-30.1771

> <Gold.PLP.part.hbond>
-3.0000

> <Gold.PLP.part.metal>
0.0000

> <Gold.PLP.part.buried>
-2.4921

> <Gold.PLP.part.nonpolar>
-23.9821

> <Gold.PLP.part.repulsive>
0.2000

> <Gold.PLP.ligand.clash>
0.0000

> <Gold.PLP.ligand.torsion>
0.2308

> <Gold.PLP.Chemscore.Hbond>
3.9760

> <Gold.PLP.Chemscore.CHOScore>
0.0000

> <Gold.PLP.Chemscore.Metal>
0.0000

> <Gold.Chemscore.Hbonds>
donor molecule, donor type, donor heavy atom, donor atom, acceptor molecule, acceptor atom, score
      L1  H    12    25       P1  7948  1.00
      L1  H    18    35       P1 10957  1.00
      P1  H  6896  6909       L1     9  1.33

> <Gold.PLP.Chemscore.Internal.Correction>
0.0089

> <Gold.Rescore>
     Score         DG    S(hbond)    S(metal)    S(lipo)     H(rot)  DE(clash)    DE(int)     intcor
     10.12     -16.04       2.73        0.00      52.81       1.85       0.00       5.92       ----

> <Gold.Chemscore.Fitness>
10.1206

> <Gold.Chemscore.DG>
-16.0371

> <Gold.Chemscore.ZeroCoef>
-5.4800

> <Gold.Chemscore.Hbond>
2.7302

> <Gold.Chemscore.Metal>
0.0000

> <Gold.Chemscore.Lipo>
52.8115

> <Gold.Chemscore.Internal_Hbond>
0.0000

> <Gold.Chemscore.DEClash>
0.0000

> <Gold.Chemscore.DEInternal>
5.9165

> <Gold.Chemscore.Rot>
1.8519

> <Gold.Chemscore.Internal.Correction>
   9.000000E+99

> <Gold.Chemscore.Hbonds>
donor molecule, donor type, donor heavy atom, donor atom, acceptor molecule, acceptor atom, score
      L1  H    12    25       P1  7948  0.69
      L1  H    18    35       P1 10957  0.72
      P1  H  6896  6909       L1     9  0.58

> <Gold.Chemscore.Hbond.Weighted>
-9.1189

> <Gold.Chemscore.Metal.Weighted>
-0.0000

> <Gold.Chemscore.Lipo.Weighted>
-6.1789

> <Gold.Chemscore.Internal_Hbond.Weighted>
0.0000

> <Gold.Chemscore.DEClash.Weighted>
0.0000

> <Gold.Chemscore.DEInternal.Weighted>
5.9165

> <Gold.Chemscore.Rot.Weighted>
4.7408

> <Gold.Chemscore.Internal.Correction.Weighted>
   9.000000E+99

> <Gold.Protein.RotatedTorsions>
[ 6907 6896 6895 6894 ] final  -43.54 input  -60.11 | X-H torsion
[ 7974 7965 7964 7962 ] final  162.08 input  175.53 | X-H torsion
[ 8008 7997 7996 7995 ] final  117.01 input   59.86 | X-H torsion
[ 10167 10162 10161 10158 ] final -151.03 input  -65.29 | X-H torsion
[ 10718 10713 10712 10709 ] final -104.63 input   66.30 | X-H torsion
[ 10763 10752 10751 10750 ] final   -3.89 input  -60.55 | X-H torsion
[ 11005 11000 10999 10996 ] final  102.62 input  -57.11 | X-H torsion

> <Gold.Protein.ActiveResidues>
 VAL166  LYS551  ARG553  GLY616  TRP617  ASP618  TYR619  PRO620  LYS621  CYS622 
 ASP623  PHE694  ASN695  SER759  ASP760  ASP761  ALA762  ILE779  LEU786  VAL792 
 PHE793  MET794  SER795  GLU796  ALA797  LYS798  CYS799  TRP800  GLU811  SER814 

> <Gold.Protein.RotatedAtoms>
  150.9428  134.8836  159.7622 H   0  0  0  0  0  0  0  0  0  0  0  0  # atno 6907 bound_to 6896
  152.5087  134.3917  159.9396 H   0  0  0  0  0  0  0  0  0  0  0  0  # atno 6908 bound_to 6896
  151.3937  133.3740  159.2759 H   0  0  0  0  0  0  0  0  0  0  0  0  # atno 6909 bound_to 6896
  144.7654  139.7989  143.6317 H   0  0  0  0  0  0  0  0  0  0  0  0  # atno 7974 bound_to 7965
  156.2471  140.2905  156.0611 H   0  0  0  0  0  0  0  0  0  0  0  0  # atno 8008 bound_to 7997
  155.1774  140.0403  157.2892 H   0  0  0  0  0  0  0  0  0  0  0  0  # atno 8009 bound_to 7997
  154.6283  140.2493  155.7471 H   0  0  0  0  0  0  0  0  0  0  0  0  # atno 8010 bound_to 7997
  139.7302  143.8819  152.2532 H   0  0  0  0  0  0  0  0  0  0  0  0  # atno 10167 bound_to 10162
  156.0312  130.5525  150.7424 H   0  0  0  0  0  0  0  0  0  0  0  0  # atno 10718 bound_to 10713
  153.3774  135.6997  153.6591 H   0  0  0  0  0  0  0  0  0  0  0  0  # atno 10763 bound_to 10752
  153.5217  135.3610  155.2635 H   0  0  0  0  0  0  0  0  0  0  0  0  # atno 10764 bound_to 10752
  154.8688  135.4159  154.3065 H   0  0  0  0  0  0  0  0  0  0  0  0  # atno 10765 bound_to 10752
  139.8778  134.9231  156.5085 H   0  0  0  0  0  0  0  0  0  0  0  0  # atno 11005 bound_to 11000
  146.1756  139.4926  142.9899 LP  0  0  0  0  0  0  0  0  0  0  0  0  # atno 17320 bound_to 7965
  145.6487  141.0268  143.1772 LP  0  0  0  0  0  0  0  0  0  0  0  0  # atno 17321 bound_to 7965
  139.8740  144.7053  150.8954 LP  0  0  0  0  0  0  0  0  0  0  0  0  # atno 17342 bound_to 10162
  140.7770  143.3714  151.1642 LP  0  0  0  0  0  0  0  0  0  0  0  0  # atno 17343 bound_to 10162
  157.4990  131.0917  151.0337 LP  0  0  0  0  0  0  0  0  0  0  0  0  # atno 17370 bound_to 10713
  157.0723  130.5869  149.5405 LP  0  0  0  0  0  0  0  0  0  0  0  0  # atno 17371 bound_to 10713
  140.8537  133.8112  155.9195 LP  0  0  0  0  0  0  0  0  0  0  0  0  # atno 17394 bound_to 11000
  140.9118  134.2250  157.4981 LP  0  0  0  0  0  0  0  0  0  0  0  0  # atno 17395 bound_to 11000

$$$$
