AV-unprocessed.smi:1585|AV-procd|sdf|6369|dock4
  -GOLD-   22720 6593D 1   1.00000     0.00000
 Structure written by MMmdl.
 43 44  0  0  0  0  0  0  0  0  2 V2000
  151.0687  142.1957  156.3431 C   0  0  0  0  0  0  0  0  0  0  0  0
  150.7130  141.0294  155.4856 C   0  0  0  0  0  0  0  0  0  0  0  0
  149.5352  140.6016  154.9401 C   0  0  0  0  0  0  0  0  0  0  0  0
  149.9143  139.4226  154.2448 C   0  0  0  0  0  0  0  0  0  0  0  0
  148.9570  138.6596  153.5283 N   0  0  0  0  0  0  0  0  0  0  0  0
  147.6191  138.7789  153.5719 C   0  0  0  0  0  0  0  0  0  0  0  0
  147.0000  139.5891  154.2623 O   0  0  0  0  0  0  0  0  0  0  0  0
  147.0203  137.8937  152.7613 N   0  0  0  0  0  0  0  0  0  0  0  0
  145.5777  137.7880  152.5635 C   0  0  0  0  0  0  0  0  0  0  0  0
  145.1826  136.4834  151.8403 C   0  0  2  0  0  0  0  0  0  0  0  0
  143.8170  136.5755  151.4856 O   0  0  0  0  0  0  0  0  0  0  0  0
  145.3458  135.2558  152.7597 C   0  0  0  0  0  0  0  0  0  0  0  0
  145.2482  133.9704  152.0210 N   0  3  0  0  0  0  0  0  0  0  0  0
  146.1119  133.9491  150.8115 C   0  0  0  0  0  0  0  0  0  0  0  0
  146.1072  132.5618  150.1471 C   0  0  0  0  0  0  0  0  0  0  0  0
  144.6786  132.1180  149.8069 C   0  0  0  0  0  0  0  0  0  0  0  0
  143.7985  132.1804  151.0618 C   0  0  0  0  0  0  0  0  0  0  0  0
  143.8487  133.5783  151.7007 C   0  0  0  0  0  0  0  0  0  0  0  0
  151.2070  139.1559  154.3537 N   0  0  0  0  0  0  0  0  0  0  0  0
  151.7253  140.1839  155.1499 O   0  0  0  0  0  0  0  0  0  0  0  0
  150.3593  143.0116  156.2031 H   0  0  0  0  0  0  0  0  0  0  0  0
  152.0639  142.5692  156.1008 H   0  0  0  0  0  0  0  0  0  0  0  0
  151.0596  141.9158  157.3967 H   0  0  0  0  0  0  0  0  0  0  0  0
  148.5610  141.0592  155.0285 H   0  0  0  0  0  0  0  0  0  0  0  0
  149.3320  137.9525  152.9136 H   0  0  0  0  0  0  0  0  0  0  0  0
  147.6017  137.2636  152.2278 H   0  0  0  0  0  0  0  0  0  0  0  0
  145.0987  137.8317  153.5434 H   0  0  0  0  0  0  0  0  0  0  0  0
  145.2205  138.6625  152.0183 H   0  0  0  0  0  0  0  0  0  0  0  0
  145.7785  136.3607  150.9369 H   0  0  0  0  0  0  0  0  0  0  0  0
  143.7234  137.2473  150.8268 H   0  0  0  0  0  0  0  0  0  0  0  0
  146.3026  135.2918  153.2833 H   0  0  0  0  0  0  0  0  0  0  0  0
  144.5770  135.2994  153.5331 H   0  0  0  0  0  0  0  0  0  0  0  0
  145.7703  134.7075  150.1051 H   0  0  0  0  0  0  0  0  0  0  0  0
  147.1357  134.2078  151.0843 H   0  0  0  0  0  0  0  0  0  0  0  0
  146.7165  132.5793  149.2429 H   0  0  0  0  0  0  0  0  0  0  0  0
  146.5677  131.8339  150.8164 H   0  0  0  0  0  0  0  0  0  0  0  0
  144.2649  132.7652  149.0327 H   0  0  0  0  0  0  0  0  0  0  0  0
  144.6843  131.1066  149.3996 H   0  0  0  0  0  0  0  0  0  0  0  0
  142.7697  131.9226  150.8083 H   0  0  0  0  0  0  0  0  0  0  0  0
  144.1351  131.4353  151.7842 H   0  0  0  0  0  0  0  0  0  0  0  0
  143.2358  133.5738  152.6010 H   0  0  0  0  0  0  0  0  0  0  0  0
  143.4085  134.3140  151.0256 H   0  0  0  0  0  0  0  0  0  0  0  0
  145.6181  133.2641  152.6415 H   0  0  0  0  0  0  0  0  0  0  0  0
  1  2  1  0  0  0  0
  1 21  1  0  0  0  0
  1 22  1  0  0  0  0
  1 23  1  0  0  0  0
  2 20  1  0  0  0  0
  2  3  2  0  0  0  0
  3  4  1  0  0  0  0
  3 24  1  0  0  0  0
  4  5  1  0  0  0  0
  4 19  2  0  0  0  0
  5  6  1  0  0  0  0
  5 25  1  0  0  0  0
  6  7  2  0  0  0  0
  6  8  1  0  0  0  0
  8  9  1  0  0  0  0
  8 26  1  0  0  0  0
  9 10  1  0  0  0  0
  9 27  1  0  0  0  0
  9 28  1  0  0  0  0
 10 11  1  0  0  0  0
 10 12  1  0  0  0  0
 10 29  1  0  0  0  0
 11 30  1  0  0  0  0
 12 13  1  0  0  0  0
 12 31  1  0  0  0  0
 12 32  1  0  0  0  0
 13 18  1  0  0  0  0
 13 14  1  0  0  0  0
 13 43  1  0  0  0  0
 14 15  1  0  0  0  0
 14 33  1  0  0  0  0
 14 34  1  0  0  0  0
 15 16  1  0  0  0  0
 15 35  1  0  0  0  0
 15 36  1  0  0  0  0
 16 17  1  0  0  0  0
 16 37  1  0  0  0  0
 16 38  1  0  0  0  0
 17 18  1  0  0  0  0
 17 39  1  0  0  0  0
 17 40  1  0  0  0  0
 18 41  1  0  0  0  0
 18 42  1  0  0  0  0
 19 20  1  0  0  0  0
M  CHG  1  13   1
M  END
> <s_m_source_file>
AV-unprocessed.smi

> <i_m_source_file_index>
1585

> <i_lp_mmshare_version>
43012

> <i_f3d_flags>
0

> <s_epik_input>
W0NIM11jMVtjSF1jKG5vMSlbTkhdQyg9TylbTkhdW0NIMl1bQ0BIXShbT0hdKVtDSDJdTjJbQ0gyXVtDSDJdW0NIMl1bQ0gyXVtDSDJdMg==

> <s_epik_cmdline>
J2VwaWtfcHl0aG9uJywgJy1waCcsICc3LjAnLCAnLXRuJywgJzgnLCAnLW1hJywgJzIwMCcsICctbWV0YWxfYmluZGluZycsICctaW1hZScsICc8aW5maWxlLm1hZT4nLCAnLW9tYWUnLCAnPG91dGZpbGUubWFlPic=

> <r_epik_Ionization_Penalty>
0.00531443

> <r_epik_Ionization_Penalty_Charging>
0.0052814

> <r_epik_Ionization_Penalty_Neutral>
3.3027e-05

> <r_epik_State_Penalty>
0.00385383

> <r_epik_Charging_Adjusted_Penalty>
0.00913523

> <i_epik_Tot_Q>
1

> <i_epik_Tot_abs_Q>
1

> <r_epik_Metal_State_Penalty>
0.0139186

> <b_epik_Metal_Only>
0

> <s_lp_Force_Field>
OPLS_2005

> <r_lp_Energy>
15.3919

> <b_lp_Chiralities_Consistent>
1

> <s_lp_Variant>
AV-unprocessed.smi:1585-1

> <Gold.Version>
5.8.1

> <Gold.Id.Protein>
6NUR|6NUR_protein|mol2

> <Gold.PLP.Fitness>
45.0809

> <Gold.PLP.PLP>
-36.9180

> <Gold.PLP.part.hbond>
-6.0000

> <Gold.PLP.part.metal>
0.0000

> <Gold.PLP.part.buried>
-4.6813

> <Gold.PLP.part.nonpolar>
-26.8401

> <Gold.PLP.part.repulsive>
0.3747

> <Gold.PLP.ligand.clash>
0.0000

> <Gold.PLP.ligand.torsion>
0.3606

> <Gold.PLP.Chemscore.Hbond>
2.9360

> <Gold.PLP.Chemscore.CHOScore>
0.0000

> <Gold.PLP.Chemscore.Metal>
0.0000

> <Gold.Chemscore.Hbonds>
donor molecule, donor type, donor heavy atom, donor atom, acceptor molecule, acceptor atom, score
      L1  H     5    25       P1  7948  0.96
      L1  H     8    26       P1  7948  1.00
      L1  H    11    30       P1 10171  1.00

> <Gold.PLP.Chemscore.Internal.Correction>
0.0761

> <Gold.Rescore>
     Score         DG    S(hbond)    S(metal)    S(lipo)     H(rot)  DE(clash)    DE(int)     intcor
     16.21     -18.24       2.93        0.00      80.04       2.50       0.19       1.84       ----

> <Gold.Chemscore.Fitness>
16.2078

> <Gold.Chemscore.DG>
-18.2357

> <Gold.Chemscore.ZeroCoef>
-5.4800

> <Gold.Chemscore.Hbond>
2.9277

> <Gold.Chemscore.Metal>
0.0000

> <Gold.Chemscore.Lipo>
80.0443

> <Gold.Chemscore.Internal_Hbond>
0.0000

> <Gold.Chemscore.DEClash>
0.1929

> <Gold.Chemscore.DEInternal>
1.8351

> <Gold.Chemscore.Rot>
2.4953

> <Gold.Chemscore.Internal.Correction>
   9.000000E+99

> <Gold.Chemscore.Hbonds>
donor molecule, donor type, donor heavy atom, donor atom, acceptor molecule, acceptor atom, score
      L1  H     5    25       P1  7948  0.82
      L1  H     8    26       P1  7948  0.99
      L1  H    11    30       P1 10171  1.00

> <Gold.Chemscore.Hbond.Weighted>
-9.7785

> <Gold.Chemscore.Metal.Weighted>
-0.0000

> <Gold.Chemscore.Lipo.Weighted>
-9.3652

> <Gold.Chemscore.Internal_Hbond.Weighted>
0.0000

> <Gold.Chemscore.DEClash.Weighted>
0.1929

> <Gold.Chemscore.DEInternal.Weighted>
1.8351

> <Gold.Chemscore.Rot.Weighted>
6.3880

> <Gold.Chemscore.Internal.Correction.Weighted>
   9.000000E+99

> <Gold.Protein.RotatedTorsions>
[ 6907 6896 6895 6894 ] final -152.91 input  -60.11 | X-H torsion
[ 7974 7965 7964 7962 ] final  162.84 input  175.53 | X-H torsion
[ 8008 7997 7996 7995 ] final  -61.16 input   59.86 | X-H torsion
[ 10167 10162 10161 10158 ] final   21.51 input  -65.29 | X-H torsion
[ 10718 10713 10712 10709 ] final -177.47 input   66.30 | X-H torsion
[ 10763 10752 10751 10750 ] final -100.48 input  -60.55 | X-H torsion
[ 11005 11000 10999 10996 ] final  162.90 input  -57.11 | X-H torsion

> <Gold.Protein.ActiveResidues>
 VAL166  LYS551  ARG553  GLY616  TRP617  ASP618  TYR619  PRO620  LYS621  CYS622 
 ASP623  PHE694  ASN695  SER759  ASP760  ASP761  ALA762  ILE779  LEU786  VAL792 
 PHE793  MET794  SER795  GLU796  ALA797  LYS798  CYS799  TRP800  GLU811  SER814 

> <Gold.Protein.RotatedAtoms>
  151.2348  133.4431  159.2604 H   0  0  0  0  0  0  0  0  0  0  0  0  # atno 6907 bound_to 6896
  151.0760  134.9829  159.8343 H   0  0  0  0  0  0  0  0  0  0  0  0  # atno 6908 bound_to 6896
  152.5418  134.2290  159.8870 H   0  0  0  0  0  0  0  0  0  0  0  0  # atno 6909 bound_to 6896
  144.7617  139.8097  143.6330 H   0  0  0  0  0  0  0  0  0  0  0  0  # atno 7974 bound_to 7965
  154.4434  140.1023  156.6387 H   0  0  0  0  0  0  0  0  0  0  0  0  # atno 8008 bound_to 7997
  155.5525  140.3486  155.4453 H   0  0  0  0  0  0  0  0  0  0  0  0  # atno 8009 bound_to 7997
  156.0519  140.1306  157.0030 H   0  0  0  0  0  0  0  0  0  0  0  0  # atno 8010 bound_to 7997
  140.5421  143.9658  150.6525 H   0  0  0  0  0  0  0  0  0  0  0  0  # atno 10167 bound_to 10162
  156.8300  130.9650  151.3107 H   0  0  0  0  0  0  0  0  0  0  0  0  # atno 10718 bound_to 10713
  154.7582  135.4933  153.9415 H   0  0  0  0  0  0  0  0  0  0  0  0  # atno 10763 bound_to 10752
  153.1221  135.6734  153.9327 H   0  0  0  0  0  0  0  0  0  0  0  0  # atno 10764 bound_to 10752
  153.9055  135.3105  155.3427 H   0  0  0  0  0  0  0  0  0  0  0  0  # atno 10765 bound_to 10752
  140.2304  134.8128  157.3311 H   0  0  0  0  0  0  0  0  0  0  0  0  # atno 11005 bound_to 11000
  146.1687  139.4829  142.9941 LP  0  0  0  0  0  0  0  0  0  0  0  0  # atno 17320 bound_to 7965
  145.6597  141.0243  143.1715 LP  0  0  0  0  0  0  0  0  0  0  0  0  # atno 17321 bound_to 7965
  140.3062  143.3228  152.0924 LP  0  0  0  0  0  0  0  0  0  0  0  0  # atno 17342 bound_to 10162
  139.4993  144.6666  151.6343 LP  0  0  0  0  0  0  0  0  0  0  0  0  # atno 17343 bound_to 10162
  157.6412  130.8807  149.9452 LP  0  0  0  0  0  0  0  0  0  0  0  0  # atno 17370 bound_to 10713
  156.0940  130.3661  150.0342 LP  0  0  0  0  0  0  0  0  0  0  0  0  # atno 17371 bound_to 10713
  140.1756  134.4553  155.7803 LP  0  0  0  0  0  0  0  0  0  0  0  0  # atno 17394 bound_to 11000
  141.2218  133.6961  156.7782 LP  0  0  0  0  0  0  0  0  0  0  0  0  # atno 17395 bound_to 11000

$$$$
