AV-unprocessed.smi:999|AV-procd|sdf|4352|dock2
  -GOLD-   22720 2253D 1   1.00000     0.00000
 Structure written by MMmdl.
 37 38  0  0  0  0  0  0  0  0  2 V2000
  145.2464  135.8331  152.2163 C   0  0  0  0  0  0  0  0  0  0  0  0
  146.1829  134.6833  151.7908 C   0  0  1  0  0  0  0  0  0  0  0  0
  146.7163  133.8763  152.9852 C   0  0  0  0  0  0  0  0  0  0  0  0
  146.0144  133.0264  153.5348 O   0  0  0  0  0  0  0  0  0  0  0  0
  147.9715  134.1542  153.3726 N   0  0  0  0  0  0  0  0  0  0  0  0
  148.6898  133.4929  154.4572 C   0  0  2  0  0  0  0  0  0  0  0  0
  149.9028  134.3475  154.8654 C   0  0  0  0  0  0  0  0  0  0  0  0
  150.7275  133.6656  155.9684 C   0  0  0  0  0  0  0  0  0  0  0  0
  151.1834  132.2494  155.5436 C   0  0  1  0  0  0  0  0  0  0  0  0
  151.9980  131.5424  156.6466 C   0  0  0  0  0  0  0  0  0  0  0  0
  152.5001  130.4325  156.3617 O   0  0  0  0  0  0  0  0  0  0  0  0
  152.1338  132.1197  157.7487 O   0  5  0  0  0  0  0  0  0  0  0  0
  149.9678  131.3926  155.1213 C   0  0  0  0  0  0  0  0  0  0  0  0
  149.1402  132.0834  154.0254 C   0  0  0  0  0  0  0  0  0  0  0  0
  145.5602  133.7919  150.8183 N   0  0  0  0  0  0  0  0  0  0  0  0
  146.1122  132.6819  150.2108 C   0  0  0  0  0  0  0  0  0  0  0  0
  145.1530  132.1305  149.4107 C   0  0  0  0  0  0  0  0  0  0  0  0
  144.0253  132.9753  149.6050 C   0  0  0  0  0  0  0  0  0  0  0  0
  144.2678  133.9615  150.4524 N   0  0  0  0  0  0  0  0  0  0  0  0
  145.7519  136.5190  152.8968 H   0  0  0  0  0  0  0  0  0  0  0  0
  144.3505  135.4690  152.7207 H   0  0  0  0  0  0  0  0  0  0  0  0
  144.9246  136.4119  151.3502 H   0  0  0  0  0  0  0  0  0  0  0  0
  147.0444  135.1395  151.2997 H   0  0  0  0  0  0  0  0  0  0  0  0
  148.4751  134.8676  152.8660 H   0  0  0  0  0  0  0  0  0  0  0  0
  148.0295  133.4050  155.3224 H   0  0  0  0  0  0  0  0  0  0  0  0
  150.5402  134.5254  153.9979 H   0  0  0  0  0  0  0  0  0  0  0  0
  149.5706  135.3272  155.2109 H   0  0  0  0  0  0  0  0  0  0  0  0
  151.5913  134.2895  156.2021 H   0  0  0  0  0  0  0  0  0  0  0  0
  150.1292  133.6081  156.8794 H   0  0  0  0  0  0  0  0  0  0  0  0
  151.8473  132.3496  154.6839 H   0  0  0  0  0  0  0  0  0  0  0  0
  150.2919  130.4175  154.7554 H   0  0  0  0  0  0  0  0  0  0  0  0
  149.3309  131.2013  155.9865 H   0  0  0  0  0  0  0  0  0  0  0  0
  148.2726  131.4681  153.7842 H   0  0  0  0  0  0  0  0  0  0  0  0
  149.7342  132.1490  153.1127 H   0  0  0  0  0  0  0  0  0  0  0  0
  147.1321  132.3787  150.3973 H   0  0  0  0  0  0  0  0  0  0  0  0
  145.2415  131.2538  148.7863 H   0  0  0  0  0  0  0  0  0  0  0  0
  143.0430  132.8993  149.1626 H   0  0  0  0  0  0  0  0  0  0  0  0
  1  2  1  0  0  0  0
  1 20  1  0  0  0  0
  1 21  1  0  0  0  0
  1 22  1  0  0  0  0
  2  3  1  0  0  0  0
  2 15  1  0  0  0  0
  2 23  1  0  0  0  0
  3  4  2  0  0  0  0
  3  5  1  0  0  0  0
  5  6  1  0  0  0  0
  5 24  1  0  0  0  0
  6 14  1  0  0  0  0
  6  7  1  0  0  0  0
  6 25  1  0  0  0  0
  7  8  1  0  0  0  0
  7 26  1  0  0  0  0
  7 27  1  0  0  0  0
  8  9  1  0  0  0  0
  8 28  1  0  0  0  0
  8 29  1  0  0  0  0
  9 10  1  0  0  0  0
  9 13  1  0  0  0  0
  9 30  1  0  0  0  0
 10 11  2  0  0  0  0
 10 12  1  0  0  0  0
 13 14  1  0  0  0  0
 13 31  1  0  0  0  0
 13 32  1  0  0  0  0
 14 33  1  0  0  0  0
 14 34  1  0  0  0  0
 15 19  1  0  0  0  0
 15 16  1  0  0  0  0
 16 17  2  0  0  0  0
 16 35  1  0  0  0  0
 17 18  1  0  0  0  0
 17 36  1  0  0  0  0
 18 19  2  0  0  0  0
 18 37  1  0  0  0  0
M  CHG  1  12  -1
M  END
> <s_m_source_file>
AV-unprocessed.smi

> <i_m_source_file_index>
999

> <i_lp_mmshare_version>
43012

> <i_f3d_flags>
0

> <s_epik_input>
bjFbY0hdW2NIXVtjSF1uMVtDQEhdKFtDSDNdKUMoPU8pW05IXVtDQEBIXTJbQ0gyXVtDSDJdW0NAQEhdKEMoPU8pW09IXSlbQ0gyXVtDSDJdMg==

> <s_epik_cmdline>
J2VwaWtfcHl0aG9uJywgJy1waCcsICc3LjAnLCAnLXRuJywgJzgnLCAnLW1hJywgJzIwMCcsICctbWV0YWxfYmluZGluZycsICctaW1hZScsICc8aW5maWxlLm1hZT4nLCAnLW9tYWUnLCAnPG91dGZpbGUubWFlPic=

> <r_lp_tautomer_probability>
1

> <r_epik_Ionization_Penalty>
0.00221712

> <r_epik_Ionization_Penalty_Charging>
0.00217268

> <r_epik_Ionization_Penalty_Neutral>
4.44343e-05

> <r_epik_State_Penalty>
0.0014925

> <r_epik_Charging_Adjusted_Penalty>
0.00366518

> <i_epik_Tot_Q>
-1

> <i_epik_Tot_abs_Q>
1

> <r_epik_Metal_State_Penalty>
-0

> <b_epik_Metal_Only>
0

> <s_lp_Force_Field>
OPLS_2005

> <r_lp_Energy>
14.7159

> <b_lp_Chiralities_Consistent>
1

> <s_lp_Variant>
AV-unprocessed.smi:999-2

> <Gold.Version>
5.8.1

> <Gold.Id.Protein>
6NUR|6NUR_protein|mol2

> <Gold.PLP.Fitness>
46.8990

> <Gold.PLP.PLP>
-33.1071

> <Gold.PLP.part.hbond>
-2.0000

> <Gold.PLP.part.metal>
0.0000

> <Gold.PLP.part.buried>
-4.6886

> <Gold.PLP.part.nonpolar>
-27.4530

> <Gold.PLP.part.repulsive>
0.2885

> <Gold.PLP.ligand.clash>
0.0000

> <Gold.PLP.ligand.torsion>
0.6505

> <Gold.PLP.Chemscore.Hbond>
3.0000

> <Gold.PLP.Chemscore.CHOScore>
1.9714

> <Gold.PLP.Chemscore.Metal>
0.0000

> <Gold.Chemscore.Hbonds>
donor molecule, donor type, donor heavy atom, donor atom, acceptor molecule, acceptor atom, score
      L1  H     5    24       P1  7948  1.00
      P1  H  6896  6908       L1    12  2.00
      L1  C    16    35       P1 10747  1.00
      L1  C    18    37       P1 10186  0.89

> <Gold.PLP.Chemscore.Internal.Correction>
0.1788

> <Gold.Rescore>
     Score         DG    S(hbond)    S(metal)    S(lipo)     H(rot)  DE(clash)    DE(int)     intcor
     14.94     -15.55       1.84        0.00      76.78       1.98       0.12       0.49       ----

> <Gold.Chemscore.Fitness>
14.9355

> <Gold.Chemscore.DG>
-15.5459

> <Gold.Chemscore.ZeroCoef>
-5.4800

> <Gold.Chemscore.Hbond>
1.8398

> <Gold.Chemscore.Metal>
0.0000

> <Gold.Chemscore.Lipo>
76.7786

> <Gold.Chemscore.Internal_Hbond>
0.0000

> <Gold.Chemscore.DEClash>
0.1214

> <Gold.Chemscore.DEInternal>
0.4890

> <Gold.Chemscore.Rot>
1.9774

> <Gold.Chemscore.Internal.Correction>
   9.000000E+99

> <Gold.Chemscore.Hbonds>
donor molecule, donor type, donor heavy atom, donor atom, acceptor molecule, acceptor atom, score
      L1  H     5    24       P1  7948  0.50
      P1  H  6896  6908       L1    12  0.92

> <Gold.Chemscore.Hbond.Weighted>
-6.1448

> <Gold.Chemscore.Metal.Weighted>
-0.0000

> <Gold.Chemscore.Lipo.Weighted>
-8.9831

> <Gold.Chemscore.Internal_Hbond.Weighted>
0.0000

> <Gold.Chemscore.DEClash.Weighted>
0.1214

> <Gold.Chemscore.DEInternal.Weighted>
0.4890

> <Gold.Chemscore.Rot.Weighted>
5.0620

> <Gold.Chemscore.Internal.Correction.Weighted>
   9.000000E+99

> <Gold.Protein.RotatedTorsions>
[ 6907 6896 6895 6894 ] final   39.19 input  -60.11 | X-H torsion
[ 7974 7965 7964 7962 ] final -156.88 input  175.53 | X-H torsion
[ 8008 7997 7996 7995 ] final  131.13 input   59.86 | X-H torsion
[ 10167 10162 10161 10158 ] final  132.01 input  -65.29 | X-H torsion
[ 10718 10713 10712 10709 ] final -175.07 input   66.30 | X-H torsion
[ 10763 10752 10751 10750 ] final  -37.31 input  -60.55 | X-H torsion
[ 11005 11000 10999 10996 ] final -170.00 input  -57.11 | X-H torsion

> <Gold.Protein.ActiveResidues>
 VAL166  LYS551  ARG553  GLY616  TRP617  ASP618  TYR619  PRO620  LYS621  CYS622 
 ASP623  PHE694  ASN695  SER759  ASP760  ASP761  ALA762  ILE779  LEU786  VAL792 
 PHE793  MET794  SER795  GLU796  ALA797  LYS798  CYS799  TRP800  GLU811  SER814 

> <Gold.Protein.RotatedAtoms>
  152.1663  134.8871  160.0537 H   0  0  0  0  0  0  0  0  0  0  0  0  # atno 6907 bound_to 6896
  151.9848  133.3765  159.4129 H   0  0  0  0  0  0  0  0  0  0  0  0  # atno 6908 bound_to 6896
  150.6895  134.3923  159.5126 H   0  0  0  0  0  0  0  0  0  0  0  0  # atno 6909 bound_to 6896
  144.7573  140.4047  143.6003 H   0  0  0  0  0  0  0  0  0  0  0  0  # atno 7974 bound_to 7965
  156.2965  140.2579  156.2875 H   0  0  0  0  0  0  0  0  0  0  0  0  # atno 8008 bound_to 7997
  154.9542  140.0393  157.2177 H   0  0  0  0  0  0  0  0  0  0  0  0  # atno 8009 bound_to 7997
  154.8008  140.2828  155.5928 H   0  0  0  0  0  0  0  0  0  0  0  0  # atno 8010 bound_to 7997
  139.5358  144.6681  151.4790 H   0  0  0  0  0  0  0  0  0  0  0  0  # atno 10167 bound_to 10162
  156.7944  130.9529  151.3120 H   0  0  0  0  0  0  0  0  0  0  0  0  # atno 10718 bound_to 10713
  153.8941  135.6809  153.4759 H   0  0  0  0  0  0  0  0  0  0  0  0  # atno 10763 bound_to 10752
  153.1165  135.4759  154.9121 H   0  0  0  0  0  0  0  0  0  0  0  0  # atno 10764 bound_to 10752
  154.7607  135.3210  154.8336 H   0  0  0  0  0  0  0  0  0  0  0  0  # atno 10765 bound_to 10752
  140.5245  134.5677  157.5057 H   0  0  0  0  0  0  0  0  0  0  0  0  # atno 11005 bound_to 11000
  145.6736  139.1604  143.2740 LP  0  0  0  0  0  0  0  0  0  0  0  0  # atno 17320 bound_to 7965
  146.1597  140.6805  142.9283 LP  0  0  0  0  0  0  0  0  0  0  0  0  # atno 17321 bound_to 7965
  140.6564  143.8591  150.6839 LP  0  0  0  0  0  0  0  0  0  0  0  0  # atno 17342 bound_to 10162
  140.1972  143.3989  152.1819 LP  0  0  0  0  0  0  0  0  0  0  0  0  # atno 17343 bound_to 10162
  157.6585  130.8945  149.9779 LP  0  0  0  0  0  0  0  0  0  0  0  0  # atno 17370 bound_to 10713
  156.1139  130.3648  150.0001 LP  0  0  0  0  0  0  0  0  0  0  0  0  # atno 17371 bound_to 10713
  139.9588  134.7489  156.0283 LP  0  0  0  0  0  0  0  0  0  0  0  0  # atno 17394 bound_to 11000
  141.1316  133.6585  156.3480 LP  0  0  0  0  0  0  0  0  0  0  0  0  # atno 17395 bound_to 11000

$$$$
