#       Name:                AV-unprocessed.smi:1401
#       Creating user name   scv26
#       Creation time:       Fri Mar 27 05:31:29 2020


#       File generated by GOLD software.
#

@<TRIPOS>MOLECULE
AV-unprocessed.smi:1401
    54    56     1
SMALL
NO_CHARGES


@<TRIPOS>ATOM
      1 ****        -2.4170   1.5825  -2.8519 C.3            1 S1                 0.0000
      2 ****        -1.7949   0.2154  -2.7596 C.2            1 S1                 0.0000
      3 ****        -0.5079   0.1561  -2.8592 N.2            1 S1                 0.0000
      4 ****         0.1670  -1.0469  -2.7737 N.am           1 S1                 0.0000
      5 ****         1.6323  -0.9127  -2.8414 C.3            1 S1                 0.0000
      6 ****         2.3136  -0.6807  -1.4808 C.2            1 S1                 0.0000
      7 ****         3.5253  -0.4707  -1.4431 O.2            1 S1                 0.0000
      8 ****         1.5411  -0.6992  -0.3814 N.am           1 S1                 0.0000
      9 ****         1.9672  -0.4149   0.9843 C.3            1 S1                 0.0000
     10 ****         2.6333  -1.6581   1.5985 C.3            1 S1                 0.0000
     11 ****         0.7361   0.0537   1.7957 C.3            1 S1                 0.0000
     12 ****         0.0169   1.3008   1.2297 C.3            1 S1                 0.0000
     13 ****        -0.1389   2.2016   2.4689 C.3            1 S1                 0.0000
     14 ****         1.2308   2.8090   2.8221 C.3            1 S1                 0.0000
     15 ****         1.9943   1.6046   3.4028 C.3            1 S1                 0.0000
     16 ****         0.9734   0.4552   3.2725 C.3            1 S1                 0.0000
     17 ****        -0.3294   1.1840   3.5881 C.3            1 S1                 0.0000
     18 ****        -0.4297  -2.2597  -2.5875 C.2            1 S1                 0.0000
     19 ****         0.2120  -3.3069  -2.4957 O.2            1 S1                 0.0000
     20 ****        -1.8892  -2.1863  -2.4883 C.2            1 S1                 0.0000
     21 ****        -2.5543  -3.4341  -2.2933 C.1            1 S1                 0.0000
     22 ****        -3.1115  -4.4356  -2.1303 N.1            1 S1                 0.0000
     23 ****        -2.5618  -1.0108  -2.5663 C.2            1 S1                 0.0000
     24 ****        -4.0748  -0.8798  -2.4584 C.3            1 S1                 0.0000
     25 ****        -3.0841   1.6468  -3.7116 H              1 S1                 0.0000
     26 ****        -1.6649   2.3655  -2.9593 H              1 S1                 0.0000
     27 ****        -2.9956   1.8057  -1.9554 H              1 S1                 0.0000
     28 ****         2.0829  -1.7886  -3.3111 H              1 S1                 0.0000
     29 ****         1.8893  -0.0761  -3.4935 H              1 S1                 0.0000
     30 ****         0.5574  -0.8857  -0.5112 H              1 S1                 0.0000
     31 ****         2.6991   0.3920   0.9422 H              1 S1                 0.0000
     32 ****         2.9947  -1.4552   2.6066 H              1 S1                 0.0000
     33 ****         3.4915  -1.9809   1.0085 H              1 S1                 0.0000
     34 ****         1.9362  -2.4946   1.6559 H              1 S1                 0.0000
     35 ****         0.0171  -0.7682   1.7979 H              1 S1                 0.0000
     36 ****         0.5806   1.7993   0.4399 H              1 S1                 0.0000
     37 ****        -0.9546   1.0263   0.8164 H              1 S1                 0.0000
     38 ****        -0.9342   2.9417   2.3749 H              1 S1                 0.0000
     39 ****         1.7303   3.2388   1.9530 H              1 S1                 0.0000
     40 ****         1.1277   3.5949   3.5713 H              1 S1                 0.0000
     41 ****         2.9360   1.4121   2.8908 H              1 S1                 0.0000
     42 ****         2.2312   1.7823   4.4526 H              1 S1                 0.0000
     43 ****         1.1836  -0.3909   3.9274 H              1 S1                 0.0000
     44 ****        -0.3460   1.6326   4.5831 H              1 S1                 0.0000
     45 ****        -1.2182   0.5631   3.4621 H              1 S1                 0.0000
     46 ****        -4.5678  -1.8470  -2.3677 H              1 S1                 0.0000
     47 ****        -4.4825  -0.3890  -3.3425 H              1 S1                 0.0000
     48 ****        -4.3444  -0.2896  -1.5821 H              1 S1                 0.0000
     49 ****         0.0111   0.9990  -3.0012 LP             1 S1                 0.0000
     50 ****         4.0562  -0.4522  -2.2904 LP             1 S1                 0.0000
     51 ****         3.9793  -0.3186  -0.5652 LP             1 S1                 0.0000
     52 ****         1.2099  -3.2889  -2.5574 LP             1 S1                 0.0000
     53 ****        -0.2649  -4.1753  -2.3594 LP             1 S1                 0.0000
     54 ****        -3.5928  -5.3008  -1.9895 LP             1 S1                 0.0000
@<TRIPOS>BOND
    1    1    2 1     
    2    1   25 1     
    3    1   26 1     
    4    1   27 1     
    5    2   23 1     
    6    2    3 2     
    7    3    4 1     
    8    4    5 1     
    9    4   18 am    
   10    5    6 1     
   11    5   28 1     
   12    5   29 1     
   13    6    7 2     
   14    6    8 am    
   15    8    9 1     
   16    8   30 1     
   17    9   10 1     
   18    9   11 1     
   19    9   31 1     
   20   10   32 1     
   21   10   33 1     
   22   10   34 1     
   23   11   16 1     
   24   11   12 1     
   25   11   35 1     
   26   12   13 1     
   27   12   36 1     
   28   12   37 1     
   29   13   17 1     
   30   13   14 1     
   31   13   38 1     
   32   14   15 1     
   33   14   39 1     
   34   14   40 1     
   35   15   16 1     
   36   15   41 1     
   37   15   42 1     
   38   16   17 1     
   39   16   43 1     
   40   17   44 1     
   41   17   45 1     
   42   18   19 2     
   43   18   20 1     
   44   20   21 1     
   45   20   23 2     
   46   21   22 3     
   47   23   24 1     
   48   24   46 1     
   49   24   47 1     
   50   24   48 1     
   51    3   49 1     
   52    7   50 1     
   53    7   51 1     
   54   19   52 1     
   55   19   53 1     
   56   22   54 1     
@<TRIPOS>SUBSTRUCTURE
      1 S1             1
@<TRIPOS>SET
LONE_PAIRS      STATIC     ATOMS    <user>   **** ""
6 49 50 51 52 53 54
DONOR_HYDROGENS      STATIC     ATOMS    <user>   **** ""
1 30
ATOM$BLUE        STATIC     ATOMS    COLORGROUP SYSTEM
6 49 50 51 52 53 54
ATOM$RED        STATIC     ATOMS    COLORGROUP SYSTEM
1 30
