AV-unprocessed.smi:2976|AV-procd|sdf|11366|dock7
  -GOLD-   2272016283D 1   1.00000     0.00000
 Structure written by MMmdl.
 40 41  0  0  0  0  0  0  0  0  1 V2000
  143.6978  132.6992  148.8454 C   0  0  0  0  0  0  0  0  0  0  0  0
  144.2640  132.7878  150.2738 C   0  0  1  0  0  0  0  0  0  0  0  0
  145.0547  131.5036  150.6001 C   0  0  0  0  0  0  0  0  0  0  0  0
  145.6389  131.5268  152.0185 C   0  0  0  0  0  0  0  0  0  0  0  0
  146.5225  132.7651  152.2268 C   0  0  0  0  0  0  0  0  0  0  0  0
  145.7571  134.0684  151.9250 C   0  0  2  0  0  0  0  0  0  0  0  0
  144.7189  134.2981  152.9265 N   0  0  0  0  0  0  0  0  0  0  0  0
  144.3635  135.4795  153.4572 C   0  0  0  0  0  0  0  0  0  0  0  0
  144.9023  136.5414  153.1483 O   0  0  0  0  0  0  0  0  0  0  0  0
  143.2310  135.4834  154.4997 C   0  0  0  0  0  0  0  0  0  0  0  0
  142.1875  136.4963  154.2643 N   0  0  0  0  0  0  0  0  0  0  0  0
  142.6312  137.8014  154.3908 N   0  0  0  0  0  0  0  0  0  0  0  0
  141.7947  138.7719  154.2552 C   0  0  0  0  0  0  0  0  0  0  0  0
  140.3951  138.5478  153.9685 C   0  0  0  0  0  0  0  0  0  0  0  0
  139.3193  139.8897  153.7998 Cl  0  0  0  0  0  0  0  0  0  0  0  0
  139.9718  137.2654  153.8393 C   0  0  0  0  0  0  0  0  0  0  0  0
  138.3113  136.9175  153.4998 Cl  0  0  0  0  0  0  0  0  0  0  0  0
  140.8965  136.1335  153.9893 C   0  0  0  0  0  0  0  0  0  0  0  0
  140.5483  134.9560  153.8950 O   0  0  0  0  0  0  0  0  0  0  0  0
  145.1444  134.0499  150.5002 C   0  0  2  0  0  0  0  0  0  0  0  0
  144.3978  135.3660  150.1983 C   0  0  0  0  0  0  0  0  0  0  0  0
  144.4948  132.7127  148.1015 H   0  0  0  0  0  0  0  0  0  0  0  0
  143.0186  133.5226  148.6265 H   0  0  0  0  0  0  0  0  0  0  0  0
  143.1315  131.7778  148.7064 H   0  0  0  0  0  0  0  0  0  0  0  0
  143.4135  132.8355  150.9557 H   0  0  0  0  0  0  0  0  0  0  0  0
  144.4096  130.6309  150.4917 H   0  0  0  0  0  0  0  0  0  0  0  0
  145.8638  131.3770  149.8792 H   0  0  0  0  0  0  0  0  0  0  0  0
  144.8301  131.5177  152.7504 H   0  0  0  0  0  0  0  0  0  0  0  0
  146.2219  130.6226  152.1944 H   0  0  0  0  0  0  0  0  0  0  0  0
  146.9129  132.7784  153.2449 H   0  0  0  0  0  0  0  0  0  0  0  0
  147.3919  132.6998  151.5715 H   0  0  0  0  0  0  0  0  0  0  0  0
  146.4667  134.8967  151.9733 H   0  0  0  0  0  0  0  0  0  0  0  0
  144.2202  133.4800  153.2448 H   0  0  0  0  0  0  0  0  0  0  0  0
  142.7829  134.4882  154.5099 H   0  0  0  0  0  0  0  0  0  0  0  0
  143.6683  135.6103  155.4917 H   0  0  0  0  0  0  0  0  0  0  0  0
  142.0976  139.8147  154.3496 H   0  0  0  0  0  0  0  0  0  0  0  0
  145.9793  133.9951  149.7996 H   0  0  0  0  0  0  0  0  0  0  0  0
  143.4678  135.4422  150.7629 H   0  0  0  0  0  0  0  0  0  0  0  0
  144.1519  135.4553  149.1405 H   0  0  0  0  0  0  0  0  0  0  0  0
  145.0115  136.2305  150.4530 H   0  0  0  0  0  0  0  0  0  0  0  0
  1  2  1  0  0  0  0
  1 22  1  0  0  0  0
  1 23  1  0  0  0  0
  1 24  1  0  0  0  0
  2 20  1  0  0  0  0
  2  3  1  0  0  0  0
  2 25  1  0  0  0  0
  3  4  1  0  0  0  0
  3 26  1  0  0  0  0
  3 27  1  0  0  0  0
  4  5  1  0  0  0  0
  4 28  1  0  0  0  0
  4 29  1  0  0  0  0
  5  6  1  0  0  0  0
  5 30  1  0  0  0  0
  5 31  1  0  0  0  0
  6  7  1  0  0  0  0
  6 20  1  0  0  0  0
  6 32  1  0  0  0  0
  7  8  1  0  0  0  0
  7 33  1  0  0  0  0
  8  9  2  0  0  0  0
  8 10  1  0  0  0  0
 10 11  1  0  0  0  0
 10 34  1  0  0  0  0
 10 35  1  0  0  0  0
 11 18  1  0  0  0  0
 11 12  1  0  0  0  0
 12 13  2  0  0  0  0
 13 14  1  0  0  0  0
 13 36  1  0  0  0  0
 14 15  1  0  0  0  0
 14 16  2  0  0  0  0
 16 17  1  0  0  0  0
 16 18  1  0  0  0  0
 18 19  2  0  0  0  0
 20 21  1  0  0  0  0
 20 37  1  0  0  0  0
 21 38  1  0  0  0  0
 21 39  1  0  0  0  0
 21 40  1  0  0  0  0
M  END
> <s_m_source_file>
AV-unprocessed.smi

> <i_m_source_file_index>
2976

> <i_lp_mmshare_version>
43012

> <i_f3d_flags>
0

> <s_epik_input>
W0NIM11bQ0BASF0xW0NIMl1bQ0gyXVtDSDJdW0NASF0oW0NASF0xW0NIM10pW05IXUMoPU8pW0NIMl1uMm5bY0hdYyhDbCljKENsKWMyPU8=

> <s_epik_cmdline>
J2VwaWtfcHl0aG9uJywgJy1waCcsICc3LjAnLCAnLXRuJywgJzgnLCAnLW1hJywgJzIwMCcsICctbWV0YWxfYmluZGluZycsICctaW1hZScsICc8aW5maWxlLm1hZT4nLCAnLW9tYWUnLCAnPG91dGZpbGUubWFlPic=

> <r_lp_tautomer_probability>
1

> <r_epik_Ionization_Penalty>
1.90777e-08

> <r_epik_Ionization_Penalty_Charging>
3.07942e-11

> <r_epik_Ionization_Penalty_Neutral>
1.90469e-08

> <r_epik_State_Penalty>
-0

> <r_epik_Charging_Adjusted_Penalty>
3.07942e-11

> <i_epik_Tot_Q>
0

> <i_epik_Tot_abs_Q>
0

> <r_epik_Metal_State_Penalty>
-0

> <b_epik_Metal_Only>
0

> <s_lp_Force_Field>
OPLS_2005

> <r_lp_Energy>
24.1651

> <b_lp_Chiralities_Consistent>
1

> <s_lp_Variant>
AV-unprocessed.smi:2976-8

> <Gold.Version>
5.8.1

> <Gold.Id.Protein>
6NUR|6NUR_protein|mol2

> <Gold.PLP.Fitness>
40.8394

> <Gold.PLP.PLP>
-36.9178

> <Gold.PLP.part.hbond>
-2.0000

> <Gold.PLP.part.metal>
0.0000

> <Gold.PLP.part.buried>
-2.8209

> <Gold.PLP.part.nonpolar>
-31.5970

> <Gold.PLP.part.repulsive>
0.4230

> <Gold.PLP.ligand.clash>
0.0000

> <Gold.PLP.ligand.torsion>
0.4788

> <Gold.PLP.Chemscore.Hbond>
1.0000

> <Gold.PLP.Chemscore.CHOScore>
0.6229

> <Gold.PLP.Chemscore.Metal>
0.0000

> <Gold.Chemscore.Hbonds>
donor molecule, donor type, donor heavy atom, donor atom, acceptor molecule, acceptor atom, score
      P1  H 11000 11005       L1    19  1.00
      L1  C    13    36       P1 10175  0.62

> <Gold.PLP.Chemscore.Internal.Correction>
0.0105

> <Gold.Rescore>
     Score         DG    S(hbond)    S(metal)    S(lipo)     H(rot)  DE(clash)    DE(int)     intcor
     13.65     -15.41       0.91        0.00      91.29       1.49       0.03       1.72       ----

> <Gold.Chemscore.Fitness>
13.6545

> <Gold.Chemscore.DG>
-15.4109

> <Gold.Chemscore.ZeroCoef>
-5.4800

> <Gold.Chemscore.Hbond>
0.9147

> <Gold.Chemscore.Metal>
0.0000

> <Gold.Chemscore.Lipo>
91.2937

> <Gold.Chemscore.Internal_Hbond>
0.0000

> <Gold.Chemscore.DEClash>
0.0317

> <Gold.Chemscore.DEInternal>
1.7247

> <Gold.Chemscore.Rot>
1.4866

> <Gold.Chemscore.Internal.Correction>
   9.000000E+99

> <Gold.Chemscore.Hbonds>
donor molecule, donor type, donor heavy atom, donor atom, acceptor molecule, acceptor atom, score
      P1  H 11000 11005       L1    19  0.66

> <Gold.Chemscore.Hbond.Weighted>
-3.0552

> <Gold.Chemscore.Metal.Weighted>
-0.0000

> <Gold.Chemscore.Lipo.Weighted>
-10.6814

> <Gold.Chemscore.Internal_Hbond.Weighted>
0.0000

> <Gold.Chemscore.DEClash.Weighted>
0.0317

> <Gold.Chemscore.DEInternal.Weighted>
1.7247

> <Gold.Chemscore.Rot.Weighted>
3.8057

> <Gold.Chemscore.Internal.Correction.Weighted>
   9.000000E+99

> <Gold.Protein.RotatedTorsions>
[ 6907 6896 6895 6894 ] final  144.50 input  -60.11 | X-H torsion
[ 7974 7965 7964 7962 ] final  115.18 input  175.53 | X-H torsion
[ 8008 7997 7996 7995 ] final -155.88 input   59.86 | X-H torsion
[ 10167 10162 10161 10158 ] final  -52.83 input  -65.29 | X-H torsion
[ 10718 10713 10712 10709 ] final  142.55 input   66.30 | X-H torsion
[ 10763 10752 10751 10750 ] final -131.38 input  -60.55 | X-H torsion
[ 11005 11000 10999 10996 ] final   10.52 input  -57.11 | X-H torsion

> <Gold.Protein.ActiveResidues>
 VAL166  LYS551  ARG553  GLY616  TRP617  ASP618  TYR619  PRO620  LYS621  CYS622 
 ASP623  PHE694  ASN695  SER759  ASP760  ASP761  ALA762  ILE779  LEU786  VAL792 
 PHE793  MET794  SER795  GLU796  ALA797  LYS798  CYS799  TRP800  GLU811  SER814 

> <Gold.Protein.RotatedAtoms>
  152.1929  133.4785  159.5016 H   0  0  0  0  0  0  0  0  0  0  0  0  # atno 6907 bound_to 6896
  150.6954  134.1690  159.4214 H   0  0  0  0  0  0  0  0  0  0  0  0  # atno 6908 bound_to 6896
  151.9605  135.0125  160.0598 H   0  0  0  0  0  0  0  0  0  0  0  0  # atno 6909 bound_to 6896
  145.1952  139.2980  143.4347 H   0  0  0  0  0  0  0  0  0  0  0  0  # atno 7974 bound_to 7965
  155.7086  140.0775  157.2380 H   0  0  0  0  0  0  0  0  0  0  0  0  # atno 8008 bound_to 7997
  154.4062  140.1634  156.2324 H   0  0  0  0  0  0  0  0  0  0  0  0  # atno 8009 bound_to 7997
  155.9303  140.3391  155.6247 H   0  0  0  0  0  0  0  0  0  0  0  0  # atno 8010 bound_to 7997
  140.6517  143.2570  151.4704 H   0  0  0  0  0  0  0  0  0  0  0  0  # atno 10167 bound_to 10162
  157.3793  131.0990  151.0754 H   0  0  0  0  0  0  0  0  0  0  0  0  # atno 10718 bound_to 10713
  154.8751  135.3832  154.4238 H   0  0  0  0  0  0  0  0  0  0  0  0  # atno 10763 bound_to 10752
  153.4939  135.7030  153.5874 H   0  0  0  0  0  0  0  0  0  0  0  0  # atno 10764 bound_to 10752
  153.4236  135.3895  155.2093 H   0  0  0  0  0  0  0  0  0  0  0  0  # atno 10765 bound_to 10752
  140.5135  134.0629  155.7824 H   0  0  0  0  0  0  0  0  0  0  0  0  # atno 11005 bound_to 11000
  146.3428  140.2177  142.8591 LP  0  0  0  0  0  0  0  0  0  0  0  0  # atno 17320 bound_to 7965
  145.0002  140.8625  143.5286 LP  0  0  0  0  0  0  0  0  0  0  0  0  # atno 17321 bound_to 7965
  139.5733  144.1877  152.1868 LP  0  0  0  0  0  0  0  0  0  0  0  0  # atno 17342 bound_to 10162
  140.1180  144.5398  150.6881 LP  0  0  0  0  0  0  0  0  0  0  0  0  # atno 17343 bound_to 10162
  157.1829  130.6317  149.5678 LP  0  0  0  0  0  0  0  0  0  0  0  0  # atno 17370 bound_to 10713
  155.9772  130.4748  150.6579 LP  0  0  0  0  0  0  0  0  0  0  0  0  # atno 17371 bound_to 10713
  141.1373  133.9200  157.2406 LP  0  0  0  0  0  0  0  0  0  0  0  0  # atno 17394 bound_to 11000
  139.9645  135.0145  156.9351 LP  0  0  0  0  0  0  0  0  0  0  0  0  # atno 17395 bound_to 11000

$$$$
