AV-unprocessed.smi:247|AV-procd|sdf|1889|dock3
  -GOLD-   2262020543D 1   1.00000     0.00000
 Structure written by MMmdl.
 61 65  0  0  0  0  0  0  0  0  1 V2000
  145.2537  138.2348  162.6390 O   0  0  0  0  0  0  0  0  0  0  0  0
  145.3178  137.6472  161.3543 C   0  0  0  0  0  0  0  0  0  0  0  0
  145.6581  136.1307  161.3838 C   0  0  0  0  0  0  0  0  0  0  0  0
  145.8367  135.6308  159.9151 C   0  0  0  0  0  0  0  0  0  0  0  0
  146.8741  136.3106  159.1520 N   0  0  0  0  0  0  0  0  0  0  0  0
  147.7776  137.2349  159.6270 C   0  0  0  0  0  0  0  0  0  0  0  0
  148.6149  137.7023  158.7420 N   0  0  0  0  0  0  0  0  0  0  0  0
  148.2796  137.0334  157.5713 C   0  0  0  0  0  0  0  0  0  0  0  0
  148.7731  137.0640  156.2374 C   0  0  0  0  0  0  0  0  0  0  0  0
  149.8023  137.8649  155.8643 N   0  0  0  0  0  0  0  0  0  0  0  0
  151.0273  137.6922  156.6281 C   0  0  0  0  0  0  0  0  0  0  0  0
  152.0851  138.4701  155.8548 C   0  0  0  0  0  0  0  0  0  0  0  0
  151.6580  138.2820  154.4007 C   0  0  0  0  0  0  0  0  0  0  0  0
  150.1286  138.0947  154.4516 C   0  0  2  0  0  0  0  0  0  0  0  0
  149.3380  139.2818  153.8294 C   0  0  2  0  0  0  0  0  0  0  0  0
  149.7148  140.6487  154.4513 C   0  0  0  0  0  0  0  0  0  0  0  0
  149.0233  141.7085  153.7998 O   0  0  0  0  0  0  0  0  0  0  0  0
  147.6108  141.6183  153.9370 C   0  0  0  0  0  0  0  0  0  0  0  0
  147.1123  140.3340  153.2613 C   0  0  0  0  0  0  0  0  0  0  0  0
  147.8027  139.1071  153.8719 C   0  0  1  0  0  0  0  0  0  0  0  0
  147.4054  137.9628  153.1429 O   0  0  0  0  0  0  0  0  0  0  0  0
  148.1736  136.2487  155.3300 N   0  0  0  0  0  0  0  0  0  0  0  0
  147.1611  135.4583  155.6969 C   0  0  0  0  0  0  0  0  0  0  0  0
  146.5977  135.3295  156.8991 N   0  0  0  0  0  0  0  0  0  0  0  0
  147.1917  136.1482  157.8140 C   0  0  0  0  0  0  0  0  0  0  0  0
  146.9321  135.8953  162.2362 C   0  0  0  0  0  0  0  0  0  0  0  0
  147.1925  134.4014  162.5004 C   0  0  0  0  0  0  0  0  0  0  0  0
  146.0621  133.8195  163.1382 O   0  0  0  0  0  0  0  0  0  0  0  0
  144.8841  133.8714  162.3423 C   0  0  0  0  0  0  0  0  0  0  0  0
  144.5046  135.3355  162.0484 C   0  0  0  0  0  0  0  0  0  0  0  0
  144.4165  138.0247  163.0238 H   0  0  0  0  0  0  0  0  0  0  0  0
  144.3592  137.8111  160.8613 H   0  0  0  0  0  0  0  0  0  0  0  0
  146.0650  138.2013  160.7861 H   0  0  0  0  0  0  0  0  0  0  0  0
  146.0594  134.5658  159.8801 H   0  0  0  0  0  0  0  0  0  0  0  0
  144.8972  135.7445  159.3727 H   0  0  0  0  0  0  0  0  0  0  0  0
  147.7911  137.5615  160.6567 H   0  0  0  0  0  0  0  0  0  0  0  0
  150.9306  138.0663  157.6473 H   0  0  0  0  0  0  0  0  0  0  0  0
  151.2856  136.6330  156.6739 H   0  0  0  0  0  0  0  0  0  0  0  0
  152.0364  139.5259  156.1231 H   0  0  0  0  0  0  0  0  0  0  0  0
  153.0981  138.1190  156.0521 H   0  0  0  0  0  0  0  0  0  0  0  0
  151.9784  139.1053  153.7616 H   0  0  0  0  0  0  0  0  0  0  0  0
  152.1171  137.3741  154.0076 H   0  0  0  0  0  0  0  0  0  0  0  0
  149.9154  137.2026  153.8630 H   0  0  0  0  0  0  0  0  0  0  0  0
  149.6178  139.3270  152.7752 H   0  0  0  0  0  0  0  0  0  0  0  0
  149.4952  140.6733  155.5200 H   0  0  0  0  0  0  0  0  0  0  0  0
  150.7827  140.8370  154.3456 H   0  0  0  0  0  0  0  0  0  0  0  0
  147.3313  141.6399  154.9917 H   0  0  0  0  0  0  0  0  0  0  0  0
  147.1549  142.4905  153.4682 H   0  0  0  0  0  0  0  0  0  0  0  0
  146.0299  140.2514  153.3663 H   0  0  0  0  0  0  0  0  0  0  0  0
  147.3208  140.3871  152.1916 H   0  0  0  0  0  0  0  0  0  0  0  0
  147.4641  138.9963  154.9020 H   0  0  0  0  0  0  0  0  0  0  0  0
  148.1779  137.5594  152.7768 H   0  0  0  0  0  0  0  0  0  0  0  0
  146.7408  134.8434  154.9147 H   0  0  0  0  0  0  0  0  0  0  0  0
  147.8055  136.3577  161.7779 H   0  0  0  0  0  0  0  0  0  0  0  0
  146.8228  136.3824  163.2056 H   0  0  0  0  0  0  0  0  0  0  0  0
  147.4277  133.8637  161.5817 H   0  0  0  0  0  0  0  0  0  0  0  0
  148.0557  134.2873  163.1560 H   0  0  0  0  0  0  0  0  0  0  0  0
  145.0228  133.2965  161.4266 H   0  0  0  0  0  0  0  0  0  0  0  0
  144.0768  133.3851  162.8901 H   0  0  0  0  0  0  0  0  0  0  0  0
  144.2280  135.7942  162.9979 H   0  0  0  0  0  0  0  0  0  0  0  0
  143.6088  135.3712  161.4275 H   0  0  0  0  0  0  0  0  0  0  0  0
  1  2  1  0  0  0  0
  1 31  1  0  0  0  0
  2  3  1  0  0  0  0
  2 32  1  0  0  0  0
  2 33  1  0  0  0  0
  3 30  1  0  0  0  0
  3  4  1  0  0  0  0
  3 26  1  0  0  0  0
  4  5  1  0  0  0  0
  4 34  1  0  0  0  0
  4 35  1  0  0  0  0
  5 25  1  0  0  0  0
  5  6  1  0  0  0  0
  6  7  2  0  0  0  0
  6 36  1  0  0  0  0
  7  8  1  0  0  0  0
  8 25  2  0  0  0  0
  8  9  1  0  0  0  0
  9 10  1  0  0  0  0
  9 22  2  0  0  0  0
 10 14  1  0  0  0  0
 10 11  1  0  0  0  0
 11 12  1  0  0  0  0
 11 37  1  0  0  0  0
 11 38  1  0  0  0  0
 12 13  1  0  0  0  0
 12 39  1  0  0  0  0
 12 40  1  0  0  0  0
 13 14  1  0  0  0  0
 13 41  1  0  0  0  0
 13 42  1  0  0  0  0
 14 15  1  0  0  0  0
 14 43  1  0  0  0  0
 15 20  1  0  0  0  0
 15 16  1  0  0  0  0
 15 44  1  0  0  0  0
 16 17  1  0  0  0  0
 16 45  1  0  0  0  0
 16 46  1  0  0  0  0
 17 18  1  0  0  0  0
 18 19  1  0  0  0  0
 18 47  1  0  0  0  0
 18 48  1  0  0  0  0
 19 20  1  0  0  0  0
 19 49  1  0  0  0  0
 19 50  1  0  0  0  0
 20 21  1  0  0  0  0
 20 51  1  0  0  0  0
 21 52  1  0  0  0  0
 22 23  1  0  0  0  0
 23 24  2  0  0  0  0
 23 53  1  0  0  0  0
 24 25  1  0  0  0  0
 26 27  1  0  0  0  0
 26 54  1  0  0  0  0
 26 55  1  0  0  0  0
 27 28  1  0  0  0  0
 27 56  1  0  0  0  0
 27 57  1  0  0  0  0
 28 29  1  0  0  0  0
 29 30  1  0  0  0  0
 29 58  1  0  0  0  0
 29 59  1  0  0  0  0
 30 60  1  0  0  0  0
 30 61  1  0  0  0  0
M  END
> <s_m_source_file>
AV-unprocessed.smi

> <i_m_source_file_index>
247

> <i_lp_mmshare_version>
43012

> <i_f3d_flags>
0

> <s_epik_input>
W0NIMl0xW0NIMl1PW0NIMl1bQ0gyXUMxKFtDSDJdW09IXSlbQ0gyXW4oW2NIXW4yKWMoYzIzKW5bY0hdbmMzTjRbQ0gyXVtDSDJdW0NIMl1bQ0BIXTRbQ0BASF01W0NIMl1PW0NIMl1bQ0gyXVtDQEhdNVtPSF0=

> <s_epik_cmdline>
J2VwaWtfcHl0aG9uJywgJy1waCcsICc3LjAnLCAnLXRuJywgJzgnLCAnLW1hJywgJzIwMCcsICctbWV0YWxfYmluZGluZycsICctaW1hZScsICc8aW5maWxlLm1hZT4nLCAnLW9tYWUnLCAnPG91dGZpbGUubWFlPic=

> <r_lp_tautomer_probability>
1

> <r_epik_Ionization_Penalty>
0.00362597

> <r_epik_Ionization_Penalty_Charging>
0

> <r_epik_Ionization_Penalty_Neutral>
0.00362597

> <r_epik_State_Penalty>
0.00241433

> <r_epik_Charging_Adjusted_Penalty>
0.00241433

> <i_epik_Tot_Q>
0

> <i_epik_Tot_abs_Q>
0

> <r_epik_Metal_State_Penalty>
-0

> <b_epik_Metal_Only>
0

> <s_lp_Force_Field>
OPLS_2005

> <r_lp_Energy>
60.2507

> <b_lp_Chiralities_Consistent>
1

> <s_lp_Variant>
AV-unprocessed.smi:247-2

> <Gold.Version>
5.8.1

> <Gold.Id.Protein>
6NUR|6NUR_protein|mol2

> <Gold.PLP.Fitness>
41.6085

> <Gold.PLP.PLP>
-36.8651

> <Gold.PLP.part.hbond>
-4.8074

> <Gold.PLP.part.metal>
0.0000

> <Gold.PLP.part.buried>
0.7782

> <Gold.PLP.part.nonpolar>
-33.1855

> <Gold.PLP.part.repulsive>
0.3578

> <Gold.PLP.ligand.clash>
0.0000

> <Gold.PLP.ligand.torsion>
0.2463

> <Gold.PLP.Chemscore.Hbond>
1.6400

> <Gold.PLP.Chemscore.CHOScore>
0.0000

> <Gold.PLP.Chemscore.Metal>
0.0000

> <Gold.Chemscore.Hbonds>
donor molecule, donor type, donor heavy atom, donor atom, acceptor molecule, acceptor atom, score
      L1  H    21    52       P1  7948  1.00
      P1  H  8011  8017       L1    17  0.62

> <Gold.PLP.Chemscore.Internal.Correction>
0.3160

> <Gold.Rescore>
     Score         DG    S(hbond)    S(metal)    S(lipo)     H(rot)  DE(clash)    DE(int)     intcor
      9.87     -13.04       1.53        0.00      91.54       3.23       0.44       2.73       ----

> <Gold.Chemscore.Fitness>
9.8705

> <Gold.Chemscore.DG>
-13.0357

> <Gold.Chemscore.ZeroCoef>
-5.4800

> <Gold.Chemscore.Hbond>
1.5296

> <Gold.Chemscore.Metal>
0.0000

> <Gold.Chemscore.Lipo>
91.5399

> <Gold.Chemscore.Internal_Hbond>
0.0000

> <Gold.Chemscore.DEClash>
0.4382

> <Gold.Chemscore.DEInternal>
2.7269

> <Gold.Chemscore.Rot>
3.2278

> <Gold.Chemscore.Internal.Correction>
   9.000000E+99

> <Gold.Chemscore.Hbonds>
donor molecule, donor type, donor heavy atom, donor atom, acceptor molecule, acceptor atom, score
      L1  H    21    52       P1  7948  0.95
      P1  H  8011  8017       L1    17  0.59

> <Gold.Chemscore.Hbond.Weighted>
-5.1088

> <Gold.Chemscore.Metal.Weighted>
-0.0000

> <Gold.Chemscore.Lipo.Weighted>
-10.7102

> <Gold.Chemscore.Internal_Hbond.Weighted>
0.0000

> <Gold.Chemscore.DEClash.Weighted>
0.4382

> <Gold.Chemscore.DEInternal.Weighted>
2.7269

> <Gold.Chemscore.Rot.Weighted>
8.2633

> <Gold.Chemscore.Internal.Correction.Weighted>
   9.000000E+99

> <Gold.Protein.RotatedTorsions>
[ 6907 6896 6895 6894 ] final   -2.44 input  -60.11 | X-H torsion
[ 7974 7965 7964 7962 ] final  -61.27 input  175.53 | X-H torsion
[ 8008 7997 7996 7995 ] final  -49.23 input   59.86 | X-H torsion
[ 10167 10162 10161 10158 ] final -121.18 input  -65.29 | X-H torsion
[ 10718 10713 10712 10709 ] final -118.23 input   66.30 | X-H torsion
[ 10763 10752 10751 10750 ] final    2.99 input  -60.55 | X-H torsion
[ 11005 11000 10999 10996 ] final -112.56 input  -57.11 | X-H torsion

> <Gold.Protein.ActiveResidues>
 VAL166  LYS551  ARG553  GLY616  TRP617  ASP618  TYR619  PRO620  LYS621  CYS622 
 ASP623  PHE694  ASN695  SER759  ASP760  ASP761  ALA762  ILE779  LEU786  VAL792 
 PHE793  MET794  SER795  GLU796  ALA797  LYS798  CYS799  TRP800  GLU811  SER814 

> <Gold.Protein.RotatedAtoms>
  151.5298  135.1068  159.9899 H   0  0  0  0  0  0  0  0  0  0  0  0  # atno 6907 bound_to 6896
  152.4583  133.7765  159.6838 H   0  0  0  0  0  0  0  0  0  0  0  0  # atno 6908 bound_to 6896
  150.8535  133.7685  159.3042 H   0  0  0  0  0  0  0  0  0  0  0  0  # atno 6909 bound_to 6896
  145.8054  140.8630  143.0209 H   0  0  0  0  0  0  0  0  0  0  0  0  # atno 7974 bound_to 7965
  154.4041  140.1302  156.4469 H   0  0  0  0  0  0  0  0  0  0  0  0  # atno 8008 bound_to 7997
  155.7404  140.3490  155.5081 H   0  0  0  0  0  0  0  0  0  0  0  0  # atno 8009 bound_to 7997
  155.9044  140.1025  157.1316 H   0  0  0  0  0  0  0  0  0  0  0  0  # atno 8010 bound_to 7997
  140.0278  143.5279  152.2191 H   0  0  0  0  0  0  0  0  0  0  0  0  # atno 10167 bound_to 10162
  156.1091  130.6234  150.9264 H   0  0  0  0  0  0  0  0  0  0  0  0  # atno 10718 bound_to 10713
  153.2887  135.6947  153.7314 H   0  0  0  0  0  0  0  0  0  0  0  0  # atno 10763 bound_to 10752
  153.6273  135.3416  155.3031 H   0  0  0  0  0  0  0  0  0  0  0  0  # atno 10764 bound_to 10752
  154.8517  135.4400  154.1964 H   0  0  0  0  0  0  0  0  0  0  0  0  # atno 10765 bound_to 10752
  141.0668  133.9446  157.2564 H   0  0  0  0  0  0  0  0  0  0  0  0  # atno 11005 bound_to 11000
  144.6763  140.0320  143.7482 LP  0  0  0  0  0  0  0  0  0  0  0  0  # atno 17320 bound_to 7965
  145.9833  139.2958  143.1029 LP  0  0  0  0  0  0  0  0  0  0  0  0  # atno 17321 bound_to 7965
  139.6096  144.7605  151.2981 LP  0  0  0  0  0  0  0  0  0  0  0  0  # atno 17342 bound_to 10162
  140.7315  143.6849  150.7970 LP  0  0  0  0  0  0  0  0  0  0  0  0  # atno 17343 bound_to 10162
  157.6270  131.0924  150.8514 LP  0  0  0  0  0  0  0  0  0  0  0  0  # atno 17370 bound_to 10713
  156.8628  130.5119  149.5302 LP  0  0  0  0  0  0  0  0  0  0  0  0  # atno 17371 bound_to 10713
  139.9484  135.0180  156.8920 LP  0  0  0  0  0  0  0  0  0  0  0  0  # atno 17394 bound_to 11000
  140.5757  134.0400  155.7446 LP  0  0  0  0  0  0  0  0  0  0  0  0  # atno 17395 bound_to 11000

$$$$
