AV-unprocessed.smi:2226|AV-procd|sdf|9014|dock10
  -GOLD-   2272012223D 1   1.00000     0.00000
 Structure written by MMmdl.
 40 42  0  0  0  0  0  0  0  0  2 V2000
  146.0171  143.2072  153.7514 C   0  0  0  0  0  0  0  0  0  0  0  0
  147.0701  142.6376  154.6256 N   0  3  2  0  0  0  0  0  0  0  0  0
  148.0279  141.7350  153.9414 C   0  0  1  0  0  0  0  0  0  0  0  0
  149.2838  141.5714  154.8295 C   0  0  0  0  0  0  0  0  0  0  0  0
  148.9732  141.1254  156.2729 C   0  0  0  0  0  0  0  0  0  0  0  0
  147.7485  141.8541  156.8627 C   0  0  0  0  0  0  0  0  0  0  0  0
  146.5715  142.0030  155.8701 C   0  0  2  0  0  0  0  0  0  0  0  0
  145.8085  140.6896  155.5655 C   0  0  0  0  0  0  0  0  0  0  0  0
  146.5688  139.6974  154.6554 C   0  0  1  0  0  0  0  0  0  0  0  0
  145.6122  138.7635  154.0628 N   0  0  0  0  0  0  0  0  0  0  0  0
  145.6021  137.4288  154.2033 C   0  0  0  0  0  0  0  0  0  0  0  0
  146.4471  136.8385  154.8835 O   0  0  0  0  0  0  0  0  0  0  0  0
  144.5401  136.8913  153.4901 N   0  0  0  0  0  0  0  0  0  0  0  0
  144.7578  136.2196  152.4009 C   0  0  0  0  0  0  0  0  0  0  0  0
  145.9176  135.8768  151.7105 N   0  0  0  0  0  0  0  0  0  0  0  0
  145.5594  135.1507  150.6094 C   0  0  0  0  0  0  0  0  0  0  0  0
  144.2347  135.0390  150.6029 C   0  0  0  0  0  0  0  0  0  0  0  0
  143.7167  135.6827  151.6864 O   0  0  0  0  0  0  0  0  0  0  0  0
  147.3495  140.4062  153.5245 C   0  0  0  0  0  0  0  0  0  0  0  0
  145.3500  142.4426  153.3543 H   0  0  0  0  0  0  0  0  0  0  0  0
  146.4663  143.7331  152.9085 H   0  0  0  0  0  0  0  0  0  0  0  0
  145.4131  143.9275  154.3037 H   0  0  0  0  0  0  0  0  0  0  0  0
  148.3585  142.2313  153.0279 H   0  0  0  0  0  0  0  0  0  0  0  0
  149.9901  140.8804  154.3681 H   0  0  0  0  0  0  0  0  0  0  0  0
  149.7958  142.5335  154.8745 H   0  0  0  0  0  0  0  0  0  0  0  0
  148.8317  140.0488  156.3158 H   0  0  0  0  0  0  0  0  0  0  0  0
  149.8430  141.3093  156.9042 H   0  0  0  0  0  0  0  0  0  0  0  0
  147.4184  141.3542  157.7739 H   0  0  0  0  0  0  0  0  0  0  0  0
  148.0630  142.8528  157.1691 H   0  0  0  0  0  0  0  0  0  0  0  0
  145.8623  142.6905  156.3332 H   0  0  0  0  0  0  0  0  0  0  0  0
  145.5290  140.1946  156.4963 H   0  0  0  0  0  0  0  0  0  0  0  0
  144.8635  140.9535  155.0887 H   0  0  0  0  0  0  0  0  0  0  0  0
  147.2762  139.1433  155.2663 H   0  0  0  0  0  0  0  0  0  0  0  0
  144.8861  139.1685  153.4896 H   0  0  0  0  0  0  0  0  0  0  0  0
  146.8745  136.1020  151.9434 H   0  0  0  0  0  0  0  0  0  0  0  0
  146.3123  134.7810  149.9288 H   0  0  0  0  0  0  0  0  0  0  0  0
  143.5427  134.5561  149.9290 H   0  0  0  0  0  0  0  0  0  0  0  0
  146.6641  140.6224  152.7039 H   0  0  0  0  0  0  0  0  0  0  0  0
  148.0894  139.7238  153.1047 H   0  0  0  0  0  0  0  0  0  0  0  0
  147.6134  143.4348  154.9252 H   0  0  0  0  0  0  0  0  0  0  0  0
  1  2  1  0  0  0  0
  1 20  1  0  0  0  0
  1 21  1  0  0  0  0
  1 22  1  0  0  0  0
  2  7  1  0  0  0  0
  2  3  1  0  0  0  0
  2 40  1  0  0  0  0
  3 19  1  0  0  0  0
  3  4  1  0  0  0  0
  3 23  1  0  0  0  0
  4  5  1  0  0  0  0
  4 24  1  0  0  0  0
  4 25  1  0  0  0  0
  5  6  1  0  0  0  0
  5 26  1  0  0  0  0
  5 27  1  0  0  0  0
  6  7  1  0  0  0  0
  6 28  1  0  0  0  0
  6 29  1  0  0  0  0
  7  8  1  0  0  0  0
  7 30  1  0  0  0  0
  8  9  1  0  0  0  0
  8 31  1  0  0  0  0
  8 32  1  0  0  0  0
  9 10  1  0  0  0  0
  9 19  1  0  0  0  0
  9 33  1  0  0  0  0
 10 34  1  0  0  0  0
 10 11  1  0  0  0  0
 11 13  1  0  0  0  0
 11 12  2  0  0  0  0
 13 14  2  0  0  0  0
 14 18  1  0  0  0  0
 14 15  1  0  0  0  0
 15 35  1  0  0  0  0
 15 16  1  0  0  0  0
 16 36  1  0  0  0  0
 16 17  2  0  0  0  0
 17 37  1  0  0  0  0
 17 18  1  0  0  0  0
 19 38  1  0  0  0  0
 19 39  1  0  0  0  0
M  CHG  1   2   1
M  END
> <s_m_source_file>
AV-unprocessed.smi

> <i_m_source_file_index>
2226

> <i_lp_mmshare_version>
43012

> <i_f3d_flags>
0

> <s_epik_input>
W0NIMl0xW0NIMl1bQ0gyXVtDQEhdKE4oW0NIM10pW0NIXTEyKVtDSDJdW0NASF0oW0NIMl0yKVtOSF1DKD1PKVtOSF1jM25bY0hdW2NIXW8z

> <s_epik_cmdline>
J2VwaWtfcHl0aG9uJywgJy1waCcsICc3LjAnLCAnLXRuJywgJzgnLCAnLW1hJywgJzIwMCcsICctbWV0YWxfYmluZGluZycsICctaW1hZScsICc8aW5maWxlLm1hZT4nLCAnLW9tYWUnLCAnPG91dGZpbGUubWFlPic=

> <r_lp_tautomer_probability>
0.107061

> <r_epik_Ionization_Penalty>
1.08307

> <r_epik_Ionization_Penalty_Charging>
1.08272

> <r_epik_Ionization_Penalty_Neutral>
0.000345913

> <r_epik_State_Penalty>
2.5744

> <r_epik_Charging_Adjusted_Penalty>
3.65713

> <i_epik_Tot_Q>
1

> <i_epik_Tot_abs_Q>
1

> <r_epik_Metal_State_Penalty>
3.72133

> <b_epik_Metal_Only>
0

> <s_lp_Force_Field>
OPLS_2005

> <r_lp_Energy>
58.9785

> <b_lp_Chiralities_Consistent>
1

> <s_lp_Variant>
AV-unprocessed.smi:2226-14

> <Gold.Version>
5.8.1

> <Gold.Id.Protein>
6NUR|6NUR_protein|mol2

> <Gold.PLP.Fitness>
42.2830

> <Gold.PLP.PLP>
-26.0830

> <Gold.PLP.part.hbond>
-2.9593

> <Gold.PLP.part.metal>
0.0000

> <Gold.PLP.part.buried>
-2.9933

> <Gold.PLP.part.nonpolar>
-21.3991

> <Gold.PLP.part.repulsive>
0.5446

> <Gold.PLP.ligand.clash>
0.0000

> <Gold.PLP.ligand.torsion>
0.6820

> <Gold.PLP.Chemscore.Hbond>
3.9013

> <Gold.PLP.Chemscore.CHOScore>
1.9514

> <Gold.PLP.Chemscore.Metal>
0.0000

> <Gold.Chemscore.Hbonds>
donor molecule, donor type, donor heavy atom, donor atom, acceptor molecule, acceptor atom, score
      L1  H     2    40       P1  8028  2.00
      L1  H    10    34       P1 10175  0.98
      L1  H    15    35       P1  7948  0.93
      L1  C    16    36       P1  7921  0.91
      L1  C    17    37       P1 10186  0.93

> <Gold.PLP.Chemscore.Internal.Correction>
0.0058

> <Gold.Rescore>
     Score         DG    S(hbond)    S(metal)    S(lipo)     H(rot)  DE(clash)    DE(int)     intcor
     16.90     -17.66       2.40        0.00      57.50       1.00       0.09       0.66       ----

> <Gold.Chemscore.Fitness>
16.9047

> <Gold.Chemscore.DG>
-17.6550

> <Gold.Chemscore.ZeroCoef>
-5.4800

> <Gold.Chemscore.Hbond>
2.3975

> <Gold.Chemscore.Metal>
0.0000

> <Gold.Chemscore.Lipo>
57.4993

> <Gold.Chemscore.Internal_Hbond>
0.0000

> <Gold.Chemscore.DEClash>
0.0881

> <Gold.Chemscore.DEInternal>
0.6623

> <Gold.Chemscore.Rot>
1.0000

> <Gold.Chemscore.Internal.Correction>
   9.000000E+99

> <Gold.Chemscore.Hbonds>
donor molecule, donor type, donor heavy atom, donor atom, acceptor molecule, acceptor atom, score
      L1  H     2    40       P1  8028  0.30
      L1  H    10    34       P1 10175  0.91
      L1  H    15    35       P1  7948  0.88

> <Gold.Chemscore.Hbond.Weighted>
-8.0076

> <Gold.Chemscore.Metal.Weighted>
-0.0000

> <Gold.Chemscore.Lipo.Weighted>
-6.7274

> <Gold.Chemscore.Internal_Hbond.Weighted>
0.0000

> <Gold.Chemscore.DEClash.Weighted>
0.0881

> <Gold.Chemscore.DEInternal.Weighted>
0.6623

> <Gold.Chemscore.Rot.Weighted>
2.5600

> <Gold.Chemscore.Internal.Correction.Weighted>
   9.000000E+99

> <Gold.Protein.RotatedTorsions>
[ 6907 6896 6895 6894 ] final  106.65 input  -60.11 | X-H torsion
[ 7974 7965 7964 7962 ] final -127.99 input  175.53 | X-H torsion
[ 8008 7997 7996 7995 ] final  -82.01 input   59.86 | X-H torsion
[ 10167 10162 10161 10158 ] final   24.66 input  -65.29 | X-H torsion
[ 10718 10713 10712 10709 ] final -145.74 input   66.30 | X-H torsion
[ 10763 10752 10751 10750 ] final   -5.87 input  -60.55 | X-H torsion
[ 11005 11000 10999 10996 ] final -178.10 input  -57.11 | X-H torsion

> <Gold.Protein.ActiveResidues>
 VAL166  LYS551  ARG553  GLY616  TRP617  ASP618  TYR619  PRO620  LYS621  CYS622 
 ASP623  PHE694  ASN695  SER759  ASP760  ASP761  ALA762  ILE779  LEU786  VAL792 
 PHE793  MET794  SER795  GLU796  ALA797  LYS798  CYS799  TRP800  GLU811  SER814 

> <Gold.Protein.RotatedAtoms>
  152.5185  133.9349  159.7598 H   0  0  0  0  0  0  0  0  0  0  0  0  # atno 6907 bound_to 6896
  150.9692  133.6354  159.2748 H   0  0  0  0  0  0  0  0  0  0  0  0  # atno 6908 bound_to 6896
  151.3571  135.0902  159.9475 H   0  0  0  0  0  0  0  0  0  0  0  0  # atno 6909 bound_to 6896
  144.9716  140.7550  143.4667 H   0  0  0  0  0  0  0  0  0  0  0  0  # atno 7974 bound_to 7965
  154.6042  140.0639  156.9408 H   0  0  0  0  0  0  0  0  0  0  0  0  # atno 8008 bound_to 7997
  155.2081  140.3320  155.4314 H   0  0  0  0  0  0  0  0  0  0  0  0  # atno 8009 bound_to 7997
  156.2337  140.1853  156.7159 H   0  0  0  0  0  0  0  0  0  0  0  0  # atno 8010 bound_to 7997
  140.5170  144.0066  150.6398 H   0  0  0  0  0  0  0  0  0  0  0  0  # atno 10167 bound_to 10162
  156.3862  130.7862  151.2060 H   0  0  0  0  0  0  0  0  0  0  0  0  # atno 10718 bound_to 10713
  153.4045  135.7006  153.6402 H   0  0  0  0  0  0  0  0  0  0  0  0  # atno 10763 bound_to 10752
  153.4922  135.3670  155.2498 H   0  0  0  0  0  0  0  0  0  0  0  0  # atno 10764 bound_to 10752
  154.8713  135.4091  154.3386 H   0  0  0  0  0  0  0  0  0  0  0  0  # atno 10765 bound_to 10752
  140.4336  134.6496  157.4724 H   0  0  0  0  0  0  0  0  0  0  0  0  # atno 11005 bound_to 11000
  145.2551  139.2015  143.4921 LP  0  0  0  0  0  0  0  0  0  0  0  0  # atno 17320 bound_to 7965
  146.3383  140.2471  142.8597 LP  0  0  0  0  0  0  0  0  0  0  0  0  # atno 17321 bound_to 7965
  140.3404  143.3023  152.0594 LP  0  0  0  0  0  0  0  0  0  0  0  0  # atno 17342 bound_to 10162
  139.4912  144.6446  151.6805 LP  0  0  0  0  0  0  0  0  0  0  0  0  # atno 17343 bound_to 10162
  157.7496  131.0329  150.4248 LP  0  0  0  0  0  0  0  0  0  0  0  0  # atno 17370 bound_to 10713
  156.4501  130.4010  149.6641 LP  0  0  0  0  0  0  0  0  0  0  0  0  # atno 17371 bound_to 10713
  140.0118  134.6680  155.9370 LP  0  0  0  0  0  0  0  0  0  0  0  0  # atno 17394 bound_to 11000
  141.1735  133.6538  156.4741 LP  0  0  0  0  0  0  0  0  0  0  0  0  # atno 17395 bound_to 11000

$$$$
