AV-unprocessed.smi:255|AV-procd|sdf|1951|dock4
  -GOLD-   2262021 93D 1   1.00000     0.00000
 Structure written by MMmdl.
 44 47  0  0  0  0  0  0  0  0  1 V2000
  153.6893  139.5887  158.5920 O   0  0  0  0  0  0  0  0  0  0  0  0
  153.0133  140.3797  159.5467 C   0  0  0  0  0  0  0  0  0  0  0  0
  152.6187  141.7419  158.9427 C   0  0  2  0  0  0  0  0  0  0  0  0
  152.5977  142.8676  159.9777 C   0  0  0  0  0  0  0  0  0  0  0  0
  151.7404  143.9268  159.2925 C   0  0  1  0  0  0  0  0  0  0  0  0
  152.4957  144.6396  158.4553 F   0  0  0  0  0  0  0  0  0  0  0  0
  150.7270  143.1067  158.4863 C   0  0  0  0  0  0  0  0  0  0  0  0
  151.2688  141.7516  158.3838 N   0  0  0  0  0  0  0  0  0  0  0  0
  151.1606  141.1517  157.1764 C   0  0  0  0  0  0  0  0  0  0  0  0
  152.1877  140.4076  156.6865 N   0  0  0  0  0  0  0  0  0  0  0  0
  152.0657  139.7998  155.5025 C   0  0  0  0  0  0  0  0  0  0  0  0
  151.0245  139.7993  154.6670 N   0  0  0  0  0  0  0  0  0  0  0  0
  149.9896  140.5365  155.1634 C   0  0  0  0  0  0  0  0  0  0  0  0
  149.9769  141.2427  156.3982 C   0  0  0  0  0  0  0  0  0  0  0  0
  148.7570  141.8846  156.5697 N   0  0  0  0  0  0  0  0  0  0  0  0
  148.0838  141.5723  155.4960 C   0  0  0  0  0  0  0  0  0  0  0  0
  148.7448  140.7600  154.6015 N   0  0  0  0  0  0  0  0  0  0  0  0
  148.2322  140.2598  153.3353 C   0  0  0  0  0  0  0  0  0  0  0  0
  146.9268  139.4424  153.4783 C   0  0  1  0  0  0  0  0  0  0  0  0
  145.8795  140.3072  153.8813 O   0  0  0  0  0  0  0  0  0  0  0  0
  146.4955  138.7254  152.2010 C   0  0  0  0  0  0  0  0  0  0  0  0
  145.8424  137.4546  152.7258 C   0  0  0  0  0  0  0  0  0  0  0  0
  146.6856  137.1045  153.8093 O   0  0  0  0  0  0  0  0  0  0  0  0
  147.0349  138.2965  154.5049 C   0  0  0  0  0  0  0  0  0  0  0  0
  153.3358  142.0183  158.1667 H   0  0  0  0  0  0  0  0  0  0  0  0
  151.2743  144.6243  159.9886 H   0  0  0  0  0  0  0  0  0  0  0  0
  153.8482  138.7361  158.9669 H   0  0  0  0  0  0  0  0  0  0  0  0
  152.1472  139.8483  159.9424 H   0  0  0  0  0  0  0  0  0  0  0  0
  153.7030  140.5272  160.3782 H   0  0  0  0  0  0  0  0  0  0  0  0
  152.1062  142.5316  160.8922 H   0  0  0  0  0  0  0  0  0  0  0  0
  153.5938  143.2255  160.2399 H   0  0  0  0  0  0  0  0  0  0  0  0
  149.7867  143.0413  159.0343 H   0  0  0  0  0  0  0  0  0  0  0  0
  150.5047  143.5744  157.5262 H   0  0  0  0  0  0  0  0  0  0  0  0
  152.9244  139.2299  155.1795 H   0  0  0  0  0  0  0  0  0  0  0  0
  147.0772  141.9265  155.3278 H   0  0  0  0  0  0  0  0  0  0  0  0
  148.0667  141.1152  152.6787 H   0  0  0  0  0  0  0  0  0  0  0  0
  149.0079  139.6573  152.8608 H   0  0  0  0  0  0  0  0  0  0  0  0
  145.1546  140.2002  153.2848 H   0  0  0  0  0  0  0  0  0  0  0  0
  145.8378  139.3172  151.5624 H   0  0  0  0  0  0  0  0  0  0  0  0
  147.3691  138.4481  151.6100 H   0  0  0  0  0  0  0  0  0  0  0  0
  144.8328  137.6507  153.0902 H   0  0  0  0  0  0  0  0  0  0  0  0
  145.7948  136.6626  151.9783 H   0  0  0  0  0  0  0  0  0  0  0  0
  148.0406  138.1946  154.9139 H   0  0  0  0  0  0  0  0  0  0  0  0
  146.3543  138.4347  155.3468 H   0  0  0  0  0  0  0  0  0  0  0  0
  1  2  1  0  0  0  0
  1 27  1  0  0  0  0
  2  3  1  0  0  0  0
  2 28  1  0  0  0  0
  2 29  1  0  0  0  0
  3 25  1  0  0  0  0
  3  8  1  0  0  0  0
  3  4  1  0  0  0  0
  4  5  1  0  0  0  0
  4 30  1  0  0  0  0
  4 31  1  0  0  0  0
  5 26  1  0  0  0  0
  5  6  1  0  0  0  0
  5  7  1  0  0  0  0
  7  8  1  0  0  0  0
  7 32  1  0  0  0  0
  7 33  1  0  0  0  0
  8  9  1  0  0  0  0
  9 14  1  0  0  0  0
  9 10  2  0  0  0  0
 10 11  1  0  0  0  0
 11 12  2  0  0  0  0
 11 34  1  0  0  0  0
 12 13  1  0  0  0  0
 13 17  1  0  0  0  0
 13 14  2  0  0  0  0
 14 15  1  0  0  0  0
 15 16  2  0  0  0  0
 16 17  1  0  0  0  0
 16 35  1  0  0  0  0
 17 18  1  0  0  0  0
 18 19  1  0  0  0  0
 18 36  1  0  0  0  0
 18 37  1  0  0  0  0
 19 24  1  0  0  0  0
 19 20  1  0  0  0  0
 19 21  1  0  0  0  0
 20 38  1  0  0  0  0
 21 22  1  0  0  0  0
 21 39  1  0  0  0  0
 21 40  1  0  0  0  0
 22 23  1  0  0  0  0
 22 41  1  0  0  0  0
 22 42  1  0  0  0  0
 23 24  1  0  0  0  0
 24 43  1  0  0  0  0
 24 44  1  0  0  0  0
M  END
> <s_m_source_file>
AV-unprocessed.smi

> <i_m_source_file_index>
255

> <i_lp_mmshare_version>
43012

> <i_f3d_flags>
0

> <s_epik_input>
W09IXVtDSDJdW0NAQEhdMVtDSDJdW0NASF0oRilbQ0gyXU4xYyhuW2NIXW4yKWMoYzIzKW5bY0hdbjNbQ0gyXVtDQEBdNChbT0hdKVtDSDJdW0NIMl1PW0NIMl00

> <s_epik_cmdline>
J2VwaWtfcHl0aG9uJywgJy1waCcsICc3LjAnLCAnLXRuJywgJzgnLCAnLW1hJywgJzIwMCcsICctbWV0YWxfYmluZGluZycsICctaW1hZScsICc8aW5maWxlLm1hZT4nLCAnLW9tYWUnLCAnPG91dGZpbGUubWFlPic=

> <r_lp_tautomer_probability>
1

> <r_epik_Ionization_Penalty>
0.0058098

> <r_epik_Ionization_Penalty_Charging>
0

> <r_epik_Ionization_Penalty_Neutral>
0.0058098

> <r_epik_State_Penalty>
0.00411166

> <r_epik_Charging_Adjusted_Penalty>
0.00411166

> <i_epik_Tot_Q>
0

> <i_epik_Tot_abs_Q>
0

> <r_epik_Metal_State_Penalty>
-0

> <b_epik_Metal_Only>
0

> <s_lp_Force_Field>
OPLS_2005

> <r_lp_Energy>
53.4607

> <b_lp_Chiralities_Consistent>
1

> <s_lp_Variant>
AV-unprocessed.smi:255-3

> <Gold.Version>
5.8.1

> <Gold.Id.Protein>
6NUR|6NUR_protein|mol2

> <Gold.PLP.Fitness>
50.7383

> <Gold.PLP.PLP>
-43.3114

> <Gold.PLP.part.hbond>
-3.8854

> <Gold.PLP.part.metal>
0.0000

> <Gold.PLP.part.buried>
-0.2345

> <Gold.PLP.part.nonpolar>
-41.6433

> <Gold.PLP.part.repulsive>
1.5355

> <Gold.PLP.ligand.clash>
0.0000

> <Gold.PLP.ligand.torsion>
0.8325

> <Gold.PLP.Chemscore.Hbond>
3.0000

> <Gold.PLP.Chemscore.CHOScore>
0.0000

> <Gold.PLP.Chemscore.Metal>
0.0000

> <Gold.Chemscore.Hbonds>
donor molecule, donor type, donor heavy atom, donor atom, acceptor molecule, acceptor atom, score
      L1  H    20    38       P1 10175  1.00
      P1  H  7989  7998       L1    12  0.95
      P1  H  7997  8010       L1     1  1.00

> <Gold.PLP.Chemscore.Internal.Correction>
0.0920

> <Gold.Rescore>
     Score         DG    S(hbond)    S(metal)    S(lipo)     H(rot)  DE(clash)    DE(int)     intcor
      7.65     -13.63       2.12        0.00      82.03       3.33       1.42       4.56       ----

> <Gold.Chemscore.Fitness>
7.6548

> <Gold.Chemscore.DG>
-13.6324

> <Gold.Chemscore.ZeroCoef>
-5.4800

> <Gold.Chemscore.Hbond>
2.1177

> <Gold.Chemscore.Metal>
0.0000

> <Gold.Chemscore.Lipo>
82.0267

> <Gold.Chemscore.Internal_Hbond>
0.0000

> <Gold.Chemscore.DEClash>
1.4194

> <Gold.Chemscore.DEInternal>
4.5583

> <Gold.Chemscore.Rot>
3.3273

> <Gold.Chemscore.Internal.Correction>
   9.000000E+99

> <Gold.Chemscore.Hbonds>
donor molecule, donor type, donor heavy atom, donor atom, acceptor molecule, acceptor atom, score
      L1  H    20    38       P1 10175  1.00
      P1  H  7989  7998       L1    12  0.06
      P1  H  7997  8010       L1     1  0.75

> <Gold.Chemscore.Hbond.Weighted>
-7.0732

> <Gold.Chemscore.Metal.Weighted>
-0.0000

> <Gold.Chemscore.Lipo.Weighted>
-9.5971

> <Gold.Chemscore.Internal_Hbond.Weighted>
0.0000

> <Gold.Chemscore.DEClash.Weighted>
1.4194

> <Gold.Chemscore.DEInternal.Weighted>
4.5583

> <Gold.Chemscore.Rot.Weighted>
8.5179

> <Gold.Chemscore.Internal.Correction.Weighted>
   9.000000E+99

> <Gold.Protein.RotatedTorsions>
[ 6907 6896 6895 6894 ] final -171.74 input  -60.11 | X-H torsion
[ 7974 7965 7964 7962 ] final  122.24 input  175.53 | X-H torsion
[ 8008 7997 7996 7995 ] final    6.08 input   59.86 | X-H torsion
[ 10167 10162 10161 10158 ] final   57.93 input  -65.29 | X-H torsion
[ 10718 10713 10712 10709 ] final  -76.97 input   66.30 | X-H torsion
[ 10763 10752 10751 10750 ] final  170.22 input  -60.55 | X-H torsion
[ 11005 11000 10999 10996 ] final  -93.88 input  -57.11 | X-H torsion

> <Gold.Protein.ActiveResidues>
 VAL166  LYS551  ARG553  GLY616  TRP617  ASP618  TYR619  PRO620  LYS621  CYS622 
 ASP623  PHE694  ASN695  SER759  ASP760  ASP761  ALA762  ILE779  LEU786  VAL792 
 PHE793  MET794  SER795  GLU796  ALA797  LYS798  CYS799  TRP800  GLU811  SER814 

> <Gold.Protein.RotatedAtoms>
  151.5287  133.3453  159.2914 H   0  0  0  0  0  0  0  0  0  0  0  0  # atno 6907 bound_to 6896
  150.8607  134.7960  159.7091 H   0  0  0  0  0  0  0  0  0  0  0  0  # atno 6908 bound_to 6896
  152.4627  134.5156  159.9818 H   0  0  0  0  0  0  0  0  0  0  0  0  # atno 6909 bound_to 6896
  145.1098  139.3460  143.4769 H   0  0  0  0  0  0  0  0  0  0  0  0  # atno 7974 bound_to 7965
  154.7365  140.2740  155.6410 H   0  0  0  0  0  0  0  0  0  0  0  0  # atno 8008 bound_to 7997
  156.2863  140.2705  156.2006 H   0  0  0  0  0  0  0  0  0  0  0  0  # atno 8009 bound_to 7997
  155.0313  140.0371  157.2465 H   0  0  0  0  0  0  0  0  0  0  0  0  # atno 8010 bound_to 7997
  140.1926  144.4070  150.6564 H   0  0  0  0  0  0  0  0  0  0  0  0  # atno 10167 bound_to 10162
  156.0159  130.4479  150.3274 H   0  0  0  0  0  0  0  0  0  0  0  0  # atno 10718 bound_to 10713
  154.3945  135.2754  155.2134 H   0  0  0  0  0  0  0  0  0  0  0  0  # atno 10763 bound_to 10752
  154.4186  135.6005  153.6000 H   0  0  0  0  0  0  0  0  0  0  0  0  # atno 10764 bound_to 10752
  152.9831  135.5967  154.4205 H   0  0  0  0  0  0  0  0  0  0  0  0  # atno 10765 bound_to 10752
  141.1485  133.7918  157.0221 H   0  0  0  0  0  0  0  0  0  0  0  0  # atno 11005 bound_to 11000
  146.3526  140.1012  142.8608 LP  0  0  0  0  0  0  0  0  0  0  0  0  # atno 17320 bound_to 7965
  145.0860  140.9252  143.4797 LP  0  0  0  0  0  0  0  0  0  0  0  0  # atno 17321 bound_to 7965
  140.6445  143.2210  151.6216 LP  0  0  0  0  0  0  0  0  0  0  0  0  # atno 17342 bound_to 10162
  139.5249  144.3089  152.1010 LP  0  0  0  0  0  0  0  0  0  0  0  0  # atno 17343 bound_to 10162
  157.1373  131.0287  151.2943 LP  0  0  0  0  0  0  0  0  0  0  0  0  # atno 17370 bound_to 10713
  157.4501  130.7593  149.7144 LP  0  0  0  0  0  0  0  0  0  0  0  0  # atno 17371 bound_to 10713
  140.0809  134.9649  157.1622 LP  0  0  0  0  0  0  0  0  0  0  0  0  # atno 17394 bound_to 11000
  140.3578  134.2527  155.7190 LP  0  0  0  0  0  0  0  0  0  0  0  0  # atno 17395 bound_to 11000

$$$$
