#       Name:                AV-unprocessed.smi:2124
#       Creating user name   scv26
#       Creation time:       Fri Mar 27 11:42:16 2020


#       File generated by GOLD software.
#

@<TRIPOS>MOLECULE
AV-unprocessed.smi:2124
    52    54     1
SMALL
NO_CHARGES


@<TRIPOS>ATOM
      1 ****        -4.3332   5.3084  -0.9534 C.3            1 S1                 0.0000
      2 ****        -3.7475   3.9130  -0.9860 C.2            1 S1                 0.0000
      3 ****        -3.3519   3.3755   0.1048 N.2            1 S1                 0.0000
      4 ****        -2.8139   2.0774   0.0806 C.2            1 S1                 0.0000
      5 ****        -2.3741   1.5152   1.4214 C.3            1 S1                 0.0000
      6 ****        -2.7057   1.3804  -1.0868 C.2            1 S1                 0.0000
      7 ****        -2.1367  -0.0362  -1.1670 C.3            1 S1                 0.0000
      8 ****        -0.6117  -0.1559  -1.2194 C.2            1 S1                 0.0000
      9 ****         0.0960   0.8498  -1.2766 O.2            1 S1                 0.0000
     10 ****        -0.1262  -1.4086  -1.1881 N.am           1 S1                 0.0000
     11 ****         1.2800  -1.8215  -1.1876 C.3            1 S1                 0.0000
     12 ****         1.9596  -1.4469  -2.5196 C.3            1 S1                 0.0000
     13 ****         2.0529  -1.3000   0.0545 C.3            1 S1                 0.0000
     14 ****         3.4591  -1.9272   0.2158 C.3            1 S1                 0.0000
     15 ****         3.4434  -2.4673   1.6567 C.3            1 S1                 0.0000
     16 ****         3.4382  -1.2905   2.6495 C.3            1 S1                 0.0000
     17 ****         2.0094  -0.7341   2.5060 C.3            1 S1                 0.0000
     18 ****         1.3998  -1.6405   1.4198 C.3            1 S1                 0.0000
     19 ****         2.0180  -2.9898   1.7711 C.3            1 S1                 0.0000
     20 ****        -3.1632   2.0396  -2.3227 C.2            1 S1                 0.0000
     21 ****        -3.0693   1.4624  -3.4055 O.2            1 S1                 0.0000
     22 ****        -3.6811   3.2963  -2.2151 N.pl3          1 S1                -1.0000
     23 ****        -4.1128   5.8044  -0.0072 H              1 S1                 0.0000
     24 ****        -5.4158   5.2634  -1.0741 H              1 S1                 0.0000
     25 ****        -3.9204   5.9161  -1.7595 H              1 S1                 0.0000
     26 ****        -2.9952   0.6639   1.6996 H              1 S1                 0.0000
     27 ****        -2.4586   2.2640   2.2098 H              1 S1                 0.0000
     28 ****        -1.3346   1.1895   1.3815 H              1 S1                 0.0000
     29 ****        -2.4833  -0.5946  -0.2972 H              1 S1                 0.0000
     30 ****        -2.5566  -0.5681  -2.0214 H              1 S1                 0.0000
     31 ****        -0.8033  -2.1564  -1.1466 H              1 S1                 0.0000
     32 ****         1.2523  -2.9101  -1.1359 H              1 S1                 0.0000
     33 ****         2.9555  -1.8826  -2.5958 H              1 S1                 0.0000
     34 ****         2.0684  -0.3679  -2.6301 H              1 S1                 0.0000
     35 ****         1.3822  -1.8111  -3.3699 H              1 S1                 0.0000
     36 ****         2.1553  -0.2178  -0.0347 H              1 S1                 0.0000
     37 ****         3.6144  -2.7499  -0.4831 H              1 S1                 0.0000
     38 ****         4.2573  -1.2022   0.0524 H              1 S1                 0.0000
     39 ****         4.2218  -3.2046   1.8550 H              1 S1                 0.0000
     40 ****         3.6141  -1.6379   3.6682 H              1 S1                 0.0000
     41 ****         4.2002  -0.5475   2.4114 H              1 S1                 0.0000
     42 ****         1.4631  -0.8371   3.4445 H              1 S1                 0.0000
     43 ****         1.9955   0.3204   2.2281 H              1 S1                 0.0000
     44 ****         0.3098  -1.6229   1.4228 H              1 S1                 0.0000
     45 ****         1.7852  -3.7775   1.0531 H              1 S1                 0.0000
     46 ****         1.7632  -3.3349   2.7749 H              1 S1                 0.0000
     47 ****        -3.4248   3.8749   0.9682 LP             1 S1                 0.0000
     48 ****        -0.3245   1.7571  -1.2892 LP             1 S1                 0.0000
     49 ****         1.0914   0.7596  -1.3104 LP             1 S1                 0.0000
     50 ****        -2.6811   0.5419  -3.4494 LP             1 S1                 0.0000
     51 ****        -3.3812   1.9140  -4.2414 LP             1 S1                 0.0000
     52 ****        -4.0132   3.7709  -3.0302 LP             1 S1                 0.0000
@<TRIPOS>BOND
    1    1    2 1     
    2    1   23 1     
    3    1   24 1     
    4    1   25 1     
    5    2   22 1     
    6    2    3 2     
    7    3    4 1     
    8    4    5 1     
    9    4    6 2     
   10    5   26 1     
   11    5   27 1     
   12    5   28 1     
   13    6    7 1     
   14    6   20 1     
   15    7    8 1     
   16    7   29 1     
   17    7   30 1     
   18    8    9 2     
   19    8   10 am    
   20   10   11 1     
   21   10   31 1     
   22   11   12 1     
   23   11   13 1     
   24   11   32 1     
   25   12   33 1     
   26   12   34 1     
   27   12   35 1     
   28   13   18 1     
   29   13   14 1     
   30   13   36 1     
   31   14   15 1     
   32   14   37 1     
   33   14   38 1     
   34   15   19 1     
   35   15   16 1     
   36   15   39 1     
   37   16   17 1     
   38   16   40 1     
   39   16   41 1     
   40   17   18 1     
   41   17   42 1     
   42   17   43 1     
   43   18   19 1     
   44   18   44 1     
   45   19   45 1     
   46   19   46 1     
   47   20   21 2     
   48   20   22 1     
   49    3   47 1     
   50    9   48 1     
   51    9   49 1     
   52   21   50 1     
   53   21   51 1     
   54   22   52 1     
@<TRIPOS>SUBSTRUCTURE
      1 S1             1
@<TRIPOS>SET
LONE_PAIRS      STATIC     ATOMS    <user>   **** ""
6 47 48 49 50 51 52
DONOR_HYDROGENS      STATIC     ATOMS    <user>   **** ""
1 31
ATOM$BLUE        STATIC     ATOMS    COLORGROUP SYSTEM
6 47 48 49 50 51 52
ATOM$RED        STATIC     ATOMS    COLORGROUP SYSTEM
1 31
