AV-unprocessed.smi:3193|AV-procd|sdf|12204|dock1
  -GOLD-   2272018 43D 1   1.00000     0.00000
 Structure written by MMmdl.
 40 41  0  0  0  0  0  0  0  0  2 V2000
  142.5745  134.9303  152.6384 C   0  0  0  0  0  0  0  0  0  0  0  0
  143.9475  134.3220  152.2952 C   0  0  1  0  0  0  0  0  0  0  0  0
  143.7480  132.9282  151.6627 C   0  0  0  0  0  0  0  0  0  0  0  0
  145.0832  132.2395  151.3508 C   0  0  0  0  0  0  0  0  0  0  0  0
  145.9492  133.1185  150.4423 C   0  0  0  0  0  0  0  0  0  0  0  0
  146.1637  134.5042  151.0664 C   0  0  0  0  0  0  0  0  0  0  0  0
  144.8298  135.2202  151.3761 C   0  0  2  0  0  0  0  0  0  0  0  0
  145.1261  136.6159  151.9697 C   0  0  0  0  0  0  0  0  0  0  0  0
  146.1994  137.3109  151.2331 N   0  3  0  0  0  0  0  0  0  0  0  0
  146.5550  138.6368  151.7761 C   0  0  0  0  0  0  0  0  0  0  0  0
  146.9031  138.5505  153.2701 C   0  0  0  0  0  0  0  0  0  0  0  0
  147.4760  139.7902  153.7615 N   0  0  0  0  0  0  0  0  0  0  0  0
  146.8626  141.0352  153.8101 C   0  0  0  0  0  0  0  0  0  0  0  0
  147.7888  141.9098  154.3319 C   0  0  0  0  0  0  0  0  0  0  0  0
  148.9702  141.2278  154.6127 N   0  0  0  0  0  0  0  0  0  0  0  0
  148.7075  139.9775  154.2566 C   0  0  0  0  0  0  0  0  0  0  0  0
  142.0257  135.2112  151.7391 H   0  0  0  0  0  0  0  0  0  0  0  0
  142.6683  135.8122  153.2712 H   0  0  0  0  0  0  0  0  0  0  0  0
  141.9585  134.2199  153.1906 H   0  0  0  0  0  0  0  0  0  0  0  0
  144.4790  134.1785  153.2373 H   0  0  0  0  0  0  0  0  0  0  0  0
  143.1674  132.2929  152.3327 H   0  0  0  0  0  0  0  0  0  0  0  0
  143.1643  133.0196  150.7454 H   0  0  0  0  0  0  0  0  0  0  0  0
  145.6161  132.0324  152.2796 H   0  0  0  0  0  0  0  0  0  0  0  0
  144.9031  131.2754  150.8745 H   0  0  0  0  0  0  0  0  0  0  0  0
  146.9113  132.6365  150.2659 H   0  0  0  0  0  0  0  0  0  0  0  0
  145.4716  133.2237  149.4673 H   0  0  0  0  0  0  0  0  0  0  0  0
  146.7488  134.4025  151.9818 H   0  0  0  0  0  0  0  0  0  0  0  0
  146.7639  135.1089  150.3857 H   0  0  0  0  0  0  0  0  0  0  0  0
  144.3123  135.3571  150.4248 H   0  0  0  0  0  0  0  0  0  0  0  0
  144.2184  137.2210  151.9767 H   0  0  0  0  0  0  0  0  0  0  0  0
  145.4522  136.5268  153.0069 H   0  0  0  0  0  0  0  0  0  0  0  0
  147.0230  136.7263  151.2204 H   0  0  0  0  0  0  0  0  0  0  0  0
  147.4037  139.0429  151.2238 H   0  0  0  0  0  0  0  0  0  0  0  0
  145.7189  139.3201  151.6240 H   0  0  0  0  0  0  0  0  0  0  0  0
  146.0065  138.3347  153.8523 H   0  0  0  0  0  0  0  0  0  0  0  0
  147.6040  137.7353  153.4561 H   0  0  0  0  0  0  0  0  0  0  0  0
  145.8479  141.1936  153.4754 H   0  0  0  0  0  0  0  0  0  0  0  0
  147.6968  142.9688  154.5246 H   0  0  0  0  0  0  0  0  0  0  0  0
  149.4330  139.1822  154.3471 H   0  0  0  0  0  0  0  0  0  0  0  0
  145.8829  137.4415  150.2828 H   0  0  0  0  0  0  0  0  0  0  0  0
  1  2  1  0  0  0  0
  1 17  1  0  0  0  0
  1 18  1  0  0  0  0
  1 19  1  0  0  0  0
  2  7  1  0  0  0  0
  2  3  1  0  0  0  0
  2 20  1  0  0  0  0
  3  4  1  0  0  0  0
  3 21  1  0  0  0  0
  3 22  1  0  0  0  0
  4  5  1  0  0  0  0
  4 23  1  0  0  0  0
  4 24  1  0  0  0  0
  5  6  1  0  0  0  0
  5 25  1  0  0  0  0
  5 26  1  0  0  0  0
  6  7  1  0  0  0  0
  6 27  1  0  0  0  0
  6 28  1  0  0  0  0
  7  8  1  0  0  0  0
  7 29  1  0  0  0  0
  8  9  1  0  0  0  0
  8 30  1  0  0  0  0
  8 31  1  0  0  0  0
  9 10  1  0  0  0  0
  9 32  1  0  0  0  0
  9 40  1  0  0  0  0
 10 11  1  0  0  0  0
 10 33  1  0  0  0  0
 10 34  1  0  0  0  0
 11 12  1  0  0  0  0
 11 35  1  0  0  0  0
 11 36  1  0  0  0  0
 12 16  1  0  0  0  0
 12 13  1  0  0  0  0
 13 14  2  0  0  0  0
 13 37  1  0  0  0  0
 14 15  1  0  0  0  0
 14 38  1  0  0  0  0
 15 16  2  0  0  0  0
 16 39  1  0  0  0  0
M  CHG  1   9   1
M  END
> <s_m_source_file>
AV-unprocessed.smi

> <i_m_source_file_index>
3193

> <i_lp_mmshare_version>
43012

> <i_f3d_flags>
0

> <s_epik_input>
W0NIM11bQ0BASF0xW0NIMl1bQ0gyXVtDSDJdW0NIMl1bQ0BIXTFbQ0gyXVtOSF1bQ0gyXVtDSDJdbjJbY0hdW2NIXW5bY0hdMg==

> <s_epik_cmdline>
J2VwaWtfcHl0aG9uJywgJy1waCcsICc3LjAnLCAnLXRuJywgJzgnLCAnLW1hJywgJzIwMCcsICctbWV0YWxfYmluZGluZycsICctaW1hZScsICc8aW5maWxlLm1hZT4nLCAnLW9tYWUnLCAnPG91dGZpbGUubWFlPic=

> <r_lp_tautomer_probability>
1

> <r_epik_Ionization_Penalty>
0.0503046

> <r_epik_Ionization_Penalty_Charging>
0.0503046

> <r_epik_Ionization_Penalty_Neutral>
0

> <r_epik_State_Penalty>
0.0981804

> <r_epik_Charging_Adjusted_Penalty>
0.148485

> <i_epik_Tot_Q>
1

> <i_epik_Tot_abs_Q>
1

> <r_epik_Metal_State_Penalty>
0.000105854

> <b_epik_Metal_Only>
0

> <s_lp_Force_Field>
OPLS_2005

> <r_lp_Energy>
18.894

> <b_lp_Chiralities_Consistent>
1

> <s_lp_Variant>
AV-unprocessed.smi:3193-4

> <Gold.Version>
5.8.1

> <Gold.Id.Protein>
6NUR|6NUR_protein|mol2

> <Gold.PLP.Fitness>
47.3838

> <Gold.PLP.PLP>
-35.5453

> <Gold.PLP.part.hbond>
-2.1703

> <Gold.PLP.part.metal>
0.0000

> <Gold.PLP.part.buried>
-3.2329

> <Gold.PLP.part.nonpolar>
-31.2984

> <Gold.PLP.part.repulsive>
0.2493

> <Gold.PLP.ligand.clash>
0.0000

> <Gold.PLP.ligand.torsion>
0.1487

> <Gold.PLP.Chemscore.Hbond>
2.0437

> <Gold.PLP.Chemscore.CHOScore>
1.9971

> <Gold.PLP.Chemscore.Metal>
0.0000

> <Gold.Chemscore.Hbonds>
donor molecule, donor type, donor heavy atom, donor atom, acceptor molecule, acceptor atom, score
      L1  H     9    32       P1  7948  1.89
      L1  H     9    40       P1 10171  0.09
      L1  C    13    37       P1 10175  1.00
      L1  C    14    38       P1  8028  1.00

> <Gold.PLP.Chemscore.Internal.Correction>
0.0136

> <Gold.Rescore>
     Score         DG    S(hbond)    S(metal)    S(lipo)     H(rot)  DE(clash)    DE(int)     intcor
     13.23     -13.46       0.99        0.00      81.19       1.89       0.14       0.10       ----

> <Gold.Chemscore.Fitness>
13.2280

> <Gold.Chemscore.DG>
-13.4641

> <Gold.Chemscore.ZeroCoef>
-5.4800

> <Gold.Chemscore.Hbond>
0.9947

> <Gold.Chemscore.Metal>
0.0000

> <Gold.Chemscore.Lipo>
81.1860

> <Gold.Chemscore.Internal_Hbond>
0.0000

> <Gold.Chemscore.DEClash>
0.1357

> <Gold.Chemscore.DEInternal>
0.1004

> <Gold.Chemscore.Rot>
1.8895

> <Gold.Chemscore.Internal.Correction>
   9.000000E+99

> <Gold.Chemscore.Hbonds>
donor molecule, donor type, donor heavy atom, donor atom, acceptor molecule, acceptor atom, score
      L1  H     9    32       P1  7948  0.87
      L1  H     9    40       P1 10171  0.09

> <Gold.Chemscore.Hbond.Weighted>
-3.3224

> <Gold.Chemscore.Metal.Weighted>
-0.0000

> <Gold.Chemscore.Lipo.Weighted>
-9.4988

> <Gold.Chemscore.Internal_Hbond.Weighted>
0.0000

> <Gold.Chemscore.DEClash.Weighted>
0.1357

> <Gold.Chemscore.DEInternal.Weighted>
0.1004

> <Gold.Chemscore.Rot.Weighted>
4.8371

> <Gold.Chemscore.Internal.Correction.Weighted>
   9.000000E+99

> <Gold.Protein.RotatedTorsions>
[ 6907 6896 6895 6894 ] final   23.84 input  -60.11 | X-H torsion
[ 7974 7965 7964 7962 ] final   69.13 input  175.53 | X-H torsion
[ 8008 7997 7996 7995 ] final   89.69 input   59.86 | X-H torsion
[ 10167 10162 10161 10158 ] final   96.16 input  -65.29 | X-H torsion
[ 10718 10713 10712 10709 ] final  -95.37 input   66.30 | X-H torsion
[ 10763 10752 10751 10750 ] final   95.42 input  -60.55 | X-H torsion
[ 11005 11000 10999 10996 ] final   76.71 input  -57.11 | X-H torsion

> <Gold.Protein.ActiveResidues>
 VAL166  LYS551  ARG553  GLY616  TRP617  ASP618  TYR619  PRO620  LYS621  CYS622 
 ASP623  PHE694  ASN695  SER759  ASP760  ASP761  ALA762  ILE779  LEU786  VAL792 
 PHE793  MET794  SER795  GLU796  ALA797  LYS798  CYS799  TRP800  GLU811  SER814 

> <Gold.Protein.RotatedAtoms>
  151.9484  135.0181  160.0540 H   0  0  0  0  0  0  0  0  0  0  0  0  # atno 6907 bound_to 6896
  152.1975  133.4812  159.5049 H   0  0  0  0  0  0  0  0  0  0  0  0  # atno 6908 bound_to 6896
  150.6947  134.1551  159.4198 H   0  0  0  0  0  0  0  0  0  0  0  0  # atno 6909 bound_to 6896
  145.7941  139.2949  143.1193 H   0  0  0  0  0  0  0  0  0  0  0  0  # atno 7974 bound_to 7965
  156.0029  140.3358  155.6864 H   0  0  0  0  0  0  0  0  0  0  0  0  # atno 8008 bound_to 7997
  155.6265  140.0680  157.2680 H   0  0  0  0  0  0  0  0  0  0  0  0  # atno 8009 bound_to 7997
  154.4255  140.1767  156.1414 H   0  0  0  0  0  0  0  0  0  0  0  0  # atno 8010 bound_to 7997
  139.7920  144.6848  150.9879 H   0  0  0  0  0  0  0  0  0  0  0  0  # atno 10167 bound_to 10162
  156.0042  130.5106  150.6066 H   0  0  0  0  0  0  0  0  0  0  0  0  # atno 10718 bound_to 10713
  153.2530  135.4254  155.0816 H   0  0  0  0  0  0  0  0  0  0  0  0  # atno 10763 bound_to 10752
  154.8389  135.3430  154.6486 H   0  0  0  0  0  0  0  0  0  0  0  0  # atno 10764 bound_to 10752
  153.6907  135.7034  153.5147 H   0  0  0  0  0  0  0  0  0  0  0  0  # atno 10765 bound_to 10752
  139.9286  134.7623  156.1430 H   0  0  0  0  0  0  0  0  0  0  0  0  # atno 11005 bound_to 11000
  145.9946  140.8573  143.0049 LP  0  0  0  0  0  0  0  0  0  0  0  0  # atno 17320 bound_to 7965
  144.6777  140.2264  143.7360 LP  0  0  0  0  0  0  0  0  0  0  0  0  # atno 17321 bound_to 7965
  140.7820  143.4371  151.0607 LP  0  0  0  0  0  0  0  0  0  0  0  0  # atno 17342 bound_to 10162
  139.8047  143.8035  152.3166 LP  0  0  0  0  0  0  0  0  0  0  0  0  # atno 17343 bound_to 10162
  157.3905  131.0795  151.1397 LP  0  0  0  0  0  0  0  0  0  0  0  0  # atno 17370 bound_to 10713
  157.2091  130.6429  149.5767 LP  0  0  0  0  0  0  0  0  0  0  0  0  # atno 17371 bound_to 10713
  141.0860  133.6734  156.2438 LP  0  0  0  0  0  0  0  0  0  0  0  0  # atno 17394 bound_to 11000
  140.6265  134.5307  157.5554 LP  0  0  0  0  0  0  0  0  0  0  0  0  # atno 17395 bound_to 11000

$$$$
