AV-unprocessed.smi:1404|AV-procd|sdf|5705|dock4
  -GOLD-   22720 5333D 1   1.00000     0.00000
 Structure written by MMmdl.
 47 48  0  0  0  0  0  0  0  0  1 V2000
  146.8497  129.3335  153.2383 C   0  0  0  0  0  0  0  0  0  0  0  0
  147.0279  130.7125  152.8344 N   0  0  0  0  0  0  0  0  0  0  0  0
  146.0697  131.3137  151.9823 C   0  0  0  0  0  0  0  0  0  0  0  0
  145.0799  130.7118  151.5648 O   0  0  0  0  0  0  0  0  0  0  0  0
  146.3523  132.7035  151.6441 C   0  0  0  0  0  0  0  0  0  0  0  0
  147.4480  133.3277  152.1285 C   0  0  0  0  0  0  0  0  0  0  0  0
  148.3665  132.7174  152.9631 N   0  0  0  0  0  0  0  0  0  0  0  0
  149.5341  133.4704  153.4385 C   0  0  0  0  0  0  0  0  0  0  0  0
  149.2871  134.1674  154.7826 C   0  0  0  0  0  0  0  0  0  0  0  0
  149.1882  133.5137  155.8219 O   0  0  0  0  0  0  0  0  0  0  0  0
  149.2073  135.5038  154.7462 N   0  0  0  0  0  0  0  0  0  0  0  0
  148.9493  136.3519  155.9056 C   0  0  0  0  0  0  0  0  0  0  0  0
  149.0466  137.8653  155.5603 C   0  0  0  0  0  0  0  0  0  0  0  0
  148.3657  138.0629  154.1847 C   0  0  0  0  0  0  0  0  0  0  0  0
  148.1850  138.6085  156.6125 C   0  0  0  0  0  0  0  0  0  0  0  0
  150.4567  138.3471  155.5894 N   0  0  0  0  0  0  0  0  0  0  0  0
  151.2606  137.9790  154.4178 C   0  0  0  0  0  0  0  0  0  0  0  0
  152.7319  138.4008  154.5697 C   0  0  0  0  0  0  0  0  0  0  0  0
  152.8069  139.8014  154.8069 O   0  0  0  0  0  0  0  0  0  0  0  0
  152.0897  140.1930  155.9710 C   0  0  0  0  0  0  0  0  0  0  0  0
  150.6128  139.7857  155.8327 C   0  0  0  0  0  0  0  0  0  0  0  0
  148.1702  131.3715  153.3395 C   0  0  0  0  0  0  0  0  0  0  0  0
  148.9730  130.8010  154.0831 O   0  0  0  0  0  0  0  0  0  0  0  0
  145.9736  128.8902  152.7663 H   0  0  0  0  0  0  0  0  0  0  0  0
  146.7319  129.3295  154.3234 H   0  0  0  0  0  0  0  0  0  0  0  0
  147.7440  128.7872  152.9330 H   0  0  0  0  0  0  0  0  0  0  0  0
  145.6743  133.2394  150.9963 H   0  0  0  0  0  0  0  0  0  0  0  0
  147.6135  134.3570  151.8450 H   0  0  0  0  0  0  0  0  0  0  0  0
  150.3881  132.8021  153.5550 H   0  0  0  0  0  0  0  0  0  0  0  0
  149.8338  134.2044  152.6879 H   0  0  0  0  0  0  0  0  0  0  0  0
  149.2978  135.9665  153.8532 H   0  0  0  0  0  0  0  0  0  0  0  0
  147.9716  136.1136  156.3270 H   0  0  0  0  0  0  0  0  0  0  0  0
  149.6675  136.0909  156.6847 H   0  0  0  0  0  0  0  0  0  0  0  0
  147.3371  137.7003  154.2028 H   0  0  0  0  0  0  0  0  0  0  0  0
  148.8766  137.5173  153.3915 H   0  0  0  0  0  0  0  0  0  0  0  0
  148.3224  139.1115  153.8918 H   0  0  0  0  0  0  0  0  0  0  0  0
  147.2021  138.1488  156.7223 H   0  0  0  0  0  0  0  0  0  0  0  0
  148.0036  139.6478  156.3391 H   0  0  0  0  0  0  0  0  0  0  0  0
  148.6570  138.6041  157.5958 H   0  0  0  0  0  0  0  0  0  0  0  0
  151.2430  136.9028  154.2560 H   0  0  0  0  0  0  0  0  0  0  0  0
  150.8529  138.4419  153.5192 H   0  0  0  0  0  0  0  0  0  0  0  0
  153.2067  137.8586  155.3892 H   0  0  0  0  0  0  0  0  0  0  0  0
  153.2891  138.1632  153.6634 H   0  0  0  0  0  0  0  0  0  0  0  0
  152.5361  139.7340  156.8545 H   0  0  0  0  0  0  0  0  0  0  0  0
  152.1739  141.2728  156.0939 H   0  0  0  0  0  0  0  0  0  0  0  0
  150.1674  140.3566  155.0179 H   0  0  0  0  0  0  0  0  0  0  0  0
  150.1009  140.0838  156.7456 H   0  0  0  0  0  0  0  0  0  0  0  0
  1  2  1  0  0  0  0
  1 24  1  0  0  0  0
  1 25  1  0  0  0  0
  1 26  1  0  0  0  0
  2 22  1  0  0  0  0
  2  3  1  0  0  0  0
  3  4  2  0  0  0  0
  3  5  1  0  0  0  0
  5  6  2  0  0  0  0
  5 27  1  0  0  0  0
  6  7  1  0  0  0  0
  6 28  1  0  0  0  0
  7  8  1  0  0  0  0
  7 22  1  0  0  0  0
  8  9  1  0  0  0  0
  8 29  1  0  0  0  0
  8 30  1  0  0  0  0
  9 10  2  0  0  0  0
  9 11  1  0  0  0  0
 11 12  1  0  0  0  0
 11 31  1  0  0  0  0
 12 13  1  0  0  0  0
 12 32  1  0  0  0  0
 12 33  1  0  0  0  0
 13 14  1  0  0  0  0
 13 15  1  0  0  0  0
 13 16  1  0  0  0  0
 14 34  1  0  0  0  0
 14 35  1  0  0  0  0
 14 36  1  0  0  0  0
 15 37  1  0  0  0  0
 15 38  1  0  0  0  0
 15 39  1  0  0  0  0
 16 21  1  0  0  0  0
 16 17  1  0  0  0  0
 17 18  1  0  0  0  0
 17 40  1  0  0  0  0
 17 41  1  0  0  0  0
 18 19  1  0  0  0  0
 18 42  1  0  0  0  0
 18 43  1  0  0  0  0
 19 20  1  0  0  0  0
 20 21  1  0  0  0  0
 20 44  1  0  0  0  0
 20 45  1  0  0  0  0
 21 46  1  0  0  0  0
 21 47  1  0  0  0  0
 22 23  2  0  0  0  0
M  END
> <s_m_source_file>
AV-unprocessed.smi

> <i_m_source_file_index>
1404

> <i_lp_mmshare_version>
43012

> <i_f3d_flags>
0

> <s_epik_input>
W0NIM11uMWMoPU8pW2NIXVtjSF1uKGMxPU8pW0NIMl1DKD1PKVtOSF1bQ0gyXUMoW0NIM10pKFtDSDNdKU4yW0NIMl1bQ0gyXU9bQ0gyXVtDSDJdMg==

> <s_epik_cmdline>
J2VwaWtfcHl0aG9uJywgJy1waCcsICc3LjAnLCAnLXRuJywgJzgnLCAnLW1hJywgJzIwMCcsICctbWV0YWxfYmluZGluZycsICctaW1hZScsICc8aW5maWxlLm1hZT4nLCAnLW9tYWUnLCAnPG91dGZpbGUubWFlPic=

> <r_lp_tautomer_probability>
1

> <r_epik_Ionization_Penalty>
0.237382

> <r_epik_Ionization_Penalty_Charging>
1.16427e-08

> <r_epik_Ionization_Penalty_Neutral>
0.237382

> <r_epik_State_Penalty>
0.228245

> <r_epik_Charging_Adjusted_Penalty>
0.228245

> <i_epik_Tot_Q>
0

> <i_epik_Tot_abs_Q>
0

> <r_epik_Metal_State_Penalty>
0.22822

> <b_epik_Metal_Only>
0

> <s_lp_Force_Field>
OPLS_2005

> <r_lp_Energy>
49.615

> <b_lp_Chiralities_Consistent>
1

> <s_lp_Variant>
AV-unprocessed.smi:1404-1

> <Gold.Version>
5.8.1

> <Gold.Id.Protein>
6NUR|6NUR_protein|mol2

> <Gold.PLP.Fitness>
40.9486

> <Gold.PLP.PLP>
-33.7750

> <Gold.PLP.part.hbond>
-2.7182

> <Gold.PLP.part.metal>
0.0000

> <Gold.PLP.part.buried>
-2.9328

> <Gold.PLP.part.nonpolar>
-29.2561

> <Gold.PLP.part.repulsive>
0.2873

> <Gold.PLP.ligand.clash>
0.0000

> <Gold.PLP.ligand.torsion>
1.3840

> <Gold.PLP.Chemscore.Hbond>
2.2780

> <Gold.PLP.Chemscore.CHOScore>
0.9999

> <Gold.PLP.Chemscore.Metal>
0.0000

> <Gold.Chemscore.Hbonds>
donor molecule, donor type, donor heavy atom, donor atom, acceptor molecule, acceptor atom, score
      L1  H    11    31       P1  7948  1.00
      P1  H  7989  7998       L1    19  0.36
      P1  H  7997  8009       L1    19  0.35
      L1  C     6    28       P1  7948  1.00

> <Gold.PLP.Chemscore.Internal.Correction>
0.1079

> <Gold.Rescore>
     Score         DG    S(hbond)    S(metal)    S(lipo)     H(rot)  DE(clash)    DE(int)     intcor
     10.78     -12.40       1.65        0.00      57.40       2.07       0.38       1.24       ----

> <Gold.Chemscore.Fitness>
10.7806

> <Gold.Chemscore.DG>
-12.4014

> <Gold.Chemscore.ZeroCoef>
-5.4800

> <Gold.Chemscore.Hbond>
1.6452

> <Gold.Chemscore.Metal>
0.0000

> <Gold.Chemscore.Lipo>
57.4047

> <Gold.Chemscore.Internal_Hbond>
0.0000

> <Gold.Chemscore.DEClash>
0.3809

> <Gold.Chemscore.DEInternal>
1.2399

> <Gold.Chemscore.Rot>
2.0664

> <Gold.Chemscore.Internal.Correction>
   9.000000E+99

> <Gold.Chemscore.Hbonds>
donor molecule, donor type, donor heavy atom, donor atom, acceptor molecule, acceptor atom, score
      L1  H    11    31       P1  7948  0.74
      P1  H  7989  7998       L1    19  0.04

> <Gold.Chemscore.Hbond.Weighted>
-5.4950

> <Gold.Chemscore.Metal.Weighted>
-0.0000

> <Gold.Chemscore.Lipo.Weighted>
-6.7164

> <Gold.Chemscore.Internal_Hbond.Weighted>
0.0000

> <Gold.Chemscore.DEClash.Weighted>
0.3809

> <Gold.Chemscore.DEInternal.Weighted>
1.2399

> <Gold.Chemscore.Rot.Weighted>
5.2899

> <Gold.Chemscore.Internal.Correction.Weighted>
   9.000000E+99

> <Gold.Protein.RotatedTorsions>
[ 6907 6896 6895 6894 ] final   96.43 input  -60.11 | X-H torsion
[ 7974 7965 7964 7962 ] final  162.85 input  175.53 | X-H torsion
[ 8008 7997 7996 7995 ] final -130.92 input   59.86 | X-H torsion
[ 10167 10162 10161 10158 ] final  -66.33 input  -65.29 | X-H torsion
[ 10718 10713 10712 10709 ] final -179.56 input   66.30 | X-H torsion
[ 10763 10752 10751 10750 ] final   21.58 input  -60.55 | X-H torsion
[ 11005 11000 10999 10996 ] final  113.88 input  -57.11 | X-H torsion

> <Gold.Protein.ActiveResidues>
 VAL166  LYS551  ARG553  GLY616  TRP617  ASP618  TYR619  PRO620  LYS621  CYS622 
 ASP623  PHE694  ASN695  SER759  ASP760  ASP761  ALA762  ILE779  LEU786  VAL792 
 PHE793  MET794  SER795  GLU796  ALA797  LYS798  CYS799  TRP800  GLU811  SER814 

> <Gold.Protein.RotatedAtoms>
  152.5435  134.0887  159.8266 H   0  0  0  0  0  0  0  0  0  0  0  0  # atno 6907 bound_to 6896
  151.0979  133.5258  159.2619 H   0  0  0  0  0  0  0  0  0  0  0  0  # atno 6908 bound_to 6896
  151.2025  135.0457  159.8932 H   0  0  0  0  0  0  0  0  0  0  0  0  # atno 6909 bound_to 6896
  144.7617  139.8099  143.6330 H   0  0  0  0  0  0  0  0  0  0  0  0  # atno 7974 bound_to 7965
  155.3037  140.0454  157.3031 H   0  0  0  0  0  0  0  0  0  0  0  0  # atno 8008 bound_to 7997
  154.5472  140.2306  155.8511 H   0  0  0  0  0  0  0  0  0  0  0  0  # atno 8009 bound_to 7997
  156.1934  140.3044  155.9386 H   0  0  0  0  0  0  0  0  0  0  0  0  # atno 8010 bound_to 7997
  140.5665  143.2315  151.6624 H   0  0  0  0  0  0  0  0  0  0  0  0  # atno 10167 bound_to 10162
  156.8609  130.9751  151.3083 H   0  0  0  0  0  0  0  0  0  0  0  0  # atno 10718 bound_to 10713
  153.0984  135.6666  153.9719 H   0  0  0  0  0  0  0  0  0  0  0  0  # atno 10763 bound_to 10752
  153.9297  135.3005  155.3447 H   0  0  0  0  0  0  0  0  0  0  0  0  # atno 10764 bound_to 10752
  154.7404  135.5082  153.9187 H   0  0  0  0  0  0  0  0  0  0  0  0  # atno 10765 bound_to 10752
  139.8965  134.9558  156.6806 H   0  0  0  0  0  0  0  0  0  0  0  0  # atno 11005 bound_to 11000
  146.1686  139.4827  142.9942 LP  0  0  0  0  0  0  0  0  0  0  0  0  # atno 17320 bound_to 7965
  145.6599  141.0243  143.1714 LP  0  0  0  0  0  0  0  0  0  0  0  0  # atno 17321 bound_to 7965
  139.5095  144.3573  152.0596 LP  0  0  0  0  0  0  0  0  0  0  0  0  # atno 17342 bound_to 10162
  140.2705  144.3969  150.6153 LP  0  0  0  0  0  0  0  0  0  0  0  0  # atno 17343 bound_to 10162
  157.6250  130.8685  149.9174 LP  0  0  0  0  0  0  0  0  0  0  0  0  # atno 17370 bound_to 10713
  156.0777  130.3677  150.0644 LP  0  0  0  0  0  0  0  0  0  0  0  0  # atno 17371 bound_to 10713
  140.7302  133.9065  155.8206 LP  0  0  0  0  0  0  0  0  0  0  0  0  # atno 17394 bound_to 11000
  141.0159  134.0956  157.4172 LP  0  0  0  0  0  0  0  0  0  0  0  0  # atno 17395 bound_to 11000

$$$$
