#       Name:                AV-unprocessed.smi:1709
#       Creating user name   scv26
#       Creation time:       Fri Mar 27 08:10:09 2020


#       File generated by GOLD software.
#

@<TRIPOS>MOLECULE
AV-unprocessed.smi:1709
    46    48     1
SMALL
NO_CHARGES


@<TRIPOS>ATOM
      1 ****        -1.9358  -4.5184   0.5584 C.3            1 S1                 0.0000
      2 ****        -0.5590  -4.8205   1.1287 C.ar           1 S1                 0.0000
      3 ****        -0.3471  -6.0442   1.7989 C.ar           1 S1                 0.0000
      4 ****         0.9241  -6.3269   2.3258 C.ar           1 S1                 0.0000
      5 ****         1.9361  -5.3674   2.1589 C.ar           1 S1                 0.0000
      6 ****         1.7420  -4.1960   1.5191 N.ar           1 S1                 0.0000
      7 ****         0.5200  -3.9039   1.0034 C.ar           1 S1                 0.0000
      8 ****         0.2256  -2.6898   0.3076 N.am           1 S1                 0.0000
      9 ****         0.9930  -1.6274  -0.0176 C.2            1 S1                 0.0000
     10 ****         2.1813  -1.5837   0.2962 O.2            1 S1                 0.0000
     11 ****         0.3853  -0.6353  -0.6878 N.am           1 S1                 0.0000
     12 ****         1.0072   0.6156  -1.1071 C.3            1 S1                 0.0000
     13 ****         0.3529   1.2153  -2.3644 C.3            1 S1                 0.0000
     14 ****         0.3360   2.7387  -2.1302 C.3            1 S1                 0.0000
     15 ****         1.0502   2.9464  -0.8561 N.4            1 S1                 1.0000
     16 ****         0.7396   4.1810  -0.1030 C.3            1 S1                 0.0000
     17 ****         1.6396   4.2544   1.1468 C.3            1 S1                 0.0000
     18 ****         1.5431   2.9716   1.9978 C.3            1 S1                 0.0000
     19 ****         1.7839   1.7148   1.1395 C.3            1 S1                 0.0000
     20 ****         0.8305   1.7248  -0.0674 C.3            1 S1                 0.0000
     21 ****        -2.6297  -5.3398   0.7392 H              1 S1                 0.0000
     22 ****        -1.8778  -4.3608  -0.5191 H              1 S1                 0.0000
     23 ****        -2.3513  -3.6215   1.0190 H              1 S1                 0.0000
     24 ****        -1.1475  -6.7610   1.9090 H              1 S1                 0.0000
     25 ****         1.1175  -7.2548   2.8434 H              1 S1                 0.0000
     26 ****         2.9281  -5.5439   2.5477 H              1 S1                 0.0000
     27 ****        -0.7240  -2.6308  -0.0304 H              1 S1                 0.0000
     28 ****        -0.5937  -0.7558  -0.9086 H              1 S1                 0.0000
     29 ****         2.0705   0.4695  -1.3090 H              1 S1                 0.0000
     30 ****         0.9119   0.9488  -3.2620 H              1 S1                 0.0000
     31 ****        -0.6678   0.8518  -2.4957 H              1 S1                 0.0000
     32 ****         0.8178   3.2899  -2.9380 H              1 S1                 0.0000
     33 ****        -0.6930   3.0917  -2.0453 H              1 S1                 0.0000
     34 ****         0.9074   5.0504  -0.7395 H              1 S1                 0.0000
     35 ****        -0.3133   4.1876   0.1831 H              1 S1                 0.0000
     36 ****         2.6751   4.4016   0.8366 H              1 S1                 0.0000
     37 ****         1.3732   5.1234   1.7491 H              1 S1                 0.0000
     38 ****         2.2601   3.0094   2.8185 H              1 S1                 0.0000
     39 ****         0.5544   2.9139   2.4547 H              1 S1                 0.0000
     40 ****         2.8205   1.6875   0.8006 H              1 S1                 0.0000
     41 ****         1.6271   0.8197   1.7416 H              1 S1                 0.0000
     42 ****        -0.2032   1.7214   0.2871 H              1 S1                 0.0000
     43 ****         2.0351   2.9677  -1.0790 H              1 S1                 0.0000
     44 ****         2.4952  -3.5449   1.4248 LP             1 S1                 0.0000
     45 ****         2.5936  -2.3427   0.8002 LP             1 S1                 0.0000
     46 ****         2.7353  -0.7893   0.0473 LP             1 S1                 0.0000
@<TRIPOS>BOND
    1    1    2 1     
    2    1   21 1     
    3    1   22 1     
    4    1   23 1     
    5    2    7 ar    
    6    2    3 ar    
    7    3    4 ar    
    8    3   24 1     
    9    4    5 ar    
   10    4   25 1     
   11    5    6 ar    
   12    5   26 1     
   13    6    7 ar    
   14    7    8 1     
   15    8    9 am    
   16    8   27 1     
   17    9   10 2     
   18    9   11 am    
   19   11   12 1     
   20   11   28 1     
   21   12   20 1     
   22   12   13 1     
   23   12   29 1     
   24   13   14 1     
   25   13   30 1     
   26   13   31 1     
   27   14   15 1     
   28   14   32 1     
   29   14   33 1     
   30   15   20 1     
   31   15   16 1     
   32   15   43 1     
   33   16   17 1     
   34   16   34 1     
   35   16   35 1     
   36   17   18 1     
   37   17   36 1     
   38   17   37 1     
   39   18   19 1     
   40   18   38 1     
   41   18   39 1     
   42   19   20 1     
   43   19   40 1     
   44   19   41 1     
   45   20   42 1     
   46    6   44 1     
   47   10   45 1     
   48   10   46 1     
@<TRIPOS>SUBSTRUCTURE
      1 S1             1
@<TRIPOS>SET
LONE_PAIRS      STATIC     ATOMS    <user>   **** ""
3 44 45 46
DONOR_HYDROGENS      STATIC     ATOMS    <user>   **** ""
3 27 28 43
ATOM$BLUE        STATIC     ATOMS    COLORGROUP SYSTEM
3 44 45 46
ATOM$RED        STATIC     ATOMS    COLORGROUP SYSTEM
3 27 28 43
