AV-unprocessed.smi:1786|AV-procd|sdf|7205|dock6
  -GOLD-   22720 8443D 1   1.00000     0.00000
 Structure written by MMmdl.
 44 45  0  0  0  0  0  0  0  0  2 V2000
  145.5344  136.2832  153.1172 C   0  0  0  0  0  0  0  0  0  0  0  0
  145.6855  134.7525  153.0170 C   0  0  1  0  0  0  0  0  0  0  0  0
  145.4899  134.3221  151.5465 C   0  0  0  0  0  0  0  0  0  0  0  0
  145.6407  132.8086  151.3655 C   0  0  0  0  0  0  0  0  0  0  0  0
  146.9999  132.3636  151.9087 C   0  0  0  0  0  0  0  0  0  0  0  0
  147.1584  132.7914  153.3745 C   0  0  0  0  0  0  0  0  0  0  0  0
  146.9985  134.2616  153.5464 N   0  3  2  0  0  0  0  0  0  0  0  0
  147.2829  134.6733  154.9485 C   0  0  0  0  0  0  0  0  0  0  0  0
  148.7910  134.6300  155.2622 C   0  0  0  0  0  0  0  0  0  0  0  0
  149.4973  135.7396  154.6334 N   0  0  0  0  0  0  0  0  0  0  0  0
  150.4384  136.4841  155.2339 C   0  0  0  0  0  0  0  0  0  0  0  0
  150.7746  136.3242  156.4078 O   0  0  0  0  0  0  0  0  0  0  0  0
  151.0883  137.5813  154.3806 C   0  0  0  0  0  0  0  0  0  0  0  0
  150.6159  138.9284  154.7403 N   0  0  0  0  0  0  0  0  0  0  0  0
  149.5933  139.4870  153.9477 C   0  0  0  0  0  0  0  0  0  0  0  0
  149.0881  140.7055  154.1967 C   0  0  0  0  0  0  0  0  0  0  0  0
  149.6222  141.4518  155.3114 C   0  0  0  0  0  0  0  0  0  0  0  0
  150.5981  140.9256  156.0777 C   0  0  0  0  0  0  0  0  0  0  0  0
  151.1487  139.5915  155.8134 C   0  0  0  0  0  0  0  0  0  0  0  0
  152.0328  139.0983  156.5151 O   0  0  0  0  0  0  0  0  0  0  0  0
  144.5923  136.6093  152.6756 H   0  0  0  0  0  0  0  0  0  0  0  0
  146.3370  136.7974  152.5875 H   0  0  0  0  0  0  0  0  0  0  0  0
  145.5302  136.6339  154.1490 H   0  0  0  0  0  0  0  0  0  0  0  0
  144.8943  134.2951  153.6136 H   0  0  0  0  0  0  0  0  0  0  0  0
  144.5041  134.6301  151.1955 H   0  0  0  0  0  0  0  0  0  0  0  0
  146.2146  134.8348  150.9124 H   0  0  0  0  0  0  0  0  0  0  0  0
  144.8396  132.2888  151.8926 H   0  0  0  0  0  0  0  0  0  0  0  0
  145.5483  132.5430  150.3120 H   0  0  0  0  0  0  0  0  0  0  0  0
  147.0989  131.2810  151.8231 H   0  0  0  0  0  0  0  0  0  0  0  0
  147.8006  132.7973  151.3078 H   0  0  0  0  0  0  0  0  0  0  0  0
  146.4278  132.2714  153.9967 H   0  0  0  0  0  0  0  0  0  0  0  0
  148.1464  132.4877  153.7236 H   0  0  0  0  0  0  0  0  0  0  0  0
  146.8596  135.6591  155.1457 H   0  0  0  0  0  0  0  0  0  0  0  0
  146.7799  134.0064  155.6508 H   0  0  0  0  0  0  0  0  0  0  0  0
  148.9460  134.6971  156.3395 H   0  0  0  0  0  0  0  0  0  0  0  0
  149.2417  133.6892  154.9462 H   0  0  0  0  0  0  0  0  0  0  0  0
  149.2702  135.9438  153.6706 H   0  0  0  0  0  0  0  0  0  0  0  0
  152.1754  137.5312  154.4714 H   0  0  0  0  0  0  0  0  0  0  0  0
  150.8783  137.3643  153.3324 H   0  0  0  0  0  0  0  0  0  0  0  0
  149.2441  138.8628  153.1378 H   0  0  0  0  0  0  0  0  0  0  0  0
  148.3006  141.1153  153.5815 H   0  0  0  0  0  0  0  0  0  0  0  0
  149.2375  142.4367  155.5321 H   0  0  0  0  0  0  0  0  0  0  0  0
  150.9858  141.4988  156.9072 H   0  0  0  0  0  0  0  0  0  0  0  0
  147.7167  134.6852  152.9765 H   0  0  0  0  0  0  0  0  0  0  0  0
  1  2  1  0  0  0  0
  1 21  1  0  0  0  0
  1 22  1  0  0  0  0
  1 23  1  0  0  0  0
  2  7  1  0  0  0  0
  2  3  1  0  0  0  0
  2 24  1  0  0  0  0
  3  4  1  0  0  0  0
  3 25  1  0  0  0  0
  3 26  1  0  0  0  0
  4  5  1  0  0  0  0
  4 27  1  0  0  0  0
  4 28  1  0  0  0  0
  5  6  1  0  0  0  0
  5 29  1  0  0  0  0
  5 30  1  0  0  0  0
  6  7  1  0  0  0  0
  6 31  1  0  0  0  0
  6 32  1  0  0  0  0
  7  8  1  0  0  0  0
  7 44  1  0  0  0  0
  8  9  1  0  0  0  0
  8 33  1  0  0  0  0
  8 34  1  0  0  0  0
  9 10  1  0  0  0  0
  9 35  1  0  0  0  0
  9 36  1  0  0  0  0
 10 11  1  0  0  0  0
 10 37  1  0  0  0  0
 11 12  2  0  0  0  0
 11 13  1  0  0  0  0
 13 14  1  0  0  0  0
 13 38  1  0  0  0  0
 13 39  1  0  0  0  0
 14 19  1  0  0  0  0
 14 15  1  0  0  0  0
 15 16  2  0  0  0  0
 15 40  1  0  0  0  0
 16 17  1  0  0  0  0
 16 41  1  0  0  0  0
 17 18  2  0  0  0  0
 17 42  1  0  0  0  0
 18 19  1  0  0  0  0
 18 43  1  0  0  0  0
 19 20  2  0  0  0  0
M  CHG  1   7   1
M  END
> <s_m_source_file>
AV-unprocessed.smi

> <i_m_source_file_index>
1786

> <i_lp_mmshare_version>
43012

> <i_f3d_flags>
0

> <s_epik_input>
W0NIM11bQ0BASF0xW0NIMl1bQ0gyXVtDSDJdW0NIMl1OMVtDSDJdW0NIMl1bTkhdQyg9TylbQ0gyXW4yW2NIXVtjSF1bY0hdW2NIXWMyPU8=

> <s_epik_cmdline>
J2VwaWtfcHl0aG9uJywgJy1waCcsICc3LjAnLCAnLXRuJywgJzgnLCAnLW1hJywgJzIwMCcsICctbWV0YWxfYmluZGluZycsICctaW1hZScsICc8aW5maWxlLm1hZT4nLCAnLW9tYWUnLCAnPG91dGZpbGUubWFlPic=

> <r_lp_tautomer_probability>
1

> <r_epik_Ionization_Penalty>
0.00237247

> <r_epik_Ionization_Penalty_Charging>
0.00237238

> <r_epik_Ionization_Penalty_Neutral>
8.2065e-08

> <r_epik_State_Penalty>
0.00163922

> <r_epik_Charging_Adjusted_Penalty>
0.0040116

> <i_epik_Tot_Q>
1

> <i_epik_Tot_abs_Q>
1

> <r_epik_Metal_State_Penalty>
-0

> <b_epik_Metal_Only>
0

> <s_lp_Force_Field>
OPLS_2005

> <r_lp_Energy>
27.3139

> <b_lp_Chiralities_Consistent>
1

> <s_lp_Variant>
AV-unprocessed.smi:1786-4

> <Gold.Version>
5.8.1

> <Gold.Id.Protein>
6NUR|6NUR_protein|mol2

> <Gold.PLP.Fitness>
53.2809

> <Gold.PLP.PLP>
-36.9763

> <Gold.PLP.part.hbond>
-5.0000

> <Gold.PLP.part.metal>
0.0000

> <Gold.PLP.part.buried>
0.5119

> <Gold.PLP.part.nonpolar>
-31.3980

> <Gold.PLP.part.repulsive>
0.0925

> <Gold.PLP.ligand.clash>
0.0000

> <Gold.PLP.ligand.torsion>
0.7905

> <Gold.PLP.Chemscore.Hbond>
4.9440

> <Gold.PLP.Chemscore.CHOScore>
1.0000

> <Gold.PLP.Chemscore.Metal>
0.0000

> <Gold.Chemscore.Hbonds>
donor molecule, donor type, donor heavy atom, donor atom, acceptor molecule, acceptor atom, score
      L1  H     7    44       P1  7948  0.94
      L1  H    10    37       P1  7948  1.00
      L1  C    15    40       P1  7948  0.07
      L1  C    15    40       P1  7957  0.56

> <Gold.PLP.Chemscore.Internal.Correction>
0.0536

> <Gold.Rescore>
     Score         DG    S(hbond)    S(metal)    S(lipo)     H(rot)  DE(clash)    DE(int)     intcor
     17.14     -19.11       3.23        0.00      65.07       1.86       0.02       1.96       ----

> <Gold.Chemscore.Fitness>
17.1356

> <Gold.Chemscore.DG>
-19.1138

> <Gold.Chemscore.ZeroCoef>
-5.4800

> <Gold.Chemscore.Hbond>
3.2273

> <Gold.Chemscore.Metal>
0.0000

> <Gold.Chemscore.Lipo>
65.0672

> <Gold.Chemscore.Internal_Hbond>
0.0000

> <Gold.Chemscore.DEClash>
0.0220

> <Gold.Chemscore.DEInternal>
1.9562

> <Gold.Chemscore.Rot>
1.8586

> <Gold.Chemscore.Internal.Correction>
   9.000000E+99

> <Gold.Chemscore.Hbonds>
donor molecule, donor type, donor heavy atom, donor atom, acceptor molecule, acceptor atom, score
      L1  H     7    44       P1  7948  0.45
      L1  H    10    37       P1  7948  0.74

> <Gold.Chemscore.Hbond.Weighted>
-10.7791

> <Gold.Chemscore.Metal.Weighted>
-0.0000

> <Gold.Chemscore.Lipo.Weighted>
-7.6129

> <Gold.Chemscore.Internal_Hbond.Weighted>
0.0000

> <Gold.Chemscore.DEClash.Weighted>
0.0220

> <Gold.Chemscore.DEInternal.Weighted>
1.9562

> <Gold.Chemscore.Rot.Weighted>
4.7581

> <Gold.Chemscore.Internal.Correction.Weighted>
   9.000000E+99

> <Gold.Protein.RotatedTorsions>
[ 6907 6896 6895 6894 ] final  -97.80 input  -60.11 | X-H torsion
[ 7974 7965 7964 7962 ] final   -8.37 input  175.53 | X-H torsion
[ 8008 7997 7996 7995 ] final  -67.23 input   59.86 | X-H torsion
[ 10167 10162 10161 10158 ] final  -59.05 input  -65.29 | X-H torsion
[ 10718 10713 10712 10709 ] final  -45.18 input   66.30 | X-H torsion
[ 10763 10752 10751 10750 ] final  -22.97 input  -60.55 | X-H torsion
[ 11005 11000 10999 10996 ] final  -70.97 input  -57.11 | X-H torsion

> <Gold.Protein.ActiveResidues>
 VAL166  LYS551  ARG553  GLY616  TRP617  ASP618  TYR619  PRO620  LYS621  CYS622 
 ASP623  PHE694  ASN695  SER759  ASP760  ASP761  ALA762  ILE779  LEU786  VAL792 
 PHE793  MET794  SER795  GLU796  ALA797  LYS798  CYS799  TRP800  GLU811  SER814 

> <Gold.Protein.RotatedAtoms>
  150.7027  134.1293  159.4063 H   0  0  0  0  0  0  0  0  0  0  0  0  # atno 6907 bound_to 6896
  151.9278  135.0267  160.0536 H   0  0  0  0  0  0  0  0  0  0  0  0  # atno 6908 bound_to 6896
  152.2201  133.4942  159.5194 H   0  0  0  0  0  0  0  0  0  0  0  0  # atno 6909 bound_to 6896
  146.2282  140.2458  142.8345 H   0  0  0  0  0  0  0  0  0  0  0  0  # atno 7974 bound_to 7965
  154.4786  140.0897  156.7322 H   0  0  0  0  0  0  0  0  0  0  0  0  # atno 8008 bound_to 7997
  155.4531  140.3458  155.4285 H   0  0  0  0  0  0  0  0  0  0  0  0  # atno 8009 bound_to 7997
  156.1156  140.1459  156.9266 H   0  0  0  0  0  0  0  0  0  0  0  0  # atno 8010 bound_to 7997
  140.6159  143.2402  151.5598 H   0  0  0  0  0  0  0  0  0  0  0  0  # atno 10167 bound_to 10162
  156.2310  130.4172  149.8875 H   0  0  0  0  0  0  0  0  0  0  0  0  # atno 10718 bound_to 10713
  153.6604  135.6976  153.5179 H   0  0  0  0  0  0  0  0  0  0  0  0  # atno 10763 bound_to 10752
  153.2636  135.4237  155.0918 H   0  0  0  0  0  0  0  0  0  0  0  0  # atno 10764 bound_to 10752
  154.8453  135.3561  154.6149 H   0  0  0  0  0  0  0  0  0  0  0  0  # atno 10765 bound_to 10752
  141.1584  133.6804  156.6835 H   0  0  0  0  0  0  0  0  0  0  0  0  # atno 11005 bound_to 11000
  144.9449  140.8118  143.5607 LP  0  0  0  0  0  0  0  0  0  0  0  0  # atno 17320 bound_to 7965
  145.2414  139.2071  143.4991 LP  0  0  0  0  0  0  0  0  0  0  0  0  # atno 17321 bound_to 7965
  139.5398  144.2679  152.1328 LP  0  0  0  0  0  0  0  0  0  0  0  0  # atno 17342 bound_to 10162
  140.1888  144.4772  150.6490 LP  0  0  0  0  0  0  0  0  0  0  0  0  # atno 17343 bound_to 10162
  156.6489  130.8735  151.3527 LP  0  0  0  0  0  0  0  0  0  0  0  0  # atno 17370 bound_to 10713
  157.7133  130.9466  150.1165 LP  0  0  0  0  0  0  0  0  0  0  0  0  # atno 17371 bound_to 10713
  140.3085  134.8106  157.4156 LP  0  0  0  0  0  0  0  0  0  0  0  0  # atno 17394 bound_to 11000
  140.1199  134.5233  155.8192 LP  0  0  0  0  0  0  0  0  0  0  0  0  # atno 17395 bound_to 11000

$$$$
