#       Name:                AV-unprocessed.smi:397
#       Creating user name   scv26
#       Creation time:       Thu Mar 26 22:43:11 2020


#       File generated by GOLD software.
#

@<TRIPOS>MOLECULE
AV-unprocessed.smi:397
    46    47     1
SMALL
NO_CHARGES


@<TRIPOS>ATOM
      1 ****        -4.0482   3.2156   0.7437 C.3            1 S1                 0.0000
      2 ****        -3.6233   1.8940   1.0248 O.3            1 S1                 0.0000
      3 ****        -3.8423   1.5268   2.3771 C.3            1 S1                 0.0000
      4 ****        -3.3394   0.0955   2.6164 C.3            1 S1                 0.0000
      5 ****        -1.8828   0.0268   2.5798 N.am           1 S1                 0.0000
      6 ****        -1.1457  -0.2165   1.4859 C.2            1 S1                 0.0000
      7 ****        -1.6354  -0.4406   0.3779 O.2            1 S1                 0.0000
      8 ****         0.3768  -0.2067   1.6910 C.3            1 S1                 0.0000
      9 ****         1.1422  -0.1898   0.4242 N.am           1 S1                 0.0000
     10 ****         1.4147   1.0632  -0.1795 C.2            1 S1                 0.0000
     11 ****         1.0330   2.1147   0.3380 O.2            1 S1                 0.0000
     12 ****         2.1587   1.0069  -1.4335 C.2            1 S1                 0.0000
     13 ****         2.4580   2.2480  -2.0680 C.1            1 S1                 0.0000
     14 ****         2.7152   3.2437  -2.5989 N.1            1 S1                 0.0000
     15 ****         2.5442  -0.1724  -1.9621 C.2            1 S1                 0.0000
     16 ****         2.2629  -1.3890  -1.3675 N.am           1 S1                 0.0000
     17 ****         2.6688  -2.6594  -1.9350 C.3            1 S1                 0.0000
     18 ****         3.9980  -2.7756  -2.6509 C.3            1 S1                 0.0000
     19 ****         2.7084  -2.8401  -3.4380 C.3            1 S1                 0.0000
     20 ****         1.5422  -1.4220  -0.1494 C.2            1 S1                 0.0000
     21 ****         1.2617  -2.4876   0.4050 O.2            1 S1                 0.0000
     22 ****        -3.8589   3.4449  -0.3049 H              1 S1                 0.0000
     23 ****        -3.5050   3.9413   1.3504 H              1 S1                 0.0000
     24 ****        -5.1165   3.3350   0.9276 H              1 S1                 0.0000
     25 ****        -3.3386   2.2223   3.0503 H              1 S1                 0.0000
     26 ****        -4.9098   1.5782   2.5961 H              1 S1                 0.0000
     27 ****        -3.6557  -0.2356   3.6056 H              1 S1                 0.0000
     28 ****        -3.7883  -0.5973   1.9024 H              1 S1                 0.0000
     29 ****        -1.3975   0.1945   3.4491 H              1 S1                 0.0000
     30 ****         0.6420   0.6520   2.3103 H              1 S1                 0.0000
     31 ****         0.6441  -1.0657   2.3082 H              1 S1                 0.0000
     32 ****         3.0938  -0.1497  -2.8909 H              1 S1                 0.0000
     33 ****         2.3844  -3.5633  -1.3993 H              1 S1                 0.0000
     34 ****         4.6135  -1.8851  -2.7581 H              1 S1                 0.0000
     35 ****         4.5521  -3.7034  -2.5233 H              1 S1                 0.0000
     36 ****         2.4107  -3.8106  -3.8297 H              1 S1                 0.0000
     37 ****         2.4615  -1.9941  -4.0754 H              1 S1                 0.0000
     38 ****        -2.6454   1.8233   0.8281 LP             1 S1                 0.0000
     39 ****        -4.1283   1.2631   0.4358 LP             1 S1                 0.0000
     40 ****        -2.6287  -0.4469   0.2623 LP             1 S1                 0.0000
     41 ****        -1.0396  -0.6161  -0.4058 LP             1 S1                 0.0000
     42 ****         0.5223   2.0924   1.1975 LP             1 S1                 0.0000
     43 ****         1.2340   2.9901  -0.1016 LP             1 S1                 0.0000
     44 ****         2.9374   4.1041  -3.0576 LP             1 S1                 0.0000
     45 ****         0.7494  -2.4847   1.2638 LP             1 S1                 0.0000
     46 ****         1.5466  -3.3543  -0.0043 LP             1 S1                 0.0000
@<TRIPOS>BOND
    1    1    2 1     
    2    1   22 1     
    3    1   23 1     
    4    1   24 1     
    5    2    3 1     
    6    3    4 1     
    7    3   25 1     
    8    3   26 1     
    9    4    5 1     
   10    4   27 1     
   11    4   28 1     
   12    5    6 am    
   13    5   29 1     
   14    6    7 2     
   15    6    8 1     
   16    8    9 1     
   17    8   30 1     
   18    8   31 1     
   19    9   20 am    
   20    9   10 am    
   21   10   11 2     
   22   10   12 1     
   23   12   13 1     
   24   12   15 2     
   25   13   14 3     
   26   15   16 1     
   27   15   32 1     
   28   16   17 1     
   29   16   20 am    
   30   17   19 1     
   31   17   18 1     
   32   17   33 1     
   33   18   19 1     
   34   18   34 1     
   35   18   35 1     
   36   19   36 1     
   37   19   37 1     
   38   20   21 2     
   39    2   38 1     
   40    2   39 1     
   41    7   40 1     
   42    7   41 1     
   43   11   42 1     
   44   11   43 1     
   45   14   44 1     
   46   21   45 1     
   47   21   46 1     
@<TRIPOS>SUBSTRUCTURE
      1 S1             1
@<TRIPOS>SET
LONE_PAIRS      STATIC     ATOMS    <user>   **** ""
9 38 39 40 41 42 43 44 45 46
DONOR_HYDROGENS      STATIC     ATOMS    <user>   **** ""
1 29
ATOM$BLUE        STATIC     ATOMS    COLORGROUP SYSTEM
9 38 39 40 41 42 43 44 45 46
ATOM$RED        STATIC     ATOMS    COLORGROUP SYSTEM
1 29
