AV-unprocessed.smi:646|AV-procd|sdf|3167|dock1
  -GOLD-   22720 0 93D 1   1.00000     0.00000
 Structure written by MMmdl.
 44 45  0  0  0  0  0  0  0  0  1 V2000
  148.8290  132.6024  158.2377 C   0  0  0  0  0  0  0  0  0  0  0  0
  149.1001  132.8912  156.8716 O   0  0  0  0  0  0  0  0  0  0  0  0
  147.9837  133.2150  156.0313 C   0  0  1  0  0  0  0  0  0  0  0  0
  146.9389  132.0929  156.0705 C   0  0  0  0  0  0  0  0  0  0  0  0
  147.5377  134.6707  156.2699 C   0  0  0  0  0  0  0  0  0  0  0  0
  148.6455  135.0898  155.3060 C   0  0  2  0  0  0  0  0  0  0  0  0
  148.2532  136.2001  154.4469 N   0  0  0  0  0  0  0  0  0  0  0  0
  147.6089  137.2966  154.8725 C   0  0  0  0  0  0  0  0  0  0  0  0
  147.2024  137.4418  156.0250 O   0  0  0  0  0  0  0  0  0  0  0  0
  147.4231  138.4145  153.8476 C   0  0  0  0  0  0  0  0  0  0  0  0
  148.5198  139.4358  154.0173 C   0  0  0  0  0  0  0  0  0  0  0  0
  148.4011  140.8555  154.0389 C   0  0  0  0  0  0  0  0  0  0  0  0
  147.1615  141.6918  153.9003 C   0  0  0  0  0  0  0  0  0  0  0  0
  149.5693  141.4460  154.2264 N   0  0  0  0  0  0  0  0  0  0  0  0
  150.5070  140.4147  154.3352 O   0  0  0  0  0  0  0  0  0  0  0  0
  149.8579  139.2293  154.2111 C   0  0  0  0  0  0  0  0  0  0  0  0
  150.6900  137.9963  154.3138 C   0  0  0  0  0  0  0  0  0  0  0  0
  148.5314  133.6908  154.6459 C   0  0  0  0  0  0  0  0  0  0  0  0
  149.8481  133.0636  154.1752 C   0  0  0  0  0  0  0  0  0  0  0  0
  147.5603  133.5628  153.4556 C   0  0  0  0  0  0  0  0  0  0  0  0
  149.7730  132.5144  158.7752 H   0  0  0  0  0  0  0  0  0  0  0  0
  148.3049  131.6540  158.3533 H   0  0  0  0  0  0  0  0  0  0  0  0
  148.2465  133.3857  158.7214 H   0  0  0  0  0  0  0  0  0  0  0  0
  146.1331  132.2639  155.3575 H   0  0  0  0  0  0  0  0  0  0  0  0
  146.4638  132.0118  157.0479 H   0  0  0  0  0  0  0  0  0  0  0  0
  147.3860  131.1274  155.8329 H   0  0  0  0  0  0  0  0  0  0  0  0
  146.5324  134.8724  155.8950 H   0  0  0  0  0  0  0  0  0  0  0  0
  147.6592  135.0518  157.2831 H   0  0  0  0  0  0  0  0  0  0  0  0
  149.5954  135.2421  155.8240 H   0  0  0  0  0  0  0  0  0  0  0  0
  148.5492  136.1629  153.4825 H   0  0  0  0  0  0  0  0  0  0  0  0
  147.4259  137.9812  152.8467 H   0  0  0  0  0  0  0  0  0  0  0  0
  146.4393  138.8656  153.9808 H   0  0  0  0  0  0  0  0  0  0  0  0
  146.4734  141.2564  153.1755 H   0  0  0  0  0  0  0  0  0  0  0  0
  147.3937  142.7039  153.5674 H   0  0  0  0  0  0  0  0  0  0  0  0
  146.6355  141.7656  154.8525 H   0  0  0  0  0  0  0  0  0  0  0  0
  150.1664  137.2221  154.8750 H   0  0  0  0  0  0  0  0  0  0  0  0
  151.6328  138.1999  154.8225 H   0  0  0  0  0  0  0  0  0  0  0  0
  150.9174  137.6020  153.3235 H   0  0  0  0  0  0  0  0  0  0  0  0
  150.1900  133.5034  153.2374 H   0  0  0  0  0  0  0  0  0  0  0  0
  149.7434  131.9898  154.0181 H   0  0  0  0  0  0  0  0  0  0  0  0
  150.6512  133.2097  154.8977 H   0  0  0  0  0  0  0  0  0  0  0  0
  147.9449  134.0617  152.5656 H   0  0  0  0  0  0  0  0  0  0  0  0
  146.5857  134.0024  153.6683 H   0  0  0  0  0  0  0  0  0  0  0  0
  147.3912  132.5192  153.1884 H   0  0  0  0  0  0  0  0  0  0  0  0
  1  2  1  0  0  0  0
  1 21  1  0  0  0  0
  1 22  1  0  0  0  0
  1 23  1  0  0  0  0
  2  3  1  0  0  0  0
  3 18  1  0  0  0  0
  3  4  1  0  0  0  0
  3  5  1  0  0  0  0
  4 24  1  0  0  0  0
  4 25  1  0  0  0  0
  4 26  1  0  0  0  0
  5  6  1  0  0  0  0
  5 27  1  0  0  0  0
  5 28  1  0  0  0  0
  6  7  1  0  0  0  0
  6 18  1  0  0  0  0
  6 29  1  0  0  0  0
  7  8  1  0  0  0  0
  7 30  1  0  0  0  0
  8  9  2  0  0  0  0
  8 10  1  0  0  0  0
 10 11  1  0  0  0  0
 10 31  1  0  0  0  0
 10 32  1  0  0  0  0
 11 16  2  0  0  0  0
 11 12  1  0  0  0  0
 12 13  1  0  0  0  0
 12 14  2  0  0  0  0
 13 33  1  0  0  0  0
 13 34  1  0  0  0  0
 13 35  1  0  0  0  0
 14 15  1  0  0  0  0
 15 16  1  0  0  0  0
 16 17  1  0  0  0  0
 17 36  1  0  0  0  0
 17 37  1  0  0  0  0
 17 38  1  0  0  0  0
 18 19  1  0  0  0  0
 18 20  1  0  0  0  0
 19 39  1  0  0  0  0
 19 40  1  0  0  0  0
 19 41  1  0  0  0  0
 20 42  1  0  0  0  0
 20 43  1  0  0  0  0
 20 44  1  0  0  0  0
M  END
> <s_m_source_file>
AV-unprocessed.smi

> <i_m_source_file_index>
646

> <i_lp_mmshare_version>
43012

> <i_f3d_flags>
0

> <s_epik_input>
W0NIM11PW0NAQF0xKFtDSDNdKVtDSDJdW0NASF0oQzEoW0NIM10pW0NIM10pW05IXUMoPU8pW0NIMl1jMmMoW0NIM10pbm9jMltDSDNd

> <s_epik_cmdline>
J2VwaWtfcHl0aG9uJywgJy1waCcsICc3LjAnLCAnLXRuJywgJzgnLCAnLW1hJywgJzIwMCcsICctbWV0YWxfYmluZGluZycsICctaW1hZScsICc8aW5maWxlLm1hZT4nLCAnLW9tYWUnLCAnPG91dGZpbGUubWFlPic=

> <r_lp_tautomer_probability>
1

> <r_epik_Ionization_Penalty>
2.13169e-08

> <r_epik_Ionization_Penalty_Charging>
0

> <r_epik_Ionization_Penalty_Neutral>
2.13169e-08

> <r_epik_State_Penalty>
-0

> <r_epik_Charging_Adjusted_Penalty>
0

> <i_epik_Tot_Q>
0

> <i_epik_Tot_abs_Q>
0

> <r_epik_Metal_State_Penalty>
-0

> <b_epik_Metal_Only>
0

> <s_lp_Force_Field>
OPLS_2005

> <r_lp_Energy>
15.7725

> <b_lp_Chiralities_Consistent>
1

> <s_lp_Variant>
AV-unprocessed.smi:646-3

> <Gold.Version>
5.8.1

> <Gold.Id.Protein>
6NUR|6NUR_protein|mol2

> <Gold.PLP.Fitness>
31.9085

> <Gold.PLP.PLP>
-26.0003

> <Gold.PLP.part.hbond>
-3.8507

> <Gold.PLP.part.metal>
0.0000

> <Gold.PLP.part.buried>
-1.2302

> <Gold.PLP.part.nonpolar>
-19.6558

> <Gold.PLP.part.repulsive>
0.3149

> <Gold.PLP.ligand.clash>
0.0000

> <Gold.PLP.ligand.torsion>
0.8862

> <Gold.PLP.Chemscore.Hbond>
2.4259

> <Gold.PLP.Chemscore.CHOScore>
0.0000

> <Gold.PLP.Chemscore.Metal>
0.0000

> <Gold.Chemscore.Hbonds>
donor molecule, donor type, donor heavy atom, donor atom, acceptor molecule, acceptor atom, score
      L1  H     7    30       P1  7948  1.00
      P1  H  7989  7998       L1    15  0.84
      P1  H  8011  8017       L1    14  0.46

> <Gold.PLP.Chemscore.Internal.Correction>
0.4029

> <Gold.Rescore>
     Score         DG    S(hbond)    S(metal)    S(lipo)     H(rot)  DE(clash)    DE(int)     intcor
     12.88     -15.04       1.80        0.00      62.94       1.49       0.16       2.01       ----

> <Gold.Chemscore.Fitness>
12.8753

> <Gold.Chemscore.DG>
-15.0448

> <Gold.Chemscore.ZeroCoef>
-5.4800

> <Gold.Chemscore.Hbond>
1.8031

> <Gold.Chemscore.Metal>
0.0000

> <Gold.Chemscore.Lipo>
62.9403

> <Gold.Chemscore.Internal_Hbond>
0.0000

> <Gold.Chemscore.DEClash>
0.1625

> <Gold.Chemscore.DEInternal>
2.0071

> <Gold.Chemscore.Rot>
1.4928

> <Gold.Chemscore.Internal.Correction>
   9.000000E+99

> <Gold.Chemscore.Hbonds>
donor molecule, donor type, donor heavy atom, donor atom, acceptor molecule, acceptor atom, score
      L1  H     7    30       P1  7948  1.00
      P1  H  7989  7998       L1    15  0.31
      P1  H  8011  8017       L1    14  0.08

> <Gold.Chemscore.Hbond.Weighted>
-6.0225

> <Gold.Chemscore.Metal.Weighted>
-0.0000

> <Gold.Chemscore.Lipo.Weighted>
-7.3640

> <Gold.Chemscore.Internal_Hbond.Weighted>
0.0000

> <Gold.Chemscore.DEClash.Weighted>
0.1625

> <Gold.Chemscore.DEInternal.Weighted>
2.0071

> <Gold.Chemscore.Rot.Weighted>
3.8217

> <Gold.Chemscore.Internal.Correction.Weighted>
   9.000000E+99

> <Gold.Protein.RotatedTorsions>
[ 6907 6896 6895 6894 ] final  104.05 input  -60.11 | X-H torsion
[ 7974 7965 7964 7962 ] final  -65.58 input  175.53 | X-H torsion
[ 8008 7997 7996 7995 ] final  154.32 input   59.86 | X-H torsion
[ 10167 10162 10161 10158 ] final -151.75 input  -65.29 | X-H torsion
[ 10718 10713 10712 10709 ] final -153.12 input   66.30 | X-H torsion
[ 10763 10752 10751 10750 ] final  -45.97 input  -60.55 | X-H torsion
[ 11005 11000 10999 10996 ] final   41.13 input  -57.11 | X-H torsion

> <Gold.Protein.ActiveResidues>
 VAL166  LYS551  ARG553  GLY616  TRP617  ASP618  TYR619  PRO620  LYS621  CYS622 
 ASP623  PHE694  ASN695  SER759  ASP760  ASP761  ALA762  ILE779  LEU786  VAL792 
 PHE793  MET794  SER795  GLU796  ALA797  LYS798  CYS799  TRP800  GLU811  SER814 

> <Gold.Protein.RotatedAtoms>
  152.5276  133.9735  159.7772 H   0  0  0  0  0  0  0  0  0  0  0  0  # atno 6907 bound_to 6896
  151.0002  133.6056  159.2703 H   0  0  0  0  0  0  0  0  0  0  0  0  # atno 6908 bound_to 6896
  151.3167  135.0814  159.9345 H   0  0  0  0  0  0  0  0  0  0  0  0  # atno 6909 bound_to 6896
  145.7525  140.8901  143.0472 H   0  0  0  0  0  0  0  0  0  0  0  0  # atno 7974 bound_to 7965
  156.2537  140.1970  156.6628 H   0  0  0  0  0  0  0  0  0  0  0  0  # atno 8008 bound_to 7997
  154.6451  140.0578  156.9917 H   0  0  0  0  0  0  0  0  0  0  0  0  # atno 8009 bound_to 7997
  155.1502  140.3250  155.4435 H   0  0  0  0  0  0  0  0  0  0  0  0  # atno 8010 bound_to 7997
  139.7241  143.8911  152.2513 H   0  0  0  0  0  0  0  0  0  0  0  0  # atno 10167 bound_to 10162
  156.4815  130.8305  151.2532 H   0  0  0  0  0  0  0  0  0  0  0  0  # atno 10718 bound_to 10713
  154.0373  135.6648  153.4786 H   0  0  0  0  0  0  0  0  0  0  0  0  # atno 10763 bound_to 10752
  153.0516  135.5081  154.7875 H   0  0  0  0  0  0  0  0  0  0  0  0  # atno 10764 bound_to 10752
  154.6840  135.3050  154.9539 H   0  0  0  0  0  0  0  0  0  0  0  0  # atno 10765 bound_to 10752
  140.1863  134.4041  155.8171 H   0  0  0  0  0  0  0  0  0  0  0  0  # atno 11005 bound_to 11000
  144.6847  139.9611  143.7480 LP  0  0  0  0  0  0  0  0  0  0  0  0  # atno 17320 bound_to 7965
  146.0342  139.3363  143.0736 LP  0  0  0  0  0  0  0  0  0  0  0  0  # atno 17321 bound_to 7965
  139.8815  144.7015  150.8872 LP  0  0  0  0  0  0  0  0  0  0  0  0  # atno 17342 bound_to 10162
  140.7759  143.3657  151.1743 LP  0  0  0  0  0  0  0  0  0  0  0  0  # atno 17343 bound_to 10162
  157.7483  131.0043  150.3071 LP  0  0  0  0  0  0  0  0  0  0  0  0  # atno 17370 bound_to 10713
  156.3517  130.3832  149.7324 LP  0  0  0  0  0  0  0  0  0  0  0  0  # atno 17371 bound_to 10713
  141.2225  133.7025  156.8019 LP  0  0  0  0  0  0  0  0  0  0  0  0  # atno 17394 bound_to 11000
  140.2210  134.8757  157.3376 LP  0  0  0  0  0  0  0  0  0  0  0  0  # atno 17395 bound_to 11000

$$$$
