AV-unprocessed.smi:2509|AV-procd|sdf|9867|dock10
  -GOLD-   2272013493D 1   1.00000     0.00000
 Structure written by MMmdl.
 45 46  0  0  0  0  0  0  0  0  1 V2000
  152.2065  141.3364  158.1249 C   0  0  0  0  0  0  0  0  0  0  0  0
  151.0847  142.0888  157.3709 C   0  0  0  0  0  0  0  0  0  0  0  0
  150.0012  142.4098  158.4270 C   0  0  0  0  0  0  0  0  0  0  0  0
  151.6452  143.4003  156.7906 C   0  0  0  0  0  0  0  0  0  0  0  0
  150.5080  141.2294  156.2322 C   0  0  0  0  0  0  0  0  0  0  0  0
  149.3975  141.6758  155.6315 N   0  0  0  0  0  0  0  0  0  0  0  0
  148.8114  140.8707  154.7209 C   0  0  0  0  0  0  0  0  0  0  0  0
  149.3117  139.5873  154.4230 C   0  0  0  0  0  0  0  0  0  0  0  0
  148.6327  138.8018  153.4511 N   0  0  0  0  0  0  0  0  0  0  0  0
  147.3357  138.8196  153.0991 C   0  0  0  0  0  0  0  0  0  0  0  0
  146.4739  139.5570  153.5754 O   0  0  0  0  0  0  0  0  0  0  0  0
  147.0831  137.9130  152.1446 N   0  0  0  0  0  0  0  0  0  0  0  0
  145.7730  137.6620  151.5524 C   0  0  0  0  0  0  0  0  0  0  0  0
  145.2029  136.2880  151.9643 C   0  0  1  0  0  0  0  0  0  0  0  0
  143.7558  136.3291  152.4700 C   0  0  0  0  0  0  0  0  0  0  0  0
  143.2042  134.9074  152.2770 C   0  0  0  0  0  0  0  0  0  0  0  0
  144.2480  134.1398  151.4498 C   0  0  0  0  0  0  0  0  0  0  0  0
  145.1912  135.2016  150.8771 C   0  0  1  0  0  0  0  0  0  0  0  0
  144.6514  135.6880  149.6617 O   0  0  0  0  0  0  0  0  0  0  0  0
  150.4659  139.1980  155.1453 C   0  0  0  0  0  0  0  0  0  0  0  0
  151.0423  140.0143  156.0535 N   0  0  0  0  0  0  0  0  0  0  0  0
  152.5872  141.9254  158.9601 H   0  0  0  0  0  0  0  0  0  0  0  0
  153.0586  141.1189  157.4802 H   0  0  0  0  0  0  0  0  0  0  0  0
  151.8473  140.3891  158.5290 H   0  0  0  0  0  0  0  0  0  0  0  0
  149.5657  141.4986  158.8388 H   0  0  0  0  0  0  0  0  0  0  0  0
  149.1883  143.0061  158.0112 H   0  0  0  0  0  0  0  0  0  0  0  0
  150.4147  142.9803  159.2593 H   0  0  0  0  0  0  0  0  0  0  0  0
  152.0677  144.0331  157.5715 H   0  0  0  0  0  0  0  0  0  0  0  0
  150.8666  143.9745  156.2872 H   0  0  0  0  0  0  0  0  0  0  0  0
  152.4329  143.2060  156.0618 H   0  0  0  0  0  0  0  0  0  0  0  0
  147.9293  141.2554  154.2301 H   0  0  0  0  0  0  0  0  0  0  0  0
  149.2109  138.1356  152.9602 H   0  0  0  0  0  0  0  0  0  0  0  0
  147.8481  137.3455  151.8100 H   0  0  0  0  0  0  0  0  0  0  0  0
  145.0807  138.4559  151.8367 H   0  0  0  0  0  0  0  0  0  0  0  0
  145.8740  137.7235  150.4686 H   0  0  0  0  0  0  0  0  0  0  0  0
  145.8112  135.9065  152.7864 H   0  0  0  0  0  0  0  0  0  0  0  0
  143.6973  136.6569  153.5084 H   0  0  0  0  0  0  0  0  0  0  0  0
  143.1690  137.0298  151.8744 H   0  0  0  0  0  0  0  0  0  0  0  0
  143.0338  134.4134  153.2343 H   0  0  0  0  0  0  0  0  0  0  0  0
  142.2473  134.9439  151.7555 H   0  0  0  0  0  0  0  0  0  0  0  0
  144.8135  133.4847  152.1139 H   0  0  0  0  0  0  0  0  0  0  0  0
  143.7984  133.5072  150.6833 H   0  0  0  0  0  0  0  0  0  0  0  0
  146.1873  134.8004  150.6867 H   0  0  0  0  0  0  0  0  0  0  0  0
  145.2492  135.4734  148.9619 H   0  0  0  0  0  0  0  0  0  0  0  0
  150.9459  138.2407  155.0237 H   0  0  0  0  0  0  0  0  0  0  0  0
  1  2  1  0  0  0  0
  1 22  1  0  0  0  0
  1 23  1  0  0  0  0
  1 24  1  0  0  0  0
  2  3  1  0  0  0  0
  2  4  1  0  0  0  0
  2  5  1  0  0  0  0
  3 25  1  0  0  0  0
  3 26  1  0  0  0  0
  3 27  1  0  0  0  0
  4 28  1  0  0  0  0
  4 29  1  0  0  0  0
  4 30  1  0  0  0  0
  5 21  1  0  0  0  0
  5  6  2  0  0  0  0
  6  7  1  0  0  0  0
  7  8  2  0  0  0  0
  7 31  1  0  0  0  0
  8  9  1  0  0  0  0
  8 20  1  0  0  0  0
  9 10  1  0  0  0  0
  9 32  1  0  0  0  0
 10 11  2  0  0  0  0
 10 12  1  0  0  0  0
 12 13  1  0  0  0  0
 12 33  1  0  0  0  0
 13 14  1  0  0  0  0
 13 34  1  0  0  0  0
 13 35  1  0  0  0  0
 14 18  1  0  0  0  0
 14 15  1  0  0  0  0
 14 36  1  0  0  0  0
 15 16  1  0  0  0  0
 15 37  1  0  0  0  0
 15 38  1  0  0  0  0
 16 17  1  0  0  0  0
 16 39  1  0  0  0  0
 16 40  1  0  0  0  0
 17 18  1  0  0  0  0
 17 41  1  0  0  0  0
 17 42  1  0  0  0  0
 18 19  1  0  0  0  0
 18 43  1  0  0  0  0
 19 44  1  0  0  0  0
 20 21  2  0  0  0  0
 20 45  1  0  0  0  0
M  END
> <s_m_source_file>
AV-unprocessed.smi

> <i_m_source_file_index>
2509

> <i_lp_mmshare_version>
43012

> <i_f3d_flags>
0

> <s_epik_input>
W0NIM11DKFtDSDNdKShbQ0gzXSljMW5bY0hdYyhbY0hdbjEpW05IXUMoPU8pW05IXVtDSDJdW0NAQEhdMltDSDJdW0NIMl1bQ0gyXVtDQEhdMltPSF0=

> <s_epik_cmdline>
J2VwaWtfcHl0aG9uJywgJy1waCcsICc3LjAnLCAnLXRuJywgJzgnLCAnLW1hJywgJzIwMCcsICctbWV0YWxfYmluZGluZycsICctaW1hZScsICc8aW5maWxlLm1hZT4nLCAnLW9tYWUnLCAnPG91dGZpbGUubWFlPic=

> <r_lp_tautomer_probability>
1

> <r_epik_Ionization_Penalty>
2.77586e-05

> <r_epik_Ionization_Penalty_Charging>
0

> <r_epik_Ionization_Penalty_Neutral>
2.77586e-05

> <r_epik_State_Penalty>
-0

> <r_epik_Charging_Adjusted_Penalty>
0

> <i_epik_Tot_Q>
0

> <i_epik_Tot_abs_Q>
0

> <r_epik_Metal_State_Penalty>
-0

> <b_epik_Metal_Only>
0

> <s_lp_Force_Field>
OPLS_2005

> <r_lp_Energy>
25.7942

> <b_lp_Chiralities_Consistent>
1

> <s_lp_Variant>
AV-unprocessed.smi:2509-2

> <Gold.Version>
5.8.1

> <Gold.Id.Protein>
6NUR|6NUR_protein|mol2

> <Gold.PLP.Fitness>
41.6430

> <Gold.PLP.PLP>
-36.0046

> <Gold.PLP.part.hbond>
-4.8762

> <Gold.PLP.part.metal>
0.0000

> <Gold.PLP.part.buried>
-3.8272

> <Gold.PLP.part.nonpolar>
-29.5316

> <Gold.PLP.part.repulsive>
0.7410

> <Gold.PLP.ligand.clash>
0.0000

> <Gold.PLP.ligand.torsion>
1.0005

> <Gold.PLP.Chemscore.Hbond>
2.4992

> <Gold.PLP.Chemscore.CHOScore>
0.0000

> <Gold.PLP.Chemscore.Metal>
0.0000

> <Gold.Chemscore.Hbonds>
donor molecule, donor type, donor heavy atom, donor atom, acceptor molecule, acceptor atom, score
      L1  H     9    32       P1  7948  0.50
      L1  H    12    33       P1  7948  1.00
      L1  H    19    44       P1  7921  1.00

> <Gold.PLP.Chemscore.Internal.Correction>
0.1418

> <Gold.Rescore>
     Score         DG    S(hbond)    S(metal)    S(lipo)     H(rot)  DE(clash)    DE(int)     intcor
     14.29     -19.31       2.70        0.00      82.94       1.91       2.81       2.21       ----

> <Gold.Chemscore.Fitness>
14.2856

> <Gold.Chemscore.DG>
-19.3089

> <Gold.Chemscore.ZeroCoef>
-5.4800

> <Gold.Chemscore.Hbond>
2.7000

> <Gold.Chemscore.Metal>
0.0000

> <Gold.Chemscore.Lipo>
82.9448

> <Gold.Chemscore.Internal_Hbond>
0.0000

> <Gold.Chemscore.DEClash>
2.8135

> <Gold.Chemscore.DEInternal>
2.2098

> <Gold.Chemscore.Rot>
1.9116

> <Gold.Chemscore.Internal.Correction>
   9.000000E+99

> <Gold.Chemscore.Hbonds>
donor molecule, donor type, donor heavy atom, donor atom, acceptor molecule, acceptor atom, score
      L1  H     9    32       P1  7948  0.47
      L1  H    12    33       P1  7948  0.94
      L1  H    19    44       P1  7921  1.00

> <Gold.Chemscore.Hbond.Weighted>
-9.0179

> <Gold.Chemscore.Metal.Weighted>
-0.0000

> <Gold.Chemscore.Lipo.Weighted>
-9.7045

> <Gold.Chemscore.Internal_Hbond.Weighted>
0.0000

> <Gold.Chemscore.DEClash.Weighted>
2.8135

> <Gold.Chemscore.DEInternal.Weighted>
2.2098

> <Gold.Chemscore.Rot.Weighted>
4.8936

> <Gold.Chemscore.Internal.Correction.Weighted>
   9.000000E+99

> <Gold.Protein.RotatedTorsions>
[ 6907 6896 6895 6894 ] final -145.19 input  -60.11 | X-H torsion
[ 7974 7965 7964 7962 ] final -140.84 input  175.53 | X-H torsion
[ 8008 7997 7996 7995 ] final    1.54 input   59.86 | X-H torsion
[ 10167 10162 10161 10158 ] final  -65.63 input  -65.29 | X-H torsion
[ 10718 10713 10712 10709 ] final -176.16 input   66.30 | X-H torsion
[ 10763 10752 10751 10750 ] final  169.39 input  -60.55 | X-H torsion
[ 11005 11000 10999 10996 ] final -156.83 input  -57.11 | X-H torsion

> <Gold.Protein.ActiveResidues>
 VAL166  LYS551  ARG553  GLY616  TRP617  ASP618  TYR619  PRO620  LYS621  CYS622 
 ASP623  PHE694  ASN695  SER759  ASP760  ASP761  ALA762  ILE779  LEU786  VAL792 
 PHE793  MET794  SER795  GLU796  ALA797  LYS798  CYS799  TRP800  GLU811  SER814 

> <Gold.Protein.RotatedAtoms>
  151.1243  133.5081  159.2600 H   0  0  0  0  0  0  0  0  0  0  0  0  # atno 6907 bound_to 6896
  151.1827  135.0367  159.8809 H   0  0  0  0  0  0  0  0  0  0  0  0  # atno 6908 bound_to 6896
  152.5457  134.1093  159.8405 H   0  0  0  0  0  0  0  0  0  0  0  0  # atno 6909 bound_to 6896
  144.8565  140.6151  143.5356 H   0  0  0  0  0  0  0  0  0  0  0  0  # atno 7974 bound_to 7965
  154.6809  140.2632  155.6909 H   0  0  0  0  0  0  0  0  0  0  0  0  # atno 8008 bound_to 7997
  156.2696  140.2810  156.1275 H   0  0  0  0  0  0  0  0  0  0  0  0  # atno 8009 bound_to 7997
  155.1033  140.0374  157.2693 H   0  0  0  0  0  0  0  0  0  0  0  0  # atno 8010 bound_to 7997
  140.5716  143.2318  151.6527 H   0  0  0  0  0  0  0  0  0  0  0  0  # atno 10167 bound_to 10162
  156.8105  130.9584  151.3116 H   0  0  0  0  0  0  0  0  0  0  0  0  # atno 10718 bound_to 10713
  154.3825  135.2753  155.2203 H   0  0  0  0  0  0  0  0  0  0  0  0  # atno 10763 bound_to 10752
  154.4304  135.5979  153.6068 H   0  0  0  0  0  0  0  0  0  0  0  0  # atno 10764 bound_to 10752
  152.9834  135.5994  154.4069 H   0  0  0  0  0  0  0  0  0  0  0  0  # atno 10765 bound_to 10752
  140.6712  134.4245  157.5231 H   0  0  0  0  0  0  0  0  0  0  0  0  # atno 11005 bound_to 11000
  145.4395  139.1537  143.3978 LP  0  0  0  0  0  0  0  0  0  0  0  0  # atno 17320 bound_to 7965
  146.2827  140.4516  142.8770 LP  0  0  0  0  0  0  0  0  0  0  0  0  # atno 17321 bound_to 7965
  139.5120  144.3490  152.0670 LP  0  0  0  0  0  0  0  0  0  0  0  0  # atno 17342 bound_to 10162
  140.2628  144.4049  150.6179 LP  0  0  0  0  0  0  0  0  0  0  0  0  # atno 17343 bound_to 10162
  157.6508  130.8883  149.9629 LP  0  0  0  0  0  0  0  0  0  0  0  0  # atno 17370 bound_to 10713
  156.1047  130.3653  150.0155 LP  0  0  0  0  0  0  0  0  0  0  0  0  # atno 17371 bound_to 10713
  139.8981  134.8622  156.2016 LP  0  0  0  0  0  0  0  0  0  0  0  0  # atno 17394 bound_to 11000
  141.0390  133.6948  156.1564 LP  0  0  0  0  0  0  0  0  0  0  0  0  # atno 17395 bound_to 11000

$$$$
