#       Name:                AV-unprocessed.smi:1555
#       Creating user name   scv26
#       Creation time:       Fri Mar 27 06:45:34 2020


#       File generated by GOLD software.
#

@<TRIPOS>MOLECULE
AV-unprocessed.smi:1555
    46    47     1
SMALL
NO_CHARGES


@<TRIPOS>ATOM
      1 ****        -3.0647  -0.8343   1.3487 C.3            1 S1                 0.0000
      2 ****        -2.3220   0.0066   0.2975 C.3            1 S1                 0.0000
      3 ****        -2.2955  -0.6557  -1.0976 C.3            1 S1                 0.0000
      4 ****        -3.6242  -0.9109  -1.6203 N.pl3          1 S1                 0.0000
      5 ****        -4.5020   0.0201  -2.1593 C.2            1 S1                 0.0000
      6 ****        -5.6349  -0.6722  -2.5231 C.2            1 S1                 0.0000
      7 ****        -5.4758  -2.0229  -2.2217 N.2            1 S1                 0.0000
      8 ****        -4.2602  -2.0883  -1.6938 C.2            1 S1                 0.0000
      9 ****        -0.9622   0.2590   0.7654 N.am           1 S1                 0.0000
     10 ****        -0.1774   1.2815   0.3831 C.2            1 S1                 0.0000
     11 ****        -0.5528   2.1238  -0.4338 O.2            1 S1                 0.0000
     12 ****         1.0488   1.3050   0.9652 N.am           1 S1                 0.0000
     13 ****         1.6036   0.2924   1.8794 C.3            1 S1                 0.0000
     14 ****         2.6862  -0.5080   1.1337 C.3            1 S1                 0.0000
     15 ****         3.7935   0.4213   0.5827 C.3            1 S1                 0.0000
     16 ****         4.8252  -0.3407  -0.2688 C.3            1 S1                 0.0000
     17 ****         5.5455  -1.2626   0.5223 O.3            1 S1                 0.0000
     18 ****         3.1736   1.5940  -0.2096 C.3            1 S1                 0.0000
     19 ****         2.0665   2.2969   0.5977 C.3            1 S1                 0.0000
     20 ****        -4.1141  -0.9692   1.0858 H              1 S1                 0.0000
     21 ****        -3.0370  -0.3529   2.3268 H              1 S1                 0.0000
     22 ****        -2.6171  -1.8235   1.4516 H              1 S1                 0.0000
     23 ****        -2.8408   0.9640   0.2199 H              1 S1                 0.0000
     24 ****        -1.7715  -0.0218  -1.8140 H              1 S1                 0.0000
     25 ****        -1.7490  -1.5994  -1.0597 H              1 S1                 0.0000
     26 ****        -4.2548   1.0688  -2.2359 H              1 S1                 0.0000
     27 ****        -6.5437  -0.3052  -2.9765 H              1 S1                 0.0000
     28 ****        -3.8245  -3.0141  -1.3475 H              1 S1                 0.0000
     29 ****        -0.5859  -0.3934   1.4377 H              1 S1                 0.0000
     30 ****         2.0430   0.7934   2.7432 H              1 S1                 0.0000
     31 ****         0.8594  -0.3879   2.2931 H              1 S1                 0.0000
     32 ****         3.1180  -1.2499   1.8060 H              1 S1                 0.0000
     33 ****         2.2258  -1.0632   0.3152 H              1 S1                 0.0000
     34 ****         4.3180   0.8550   1.4358 H              1 S1                 0.0000
     35 ****         4.3387  -0.8702  -1.0886 H              1 S1                 0.0000
     36 ****         5.5385   0.3542  -0.7129 H              1 S1                 0.0000
     37 ****         6.1768  -1.7015  -0.0274 H              1 S1                 0.0000
     38 ****         3.9476   2.3141  -0.4770 H              1 S1                 0.0000
     39 ****         2.7568   1.2260  -1.1483 H              1 S1                 0.0000
     40 ****         1.6587   3.1288   0.0218 H              1 S1                 0.0000
     41 ****         2.4845   2.7413   1.5021 H              1 S1                 0.0000
     42 ****        -6.1256  -2.7686  -2.3687 LP             1 S1                 0.0000
     43 ****        -1.4668   2.0593  -0.8343 LP             1 S1                 0.0000
     44 ****         0.0565   2.8721  -0.6963 LP             1 S1                 0.0000
     45 ****         4.9165  -1.9334   0.9152 LP             1 S1                 0.0000
     46 ****         6.0184  -0.7780   1.2583 LP             1 S1                 0.0000
@<TRIPOS>BOND
    1    1    2 1     
    2    1   20 1     
    3    1   21 1     
    4    1   22 1     
    5    2    3 1     
    6    2    9 1     
    7    2   23 1     
    8    3    4 1     
    9    3   24 1     
   10    3   25 1     
   11    4    8 1     
   12    4    5 1     
   13    5    6 2     
   14    5   26 1     
   15    6    7 1     
   16    6   27 1     
   17    7    8 2     
   18    8   28 1     
   19    9   10 am    
   20    9   29 1     
   21   10   11 2     
   22   10   12 am    
   23   12   19 1     
   24   12   13 1     
   25   13   14 1     
   26   13   30 1     
   27   13   31 1     
   28   14   15 1     
   29   14   32 1     
   30   14   33 1     
   31   15   16 1     
   32   15   18 1     
   33   15   34 1     
   34   16   17 1     
   35   16   35 1     
   36   16   36 1     
   37   17   37 1     
   38   18   19 1     
   39   18   38 1     
   40   18   39 1     
   41   19   40 1     
   42   19   41 1     
   43    7   42 1     
   44   11   43 1     
   45   11   44 1     
   46   17   45 1     
   47   17   46 1     
@<TRIPOS>SUBSTRUCTURE
      1 S1             1
@<TRIPOS>SET
LONE_PAIRS      STATIC     ATOMS    <user>   **** ""
5 42 43 44 45 46
DONOR_HYDROGENS      STATIC     ATOMS    <user>   **** ""
2 29 37
ATOM$BLUE        STATIC     ATOMS    COLORGROUP SYSTEM
5 42 43 44 45 46
ATOM$RED        STATIC     ATOMS    COLORGROUP SYSTEM
2 29 37
