AV-unprocessed.smi:1876|AV-procd|sdf|7621|dock6
  -GOLD-   22720 9353D 1   1.00000     0.00000
 Structure written by MMmdl.
 31 32  0  0  0  0  0  0  0  0  1 V2000
  153.0875  142.7449  161.8446 C   0  0  0  0  0  0  0  0  0  0  0  0
  152.2687  143.1701  160.6743 C   0  0  0  0  0  0  0  0  0  0  0  0
  151.6111  142.4766  159.6973 C   0  0  0  0  0  0  0  0  0  0  0  0
  151.0344  143.5064  158.9071 C   0  0  0  0  0  0  0  0  0  0  0  0
  150.2502  143.1968  157.7664 N   0  0  0  0  0  0  0  0  0  0  0  0
  149.7166  142.0077  157.4384 C   0  0  0  0  0  0  0  0  0  0  0  0
  149.8226  140.9756  158.1018 O   0  0  0  0  0  0  0  0  0  0  0  0
  149.0446  142.0780  156.2801 N   0  0  0  0  0  0  0  0  0  0  0  0
  148.3877  140.9558  155.6125 C   0  0  1  0  0  0  0  0  0  0  0  0
  146.9166  141.2843  155.2959 C   0  0  0  0  0  0  0  0  0  0  0  0
  146.2985  140.1756  154.4393 C   0  0  0  0  0  0  0  0  0  0  0  0
  147.0955  139.9920  153.1375 C   0  0  0  0  0  0  0  0  0  0  0  0
  148.5448  139.9706  153.3429 N   0  0  0  0  0  0  0  0  0  0  0  0
  149.2061  140.4581  154.4077 C   0  0  0  0  0  0  0  0  0  0  0  0
  150.4356  140.4748  154.4448 O   0  0  0  0  0  0  0  0  0  0  0  0
  151.3160  144.7186  159.3600 N   0  0  0  0  0  0  0  0  0  0  0  0
  152.1078  144.5092  160.4951 O   0  0  0  0  0  0  0  0  0  0  0  0
  153.2963  141.6758  161.8067 H   0  0  0  0  0  0  0  0  0  0  0  0
  152.5646  142.9547  162.7777 H   0  0  0  0  0  0  0  0  0  0  0  0
  154.0400  143.2747  161.8636 H   0  0  0  0  0  0  0  0  0  0  0  0
  151.5522  141.4055  159.5726 H   0  0  0  0  0  0  0  0  0  0  0  0
  150.0867  143.9604  157.1270 H   0  0  0  0  0  0  0  0  0  0  0  0
  149.0110  142.9666  155.8021 H   0  0  0  0  0  0  0  0  0  0  0  0
  148.3898  140.1103  156.3032 H   0  0  0  0  0  0  0  0  0  0  0  0
  146.3463  141.4015  156.2181 H   0  0  0  0  0  0  0  0  0  0  0  0
  146.8502  142.2350  154.7645 H   0  0  0  0  0  0  0  0  0  0  0  0
  146.2966  139.2416  155.0027 H   0  0  0  0  0  0  0  0  0  0  0  0
  145.2567  140.4042  154.2134 H   0  0  0  0  0  0  0  0  0  0  0  0
  146.7909  139.0729  152.6364 H   0  0  0  0  0  0  0  0  0  0  0  0
  146.8704  140.8106  152.4531 H   0  0  0  0  0  0  0  0  0  0  0  0
  149.0995  139.6120  152.5791 H   0  0  0  0  0  0  0  0  0  0  0  0
  1  2  1  0  0  0  0
  1 18  1  0  0  0  0
  1 19  1  0  0  0  0
  1 20  1  0  0  0  0
  2 17  1  0  0  0  0
  2  3  2  0  0  0  0
  3  4  1  0  0  0  0
  3 21  1  0  0  0  0
  4  5  1  0  0  0  0
  4 16  2  0  0  0  0
  5  6  1  0  0  0  0
  5 22  1  0  0  0  0
  6  7  2  0  0  0  0
  6  8  1  0  0  0  0
  8  9  1  0  0  0  0
  8 23  1  0  0  0  0
  9 14  1  0  0  0  0
  9 10  1  0  0  0  0
  9 24  1  0  0  0  0
 10 11  1  0  0  0  0
 10 25  1  0  0  0  0
 10 26  1  0  0  0  0
 11 12  1  0  0  0  0
 11 27  1  0  0  0  0
 11 28  1  0  0  0  0
 12 13  1  0  0  0  0
 12 29  1  0  0  0  0
 12 30  1  0  0  0  0
 13 14  1  0  0  0  0
 13 31  1  0  0  0  0
 14 15  2  0  0  0  0
 16 17  1  0  0  0  0
M  END
> <s_m_source_file>
AV-unprocessed.smi

> <i_m_source_file_index>
1876

> <i_lp_mmshare_version>
43012

> <i_f3d_flags>
0

> <s_epik_input>
W0NIM11jMVtjSF1jKG5vMSlbTkhdQyg9TylbTkhdW0NAQEhdMltDSDJdW0NIMl1bQ0gyXVtOSF1DMj1P

> <s_epik_cmdline>
J2VwaWtfcHl0aG9uJywgJy1waCcsICc3LjAnLCAnLXRuJywgJzgnLCAnLW1hJywgJzIwMCcsICctbWV0YWxfYmluZGluZycsICctaW1hZScsICc8aW5maWxlLm1hZT4nLCAnLW9tYWUnLCAnPG91dGZpbGUubWFlPic=

> <r_lp_tautomer_probability>
1

> <r_epik_Ionization_Penalty>
2.33177e-05

> <r_epik_Ionization_Penalty_Charging>
0

> <r_epik_Ionization_Penalty_Neutral>
2.33177e-05

> <r_epik_State_Penalty>
-0

> <r_epik_Charging_Adjusted_Penalty>
0

> <i_epik_Tot_Q>
0

> <i_epik_Tot_abs_Q>
0

> <r_epik_Metal_State_Penalty>
-0

> <b_epik_Metal_Only>
0

> <s_lp_Force_Field>
OPLS_2005

> <r_lp_Energy>
6.99083

> <b_lp_Chiralities_Consistent>
1

> <s_lp_Variant>
AV-unprocessed.smi:1876-2

> <Gold.Version>
5.8.1

> <Gold.Id.Protein>
6NUR|6NUR_protein|mol2

> <Gold.PLP.Fitness>
38.3511

> <Gold.PLP.PLP>
-27.3667

> <Gold.PLP.part.hbond>
-3.4671

> <Gold.PLP.part.metal>
0.0000

> <Gold.PLP.part.buried>
-5.1705

> <Gold.PLP.part.nonpolar>
-18.8069

> <Gold.PLP.part.repulsive>
0.5389

> <Gold.PLP.ligand.clash>
0.0000

> <Gold.PLP.ligand.torsion>
0.1809

> <Gold.PLP.Chemscore.Hbond>
3.7680

> <Gold.PLP.Chemscore.CHOScore>
0.0000

> <Gold.PLP.Chemscore.Metal>
0.0000

> <Gold.Chemscore.Hbonds>
donor molecule, donor type, donor heavy atom, donor atom, acceptor molecule, acceptor atom, score
      L1  H     5    22       P1  8028  0.94
      L1  H     8    23       P1  8028  1.00
      L1  H    13    31       P1  7957  0.82
      P1  H  7989  7998       L1    15  0.99

> <Gold.PLP.Chemscore.Internal.Correction>
0.0421

> <Gold.Rescore>
     Score         DG    S(hbond)    S(metal)    S(lipo)     H(rot)  DE(clash)    DE(int)     intcor
     19.36     -20.86       3.63        0.00      49.77       1.00       0.01       1.49       ----

> <Gold.Chemscore.Fitness>
19.3587

> <Gold.Chemscore.DG>
-20.8608

> <Gold.Chemscore.ZeroCoef>
-5.4800

> <Gold.Chemscore.Hbond>
3.6280

> <Gold.Chemscore.Metal>
0.0000

> <Gold.Chemscore.Lipo>
49.7717

> <Gold.Chemscore.Internal_Hbond>
0.0000

> <Gold.Chemscore.DEClash>
0.0089

> <Gold.Chemscore.DEInternal>
1.4932

> <Gold.Chemscore.Rot>
1.0000

> <Gold.Chemscore.Internal.Correction>
   9.000000E+99

> <Gold.Chemscore.Hbonds>
donor molecule, donor type, donor heavy atom, donor atom, acceptor molecule, acceptor atom, score
      L1  H     5    22       P1  8028  0.79
      L1  H     8    23       P1  8028  0.99
      L1  H    13    31       P1  7957  0.77
      P1  H  7989  7998       L1    15  0.91

> <Gold.Chemscore.Hbond.Weighted>
-12.1175

> <Gold.Chemscore.Metal.Weighted>
-0.0000

> <Gold.Chemscore.Lipo.Weighted>
-5.8233

> <Gold.Chemscore.Internal_Hbond.Weighted>
0.0000

> <Gold.Chemscore.DEClash.Weighted>
0.0089

> <Gold.Chemscore.DEInternal.Weighted>
1.4932

> <Gold.Chemscore.Rot.Weighted>
2.5600

> <Gold.Chemscore.Internal.Correction.Weighted>
   9.000000E+99

> <Gold.Protein.RotatedTorsions>
[ 6907 6896 6895 6894 ] final   47.14 input  -60.11 | X-H torsion
[ 7974 7965 7964 7962 ] final -104.72 input  175.53 | X-H torsion
[ 8008 7997 7996 7995 ] final -150.00 input   59.86 | X-H torsion
[ 10167 10162 10161 10158 ] final   54.13 input  -65.29 | X-H torsion
[ 10718 10713 10712 10709 ] final  -83.82 input   66.30 | X-H torsion
[ 10763 10752 10751 10750 ] final   38.97 input  -60.55 | X-H torsion
[ 11005 11000 10999 10996 ] final  -27.86 input  -57.11 | X-H torsion

> <Gold.Protein.ActiveResidues>
 VAL166  LYS551  ARG553  GLY616  TRP617  ASP618  TYR619  PRO620  LYS621  CYS622 
 ASP623  PHE694  ASN695  SER759  ASP760  ASP761  ALA762  ILE779  LEU786  VAL792 
 PHE793  MET794  SER795  GLU796  ALA797  LYS798  CYS799  TRP800  GLU811  SER814 

> <Gold.Protein.RotatedAtoms>
  152.2646  134.7997  160.0424 H   0  0  0  0  0  0  0  0  0  0  0  0  # atno 6907 bound_to 6896
  151.8631  133.3456  159.3718 H   0  0  0  0  0  0  0  0  0  0  0  0  # atno 6908 bound_to 6896
  150.7129  134.5114  159.5653 H   0  0  0  0  0  0  0  0  0  0  0  0  # atno 6909 bound_to 6896
  145.2396  140.9200  143.3157 H   0  0  0  0  0  0  0  0  0  0  0  0  # atno 7974 bound_to 7965
  155.6166  140.0677  157.2690 H   0  0  0  0  0  0  0  0  0  0  0  0  # atno 8008 bound_to 7997
  154.4240  140.1792  156.1376 H   0  0  0  0  0  0  0  0  0  0  0  0  # atno 8009 bound_to 7997
  156.0043  140.3333  155.6880 H   0  0  0  0  0  0  0  0  0  0  0  0  # atno 8010 bound_to 7997
  140.2334  144.3662  150.6406 H   0  0  0  0  0  0  0  0  0  0  0  0  # atno 10167 bound_to 10162
  156.0013  130.4678  150.4315 H   0  0  0  0  0  0  0  0  0  0  0  0  # atno 10718 bound_to 10713
  152.9983  135.6234  154.2390 H   0  0  0  0  0  0  0  0  0  0  0  0  # atno 10763 bound_to 10752
  154.2130  135.2799  155.2953 H   0  0  0  0  0  0  0  0  0  0  0  0  # atno 10764 bound_to 10752
  154.5591  135.5710  153.7049 H   0  0  0  0  0  0  0  0  0  0  0  0  # atno 10765 bound_to 10752
  140.9157  133.7432  156.0731 H   0  0  0  0  0  0  0  0  0  0  0  0  # atno 11005 bound_to 11000
  144.9601  139.3989  143.6360 LP  0  0  0  0  0  0  0  0  0  0  0  0  # atno 17320 bound_to 7965
  146.3332  139.8650  142.8849 LP  0  0  0  0  0  0  0  0  0  0  0  0  # atno 17321 bound_to 7965
  140.6168  143.2173  151.6776 LP  0  0  0  0  0  0  0  0  0  0  0  0  # atno 17342 bound_to 10162
  139.5102  144.3551  152.0615 LP  0  0  0  0  0  0  0  0  0  0  0  0  # atno 17343 bound_to 10162
  157.2364  131.0515  151.2462 LP  0  0  0  0  0  0  0  0  0  0  0  0  # atno 17370 bound_to 10713
  157.3662  130.7157  149.6534 LP  0  0  0  0  0  0  0  0  0  0  0  0  # atno 17371 bound_to 10713
  140.8053  134.3462  157.5428 LP  0  0  0  0  0  0  0  0  0  0  0  0  # atno 17394 bound_to 11000
  139.8765  134.9222  156.3294 LP  0  0  0  0  0  0  0  0  0  0  0  0  # atno 17395 bound_to 11000

$$$$
