AV-unprocessed.smi:1978|AV-procd|sdf|7993|dock1
  -GOLD-   2272010173D 1   1.00000     0.00000
 Structure written by MMmdl.
 45 46  0  0  0  0  0  0  0  0  2 V2000
  152.7483  143.0004  160.7793 C   0  0  0  0  0  0  0  0  0  0  0  0
  151.9175  143.4723  159.6355 C   0  0  0  0  0  0  0  0  0  0  0  0
  151.1164  142.8245  158.7376 C   0  0  0  0  0  0  0  0  0  0  0  0
  150.6331  143.8805  157.9200 C   0  0  0  0  0  0  0  0  0  0  0  0
  149.7552  143.6204  156.8367 N   0  0  0  0  0  0  0  0  0  0  0  0
  149.6094  142.4674  156.1621 C   0  0  0  0  0  0  0  0  0  0  0  0
  150.2571  141.4395  156.3631 O   0  0  0  0  0  0  0  0  0  0  0  0
  148.6552  142.5642  155.2247 N   0  0  0  0  0  0  0  0  0  0  0  0
  148.2574  141.4809  154.3288 C   0  0  0  0  0  0  0  0  0  0  0  0
  146.7202  141.2341  154.3048 C   0  0  1  0  0  0  0  0  0  0  0  0
  146.0000  142.5615  153.9511 C   0  0  0  0  0  0  0  0  0  0  0  0
  146.3549  140.1065  153.3775 N   0  3  1  0  0  0  0  0  0  0  0  0
  147.1173  140.1090  152.0909 C   0  0  0  0  0  0  0  0  0  0  0  0
  146.5385  139.1009  151.0844 C   0  0  0  0  0  0  0  0  0  0  0  0
  146.4987  137.6875  151.6682 C   0  0  0  0  0  0  0  0  0  0  0  0
  145.7422  137.7048  153.0010 C   0  0  0  0  0  0  0  0  0  0  0  0
  146.3269  138.7351  153.9901 C   0  0  1  0  0  0  0  0  0  0  0  0
  147.6942  138.2823  154.5528 C   0  0  0  0  0  0  0  0  0  0  0  0
  151.0961  145.0659  158.2866 N   0  0  0  0  0  0  0  0  0  0  0  0
  151.9215  144.8103  159.3879 O   0  0  0  0  0  0  0  0  0  0  0  0
  152.6056  141.9334  160.9507 H   0  0  0  0  0  0  0  0  0  0  0  0
  152.4817  143.5283  161.6950 H   0  0  0  0  0  0  0  0  0  0  0  0
  153.8068  143.1731  160.5845 H   0  0  0  0  0  0  0  0  0  0  0  0
  150.9133  141.7657  158.6775 H   0  0  0  0  0  0  0  0  0  0  0  0
  149.1674  144.3912  156.5556 H   0  0  0  0  0  0  0  0  0  0  0  0
  148.1712  143.4444  155.1227 H   0  0  0  0  0  0  0  0  0  0  0  0
  148.6078  141.7279  153.3262 H   0  0  0  0  0  0  0  0  0  0  0  0
  148.8208  140.6038  154.6394 H   0  0  0  0  0  0  0  0  0  0  0  0
  146.4021  140.9430  155.3066 H   0  0  0  0  0  0  0  0  0  0  0  0
  146.3080  143.3797  154.6013 H   0  0  0  0  0  0  0  0  0  0  0  0
  144.9194  142.4997  154.0695 H   0  0  0  0  0  0  0  0  0  0  0  0
  146.2108  142.8645  152.9250 H   0  0  0  0  0  0  0  0  0  0  0  0
  147.0859  141.0790  151.6035 H   0  0  0  0  0  0  0  0  0  0  0  0
  148.1712  139.9013  152.2780 H   0  0  0  0  0  0  0  0  0  0  0  0
  145.5306  139.4073  150.8017 H   0  0  0  0  0  0  0  0  0  0  0  0
  147.1307  139.1067  150.1688 H   0  0  0  0  0  0  0  0  0  0  0  0
  146.0135  137.0055  150.9693 H   0  0  0  0  0  0  0  0  0  0  0  0
  147.5130  137.3137  151.8110 H   0  0  0  0  0  0  0  0  0  0  0  0
  144.6948  137.9444  152.8120 H   0  0  0  0  0  0  0  0  0  0  0  0
  145.7473  136.7085  153.4447 H   0  0  0  0  0  0  0  0  0  0  0  0
  145.6201  138.7421  154.8183 H   0  0  0  0  0  0  0  0  0  0  0  0
  147.6080  137.3023  155.0231 H   0  0  0  0  0  0  0  0  0  0  0  0
  148.0749  138.9641  155.3119 H   0  0  0  0  0  0  0  0  0  0  0  0
  148.4570  138.1997  153.7800 H   0  0  0  0  0  0  0  0  0  0  0  0
  145.3958  140.2884  153.1183 H   0  0  0  0  0  0  0  0  0  0  0  0
  1  2  1  0  0  0  0
  1 21  1  0  0  0  0
  1 22  1  0  0  0  0
  1 23  1  0  0  0  0
  2 20  1  0  0  0  0
  2  3  2  0  0  0  0
  3  4  1  0  0  0  0
  3 24  1  0  0  0  0
  4  5  1  0  0  0  0
  4 19  2  0  0  0  0
  5  6  1  0  0  0  0
  5 25  1  0  0  0  0
  6  7  2  0  0  0  0
  6  8  1  0  0  0  0
  8  9  1  0  0  0  0
  8 26  1  0  0  0  0
  9 10  1  0  0  0  0
  9 27  1  0  0  0  0
  9 28  1  0  0  0  0
 10 11  1  0  0  0  0
 10 12  1  0  0  0  0
 10 29  1  0  0  0  0
 11 30  1  0  0  0  0
 11 31  1  0  0  0  0
 11 32  1  0  0  0  0
 12 17  1  0  0  0  0
 12 13  1  0  0  0  0
 12 45  1  0  0  0  0
 13 14  1  0  0  0  0
 13 33  1  0  0  0  0
 13 34  1  0  0  0  0
 14 15  1  0  0  0  0
 14 35  1  0  0  0  0
 14 36  1  0  0  0  0
 15 16  1  0  0  0  0
 15 37  1  0  0  0  0
 15 38  1  0  0  0  0
 16 17  1  0  0  0  0
 16 39  1  0  0  0  0
 16 40  1  0  0  0  0
 17 18  1  0  0  0  0
 17 41  1  0  0  0  0
 18 42  1  0  0  0  0
 18 43  1  0  0  0  0
 18 44  1  0  0  0  0
 19 20  1  0  0  0  0
M  CHG  1  12   1
M  END
> <s_m_source_file>
AV-unprocessed.smi

> <i_m_source_file_index>
1978

> <i_lp_mmshare_version>
43012

> <i_f3d_flags>
0

> <s_epik_input>
W0NIM11jMVtjSF1jKG5vMSlbTkhdQyg9TylbTkhdW0NIMl1bQ0BIXShbQ0gzXSlOMltDSDJdW0NIMl1bQ0gyXVtDSDJdW0NASF0yW0NIM10=

> <s_epik_cmdline>
J2VwaWtfcHl0aG9uJywgJy1waCcsICc3LjAnLCAnLXRuJywgJzgnLCAnLW1hJywgJzIwMCcsICctbWV0YWxfYmluZGluZycsICctaW1hZScsICc8aW5maWxlLm1hZT4nLCAnLW9tYWUnLCAnPG91dGZpbGUubWFlPic=

> <r_epik_Ionization_Penalty>
0.00265971

> <r_epik_Ionization_Penalty_Charging>
0.00262393

> <r_epik_Ionization_Penalty_Neutral>
3.57846e-05

> <r_epik_State_Penalty>
0.00182566

> <r_epik_Charging_Adjusted_Penalty>
0.00444959

> <i_epik_Tot_Q>
1

> <i_epik_Tot_abs_Q>
1

> <r_epik_Metal_State_Penalty>
0.0216344

> <b_epik_Metal_Only>
0

> <s_lp_Force_Field>
OPLS_2005

> <r_lp_Energy>
22.9601

> <b_lp_Chiralities_Consistent>
1

> <s_lp_Variant>
AV-unprocessed.smi:1978-2

> <Gold.Version>
5.8.1

> <Gold.Id.Protein>
6NUR|6NUR_protein|mol2

> <Gold.PLP.Fitness>
47.3515

> <Gold.PLP.PLP>
-36.7836

> <Gold.PLP.part.hbond>
-3.0000

> <Gold.PLP.part.metal>
0.0000

> <Gold.PLP.part.buried>
2.3622

> <Gold.PLP.part.nonpolar>
-36.3697

> <Gold.PLP.part.repulsive>
0.3448

> <Gold.PLP.ligand.clash>
0.0000

> <Gold.PLP.ligand.torsion>
0.7583

> <Gold.PLP.Chemscore.Hbond>
3.9920

> <Gold.PLP.Chemscore.CHOScore>
0.0000

> <Gold.PLP.Chemscore.Metal>
0.0000

> <Gold.Chemscore.Hbonds>
donor molecule, donor type, donor heavy atom, donor atom, acceptor molecule, acceptor atom, score
      L1  H     8    26       P1  8028  0.38
      L1  H    12    45       P1 10175  2.00

> <Gold.PLP.Chemscore.Internal.Correction>
0.1086

> <Gold.Rescore>
     Score         DG    S(hbond)    S(metal)    S(lipo)     H(rot)  DE(clash)    DE(int)     intcor
     17.65     -22.16       2.74        0.00      98.34       1.55       3.75       0.76       ----

> <Gold.Chemscore.Fitness>
17.6507

> <Gold.Chemscore.DG>
-22.1623

> <Gold.Chemscore.ZeroCoef>
-5.4800

> <Gold.Chemscore.Hbond>
2.7359

> <Gold.Chemscore.Metal>
0.0000

> <Gold.Chemscore.Lipo>
98.3383

> <Gold.Chemscore.Internal_Hbond>
0.0000

> <Gold.Chemscore.DEClash>
3.7485

> <Gold.Chemscore.DEInternal>
0.7632

> <Gold.Chemscore.Rot>
1.5474

> <Gold.Chemscore.Internal.Correction>
   9.000000E+99

> <Gold.Chemscore.Hbonds>
donor molecule, donor type, donor heavy atom, donor atom, acceptor molecule, acceptor atom, score
      L1  H     8    26       P1  8028  0.31
      L1  H    12    45       P1 10175  0.98

> <Gold.Chemscore.Hbond.Weighted>
-9.1380

> <Gold.Chemscore.Metal.Weighted>
-0.0000

> <Gold.Chemscore.Lipo.Weighted>
-11.5056

> <Gold.Chemscore.Internal_Hbond.Weighted>
0.0000

> <Gold.Chemscore.DEClash.Weighted>
3.7485

> <Gold.Chemscore.DEInternal.Weighted>
0.7632

> <Gold.Chemscore.Rot.Weighted>
3.9612

> <Gold.Chemscore.Internal.Correction.Weighted>
   9.000000E+99

> <Gold.Protein.RotatedTorsions>
[ 6907 6896 6895 6894 ] final -165.38 input  -60.11 | X-H torsion
[ 7974 7965 7964 7962 ] final -122.30 input  175.53 | X-H torsion
[ 8008 7997 7996 7995 ] final   51.68 input   59.86 | X-H torsion
[ 10167 10162 10161 10158 ] final  105.95 input  -65.29 | X-H torsion
[ 10718 10713 10712 10709 ] final  -12.17 input   66.30 | X-H torsion
[ 10763 10752 10751 10750 ] final  135.62 input  -60.55 | X-H torsion
[ 11005 11000 10999 10996 ] final   58.54 input  -57.11 | X-H torsion

> <Gold.Protein.ActiveResidues>
 VAL166  LYS551  ARG553  GLY616  TRP617  ASP618  TYR619  PRO620  LYS621  CYS622 
 ASP623  PHE694  ASN695  SER759  ASP760  ASP761  ALA762  ILE779  LEU786  VAL792 
 PHE793  MET794  SER795  GLU796  ALA797  LYS798  CYS799  TRP800  GLU811  SER814 

> <Gold.Protein.RotatedAtoms>
  151.4267  133.3682  159.2762 H   0  0  0  0  0  0  0  0  0  0  0  0  # atno 6907 bound_to 6896
  150.9254  134.8673  159.7527 H   0  0  0  0  0  0  0  0  0  0  0  0  # atno 6908 bound_to 6896
  152.5002  134.4208  159.9532 H   0  0  0  0  0  0  0  0  0  0  0  0  # atno 6909 bound_to 6896
  145.0309  140.8067  143.4324 H   0  0  0  0  0  0  0  0  0  0  0  0  # atno 7974 bound_to 7965
  155.4393  140.3454  155.4288 H   0  0  0  0  0  0  0  0  0  0  0  0  # atno 8008 bound_to 7997
  156.1289  140.1508  156.9126 H   0  0  0  0  0  0  0  0  0  0  0  0  # atno 8009 bound_to 7997
  154.4879  140.0850  156.7508 H   0  0  0  0  0  0  0  0  0  0  0  0  # atno 8010 bound_to 7997
  139.7050  144.7088  151.1122 H   0  0  0  0  0  0  0  0  0  0  0  0  # atno 10167 bound_to 10162
  156.6484  130.4948  149.6070 H   0  0  0  0  0  0  0  0  0  0  0  0  # atno 10718 bound_to 10713
  153.8430  135.3089  155.3427 H   0  0  0  0  0  0  0  0  0  0  0  0  # atno 10763 bound_to 10752
  154.7924  135.4775  154.0086 H   0  0  0  0  0  0  0  0  0  0  0  0  # atno 10764 bound_to 10752
  153.1564  135.6853  153.8898 H   0  0  0  0  0  0  0  0  0  0  0  0  # atno 10765 bound_to 10752
  140.0370  134.5929  155.9431 H   0  0  0  0  0  0  0  0  0  0  0  0  # atno 11005 bound_to 11000
  145.1771  139.2372  143.5311 LP  0  0  0  0  0  0  0  0  0  0  0  0  # atno 17320 bound_to 7965
  146.3498  140.1536  142.8592 LP  0  0  0  0  0  0  0  0  0  0  0  0  # atno 17321 bound_to 7965
  140.7719  143.5371  150.9355 LP  0  0  0  0  0  0  0  0  0  0  0  0  # atno 17342 bound_to 10162
  139.9054  143.6785  152.3124 LP  0  0  0  0  0  0  0  0  0  0  0  0  # atno 17343 bound_to 10162
  156.2104  130.6675  151.1263 LP  0  0  0  0  0  0  0  0  0  0  0  0  # atno 17370 bound_to 10713
  157.7149  131.0715  150.6365 LP  0  0  0  0  0  0  0  0  0  0  0  0  # atno 17371 bound_to 10713
  141.1862  133.6557  156.5231 LP  0  0  0  0  0  0  0  0  0  0  0  0  # atno 17394 bound_to 11000
  140.4132  134.7254  157.4848 LP  0  0  0  0  0  0  0  0  0  0  0  0  # atno 17395 bound_to 11000

$$$$
