#       Name:                AV-unprocessed.smi:1473
#       Creating user name   scv26
#       Creation time:       Fri Mar 27 06:06:13 2020


#       File generated by GOLD software.
#

@<TRIPOS>MOLECULE
AV-unprocessed.smi:1473
    38    39     1
SMALL
NO_CHARGES


@<TRIPOS>ATOM
      1 ****        -3.0625   1.3940  -1.1230 N.pl3          1 S1                -1.0000
      2 ****        -2.4729   2.8868  -0.9080 S.o2           1 S1                 0.0000
      3 ****        -3.5647   3.8662  -1.0108 O.2            1 S1                 0.0000
      4 ****        -1.6658   2.9708   0.3221 O.2            1 S1                 0.0000
      5 ****        -1.5720   2.9181  -2.2705 N.pl3          1 S1                -1.0000
      6 ****        -0.1580   2.5466  -2.2988 C.3            1 S1                 0.0000
      7 ****         0.0630   1.0673  -2.0123 C.ar           1 S1                 0.0000
      8 ****        -0.0657   0.1041  -3.0411 C.ar           1 S1                 0.0000
      9 ****         0.0959  -1.2604  -2.7290 C.ar           1 S1                 0.0000
     10 ****         0.3658  -1.6347  -1.4598 N.pl3          1 S1                 1.0000
     11 ****         0.5006  -0.7542  -0.4439 C.ar           1 S1                 0.0000
     12 ****         0.7415  -1.2767   0.8329 N.3            1 S1                 0.0000
     13 ****         1.9507  -0.7623   1.4633 C.3            1 S1                 0.0000
     14 ****         2.1781  -1.4676   2.8112 C.3            1 S1                 0.0000
     15 ****         1.0284  -1.2987   3.6357 O.3            1 S1                 0.0000
     16 ****        -0.1420  -1.8600   3.0475 C.3            1 S1                 0.0000
     17 ****        -0.4249  -1.1729   1.7003 C.3            1 S1                 0.0000
     18 ****         0.3640   0.6282  -0.7015 C.ar           1 S1                 0.0000
     19 ****        -2.6200   0.7694  -0.4387 H              1 S1                 0.0000
     20 ****         0.2835   2.7609  -3.2728 H              1 S1                 0.0000
     21 ****         0.4306   3.1295  -1.5892 H              1 S1                 0.0000
     22 ****        -0.3051   0.3920  -4.0559 H              1 S1                 0.0000
     23 ****         0.0029  -2.0590  -3.4501 H              1 S1                 0.0000
     24 ****         2.8062  -0.9227   0.8061 H              1 S1                 0.0000
     25 ****         1.8620   0.3128   1.6238 H              1 S1                 0.0000
     26 ****         2.3823  -2.5297   2.6664 H              1 S1                 0.0000
     27 ****         3.0445  -1.0418   3.3175 H              1 S1                 0.0000
     28 ****        -0.0147  -2.9357   2.9159 H              1 S1                 0.0000
     29 ****        -0.9838  -1.7191   3.7255 H              1 S1                 0.0000
     30 ****        -0.6709  -0.1223   1.8634 H              1 S1                 0.0000
     31 ****        -1.2881  -1.6338   1.2183 H              1 S1                 0.0000
     32 ****         0.4497   1.3351   0.1129 H              1 S1                 0.0000
     33 ****         0.4609  -2.6296  -1.2565 H              1 S1                 0.0000
     34 ****        -3.7420   1.1261  -1.8061 LP             1 S1                 0.0000
     35 ****        -2.0074   3.2043  -3.1240 LP             1 S1                 0.0000
     36 ****         0.9160  -2.2511   0.6910 LP             1 S1                 0.0000
     37 ****         0.8781  -0.3211   3.7825 LP             1 S1                 0.0000
     38 ****         1.1937  -1.7462   4.5145 LP             1 S1                 0.0000
@<TRIPOS>BOND
    1    1    2 1     
    2    1   19 1     
    3    2    3 2     
    4    2    4 2     
    5    2    5 1     
    6    5    6 1     
    7    6    7 1     
    8    6   20 1     
    9    6   21 1     
   10    7   18 ar    
   11    7    8 ar    
   12    8    9 ar    
   13    8   22 1     
   14    9   10 ar    
   15    9   23 1     
   16   10   11 ar    
   17   10   33 1     
   18   11   12 1     
   19   11   18 ar    
   20   12   17 1     
   21   12   13 1     
   22   13   14 1     
   23   13   24 1     
   24   13   25 1     
   25   14   15 1     
   26   14   26 1     
   27   14   27 1     
   28   15   16 1     
   29   16   17 1     
   30   16   28 1     
   31   16   29 1     
   32   17   30 1     
   33   17   31 1     
   34   18   32 1     
   35    1   34 1     
   36    5   35 1     
   37   12   36 1     
   38   15   37 1     
   39   15   38 1     
@<TRIPOS>SUBSTRUCTURE
      1 S1             1
@<TRIPOS>SET
LONE_PAIRS      STATIC     ATOMS    <user>   **** ""
7 34 3 4 35 36 37 38
DONOR_HYDROGENS      STATIC     ATOMS    <user>   **** ""
2 19 33
ATOM$BLUE        STATIC     ATOMS    COLORGROUP SYSTEM
7 34 3 4 35 36 37 38
ATOM$RED        STATIC     ATOMS    COLORGROUP SYSTEM
2 19 33
