AV-unprocessed.smi:2178|AV-procd|sdf|8855|dock8
  -GOLD-   2272012 53D 1   1.00000     0.00000
 Structure written by MMmdl.
 47 49  0  0  0  0  0  0  0  0  2 V2000
  145.2322  142.5775  159.8518 C   0  0  0  0  0  0  0  0  0  0  0  0
  146.6010  143.2162  159.9960 C   0  0  0  0  0  0  0  0  0  0  0  0
  146.7903  144.2442  160.9424 C   0  0  0  0  0  0  0  0  0  0  0  0
  148.0493  144.8571  161.0813 C   0  0  0  0  0  0  0  0  0  0  0  0
  149.1242  144.4489  160.2702 C   0  0  0  0  0  0  0  0  0  0  0  0
  148.9467  143.4219  159.3203 C   0  0  0  0  0  0  0  0  0  0  0  0
  150.1125  143.0007  158.4447 C   0  0  0  0  0  0  0  0  0  0  0  0
  147.6858  142.7929  159.1919 C   0  0  0  0  0  0  0  0  0  0  0  0
  147.5121  141.7951  158.2686 O   0  0  0  0  0  0  0  0  0  0  0  0
  146.6136  142.1352  157.2216 C   0  0  0  0  0  0  0  0  0  0  0  0
  146.7929  141.1673  156.0422 C   0  0  1  0  0  0  0  0  0  0  0  0
  145.5794  141.0796  155.3225 O   0  0  0  0  0  0  0  0  0  0  0  0
  147.9804  141.5285  155.1264 C   0  0  0  0  0  0  0  0  0  0  0  0
  148.7377  140.3474  154.6811 N   0  0  0  0  0  0  0  0  0  0  0  0
  148.3897  139.3549  153.8116 C   0  0  0  0  0  0  0  0  0  0  0  0
  147.1044  139.2244  153.0627 C   0  0  0  0  0  0  0  0  0  0  0  0
  147.3030  139.1383  151.6692 O   0  0  0  0  0  0  0  0  0  0  0  0
  149.4451  138.4960  153.7360 N   0  3  0  0  0  0  0  0  0  0  0  0
  150.4766  138.9394  154.5641 C   0  0  0  0  0  0  0  0  0  0  0  0
  151.7356  138.4036  154.8169 C   0  0  0  0  0  0  0  0  0  0  0  0
  152.5554  139.1120  155.7198 C   0  0  0  0  0  0  0  0  0  0  0  0
  152.1152  140.3043  156.3302 C   0  0  0  0  0  0  0  0  0  0  0  0
  150.8369  140.8382  156.0655 C   0  0  0  0  0  0  0  0  0  0  0  0
  150.0305  140.1298  155.1743 C   0  0  0  0  0  0  0  0  0  0  0  0
  144.4508  143.2362  160.2322 H   0  0  0  0  0  0  0  0  0  0  0  0
  145.1909  141.6426  160.4104 H   0  0  0  0  0  0  0  0  0  0  0  0
  145.0084  142.3652  158.8059 H   0  0  0  0  0  0  0  0  0  0  0  0
  145.9685  144.5683  161.5641 H   0  0  0  0  0  0  0  0  0  0  0  0
  148.1888  145.6449  161.8069 H   0  0  0  0  0  0  0  0  0  0  0  0
  150.0856  144.9291  160.3792 H   0  0  0  0  0  0  0  0  0  0  0  0
  149.7845  142.8305  157.4188 H   0  0  0  0  0  0  0  0  0  0  0  0
  150.5557  142.0791  158.8220 H   0  0  0  0  0  0  0  0  0  0  0  0
  150.8870  143.7680  158.4243 H   0  0  0  0  0  0  0  0  0  0  0  0
  145.5893  142.0592  157.5894 H   0  0  0  0  0  0  0  0  0  0  0  0
  146.7559  143.1678  156.8997 H   0  0  0  0  0  0  0  0  0  0  0  0
  146.9655  140.1736  156.4565 H   0  0  0  0  0  0  0  0  0  0  0  0
  145.5973  141.7206  154.6286 H   0  0  0  0  0  0  0  0  0  0  0  0
  147.6549  142.0919  154.2520 H   0  0  0  0  0  0  0  0  0  0  0  0
  148.6719  142.1819  155.6588 H   0  0  0  0  0  0  0  0  0  0  0  0
  146.5768  138.3323  153.4016 H   0  0  0  0  0  0  0  0  0  0  0  0
  146.4618  140.0768  153.2821 H   0  0  0  0  0  0  0  0  0  0  0  0
  148.2288  139.2085  151.4916 H   0  0  0  0  0  0  0  0  0  0  0  0
  152.0762  137.4918  154.3486 H   0  0  0  0  0  0  0  0  0  0  0  0
  153.5416  138.7343  155.9475 H   0  0  0  0  0  0  0  0  0  0  0  0
  152.7716  140.8219  157.0148 H   0  0  0  0  0  0  0  0  0  0  0  0
  150.5146  141.7561  156.5349 H   0  0  0  0  0  0  0  0  0  0  0  0
  149.4567  137.6681  153.1541 H   0  0  0  0  0  0  0  0  0  0  0  0
  1  2  1  0  0  0  0
  1 25  1  0  0  0  0
  1 26  1  0  0  0  0
  1 27  1  0  0  0  0
  2  8  1  0  0  0  0
  2  3  2  0  0  0  0
  3  4  1  0  0  0  0
  3 28  1  0  0  0  0
  4  5  2  0  0  0  0
  4 29  1  0  0  0  0
  5  6  1  0  0  0  0
  5 30  1  0  0  0  0
  6  7  1  0  0  0  0
  6  8  2  0  0  0  0
  7 31  1  0  0  0  0
  7 32  1  0  0  0  0
  7 33  1  0  0  0  0
  8  9  1  0  0  0  0
  9 10  1  0  0  0  0
 10 11  1  0  0  0  0
 10 34  1  0  0  0  0
 10 35  1  0  0  0  0
 11 12  1  0  0  0  0
 11 13  1  0  0  0  0
 11 36  1  0  0  0  0
 12 37  1  0  0  0  0
 13 14  1  0  0  0  0
 13 38  1  0  0  0  0
 13 39  1  0  0  0  0
 14 24  1  0  0  0  0
 14 15  1  0  0  0  0
 15 16  1  0  0  0  0
 15 18  2  0  0  0  0
 16 17  1  0  0  0  0
 16 40  1  0  0  0  0
 16 41  1  0  0  0  0
 17 42  1  0  0  0  0
 18 19  1  0  0  0  0
 18 47  1  0  0  0  0
 19 24  2  0  0  0  0
 19 20  1  0  0  0  0
 20 21  2  0  0  0  0
 20 43  1  0  0  0  0
 21 22  1  0  0  0  0
 21 44  1  0  0  0  0
 22 23  2  0  0  0  0
 22 45  1  0  0  0  0
 23 24  1  0  0  0  0
 23 46  1  0  0  0  0
M  CHG  1  18   1
M  END
> <s_m_source_file>
AV-unprocessed.smi

> <i_m_source_file_index>
2178

> <i_lp_mmshare_version>
43012

> <i_f3d_flags>
0

> <s_epik_input>
W0NIM11jMVtjSF1bY0hdW2NIXWMoW0NIM10pYzFPW0NIMl1bQ0BIXShbT0hdKVtDSDJdbihjKG4yKVtDSDJdW09IXSljKGMyMylbY0hdW2NIXVtjSF1bY0hdMw==

> <s_epik_cmdline>
J2VwaWtfcHl0aG9uJywgJy1waCcsICc3LjAnLCAnLXRuJywgJzgnLCAnLW1hJywgJzIwMCcsICctbWV0YWxfYmluZGluZycsICctaW1hZScsICc8aW5maWxlLm1hZT4nLCAnLW9tYWUnLCAnPG91dGZpbGUubWFlPic=

> <r_lp_tautomer_probability>
1

> <r_epik_Ionization_Penalty>
1.43125

> <r_epik_Ionization_Penalty_Charging>
1.43039

> <r_epik_Ionization_Penalty_Neutral>
0.000858184

> <r_epik_State_Penalty>
1.51493

> <r_epik_Charging_Adjusted_Penalty>
2.94531

> <i_epik_Tot_Q>
1

> <i_epik_Tot_abs_Q>
1

> <r_epik_Metal_State_Penalty>
5.5599

> <b_epik_Metal_Only>
0

> <s_lp_Force_Field>
OPLS_2005

> <r_lp_Energy>
23.7174

> <b_lp_Chiralities_Consistent>
1

> <s_lp_Variant>
AV-unprocessed.smi:2178-4

> <Gold.Version>
5.8.1

> <Gold.Id.Protein>
6NUR|6NUR_protein|mol2

> <Gold.PLP.Fitness>
52.1389

> <Gold.PLP.PLP>
-44.9822

> <Gold.PLP.part.hbond>
-3.2715

> <Gold.PLP.part.metal>
0.0000

> <Gold.PLP.part.buried>
-5.3127

> <Gold.PLP.part.nonpolar>
-37.8795

> <Gold.PLP.part.repulsive>
0.1872

> <Gold.PLP.ligand.clash>
0.0000

> <Gold.PLP.ligand.torsion>
1.0047

> <Gold.PLP.Chemscore.Hbond>
3.0000

> <Gold.PLP.Chemscore.CHOScore>
0.0000

> <Gold.PLP.Chemscore.Metal>
0.0000

> <Gold.Chemscore.Hbonds>
donor molecule, donor type, donor heavy atom, donor atom, acceptor molecule, acceptor atom, score
      L1  H    17    42       P1  7957  1.00
      L1  H    18    47       P1  7948  2.00

> <Gold.PLP.Chemscore.Internal.Correction>
0.1662

> <Gold.Rescore>
     Score         DG    S(hbond)    S(metal)    S(lipo)     H(rot)  DE(clash)    DE(int)     intcor
     13.97     -16.28       1.99        0.00     102.30       3.05       0.21       2.10       ----

> <Gold.Chemscore.Fitness>
13.9706

> <Gold.Chemscore.DG>
-16.2811

> <Gold.Chemscore.ZeroCoef>
-5.4800

> <Gold.Chemscore.Hbond>
1.9861

> <Gold.Chemscore.Metal>
0.0000

> <Gold.Chemscore.Lipo>
102.3032

> <Gold.Chemscore.Internal_Hbond>
0.0000

> <Gold.Chemscore.DEClash>
0.2148

> <Gold.Chemscore.DEInternal>
2.0958

> <Gold.Chemscore.Rot>
3.0476

> <Gold.Chemscore.Internal.Correction>
   9.000000E+99

> <Gold.Chemscore.Hbonds>
donor molecule, donor type, donor heavy atom, donor atom, acceptor molecule, acceptor atom, score
      L1  H    17    42       P1  7957  0.85
      L1  H    18    47       P1  7948  0.89

> <Gold.Chemscore.Hbond.Weighted>
-6.6335

> <Gold.Chemscore.Metal.Weighted>
-0.0000

> <Gold.Chemscore.Lipo.Weighted>
-11.9695

> <Gold.Chemscore.Internal_Hbond.Weighted>
0.0000

> <Gold.Chemscore.DEClash.Weighted>
0.2148

> <Gold.Chemscore.DEInternal.Weighted>
2.0958

> <Gold.Chemscore.Rot.Weighted>
7.8018

> <Gold.Chemscore.Internal.Correction.Weighted>
   9.000000E+99

> <Gold.Protein.RotatedTorsions>
[ 6907 6896 6895 6894 ] final -150.52 input  -60.11 | X-H torsion
[ 7974 7965 7964 7962 ] final   30.64 input  175.53 | X-H torsion
[ 8008 7997 7996 7995 ] final   70.29 input   59.86 | X-H torsion
[ 10167 10162 10161 10158 ] final -102.61 input  -65.29 | X-H torsion
[ 10718 10713 10712 10709 ] final  120.35 input   66.30 | X-H torsion
[ 10763 10752 10751 10750 ] final   18.94 input  -60.55 | X-H torsion
[ 11005 11000 10999 10996 ] final  -11.17 input  -57.11 | X-H torsion

> <Gold.Protein.ActiveResidues>
 VAL166  LYS551  ARG553  GLY616  TRP617  ASP618  TYR619  PRO620  LYS621  CYS622 
 ASP623  PHE694  ASN695  SER759  ASP760  ASP761  ALA762  ILE779  LEU786  VAL792 
 PHE793  MET794  SER795  GLU796  ALA797  LYS798  CYS799  TRP800  GLU811  SER814 

> <Gold.Protein.RotatedAtoms>
  151.1998  133.4618  159.2595 H   0  0  0  0  0  0  0  0  0  0  0  0  # atno 6907 bound_to 6896
  151.1081  135.0011  159.8491 H   0  0  0  0  0  0  0  0  0  0  0  0  # atno 6908 bound_to 6896
  152.5448  134.1919  159.8730 H   0  0  0  0  0  0  0  0  0  0  0  0  # atno 6909 bound_to 6896
  146.1599  139.6762  142.9040 H   0  0  0  0  0  0  0  0  0  0  0  0  # atno 7974 bound_to 7965
  155.7366  140.3491  155.5084 H   0  0  0  0  0  0  0  0  0  0  0  0  # atno 8008 bound_to 7997
  155.9133  140.1054  157.1284 H   0  0  0  0  0  0  0  0  0  0  0  0  # atno 8009 bound_to 7997
  154.4059  140.1263  156.4572 H   0  0  0  0  0  0  0  0  0  0  0  0  # atno 8010 bound_to 7997
  140.2288  143.3622  152.0905 H   0  0  0  0  0  0  0  0  0  0  0  0  # atno 10167 bound_to 10162
  157.5897  131.1066  150.8023 H   0  0  0  0  0  0  0  0  0  0  0  0  # atno 10718 bound_to 10713
  153.1205  135.6718  153.9344 H   0  0  0  0  0  0  0  0  0  0  0  0  # atno 10763 bound_to 10752
  153.8861  135.3052  155.3448 H   0  0  0  0  0  0  0  0  0  0  0  0  # atno 10764 bound_to 10752
  154.7617  135.4985  153.9555 H   0  0  0  0  0  0  0  0  0  0  0  0  # atno 10765 bound_to 10752
  140.7524  133.8581  155.9056 H   0  0  0  0  0  0  0  0  0  0  0  0  # atno 11005 bound_to 11000
  145.4613  141.0433  143.2750 LP  0  0  0  0  0  0  0  0  0  0  0  0  # atno 17320 bound_to 7965
  144.8013  139.6134  143.7070 LP  0  0  0  0  0  0  0  0  0  0  0  0  # atno 17321 bound_to 7965
  139.5117  144.6905  151.5771 LP  0  0  0  0  0  0  0  0  0  0  0  0  # atno 17342 bound_to 10162
  140.6201  143.9275  150.6519 LP  0  0  0  0  0  0  0  0  0  0  0  0  # atno 17343 bound_to 10162
  156.8448  130.5060  149.5317 LP  0  0  0  0  0  0  0  0  0  0  0  0  # atno 17370 bound_to 10713
  156.0950  130.5925  150.9798 LP  0  0  0  0  0  0  0  0  0  0  0  0  # atno 17371 bound_to 10713
  140.9738  134.1496  157.4553 LP  0  0  0  0  0  0  0  0  0  0  0  0  # atno 17394 bound_to 11000
  139.8785  134.9987  156.5917 LP  0  0  0  0  0  0  0  0  0  0  0  0  # atno 17395 bound_to 11000

$$$$
