AV-unprocessed.smi:3353|AV-procd|sdf|12953|dock6
  -GOLD-   2272019393D 1   1.00000     0.00000
 Structure written by MMmdl.
 43 44  0  0  0  0  0  0  0  0  2 V2000
  150.0280  142.1228  157.6371 C   0  0  0  0  0  0  0  0  0  0  0  0
  150.9187  142.0268  156.3930 C   0  0  0  0  0  0  0  0  0  0  0  0
  150.6185  140.8437  155.6110 N   0  0  0  0  0  0  0  0  0  0  0  0
  149.4307  140.5099  154.9909 C   0  0  0  0  0  0  0  0  0  0  0  0
  149.6521  139.3000  154.3960 C   0  0  0  0  0  0  0  0  0  0  0  0
  148.7681  138.4989  153.6299 N   0  0  0  0  0  0  0  0  0  0  0  0
  147.4435  138.3566  153.8000 C   0  0  0  0  0  0  0  0  0  0  0  0
  146.7735  138.9242  154.6633 O   0  0  0  0  0  0  0  0  0  0  0  0
  146.9236  137.5045  152.9052 N   0  0  0  0  0  0  0  0  0  0  0  0
  145.5123  137.1392  152.8270 C   0  0  0  0  0  0  0  0  0  0  0  0
  145.2325  136.0197  151.7903 C   0  0  2  0  0  0  0  0  0  0  0  0
  143.7854  135.4953  151.9271 C   0  0  0  0  0  0  0  0  0  0  0  0
  146.2273  134.9169  151.9279 N   0  3  0  0  0  0  0  0  0  0  0  0
  146.2888  134.2661  153.2550 C   0  0  0  0  0  0  0  0  0  0  0  0
  146.9610  132.9214  153.0050 C   0  0  0  0  0  0  0  0  0  0  0  0
  146.4005  132.5053  151.6503 C   0  0  0  0  0  0  0  0  0  0  0  0
  146.1004  133.8258  150.9276 C   0  0  0  0  0  0  0  0  0  0  0  0
  150.9971  138.9612  154.6968 C   0  0  0  0  0  0  0  0  0  0  0  0
  151.5745  139.8987  155.4327 N   0  0  0  0  0  0  0  0  0  0  0  0
  150.2580  143.0211  158.2101 H   0  0  0  0  0  0  0  0  0  0  0  0
  150.1718  141.2637  158.2931 H   0  0  0  0  0  0  0  0  0  0  0  0
  148.9734  142.1631  157.3632 H   0  0  0  0  0  0  0  0  0  0  0  0
  150.7807  142.9054  155.7617 H   0  0  0  0  0  0  0  0  0  0  0  0
  151.9712  142.0040  156.6793 H   0  0  0  0  0  0  0  0  0  0  0  0
  148.5622  141.1501  155.0346 H   0  0  0  0  0  0  0  0  0  0  0  0
  149.1910  137.9761  152.8770 H   0  0  0  0  0  0  0  0  0  0  0  0
  147.5444  137.0837  152.2290 H   0  0  0  0  0  0  0  0  0  0  0  0
  145.1792  136.8534  153.8254 H   0  0  0  0  0  0  0  0  0  0  0  0
  144.9484  138.0352  152.5655 H   0  0  0  0  0  0  0  0  0  0  0  0
  145.3422  136.4327  150.7863 H   0  0  0  0  0  0  0  0  0  0  0  0
  143.0555  136.2996  151.8350 H   0  0  0  0  0  0  0  0  0  0  0  0
  143.6277  135.0165  152.8940 H   0  0  0  0  0  0  0  0  0  0  0  0
  143.5366  134.7723  151.1505 H   0  0  0  0  0  0  0  0  0  0  0  0
  146.8380  134.8671  153.9806 H   0  0  0  0  0  0  0  0  0  0  0  0
  145.2784  134.1064  153.6360 H   0  0  0  0  0  0  0  0  0  0  0  0
  148.0418  133.0537  152.9353 H   0  0  0  0  0  0  0  0  0  0  0  0
  146.7595  132.1925  153.7909 H   0  0  0  0  0  0  0  0  0  0  0  0
  147.0885  131.8682  151.0932 H   0  0  0  0  0  0  0  0  0  0  0  0
  145.4743  131.9465  151.7923 H   0  0  0  0  0  0  0  0  0  0  0  0
  145.0985  133.7873  150.4966 H   0  0  0  0  0  0  0  0  0  0  0  0
  146.8051  134.0016  150.1141 H   0  0  0  0  0  0  0  0  0  0  0  0
  151.5619  138.0850  154.4139 H   0  0  0  0  0  0  0  0  0  0  0  0
  147.1409  135.3223  151.7820 H   0  0  0  0  0  0  0  0  0  0  0  0
  1  2  1  0  0  0  0
  1 20  1  0  0  0  0
  1 21  1  0  0  0  0
  1 22  1  0  0  0  0
  2  3  1  0  0  0  0
  2 23  1  0  0  0  0
  2 24  1  0  0  0  0
  3 19  1  0  0  0  0
  3  4  1  0  0  0  0
  4  5  2  0  0  0  0
  4 25  1  0  0  0  0
  5  6  1  0  0  0  0
  5 18  1  0  0  0  0
  6  7  1  0  0  0  0
  6 26  1  0  0  0  0
  7  8  2  0  0  0  0
  7  9  1  0  0  0  0
  9 10  1  0  0  0  0
  9 27  1  0  0  0  0
 10 11  1  0  0  0  0
 10 28  1  0  0  0  0
 10 29  1  0  0  0  0
 11 12  1  0  0  0  0
 11 13  1  0  0  0  0
 11 30  1  0  0  0  0
 12 31  1  0  0  0  0
 12 32  1  0  0  0  0
 12 33  1  0  0  0  0
 13 17  1  0  0  0  0
 13 14  1  0  0  0  0
 13 43  1  0  0  0  0
 14 15  1  0  0  0  0
 14 34  1  0  0  0  0
 14 35  1  0  0  0  0
 15 16  1  0  0  0  0
 15 36  1  0  0  0  0
 15 37  1  0  0  0  0
 16 17  1  0  0  0  0
 16 38  1  0  0  0  0
 16 39  1  0  0  0  0
 17 40  1  0  0  0  0
 17 41  1  0  0  0  0
 18 19  2  0  0  0  0
 18 42  1  0  0  0  0
M  CHG  1  13   1
M  END
> <s_m_source_file>
AV-unprocessed.smi

> <i_m_source_file_index>
3353

> <i_lp_mmshare_version>
43012

> <i_f3d_flags>
0

> <s_epik_input>
W0NIM11bQ0gyXW4xW2NIXWMoW2NIXW4xKVtOSF1DKD1PKVtOSF1bQ0gyXVtDQEhdKFtDSDNdKU4yW0NIMl1bQ0gyXVtDSDJdW0NIMl0y

> <s_epik_cmdline>
J2VwaWtfcHl0aG9uJywgJy1waCcsICc3LjAnLCAnLXRuJywgJzgnLCAnLW1hJywgJzIwMCcsICctbWV0YWxfYmluZGluZycsICctaW1hZScsICc8aW5maWxlLm1hZT4nLCAnLW9tYWUnLCAnPG91dGZpbGUubWFlPic=

> <r_lp_tautomer_probability>
1

> <r_epik_Ionization_Penalty>
0.000914091

> <r_epik_Ionization_Penalty_Charging>
0.000761583

> <r_epik_Ionization_Penalty_Neutral>
0.000152508

> <r_epik_State_Penalty>
0.000487427

> <r_epik_Charging_Adjusted_Penalty>
0.00124901

> <i_epik_Tot_Q>
1

> <i_epik_Tot_abs_Q>
1

> <r_epik_Metal_State_Penalty>
-0

> <b_epik_Metal_Only>
0

> <s_lp_Force_Field>
OPLS_2005

> <r_lp_Energy>
33.6396

> <b_lp_Chiralities_Consistent>
1

> <s_lp_Variant>
AV-unprocessed.smi:3353-1

> <Gold.Version>
5.8.1

> <Gold.Id.Protein>
6NUR|6NUR_protein|mol2

> <Gold.PLP.Fitness>
44.9690

> <Gold.PLP.PLP>
-34.3879

> <Gold.PLP.part.hbond>
-5.0000

> <Gold.PLP.part.metal>
0.0000

> <Gold.PLP.part.buried>
-4.5026

> <Gold.PLP.part.nonpolar>
-26.2053

> <Gold.PLP.part.repulsive>
0.2280

> <Gold.PLP.ligand.clash>
0.0000

> <Gold.PLP.ligand.torsion>
0.3528

> <Gold.PLP.Chemscore.Hbond>
3.7440

> <Gold.PLP.Chemscore.CHOScore>
0.0000

> <Gold.PLP.Chemscore.Metal>
0.0000

> <Gold.Chemscore.Hbonds>
donor molecule, donor type, donor heavy atom, donor atom, acceptor molecule, acceptor atom, score
      L1  H     6    26       P1  7948  0.83
      L1  H     9    27       P1  7948  1.00
      L1  H    13    43       P1  7948  2.00

> <Gold.PLP.Chemscore.Internal.Correction>
0.0547

> <Gold.Rescore>
     Score         DG    S(hbond)    S(metal)    S(lipo)     H(rot)  DE(clash)    DE(int)     intcor
     17.99     -18.79       2.67        0.00      72.71       1.61       0.32       0.47       ----

> <Gold.Chemscore.Fitness>
17.9926

> <Gold.Chemscore.DG>
-18.7860

> <Gold.Chemscore.ZeroCoef>
-5.4800

> <Gold.Chemscore.Hbond>
2.6722

> <Gold.Chemscore.Metal>
0.0000

> <Gold.Chemscore.Lipo>
72.7083

> <Gold.Chemscore.Internal_Hbond>
0.0000

> <Gold.Chemscore.DEClash>
0.3199

> <Gold.Chemscore.DEInternal>
0.4736

> <Gold.Chemscore.Rot>
1.6117

> <Gold.Chemscore.Internal.Correction>
   9.000000E+99

> <Gold.Chemscore.Hbonds>
donor molecule, donor type, donor heavy atom, donor atom, acceptor molecule, acceptor atom, score
      L1  H     6    26       P1  7948  0.78
      L1  H     9    27       P1  7948  0.96
      L1  H    13    43       P1  7948  0.96

> <Gold.Chemscore.Hbond.Weighted>
-8.9251

> <Gold.Chemscore.Metal.Weighted>
-0.0000

> <Gold.Chemscore.Lipo.Weighted>
-8.5069

> <Gold.Chemscore.Internal_Hbond.Weighted>
0.0000

> <Gold.Chemscore.DEClash.Weighted>
0.3199

> <Gold.Chemscore.DEInternal.Weighted>
0.4736

> <Gold.Chemscore.Rot.Weighted>
4.1260

> <Gold.Chemscore.Internal.Correction.Weighted>
   9.000000E+99

> <Gold.Protein.RotatedTorsions>
[ 6907 6896 6895 6894 ] final -101.83 input  -60.11 | X-H torsion
[ 7974 7965 7964 7962 ] final   79.61 input  175.53 | X-H torsion
[ 8008 7997 7996 7995 ] final   82.19 input   59.86 | X-H torsion
[ 10167 10162 10161 10158 ] final -156.66 input  -65.29 | X-H torsion
[ 10718 10713 10712 10709 ] final  -41.88 input   66.30 | X-H torsion
[ 10763 10752 10751 10750 ] final  177.61 input  -60.55 | X-H torsion
[ 11005 11000 10999 10996 ] final  117.95 input  -57.11 | X-H torsion

> <Gold.Protein.ActiveResidues>
 VAL166  LYS551  ARG553  GLY616  TRP617  ASP618  TYR619  PRO620  LYS621  CYS622 
 ASP623  PHE694  ASN695  SER759  ASP760  ASP761  ALA762  ILE779  LEU786  VAL792 
 PHE793  MET794  SER795  GLU796  ALA797  LYS798  CYS799  TRP800  GLU811  SER814 

> <Gold.Protein.RotatedAtoms>
  150.7170  134.0675  159.3852 H   0  0  0  0  0  0  0  0  0  0  0  0  # atno 6907 bound_to 6896
  151.8656  135.0506  160.0483 H   0  0  0  0  0  0  0  0  0  0  0  0  # atno 6908 bound_to 6896
  152.2683  133.5324  159.5460 H   0  0  0  0  0  0  0  0  0  0  0  0  # atno 6909 bound_to 6896
  145.6620  139.2474  143.1917 H   0  0  0  0  0  0  0  0  0  0  0  0  # atno 7974 bound_to 7965
  155.9073  140.3429  155.6071 H   0  0  0  0  0  0  0  0  0  0  0  0  # atno 8008 bound_to 7997
  155.7430  140.0810  157.2256 H   0  0  0  0  0  0  0  0  0  0  0  0  # atno 8009 bound_to 7997
  154.4051  140.1567  156.2624 H   0  0  0  0  0  0  0  0  0  0  0  0  # atno 8010 bound_to 7997
  139.6832  143.9546  152.2347 H   0  0  0  0  0  0  0  0  0  0  0  0  # atno 10167 bound_to 10162
  156.2656  130.4201  149.8494 H   0  0  0  0  0  0  0  0  0  0  0  0  # atno 10718 bound_to 10713
  154.4968  135.2781  155.1453 H   0  0  0  0  0  0  0  0  0  0  0  0  # atno 10763 bound_to 10752
  154.3102  135.6230  153.5466 H   0  0  0  0  0  0  0  0  0  0  0  0  # atno 10764 bound_to 10752
  152.9896  135.5718  154.5401 H   0  0  0  0  0  0  0  0  0  0  0  0  # atno 10765 bound_to 10752
  139.9092  134.9615  156.7429 H   0  0  0  0  0  0  0  0  0  0  0  0  # atno 11005 bound_to 11000
  146.1117  140.7419  142.9500 LP  0  0  0  0  0  0  0  0  0  0  0  0  # atno 17320 bound_to 7965
  144.7086  140.3950  143.7098 LP  0  0  0  0  0  0  0  0  0  0  0  0  # atno 17321 bound_to 7965
  139.9341  144.6723  150.8332 LP  0  0  0  0  0  0  0  0  0  0  0  0  # atno 17342 bound_to 10162
  140.7659  143.3288  151.2455 LP  0  0  0  0  0  0  0  0  0  0  0  0  # atno 17343 bound_to 10162
  156.5993  130.8540  151.3428 LP  0  0  0  0  0  0  0  0  0  0  0  0  # atno 17370 bound_to 10713
  157.7266  130.9632  150.1664 LP  0  0  0  0  0  0  0  0  0  0  0  0  # atno 17371 bound_to 10713
  140.6835  133.9453  155.7924 LP  0  0  0  0  0  0  0  0  0  0  0  0  # atno 17394 bound_to 11000
  141.0493  134.0508  157.3804 LP  0  0  0  0  0  0  0  0  0  0  0  0  # atno 17395 bound_to 11000

$$$$
