#       Name:                AV-unprocessed.smi:1327
#       Creating user name   scv26
#       Creation time:       Fri Mar 27 05:04:59 2020


#       File generated by GOLD software.
#

@<TRIPOS>MOLECULE
AV-unprocessed.smi:1327
    42    43     1
SMALL
NO_CHARGES


@<TRIPOS>ATOM
      1 ****         1.6380   2.5684   1.6919 O.2            1 S1                 0.0000
      2 ****         1.0700   1.9111   0.5050 S.o2           1 S1                 0.0000
      3 ****         1.3043   2.4486  -0.8441 O.2            1 S1                 0.0000
      4 ****         1.5581   0.2595   0.5052 N.3            1 S1                 0.0000
      5 ****         2.9744  -0.0549   0.3252 C.3            1 S1                 0.0000
      6 ****         3.1983  -1.5735   0.2331 C.3            1 S1                 0.0000
      7 ****         2.5897  -2.1978  -1.0123 C.ar           1 S1                 0.0000
      8 ****         3.3773  -2.4122  -2.1638 C.ar           1 S1                 0.0000
      9 ****         2.7680  -2.9826  -3.2981 C.ar           1 S1                 0.0000
     10 ****         1.4007  -3.3137  -3.2392 C.ar           1 S1                 0.0000
     11 ****         0.7008  -3.0596  -2.0430 C.ar           1 S1                 0.0000
     12 ****         1.2758  -2.5145  -0.9493 N.ar           1 S1                 0.0000
     13 ****        -0.6339   1.6984   0.7501 N.pl3          1 S1                 0.0000
     14 ****        -1.5419   2.7372   0.2320 C.3            1 S1                 0.0000
     15 ****        -2.9391   2.1976  -0.1315 C.3            1 S1                 0.0000
     16 ****        -3.8096   1.8666   1.0905 C.3            1 S1                 0.0000
     17 ****        -3.5870   0.4635   1.6821 C.3            1 S1                 0.0000
     18 ****        -2.1366  -0.0495   1.6678 C.3            1 S1                 0.0000
     19 ****        -1.0761   1.0161   1.9816 C.3            1 S1                 0.0000
     20 ****         0.9498  -0.3200  -0.0735 H              1 S1                 0.0000
     21 ****         3.3440   0.4372  -0.5751 H              1 S1                 0.0000
     22 ****         3.5313   0.3560   1.1675 H              1 S1                 0.0000
     23 ****         4.2691  -1.7800   0.2392 H              1 S1                 0.0000
     24 ****         2.7937  -2.0661   1.1185 H              1 S1                 0.0000
     25 ****         4.4235  -2.1440  -2.1803 H              1 S1                 0.0000
     26 ****         3.3389  -3.1619  -4.1971 H              1 S1                 0.0000
     27 ****         0.9000  -3.7515  -4.0900 H              1 S1                 0.0000
     28 ****        -0.3489  -3.3002  -1.9633 H              1 S1                 0.0000
     29 ****        -1.6114   3.5512   0.9544 H              1 S1                 0.0000
     30 ****        -1.1068   3.1699  -0.6685 H              1 S1                 0.0000
     31 ****        -3.4496   2.9757  -0.7002 H              1 S1                 0.0000
     32 ****        -2.8666   1.3422  -0.8042 H              1 S1                 0.0000
     33 ****        -3.6502   2.6218   1.8613 H              1 S1                 0.0000
     34 ****        -4.8611   1.9539   0.8150 H              1 S1                 0.0000
     35 ****        -3.9580   0.4644   2.7077 H              1 S1                 0.0000
     36 ****        -4.2074  -0.2560   1.1466 H              1 S1                 0.0000
     37 ****        -2.0579  -0.8561   2.3974 H              1 S1                 0.0000
     38 ****        -1.9140  -0.5114   0.7046 H              1 S1                 0.0000
     39 ****        -0.2205   0.5229   2.4426 H              1 S1                 0.0000
     40 ****        -1.4283   1.7419   2.7155 H              1 S1                 0.0000
     41 ****         1.4340   0.0146   1.4667 LP             1 S1                 0.0000
     42 ****         0.7460  -2.3498  -0.1174 LP             1 S1                 0.0000
@<TRIPOS>BOND
    1    1    2 2     
    2    2    3 2     
    3    2    4 1     
    4    2   13 1     
    5    4    5 1     
    6    4   20 1     
    7    5    6 1     
    8    5   21 1     
    9    5   22 1     
   10    6    7 1     
   11    6   23 1     
   12    6   24 1     
   13    7   12 ar    
   14    7    8 ar    
   15    8    9 ar    
   16    8   25 1     
   17    9   10 ar    
   18    9   26 1     
   19   10   11 ar    
   20   10   27 1     
   21   11   12 ar    
   22   11   28 1     
   23   13   19 1     
   24   13   14 1     
   25   14   15 1     
   26   14   29 1     
   27   14   30 1     
   28   15   16 1     
   29   15   31 1     
   30   15   32 1     
   31   16   17 1     
   32   16   33 1     
   33   16   34 1     
   34   17   18 1     
   35   17   35 1     
   36   17   36 1     
   37   18   19 1     
   38   18   37 1     
   39   18   38 1     
   40   19   39 1     
   41   19   40 1     
   42    4   41 1     
   43   12   42 1     
@<TRIPOS>SUBSTRUCTURE
      1 S1             1
@<TRIPOS>SET
LONE_PAIRS      STATIC     ATOMS    <user>   **** ""
4 1 3 41 42
DONOR_HYDROGENS      STATIC     ATOMS    <user>   **** ""
1 20
ATOM$BLUE        STATIC     ATOMS    COLORGROUP SYSTEM
4 1 3 41 42
ATOM$RED        STATIC     ATOMS    COLORGROUP SYSTEM
1 20
