AV-unprocessed.smi:2902|AV-procd|sdf|11154|dock9
  -GOLD-   2272016 33D 1   1.00000     0.00000
 Structure written by MMmdl.
 47 48  0  0  0  0  0  0  0  0  1 V2000
  149.2060  132.0895  153.6176 C   0  0  0  0  0  0  0  0  0  0  0  0
  148.4480  133.2998  154.1773 C   0  0  0  0  0  0  0  0  0  0  0  0
  147.5506  133.9800  153.1271 C   0  0  1  0  0  0  0  0  0  0  0  0
  146.7794  132.9626  152.4880 O   0  0  0  0  0  0  0  0  0  0  0  0
  145.9925  133.3630  151.3696 C   0  0  0  0  0  0  0  0  0  0  0  0
  144.5185  133.5590  151.7528 C   0  0  0  0  0  0  0  0  0  0  0  0
  143.6911  133.0809  150.5492 C   0  0  0  0  0  0  0  0  0  0  0  0
  144.6961  132.5603  149.5158 C   0  0  0  0  0  0  0  0  0  0  0  0
  145.9604  132.2572  150.3171 C   0  0  0  0  0  0  0  0  0  0  0  0
  146.6364  135.0333  153.7749 C   0  0  0  0  0  0  0  0  0  0  0  0
  145.7382  134.6916  154.5445 O   0  0  0  0  0  0  0  0  0  0  0  0
  146.8698  136.3088  153.4307 N   0  0  0  0  0  0  0  0  0  0  0  0
  146.0948  137.4704  153.8641 C   0  0  1  0  0  0  0  0  0  0  0  0
  145.9713  137.4450  155.3994 C   0  0  0  0  0  0  0  0  0  0  0  0
  146.7586  138.7668  153.3294 C   0  0  2  0  0  0  0  0  0  0  0  0
  146.8669  138.8090  151.7936 C   0  0  0  0  0  0  0  0  0  0  0  0
  148.0781  138.9634  153.9192 N   0  0  0  0  0  0  0  0  0  0  0  0
  148.9697  139.9449  153.7609 C   0  0  0  0  0  0  0  0  0  0  0  0
  150.0858  139.7734  154.4549 N   0  0  0  0  0  0  0  0  0  0  0  0
  149.8037  138.5766  155.0489 C   0  0  0  0  0  0  0  0  0  0  0  0
  148.6158  138.0459  154.7587 N   0  0  0  0  0  0  0  0  0  0  0  0
  149.8417  131.6427  154.3823 H   0  0  0  0  0  0  0  0  0  0  0  0
  149.8435  132.3762  152.7812 H   0  0  0  0  0  0  0  0  0  0  0  0
  148.5181  131.3198  153.2671 H   0  0  0  0  0  0  0  0  0  0  0  0
  147.8474  132.9835  155.0315 H   0  0  0  0  0  0  0  0  0  0  0  0
  149.1741  134.0174  154.5623 H   0  0  0  0  0  0  0  0  0  0  0  0
  148.1866  134.4630  152.3822 H   0  0  0  0  0  0  0  0  0  0  0  0
  146.3808  134.2675  150.8972 H   0  0  0  0  0  0  0  0  0  0  0  0
  144.2742  132.9494  152.6237 H   0  0  0  0  0  0  0  0  0  0  0  0
  144.3048  134.5952  152.0150 H   0  0  0  0  0  0  0  0  0  0  0  0
  143.0195  132.2792  150.8592 H   0  0  0  0  0  0  0  0  0  0  0  0
  143.0734  133.8778  150.1351 H   0  0  0  0  0  0  0  0  0  0  0  0
  144.3258  131.6907  148.9723 H   0  0  0  0  0  0  0  0  0  0  0  0
  144.9069  133.3425  148.7854 H   0  0  0  0  0  0  0  0  0  0  0  0
  146.8589  132.2388  149.6997 H   0  0  0  0  0  0  0  0  0  0  0  0
  145.8644  131.2833  150.7994 H   0  0  0  0  0  0  0  0  0  0  0  0
  147.6263  136.4877  152.7859 H   0  0  0  0  0  0  0  0  0  0  0  0
  145.0914  137.4015  153.4393 H   0  0  0  0  0  0  0  0  0  0  0  0
  145.3046  138.2269  155.7620 H   0  0  0  0  0  0  0  0  0  0  0  0
  146.9416  137.5819  155.8778 H   0  0  0  0  0  0  0  0  0  0  0  0
  145.5620  136.4963  155.7478 H   0  0  0  0  0  0  0  0  0  0  0  0
  146.1384  139.6137  153.6297 H   0  0  0  0  0  0  0  0  0  0  0  0
  145.8852  138.8366  151.3218 H   0  0  0  0  0  0  0  0  0  0  0  0
  147.3996  137.9402  151.4059 H   0  0  0  0  0  0  0  0  0  0  0  0
  147.4013  139.7011  151.4649 H   0  0  0  0  0  0  0  0  0  0  0  0
  148.8002  140.8008  153.1243 H   0  0  0  0  0  0  0  0  0  0  0  0
  150.4963  138.0788  155.7116 H   0  0  0  0  0  0  0  0  0  0  0  0
  1  2  1  0  0  0  0
  1 22  1  0  0  0  0
  1 23  1  0  0  0  0
  1 24  1  0  0  0  0
  2  3  1  0  0  0  0
  2 25  1  0  0  0  0
  2 26  1  0  0  0  0
  3  4  1  0  0  0  0
  3 10  1  0  0  0  0
  3 27  1  0  0  0  0
  4  5  1  0  0  0  0
  5  9  1  0  0  0  0
  5  6  1  0  0  0  0
  5 28  1  0  0  0  0
  6  7  1  0  0  0  0
  6 29  1  0  0  0  0
  6 30  1  0  0  0  0
  7  8  1  0  0  0  0
  7 31  1  0  0  0  0
  7 32  1  0  0  0  0
  8  9  1  0  0  0  0
  8 33  1  0  0  0  0
  8 34  1  0  0  0  0
  9 35  1  0  0  0  0
  9 36  1  0  0  0  0
 10 11  2  0  0  0  0
 10 12  1  0  0  0  0
 12 13  1  0  0  0  0
 12 37  1  0  0  0  0
 13 14  1  0  0  0  0
 13 15  1  0  0  0  0
 13 38  1  0  0  0  0
 14 39  1  0  0  0  0
 14 40  1  0  0  0  0
 14 41  1  0  0  0  0
 15 16  1  0  0  0  0
 15 17  1  0  0  0  0
 15 42  1  0  0  0  0
 16 43  1  0  0  0  0
 16 44  1  0  0  0  0
 16 45  1  0  0  0  0
 17 21  1  0  0  0  0
 17 18  1  0  0  0  0
 18 19  2  0  0  0  0
 18 46  1  0  0  0  0
 19 20  1  0  0  0  0
 20 21  2  0  0  0  0
 20 47  1  0  0  0  0
M  END
> <s_m_source_file>
AV-unprocessed.smi

> <i_m_source_file_index>
2902

> <i_lp_mmshare_version>
43012

> <i_f3d_flags>
0

> <s_epik_input>
W0NIMl0xW0NIMl1bQ0gyXVtDSDJdW0NIXTFPW0NAQEhdKFtDSDJdW0NIM10pQyg9TylbTkhdW0NASF0oW0NIM10pW0NASF0oW0NIM10pbjJbY0hdbltjSF1uMg==

> <s_epik_cmdline>
J2VwaWtfcHl0aG9uJywgJy1waCcsICc3LjAnLCAnLXRuJywgJzgnLCAnLW1hJywgJzIwMCcsICctbWV0YWxfYmluZGluZycsICctaW1hZScsICc8aW5maWxlLm1hZT4nLCAnLW9tYWUnLCAnPG91dGZpbGUubWFlPic=

> <r_lp_tautomer_probability>
1

> <r_epik_Ionization_Penalty>
6.95617e-05

> <r_epik_Ionization_Penalty_Charging>
0

> <r_epik_Ionization_Penalty_Neutral>
6.95617e-05

> <r_epik_State_Penalty>
-0

> <r_epik_Charging_Adjusted_Penalty>
0

> <i_epik_Tot_Q>
0

> <i_epik_Tot_abs_Q>
0

> <r_epik_Metal_State_Penalty>
-0

> <b_epik_Metal_Only>
0

> <s_lp_Force_Field>
OPLS_2005

> <r_lp_Energy>
29.0587

> <b_lp_Chiralities_Consistent>
1

> <s_lp_Variant>
AV-unprocessed.smi:2902-4

> <Gold.Version>
5.8.1

> <Gold.Id.Protein>
6NUR|6NUR_protein|mol2

> <Gold.PLP.Fitness>
36.3804

> <Gold.PLP.PLP>
-30.4122

> <Gold.PLP.part.hbond>
-2.0000

> <Gold.PLP.part.metal>
0.0000

> <Gold.PLP.part.buried>
2.2998

> <Gold.PLP.part.nonpolar>
-31.1174

> <Gold.PLP.part.repulsive>
0.4899

> <Gold.PLP.ligand.clash>
0.0000

> <Gold.PLP.ligand.torsion>
0.7745

> <Gold.PLP.Chemscore.Hbond>
2.0000

> <Gold.PLP.Chemscore.CHOScore>
0.4381

> <Gold.PLP.Chemscore.Metal>
0.0000

> <Gold.Chemscore.Hbonds>
donor molecule, donor type, donor heavy atom, donor atom, acceptor molecule, acceptor atom, score
      L1  H    12    37       P1  7948  1.00
      P1  H  7989  7998       L1    19  0.78
      L1  C    18    46       P1  7957  0.43

> <Gold.PLP.Chemscore.Internal.Correction>
0.2028

> <Gold.Rescore>
     Score         DG    S(hbond)    S(metal)    S(lipo)     H(rot)  DE(clash)    DE(int)     intcor
      6.33     -13.07       1.82        0.00      71.93       2.69       1.89       4.85       ----

> <Gold.Chemscore.Fitness>
6.3330

> <Gold.Chemscore.DG>
-13.0690

> <Gold.Chemscore.ZeroCoef>
-5.4800

> <Gold.Chemscore.Hbond>
1.8171

> <Gold.Chemscore.Metal>
0.0000

> <Gold.Chemscore.Lipo>
71.9260

> <Gold.Chemscore.Internal_Hbond>
0.0000

> <Gold.Chemscore.DEClash>
1.8895

> <Gold.Chemscore.DEInternal>
4.8465

> <Gold.Chemscore.Rot>
2.6935

> <Gold.Chemscore.Internal.Correction>
   9.000000E+99

> <Gold.Chemscore.Hbonds>
donor molecule, donor type, donor heavy atom, donor atom, acceptor molecule, acceptor atom, score
      L1  H    12    37       P1  7948  0.99
      P1  H  7989  7998       L1    19  0.46

> <Gold.Chemscore.Hbond.Weighted>
-6.0690

> <Gold.Chemscore.Metal.Weighted>
-0.0000

> <Gold.Chemscore.Lipo.Weighted>
-8.4153

> <Gold.Chemscore.Internal_Hbond.Weighted>
0.0000

> <Gold.Chemscore.DEClash.Weighted>
1.8895

> <Gold.Chemscore.DEInternal.Weighted>
4.8465

> <Gold.Chemscore.Rot.Weighted>
6.8954

> <Gold.Chemscore.Internal.Correction.Weighted>
   9.000000E+99

> <Gold.Protein.RotatedTorsions>
[ 6907 6896 6895 6894 ] final  135.51 input  -60.11 | X-H torsion
[ 7974 7965 7964 7962 ] final    6.25 input  175.53 | X-H torsion
[ 8008 7997 7996 7995 ] final  -21.07 input   59.86 | X-H torsion
[ 10167 10162 10161 10158 ] final  111.65 input  -65.29 | X-H torsion
[ 10718 10713 10712 10709 ] final   76.84 input   66.30 | X-H torsion
[ 10763 10752 10751 10750 ] final -106.77 input  -60.55 | X-H torsion
[ 11005 11000 10999 10996 ] final  -51.77 input  -57.11 | X-H torsion

> <Gold.Protein.ActiveResidues>
 VAL166  LYS551  ARG553  GLY616  TRP617  ASP618  TYR619  PRO620  LYS621  CYS622 
 ASP623  PHE694  ASN695  SER759  ASP760  ASP761  ALA762  ILE779  LEU786  VAL792 
 PHE793  MET794  SER795  GLU796  ALA797  LYS798  CYS799  TRP800  GLU811  SER814 

> <Gold.Protein.RotatedAtoms>
  152.2997  133.5642  159.5609 H   0  0  0  0  0  0  0  0  0  0  0  0  # atno 6907 bound_to 6896
  150.7272  134.0310  159.3742 H   0  0  0  0  0  0  0  0  0  0  0  0  # atno 6908 bound_to 6896
  151.8210  135.0652  160.0476 H   0  0  0  0  0  0  0  0  0  0  0  0  # atno 6909 bound_to 6896
  146.2436  140.0261  142.8393 H   0  0  0  0  0  0  0  0  0  0  0  0  # atno 7974 bound_to 7965
  154.4729  140.2045  155.9950 H   0  0  0  0  0  0  0  0  0  0  0  0  # atno 8008 bound_to 7997
  156.1041  140.3239  155.7952 H   0  0  0  0  0  0  0  0  0  0  0  0  # atno 8009 bound_to 7997
  155.4748  140.0534  157.2965 H   0  0  0  0  0  0  0  0  0  0  0  0  # atno 8010 bound_to 7997
  139.6595  144.7129  151.1892 H   0  0  0  0  0  0  0  0  0  0  0  0  # atno 10167 bound_to 10162
  157.6688  130.9793  150.1555 H   0  0  0  0  0  0  0  0  0  0  0  0  # atno 10718 bound_to 10713
  154.8033  135.4700  154.0330 H   0  0  0  0  0  0  0  0  0  0  0  0  # atno 10763 bound_to 10752
  153.1818  135.6841  153.8475 H   0  0  0  0  0  0  0  0  0  0  0  0  # atno 10764 bound_to 10752
  153.8022  135.3228  155.3369 H   0  0  0  0  0  0  0  0  0  0  0  0  # atno 10765 bound_to 10752
  141.0889  133.6637  156.3926 H   0  0  0  0  0  0  0  0  0  0  0  0  # atno 11005 bound_to 11000
  145.1197  140.9455  143.4608 LP  0  0  0  0  0  0  0  0  0  0  0  0  # atno 17320 bound_to 7965
  145.0494  139.3194  143.5936 LP  0  0  0  0  0  0  0  0  0  0  0  0  # atno 17321 bound_to 7965
  140.7574  143.6017  150.8693 LP  0  0  0  0  0  0  0  0  0  0  0  0  # atno 17342 bound_to 10162
  139.9673  143.6096  152.2984 LP  0  0  0  0  0  0  0  0  0  0  0  0  # atno 17343 bound_to 10162
  156.2344  130.3685  149.8408 LP  0  0  0  0  0  0  0  0  0  0  0  0  # atno 17370 bound_to 10713
  156.6226  130.8632  151.3478 LP  0  0  0  0  0  0  0  0  0  0  0  0  # atno 17371 bound_to 10713
  140.5299  134.6223  157.5346 LP  0  0  0  0  0  0  0  0  0  0  0  0  # atno 17394 bound_to 11000
  139.9711  134.7291  156.0039 LP  0  0  0  0  0  0  0  0  0  0  0  0  # atno 17395 bound_to 11000

$$$$
