AV-unprocessed.smi:1762|AV-procd|sdf|7110|dock7
  -GOLD-   22720 8333D 1   1.00000     0.00000
 Structure written by MMmdl.
 53 54  0  0  0  0  0  0  0  0  2 V2000
  153.7908  138.4470  154.8259 C   0  0  0  0  0  0  0  0  0  0  0  0
  152.4844  139.2052  155.0869 C   0  0  1  0  0  0  0  0  0  0  0  0
  151.2530  138.4212  154.5989 C   0  0  0  0  0  0  0  0  0  0  0  0
  149.9876  139.0918  154.9172 N   0  0  0  0  0  0  0  0  0  0  0  0
  148.8032  138.3731  154.3667 C   0  0  1  0  0  0  0  0  0  0  0  0
  148.4389  137.0864  155.1473 C   0  0  0  0  0  0  0  0  0  0  0  0
  147.9652  137.1525  156.2813 O   0  0  0  0  0  0  0  0  0  0  0  0
  148.7025  135.9191  154.5379 N   0  0  0  0  0  0  0  0  0  0  0  0
  148.5035  134.6006  155.1321 C   0  0  0  0  0  0  0  0  0  0  0  0
  149.0047  133.4481  154.2403 C   0  0  0  0  0  0  0  0  0  0  0  0
  147.9580  132.9274  153.2712 C   0  0  0  0  0  0  0  0  0  0  0  0
  147.4953  131.5944  153.3160 C   0  0  0  0  0  0  0  0  0  0  0  0
  146.5288  131.1683  152.3812 C   0  0  0  0  0  0  0  0  0  0  0  0
  146.0466  132.0821  151.4213 C   0  0  0  0  0  0  0  0  0  0  0  0
  146.5437  133.4012  151.4212 C   0  0  0  0  0  0  0  0  0  0  0  0
  147.4693  133.7705  152.3332 N   0  3  0  0  0  0  0  0  0  0  0  0
  147.5465  139.2794  154.1311 C   0  0  0  0  0  0  0  0  0  0  0  0
  146.5726  138.7397  153.0645 C   0  0  0  0  0  0  0  0  0  0  0  0
  147.8900  140.7541  153.8457 C   0  0  0  0  0  0  0  0  0  0  0  0
  149.9458  139.3436  156.3688 C   0  0  0  0  0  0  0  0  0  0  0  0
  151.1856  140.0911  156.9000 C   0  0  2  0  0  0  0  0  0  0  0  0
  151.2000  141.5860  156.5349 C   0  0  0  0  0  0  0  0  0  0  0  0
  152.3803  139.4313  156.4883 O   0  0  0  0  0  0  0  0  0  0  0  0
  153.9314  138.2628  153.7606 H   0  0  0  0  0  0  0  0  0  0  0  0
  153.7969  137.4832  155.3360 H   0  0  0  0  0  0  0  0  0  0  0  0
  154.6498  139.0168  155.1805 H   0  0  0  0  0  0  0  0  0  0  0  0
  152.5365  140.1617  154.5662 H   0  0  0  0  0  0  0  0  0  0  0  0
  151.3669  138.2946  153.5247 H   0  0  0  0  0  0  0  0  0  0  0  0
  151.2608  137.4203  155.0342 H   0  0  0  0  0  0  0  0  0  0  0  0
  149.0897  138.0215  153.3730 H   0  0  0  0  0  0  0  0  0  0  0  0
  149.1087  135.9488  153.6137 H   0  0  0  0  0  0  0  0  0  0  0  0
  149.0342  134.5824  156.0842 H   0  0  0  0  0  0  0  0  0  0  0  0
  147.4482  134.4578  155.3699 H   0  0  0  0  0  0  0  0  0  0  0  0
  149.8732  133.7821  153.6715 H   0  0  0  0  0  0  0  0  0  0  0  0
  149.3550  132.6227  154.8620 H   0  0  0  0  0  0  0  0  0  0  0  0
  147.8767  130.9053  154.0555 H   0  0  0  0  0  0  0  0  0  0  0  0
  146.1626  130.1521  152.4001 H   0  0  0  0  0  0  0  0  0  0  0  0
  145.3065  131.7755  150.6964 H   0  0  0  0  0  0  0  0  0  0  0  0
  146.2323  134.1660  150.7247 H   0  0  0  0  0  0  0  0  0  0  0  0
  146.9914  139.3191  155.0667 H   0  0  0  0  0  0  0  0  0  0  0  0
  147.0089  138.7499  152.0666 H   0  0  0  0  0  0  0  0  0  0  0  0
  145.6672  139.3462  153.0254 H   0  0  0  0  0  0  0  0  0  0  0  0
  146.2637  137.7175  153.2822 H   0  0  0  0  0  0  0  0  0  0  0  0
  148.3512  140.8848  152.8666 H   0  0  0  0  0  0  0  0  0  0  0  0
  148.5707  141.1509  154.5990 H   0  0  0  0  0  0  0  0  0  0  0  0
  146.9916  141.3717  153.8616 H   0  0  0  0  0  0  0  0  0  0  0  0
  149.0762  139.9375  156.6493 H   0  0  0  0  0  0  0  0  0  0  0  0
  149.8543  138.3930  156.8969 H   0  0  0  0  0  0  0  0  0  0  0  0
  151.1688  140.0338  157.9886 H   0  0  0  0  0  0  0  0  0  0  0  0
  150.3437  142.0994  156.9727 H   0  0  0  0  0  0  0  0  0  0  0  0
  151.1577  141.7468  155.4578 H   0  0  0  0  0  0  0  0  0  0  0  0
  152.1013  142.0699  156.9114 H   0  0  0  0  0  0  0  0  0  0  0  0
  147.8167  134.7298  152.3143 H   0  0  0  0  0  0  0  0  0  0  0  0
  1  2  1  0  0  0  0
  1 24  1  0  0  0  0
  1 25  1  0  0  0  0
  1 26  1  0  0  0  0
  2 23  1  0  0  0  0
  2  3  1  0  0  0  0
  2 27  1  0  0  0  0
  3  4  1  0  0  0  0
  3 28  1  0  0  0  0
  3 29  1  0  0  0  0
  4  5  1  0  0  0  0
  4 20  1  0  0  0  0
  5  6  1  0  0  0  0
  5 17  1  0  0  0  0
  5 30  1  0  0  0  0
  6  7  2  0  0  0  0
  6  8  1  0  0  0  0
  8  9  1  0  0  0  0
  8 31  1  0  0  0  0
  9 10  1  0  0  0  0
  9 32  1  0  0  0  0
  9 33  1  0  0  0  0
 10 11  1  0  0  0  0
 10 34  1  0  0  0  0
 10 35  1  0  0  0  0
 11 16  1  0  0  0  0
 11 12  2  0  0  0  0
 12 13  1  0  0  0  0
 12 36  1  0  0  0  0
 13 14  2  0  0  0  0
 13 37  1  0  0  0  0
 14 15  1  0  0  0  0
 14 38  1  0  0  0  0
 15 16  2  0  0  0  0
 15 39  1  0  0  0  0
 16 53  1  0  0  0  0
 17 18  1  0  0  0  0
 17 19  1  0  0  0  0
 17 40  1  0  0  0  0
 18 41  1  0  0  0  0
 18 42  1  0  0  0  0
 18 43  1  0  0  0  0
 19 44  1  0  0  0  0
 19 45  1  0  0  0  0
 19 46  1  0  0  0  0
 20 21  1  0  0  0  0
 20 47  1  0  0  0  0
 20 48  1  0  0  0  0
 21 22  1  0  0  0  0
 21 23  1  0  0  0  0
 21 49  1  0  0  0  0
 22 50  1  0  0  0  0
 22 51  1  0  0  0  0
 22 52  1  0  0  0  0
M  CHG  1  16   1
M  END
> <s_m_source_file>
AV-unprocessed.smi

> <i_m_source_file_index>
1762

> <i_lp_mmshare_version>
43012

> <i_f3d_flags>
0

> <s_epik_input>
W0NIM11bQ0BASF0xW0NIMl1OKFtDSDJdW0NASF0oTzEpW0NIM10pW0NAQEhdKFtDSF0oW0NIM10pW0NIM10pQyg9TylbTkhdW0NIMl1bQ0gyXWMyW2NIXVtjSF1bY0hdW2NIXW4y

> <s_epik_cmdline>
J2VwaWtfcHl0aG9uJywgJy1waCcsICc3LjAnLCAnLXRuJywgJzgnLCAnLW1hJywgJzIwMCcsICctbWV0YWxfYmluZGluZycsICctaW1hZScsICc8aW5maWxlLm1hZT4nLCAnLW9tYWUnLCAnPG91dGZpbGUubWFlPic=

> <r_epik_Ionization_Penalty>
1.86475

> <r_epik_Ionization_Penalty_Charging>
1.85347

> <r_epik_Ionization_Penalty_Neutral>
0.0112771

> <r_epik_State_Penalty>
1.99714

> <r_epik_Charging_Adjusted_Penalty>
3.85061

> <i_epik_Tot_Q>
1

> <i_epik_Tot_abs_Q>
1

> <r_epik_Metal_State_Penalty>
2.02271

> <b_epik_Metal_Only>
0

> <s_lp_Force_Field>
OPLS_2005

> <r_lp_Energy>
36.5288

> <b_lp_Chiralities_Consistent>
1

> <s_lp_Variant>
AV-unprocessed.smi:1762-12

> <Gold.Version>
5.8.1

> <Gold.Id.Protein>
6NUR|6NUR_protein|mol2

> <Gold.PLP.Fitness>
46.3690

> <Gold.PLP.PLP>
-36.2317

> <Gold.PLP.part.hbond>
-3.0000

> <Gold.PLP.part.metal>
0.0000

> <Gold.PLP.part.buried>
-1.9129

> <Gold.PLP.part.nonpolar>
-32.2224

> <Gold.PLP.part.repulsive>
0.1685

> <Gold.PLP.ligand.clash>
0.0000

> <Gold.PLP.ligand.torsion>
1.1057

> <Gold.PLP.Chemscore.Hbond>
4.0000

> <Gold.PLP.Chemscore.CHOScore>
0.0000

> <Gold.PLP.Chemscore.Metal>
0.0000

> <Gold.Chemscore.Hbonds>
donor molecule, donor type, donor heavy atom, donor atom, acceptor molecule, acceptor atom, score
      L1  H     8    31       P1  7948  1.00
      L1  H    16    53       P1  7948  2.00
      P1  H  7997  8010       L1    23  0.46

> <Gold.PLP.Chemscore.Internal.Correction>
0.3488

> <Gold.Rescore>
     Score         DG    S(hbond)    S(metal)    S(lipo)     H(rot)  DE(clash)    DE(int)     intcor
     18.34     -21.12       2.22        0.00     107.75       1.72       0.70       2.08       ----

> <Gold.Chemscore.Fitness>
18.3377

> <Gold.Chemscore.DG>
-21.1204

> <Gold.Chemscore.ZeroCoef>
-5.4800

> <Gold.Chemscore.Hbond>
2.2244

> <Gold.Chemscore.Metal>
0.0000

> <Gold.Chemscore.Lipo>
107.7547

> <Gold.Chemscore.Internal_Hbond>
0.0000

> <Gold.Chemscore.DEClash>
0.7022

> <Gold.Chemscore.DEInternal>
2.0805

> <Gold.Chemscore.Rot>
1.7174

> <Gold.Chemscore.Internal.Correction>
   9.000000E+99

> <Gold.Chemscore.Hbonds>
donor molecule, donor type, donor heavy atom, donor atom, acceptor molecule, acceptor atom, score
      L1  H     8    31       P1  7948  0.85
      L1  H    16    53       P1  7948  0.69
      P1  H  7997  8010       L1    23  0.03

> <Gold.Chemscore.Hbond.Weighted>
-7.4296

> <Gold.Chemscore.Metal.Weighted>
-0.0000

> <Gold.Chemscore.Lipo.Weighted>
-12.6073

> <Gold.Chemscore.Internal_Hbond.Weighted>
0.0000

> <Gold.Chemscore.DEClash.Weighted>
0.7022

> <Gold.Chemscore.DEInternal.Weighted>
2.0805

> <Gold.Chemscore.Rot.Weighted>
4.3966

> <Gold.Chemscore.Internal.Correction.Weighted>
   9.000000E+99

> <Gold.Protein.RotatedTorsions>
[ 6907 6896 6895 6894 ] final   72.40 input  -60.11 | X-H torsion
[ 7974 7965 7964 7962 ] final  173.63 input  175.53 | X-H torsion
[ 8008 7997 7996 7995 ] final   62.46 input   59.86 | X-H torsion
[ 10167 10162 10161 10158 ] final  -26.21 input  -65.29 | X-H torsion
[ 10718 10713 10712 10709 ] final  144.58 input   66.30 | X-H torsion
[ 10763 10752 10751 10750 ] final   59.74 input  -60.55 | X-H torsion
[ 11005 11000 10999 10996 ] final  -53.17 input  -57.11 | X-H torsion

> <Gold.Protein.ActiveResidues>
 VAL166  LYS551  ARG553  GLY616  TRP617  ASP618  TYR619  PRO620  LYS621  CYS622 
 ASP623  PHE694  ASN695  SER759  ASP760  ASP761  ALA762  ILE779  LEU786  VAL792 
 PHE793  MET794  SER795  GLU796  ALA797  LYS798  CYS799  TRP800  GLU811  SER814 

> <Gold.Protein.RotatedAtoms>
  152.4866  134.4577  159.9594 H   0  0  0  0  0  0  0  0  0  0  0  0  # atno 6907 bound_to 6896
  151.4572  133.3596  159.2811 H   0  0  0  0  0  0  0  0  0  0  0  0  # atno 6908 bound_to 6896
  150.8981  134.8416  159.7401 H   0  0  0  0  0  0  0  0  0  0  0  0  # atno 6909 bound_to 6896
  144.7239  139.9677  143.6436 H   0  0  0  0  0  0  0  0  0  0  0  0  # atno 7974 bound_to 7965
  155.6147  140.3495  155.4633 H   0  0  0  0  0  0  0  0  0  0  0  0  # atno 8008 bound_to 7997
  156.0126  140.1236  157.0462 H   0  0  0  0  0  0  0  0  0  0  0  0  # atno 8009 bound_to 7997
  154.4286  140.1078  156.5837 H   0  0  0  0  0  0  0  0  0  0  0  0  # atno 8010 bound_to 7997
  140.7284  143.4197  151.0971 H   0  0  0  0  0  0  0  0  0  0  0  0  # atno 10167 bound_to 10162
  157.3555  131.0957  151.0962 H   0  0  0  0  0  0  0  0  0  0  0  0  # atno 10718 bound_to 10713
  152.9902  135.5561  154.5762 H   0  0  0  0  0  0  0  0  0  0  0  0  # atno 10763 bound_to 10752
  154.5152  135.2804  155.1311 H   0  0  0  0  0  0  0  0  0  0  0  0  # atno 10764 bound_to 10752
  154.2686  135.6367  153.5354 H   0  0  0  0  0  0  0  0  0  0  0  0  # atno 10765 bound_to 10752
  141.0962  133.6624  156.4132 H   0  0  0  0  0  0  0  0  0  0  0  0  # atno 11005 bound_to 11000
  146.0588  139.3582  143.0594 LP  0  0  0  0  0  0  0  0  0  0  0  0  # atno 17320 bound_to 7965
  145.8120  140.9721  143.0944 LP  0  0  0  0  0  0  0  0  0  0  0  0  # atno 17321 bound_to 7965
  139.7841  143.8312  152.3142 LP  0  0  0  0  0  0  0  0  0  0  0  0  # atno 17342 bound_to 10162
  139.8273  144.7269  150.9495 LP  0  0  0  0  0  0  0  0  0  0  0  0  # atno 17343 bound_to 10162
  157.2122  130.6443  149.5778 LP  0  0  0  0  0  0  0  0  0  0  0  0  # atno 17370 bound_to 10713
  155.9728  130.4656  150.6260 LP  0  0  0  0  0  0  0  0  0  0  0  0  # atno 17371 bound_to 10713
  140.5134  134.6373  157.5292 LP  0  0  0  0  0  0  0  0  0  0  0  0  # atno 17394 bound_to 11000
  139.9799  134.7153  155.9878 LP  0  0  0  0  0  0  0  0  0  0  0  0  # atno 17395 bound_to 11000

$$$$
