AV-unprocessed.smi:1693|AV-procd|sdf|6786|dock6
  -GOLD-   22720 7543D 1   1.00000     0.00000
 Structure written by MMmdl.
 35 36  0  0  0  0  0  0  0  0  2 V2000
  152.6803  142.8836  160.4821 C   0  0  0  0  0  0  0  0  0  0  0  0
  152.8423  141.6572  159.6509 C   0  0  0  0  0  0  0  0  0  0  0  0
  153.9398  140.8981  159.6918 N   0  0  0  0  0  0  0  0  0  0  0  0
  153.8559  139.8114  158.8333 N   0  0  0  0  0  0  0  0  0  0  0  0
  152.6962  139.7588  158.1628 C   0  0  0  0  0  0  0  0  0  0  0  0
  152.4187  138.7852  157.2797 N   0  5  0  0  0  0  0  0  0  0  0  0
  152.0351  139.1019  156.0219 C   0  0  0  0  0  0  0  0  0  0  0  0
  152.4802  140.0242  155.3349 O   0  0  0  0  0  0  0  0  0  0  0  0
  151.0841  138.2943  155.5293 N   0  0  0  0  0  0  0  0  0  0  0  0
  150.4689  138.3778  154.2045 C   0  0  0  0  0  0  0  0  0  0  0  0
  149.1457  139.1853  154.1897 C   0  0  0  0  0  0  0  0  0  0  0  0
  148.5537  138.9745  152.9198 O   0  0  0  0  0  0  0  0  0  0  0  0
  148.1774  138.6067  155.2502 C   0  0  0  0  0  0  0  0  0  0  0  0
  146.8580  139.3914  155.3622 C   0  0  0  0  0  0  0  0  0  0  0  0
  147.1177  140.8809  155.6241 C   0  0  0  0  0  0  0  0  0  0  0  0
  148.0187  141.4778  154.5349 C   0  0  0  0  0  0  0  0  0  0  0  0
  149.3454  140.7065  154.4149 C   0  0  0  0  0  0  0  0  0  0  0  0
  151.6058  141.0929  158.5396 S   0  0  0  0  0  0  0  0  0  0  0  0
  152.4761  142.6074  161.5165 H   0  0  0  0  0  0  0  0  0  0  0  0
  151.8524  143.4873  160.1103 H   0  0  0  0  0  0  0  0  0  0  0  0
  153.5900  143.4834  160.4504 H   0  0  0  0  0  0  0  0  0  0  0  0
  150.7604  137.5488  156.1278 H   0  0  0  0  0  0  0  0  0  0  0  0
  151.1923  138.8259  153.5221 H   0  0  0  0  0  0  0  0  0  0  0  0
  150.2916  137.3735  153.8166 H   0  0  0  0  0  0  0  0  0  0  0  0
  148.7607  138.0972  152.6371 H   0  0  0  0  0  0  0  0  0  0  0  0
  147.9632  137.5588  155.0353 H   0  0  0  0  0  0  0  0  0  0  0  0
  148.6667  138.6186  156.2253 H   0  0  0  0  0  0  0  0  0  0  0  0
  146.2772  139.2748  154.4465 H   0  0  0  0  0  0  0  0  0  0  0  0
  146.2487  138.9754  156.1649 H   0  0  0  0  0  0  0  0  0  0  0  0
  146.1726  141.4228  155.6647 H   0  0  0  0  0  0  0  0  0  0  0  0
  147.5897  141.0059  156.5995 H   0  0  0  0  0  0  0  0  0  0  0  0
  147.4953  141.4631  153.5782 H   0  0  0  0  0  0  0  0  0  0  0  0
  148.2212  142.5260  154.7556 H   0  0  0  0  0  0  0  0  0  0  0  0
  149.9234  140.8589  155.3275 H   0  0  0  0  0  0  0  0  0  0  0  0
  149.9342  141.1423  153.6069 H   0  0  0  0  0  0  0  0  0  0  0  0
  1  2  1  0  0  0  0
  1 19  1  0  0  0  0
  1 20  1  0  0  0  0
  1 21  1  0  0  0  0
  2 18  1  0  0  0  0
  2  3  2  0  0  0  0
  3  4  1  0  0  0  0
  4  5  2  0  0  0  0
  5  6  1  0  0  0  0
  5 18  1  0  0  0  0
  6  7  1  0  0  0  0
  7  8  2  0  0  0  0
  7  9  1  0  0  0  0
  9 10  1  0  0  0  0
  9 22  1  0  0  0  0
 10 11  1  0  0  0  0
 10 23  1  0  0  0  0
 10 24  1  0  0  0  0
 11 17  1  0  0  0  0
 11 12  1  0  0  0  0
 11 13  1  0  0  0  0
 12 25  1  0  0  0  0
 13 14  1  0  0  0  0
 13 26  1  0  0  0  0
 13 27  1  0  0  0  0
 14 15  1  0  0  0  0
 14 28  1  0  0  0  0
 14 29  1  0  0  0  0
 15 16  1  0  0  0  0
 15 30  1  0  0  0  0
 15 31  1  0  0  0  0
 16 17  1  0  0  0  0
 16 32  1  0  0  0  0
 16 33  1  0  0  0  0
 17 34  1  0  0  0  0
 17 35  1  0  0  0  0
M  CHG  1   6  -1
M  END
> <s_m_source_file>
AV-unprocessed.smi

> <i_m_source_file_index>
1693

> <i_lp_mmshare_version>
43012

> <i_f3d_flags>
0

> <s_epik_input>
W0NIM11jMW5uYyhzMSlbTkhdQyg9TylbTkhdW0NIMl1DMihbT0hdKVtDSDJdW0NIMl1bQ0gyXVtDSDJdW0NIMl0y

> <s_epik_cmdline>
J2VwaWtfcHl0aG9uJywgJy1waCcsICc3LjAnLCAnLXRuJywgJzgnLCAnLW1hJywgJzIwMCcsICctbWV0YWxfYmluZGluZycsICctaW1hZScsICc8aW5maWxlLm1hZT4nLCAnLW9tYWUnLCAnPG91dGZpbGUubWFlPic=

> <r_lp_tautomer_probability>
1

> <r_epik_Ionization_Penalty>
4.37877

> <r_epik_Ionization_Penalty_Charging>
4.24206

> <r_epik_Ionization_Penalty_Neutral>
0.136706

> <r_epik_State_Penalty>
4.2416

> <r_epik_Charging_Adjusted_Penalty>
8.48367

> <i_epik_Tot_Q>
-1

> <i_epik_Tot_abs_Q>
1

> <r_epik_Metal_State_Penalty>
0.704476

> <b_epik_Metal_Only>
1

> <s_lp_Force_Field>
OPLS_2005

> <r_lp_Energy>
12.2595

> <b_lp_Chiralities_Consistent>
1

> <s_lp_Variant>
AV-unprocessed.smi:1693-2

> <Gold.Version>
5.8.1

> <Gold.Id.Protein>
6NUR|6NUR_protein|mol2

> <Gold.PLP.Fitness>
37.5283

> <Gold.PLP.PLP>
-30.1971

> <Gold.PLP.part.hbond>
-4.2917

> <Gold.PLP.part.metal>
0.0000

> <Gold.PLP.part.buried>
-1.4079

> <Gold.PLP.part.nonpolar>
-23.1537

> <Gold.PLP.part.repulsive>
0.0744

> <Gold.PLP.ligand.clash>
0.0000

> <Gold.PLP.ligand.torsion>
1.0083

> <Gold.PLP.Chemscore.Hbond>
3.1086

> <Gold.PLP.Chemscore.CHOScore>
0.0000

> <Gold.PLP.Chemscore.Metal>
0.0000

> <Gold.Chemscore.Hbonds>
donor molecule, donor type, donor heavy atom, donor atom, acceptor molecule, acceptor atom, score
      L1  H    12    25       P1  7948  1.00
      P1  H  7989  7998       L1     8  0.40
      P1  H  7997  8009       L1     4  0.80
      P1  H  7997  8010       L1     8  0.81

> <Gold.PLP.Chemscore.Internal.Correction>
0.0219

> <Gold.Rescore>
     Score         DG    S(hbond)    S(metal)    S(lipo)     H(rot)  DE(clash)    DE(int)     intcor
     14.81     -15.91       2.27        0.00      64.34       1.83       0.03       1.06       ----

> <Gold.Chemscore.Fitness>
14.8131

> <Gold.Chemscore.DG>
-15.9065

> <Gold.Chemscore.ZeroCoef>
-5.4800

> <Gold.Chemscore.Hbond>
2.2706

> <Gold.Chemscore.Metal>
0.0000

> <Gold.Chemscore.Lipo>
64.3425

> <Gold.Chemscore.Internal_Hbond>
0.0000

> <Gold.Chemscore.DEClash>
0.0297

> <Gold.Chemscore.DEInternal>
1.0637

> <Gold.Chemscore.Rot>
1.8303

> <Gold.Chemscore.Internal.Correction>
   9.000000E+99

> <Gold.Chemscore.Hbonds>
donor molecule, donor type, donor heavy atom, donor atom, acceptor molecule, acceptor atom, score
      L1  H    12    25       P1  7948  0.96
      P1  H  7989  7998       L1     8  0.39
      P1  H  7997  8009       L1     4  0.18
      P1  H  7997  8010       L1     8  0.50

> <Gold.Chemscore.Hbond.Weighted>
-7.5839

> <Gold.Chemscore.Metal.Weighted>
-0.0000

> <Gold.Chemscore.Lipo.Weighted>
-7.5281

> <Gold.Chemscore.Internal_Hbond.Weighted>
0.0000

> <Gold.Chemscore.DEClash.Weighted>
0.0297

> <Gold.Chemscore.DEInternal.Weighted>
1.0637

> <Gold.Chemscore.Rot.Weighted>
4.6855

> <Gold.Chemscore.Internal.Correction.Weighted>
   9.000000E+99

> <Gold.Protein.RotatedTorsions>
[ 6907 6896 6895 6894 ] final -126.22 input  -60.11 | X-H torsion
[ 7974 7965 7964 7962 ] final -119.19 input  175.53 | X-H torsion
[ 8008 7997 7996 7995 ] final  113.59 input   59.86 | X-H torsion
[ 10167 10162 10161 10158 ] final -142.09 input  -65.29 | X-H torsion
[ 10718 10713 10712 10709 ] final   30.62 input   66.30 | X-H torsion
[ 10763 10752 10751 10750 ] final   20.15 input  -60.55 | X-H torsion
[ 11005 11000 10999 10996 ] final   31.88 input  -57.11 | X-H torsion

> <Gold.Protein.ActiveResidues>
 VAL166  LYS551  ARG553  GLY616  TRP617  ASP618  TYR619  PRO620  LYS621  CYS622 
 ASP623  PHE694  ASN695  SER759  ASP760  ASP761  ALA762  ILE779  LEU786  VAL792 
 PHE793  MET794  SER795  GLU796  ALA797  LYS798  CYS799  TRP800  GLU811  SER814 

> <Gold.Protein.RotatedAtoms>
  150.8946  133.7197  159.2894 H   0  0  0  0  0  0  0  0  0  0  0  0  # atno 6907 bound_to 6896
  151.4736  135.1046  159.9768 H   0  0  0  0  0  0  0  0  0  0  0  0  # atno 6908 bound_to 6896
  152.4841  133.8281  159.7144 H   0  0  0  0  0  0  0  0  0  0  0  0  # atno 6909 bound_to 6896
  145.0653  140.8320  143.4128 H   0  0  0  0  0  0  0  0  0  0  0  0  # atno 7974 bound_to 7965
  156.2268  140.2976  156.0087 H   0  0  0  0  0  0  0  0  0  0  0  0  # atno 8008 bound_to 7997
  155.2335  140.0420  157.2982 H   0  0  0  0  0  0  0  0  0  0  0  0  # atno 8009 bound_to 7997
  154.5929  140.2406  155.7904 H   0  0  0  0  0  0  0  0  0  0  0  0  # atno 8010 bound_to 7997
  139.8121  143.7688  152.2664 H   0  0  0  0  0  0  0  0  0  0  0  0  # atno 10167 bound_to 10162
  157.2620  130.7165  149.6458 H   0  0  0  0  0  0  0  0  0  0  0  0  # atno 10718 bound_to 10713
  153.1101  135.6694  153.9515 H   0  0  0  0  0  0  0  0  0  0  0  0  # atno 10763 bound_to 10752
  153.9061  135.3030  155.3450 H   0  0  0  0  0  0  0  0  0  0  0  0  # atno 10764 bound_to 10752
  154.7521  135.5029  153.9385 H   0  0  0  0  0  0  0  0  0  0  0  0  # atno 10765 bound_to 10752
  140.2793  134.2991  155.7805 H   0  0  0  0  0  0  0  0  0  0  0  0  # atno 11005 bound_to 11000
  145.1358  139.2603  143.5515 LP  0  0  0  0  0  0  0  0  0  0  0  0  # atno 17320 bound_to 7965
  146.3526  140.1022  142.8607 LP  0  0  0  0  0  0  0  0  0  0  0  0  # atno 17321 bound_to 7965
  139.7840  144.7434  151.0048 LP  0  0  0  0  0  0  0  0  0  0  0  0  # atno 17342 bound_to 10162
  140.7817  143.4512  151.0411 LP  0  0  0  0  0  0  0  0  0  0  0  0  # atno 17343 bound_to 10162
  155.9664  130.4394  150.5259 LP  0  0  0  0  0  0  0  0  0  0  0  0  # atno 17370 bound_to 10713
  157.3165  131.0674  151.1963 LP  0  0  0  0  0  0  0  0  0  0  0  0  # atno 17371 bound_to 10713
  141.2165  133.7515  156.9456 LP  0  0  0  0  0  0  0  0  0  0  0  0  # atno 17394 bound_to 11000
  140.1298  134.9363  157.2322 LP  0  0  0  0  0  0  0  0  0  0  0  0  # atno 17395 bound_to 11000

$$$$
