AV-unprocessed.smi:2855|AV-procd|sdf|10984|dock8
  -GOLD-   2272015433D 1   1.00000     0.00000
 Structure written by MMmdl.
 47 48  0  0  0  0  0  0  0  0  1 V2000
  152.7627  141.9481  160.6123 C   0  0  0  0  0  0  0  0  0  0  0  0
  151.8912  141.4998  159.4306 C   0  0  1  0  0  0  0  0  0  0  0  0
  152.0100  142.4672  158.2430 C   0  0  0  0  0  0  0  0  0  0  0  0
  151.1436  142.0200  157.0554 C   0  0  0  0  0  0  0  0  0  0  0  0
  151.4785  140.5833  156.5791 C   0  0  2  0  0  0  0  0  0  0  0  0
  150.6084  140.1536  155.3560 C   0  0  0  0  0  0  0  0  0  0  0  0
  149.1171  140.5017  155.5276 C   0  0  0  0  0  0  0  0  0  0  0  0
  150.7342  138.6508  155.0405 C   0  0  0  0  0  0  0  0  0  0  0  0
  151.3999  139.5983  157.7810 C   0  0  2  0  0  0  0  0  0  0  0  0
  150.0084  139.3800  158.1676 N   0  0  0  0  0  0  0  0  0  0  0  0
  149.4468  138.2111  158.5153 C   0  0  0  0  0  0  0  0  0  0  0  0
  150.0855  137.1647  158.6193 O   0  0  0  0  0  0  0  0  0  0  0  0
  147.9292  138.2012  158.7657 C   0  0  0  0  0  0  0  0  0  0  0  0
  147.4346  136.9702  159.4068 N   0  0  0  0  0  0  0  0  0  0  0  0
  147.5679  135.7446  158.7696 C   0  0  0  0  0  0  0  0  0  0  0  0
  147.1734  134.5719  159.3199 C   0  0  0  0  0  0  0  0  0  0  0  0
  146.5717  134.5443  160.6488 C   0  0  0  0  0  0  0  0  0  0  0  0
  146.1864  133.5338  161.2323 O   0  0  0  0  0  0  0  0  0  0  0  0
  146.4524  135.7971  161.2560 N   0  0  0  0  0  0  0  0  0  0  0  0
  146.8569  137.0090  160.6953 C   0  0  0  0  0  0  0  0  0  0  0  0
  146.7185  138.0572  161.3243 O   0  0  0  0  0  0  0  0  0  0  0  0
  152.2503  140.0738  158.9785 C   0  0  0  0  0  0  0  0  0  0  0  0
  146.0422  135.8280  162.1781 H   0  0  0  0  0  0  0  0  0  0  0  0
  153.8191  141.9635  160.3425 H   0  0  0  0  0  0  0  0  0  0  0  0
  152.6460  141.2752  161.4623 H   0  0  0  0  0  0  0  0  0  0  0  0
  152.4884  142.9494  160.9453 H   0  0  0  0  0  0  0  0  0  0  0  0
  150.8542  141.5030  159.7696 H   0  0  0  0  0  0  0  0  0  0  0  0
  151.7140  143.4707  158.5507 H   0  0  0  0  0  0  0  0  0  0  0  0
  153.0514  142.5380  157.9257 H   0  0  0  0  0  0  0  0  0  0  0  0
  150.0896  142.0837  157.3293 H   0  0  0  0  0  0  0  0  0  0  0  0
  151.2927  142.7378  156.2506 H   0  0  0  0  0  0  0  0  0  0  0  0
  152.5180  140.5899  156.2475 H   0  0  0  0  0  0  0  0  0  0  0  0
  150.9617  140.6910  154.4752 H   0  0  0  0  0  0  0  0  0  0  0  0
  148.7102  140.0670  156.4409 H   0  0  0  0  0  0  0  0  0  0  0  0
  148.5272  140.1267  154.6908 H   0  0  0  0  0  0  0  0  0  0  0  0
  148.9508  141.5781  155.5616 H   0  0  0  0  0  0  0  0  0  0  0  0
  150.4872  138.0406  155.9098 H   0  0  0  0  0  0  0  0  0  0  0  0
  151.7380  138.3831  154.7132 H   0  0  0  0  0  0  0  0  0  0  0  0
  150.0606  138.3617  154.2332 H   0  0  0  0  0  0  0  0  0  0  0  0
  151.8140  138.6395  157.4667 H   0  0  0  0  0  0  0  0  0  0  0  0
  149.4007  140.1843  158.1128 H   0  0  0  0  0  0  0  0  0  0  0  0
  147.6628  139.0734  159.3659 H   0  0  0  0  0  0  0  0  0  0  0  0
  147.4304  138.3510  157.8071 H   0  0  0  0  0  0  0  0  0  0  0  0
  148.0151  135.7162  157.7861 H   0  0  0  0  0  0  0  0  0  0  0  0
  147.3065  133.6487  158.7749 H   0  0  0  0  0  0  0  0  0  0  0  0
  153.3035  140.0422  158.6958 H   0  0  0  0  0  0  0  0  0  0  0  0
  152.1459  139.3802  159.8138 H   0  0  0  0  0  0  0  0  0  0  0  0
  1  2  1  0  0  0  0
  1 24  1  0  0  0  0
  1 25  1  0  0  0  0
  1 26  1  0  0  0  0
  2 22  1  0  0  0  0
  2  3  1  0  0  0  0
  2 27  1  0  0  0  0
  3  4  1  0  0  0  0
  3 28  1  0  0  0  0
  3 29  1  0  0  0  0
  4  5  1  0  0  0  0
  4 30  1  0  0  0  0
  4 31  1  0  0  0  0
  5  6  1  0  0  0  0
  5  9  1  0  0  0  0
  5 32  1  0  0  0  0
  6  7  1  0  0  0  0
  6  8  1  0  0  0  0
  6 33  1  0  0  0  0
  7 34  1  0  0  0  0
  7 35  1  0  0  0  0
  7 36  1  0  0  0  0
  8 37  1  0  0  0  0
  8 38  1  0  0  0  0
  8 39  1  0  0  0  0
  9 10  1  0  0  0  0
  9 22  1  0  0  0  0
  9 40  1  0  0  0  0
 10 11  1  0  0  0  0
 10 41  1  0  0  0  0
 11 12  2  0  0  0  0
 11 13  1  0  0  0  0
 13 14  1  0  0  0  0
 13 42  1  0  0  0  0
 13 43  1  0  0  0  0
 14 20  1  0  0  0  0
 14 15  1  0  0  0  0
 15 16  2  0  0  0  0
 15 44  1  0  0  0  0
 16 17  1  0  0  0  0
 16 45  1  0  0  0  0
 17 18  2  0  0  0  0
 17 19  1  0  0  0  0
 19 23  1  0  0  0  0
 19 20  1  0  0  0  0
 20 21  2  0  0  0  0
 22 46  1  0  0  0  0
 22 47  1  0  0  0  0
M  END
> <s_m_source_file>
AV-unprocessed.smi

> <i_m_source_file_index>
2855

> <i_lp_mmshare_version>
43012

> <i_f3d_flags>
0

> <s_epik_input>
W0NIM11bQ0BASF0xW0NIMl1bQ0gyXVtDQEBIXShbQ0hdKFtDSDNdKVtDSDNdKVtDQEhdKFtDSDJdMSlbTkhdQyg9TylbQ0gyXW4yW2NIXVtjSF1jKD1PKVtuSF1jMj1P

> <s_epik_cmdline>
J2VwaWtfcHl0aG9uJywgJy1waCcsICc3LjAnLCAnLXRuJywgJzgnLCAnLW1hJywgJzIwMCcsICctbWV0YWxfYmluZGluZycsICctaW1hZScsICc8aW5maWxlLm1hZT4nLCAnLW9tYWUnLCAnPG91dGZpbGUubWFlPic=

> <r_lp_tautomer_probability>
0.999537

> <r_epik_Ionization_Penalty>
0.00306256

> <r_epik_Ionization_Penalty_Charging>
0.00306254

> <r_epik_Ionization_Penalty_Neutral>
2.0223e-08

> <r_epik_State_Penalty>
0.0021533

> <r_epik_Charging_Adjusted_Penalty>
0.00521583

> <i_epik_Tot_Q>
0

> <i_epik_Tot_abs_Q>
0

> <r_epik_Metal_State_Penalty>
0.362116

> <b_epik_Metal_Only>
0

> <s_lp_Force_Field>
OPLS_2005

> <r_lp_Energy>
12.2647

> <b_lp_Chiralities_Consistent>
1

> <s_lp_Variant>
AV-unprocessed.smi:2855-8

> <Gold.Version>
5.8.1

> <Gold.Id.Protein>
6NUR|6NUR_protein|mol2

> <Gold.PLP.Fitness>
39.5042

> <Gold.PLP.PLP>
-35.2599

> <Gold.PLP.part.hbond>
-2.1298

> <Gold.PLP.part.metal>
0.0000

> <Gold.PLP.part.buried>
-4.8247

> <Gold.PLP.part.nonpolar>
-27.8179

> <Gold.PLP.part.repulsive>
0.1751

> <Gold.PLP.ligand.clash>
0.0000

> <Gold.PLP.ligand.torsion>
0.6813

> <Gold.PLP.Chemscore.Hbond>
1.8560

> <Gold.PLP.Chemscore.CHOScore>
0.0000

> <Gold.PLP.Chemscore.Metal>
0.0000

> <Gold.Chemscore.Hbonds>
donor molecule, donor type, donor heavy atom, donor atom, acceptor molecule, acceptor atom, score
      P1  H  6931  6943       L1    21  0.04

> <Gold.PLP.Chemscore.Internal.Correction>
0.0390

> <Gold.Rescore>
     Score         DG    S(hbond)    S(metal)    S(lipo)     H(rot)  DE(clash)    DE(int)     intcor
     13.84     -15.98       1.79        0.00      79.25       1.85       0.04       2.11       ----

> <Gold.Chemscore.Fitness>
13.8399

> <Gold.Chemscore.DG>
-15.9838

> <Gold.Chemscore.ZeroCoef>
-5.4800

> <Gold.Chemscore.Hbond>
1.7898

> <Gold.Chemscore.Metal>
0.0000

> <Gold.Chemscore.Lipo>
79.2469

> <Gold.Chemscore.Internal_Hbond>
0.0000

> <Gold.Chemscore.DEClash>
0.0384

> <Gold.Chemscore.DEInternal>
2.1055

> <Gold.Chemscore.Rot>
1.8539

> <Gold.Chemscore.Internal.Correction>
   9.000000E+99

> <Gold.Chemscore.Hbonds>
donor molecule, donor type, donor heavy atom, donor atom, acceptor molecule, acceptor atom, score
      P1  H  6931  6943       L1    21  0.01
      P1  H  6934  6947       L1    21  0.06

> <Gold.Chemscore.Hbond.Weighted>
-5.9779

> <Gold.Chemscore.Metal.Weighted>
-0.0000

> <Gold.Chemscore.Lipo.Weighted>
-9.2719

> <Gold.Chemscore.Internal_Hbond.Weighted>
0.0000

> <Gold.Chemscore.DEClash.Weighted>
0.0384

> <Gold.Chemscore.DEInternal.Weighted>
2.1055

> <Gold.Chemscore.Rot.Weighted>
4.7460

> <Gold.Chemscore.Internal.Correction.Weighted>
   9.000000E+99

> <Gold.Protein.RotatedTorsions>
[ 6907 6896 6895 6894 ] final  -91.11 input  -60.11 | X-H torsion
[ 7974 7965 7964 7962 ] final  -77.67 input  175.53 | X-H torsion
[ 8008 7997 7996 7995 ] final -155.75 input   59.86 | X-H torsion
[ 10167 10162 10161 10158 ] final -138.52 input  -65.29 | X-H torsion
[ 10718 10713 10712 10709 ] final -115.53 input   66.30 | X-H torsion
[ 10763 10752 10751 10750 ] final  -38.15 input  -60.55 | X-H torsion
[ 11005 11000 10999 10996 ] final   81.37 input  -57.11 | X-H torsion

> <Gold.Protein.ActiveResidues>
 VAL166  LYS551  ARG553  GLY616  TRP617  ASP618  TYR619  PRO620  LYS621  CYS622 
 ASP623  PHE694  ASN695  SER759  ASP760  ASP761  ALA762  ILE779  LEU786  VAL792 
 PHE793  MET794  SER795  GLU796  ALA797  LYS798  CYS799  TRP800  GLU811  SER814 

> <Gold.Protein.RotatedAtoms>
  150.6889  134.2328  159.4440 H   0  0  0  0  0  0  0  0  0  0  0  0  # atno 6907 bound_to 6896
  152.0277  134.9783  160.0581 H   0  0  0  0  0  0  0  0  0  0  0  0  # atno 6908 bound_to 6896
  152.1335  133.4387  159.4769 H   0  0  0  0  0  0  0  0  0  0  0  0  # atno 6909 bound_to 6896
  145.5966  140.9418  143.1263 H   0  0  0  0  0  0  0  0  0  0  0  0  # atno 7974 bound_to 7965
  155.7066  140.0773  157.2388 H   0  0  0  0  0  0  0  0  0  0  0  0  # atno 8008 bound_to 7997
  154.4065  140.1637  156.2303 H   0  0  0  0  0  0  0  0  0  0  0  0  # atno 8009 bound_to 7997
  155.9320  140.3390  155.6260 H   0  0  0  0  0  0  0  0  0  0  0  0  # atno 8010 bound_to 7997
  139.8470  143.7248  152.2660 H   0  0  0  0  0  0  0  0  0  0  0  0  # atno 10167 bound_to 10162
  156.0902  130.6086  150.8918 H   0  0  0  0  0  0  0  0  0  0  0  0  # atno 10718 bound_to 10713
  153.9080  135.6795  153.4752 H   0  0  0  0  0  0  0  0  0  0  0  0  # atno 10763 bound_to 10752
  153.1093  135.4790  154.9005 H   0  0  0  0  0  0  0  0  0  0  0  0  # atno 10764 bound_to 10752
  154.7541  135.3193  154.8457 H   0  0  0  0  0  0  0  0  0  0  0  0  # atno 10765 bound_to 10752
  139.9100  134.7992  156.2033 H   0  0  0  0  0  0  0  0  0  0  0  0  # atno 11005 bound_to 11000
  144.7328  139.7675  143.7341 LP  0  0  0  0  0  0  0  0  0  0  0  0  # atno 17320 bound_to 7965
  146.1607  139.4720  142.9990 LP  0  0  0  0  0  0  0  0  0  0  0  0  # atno 17321 bound_to 7965
  139.7503  144.7536  151.0517 LP  0  0  0  0  0  0  0  0  0  0  0  0  # atno 17342 bound_to 10162
  140.7792  143.4868  150.9945 LP  0  0  0  0  0  0  0  0  0  0  0  0  # atno 17343 bound_to 10162
  157.6049  131.0939  150.8897 LP  0  0  0  0  0  0  0  0  0  0  0  0  # atno 17370 bound_to 10713
  156.9047  130.5259  149.5282 LP  0  0  0  0  0  0  0  0  0  0  0  0  # atno 17371 bound_to 10713
  141.0511  133.6888  156.1774 LP  0  0  0  0  0  0  0  0  0  0  0  0  # atno 17394 bound_to 11000
  140.6808  134.4769  157.5589 LP  0  0  0  0  0  0  0  0  0  0  0  0  # atno 17395 bound_to 11000

$$$$
