#       Name:                AV-unprocessed.smi:1424
#       Creating user name   scv26
#       Creation time:       Fri Mar 27 05:45:21 2020


#       File generated by GOLD software.
#

@<TRIPOS>MOLECULE
AV-unprocessed.smi:1424
    49    51     1
SMALL
NO_CHARGES


@<TRIPOS>ATOM
      1 ****         1.4108   2.6322  -0.4768 O.2            1 S1                 0.0000
      2 ****         0.8791   1.5229  -0.5141 C.2            1 S1                 0.0000
      3 ****         1.5698   0.3754  -0.5043 N.am           1 S1                 0.0000
      4 ****         3.0244   0.2933  -0.4672 C.3            1 S1                 0.0000
      5 ****         3.5022  -1.1686  -0.4999 C.3            1 S1                 0.0000
      6 ****         5.0389  -1.2824  -0.5260 C.3            1 S1                 0.0000
      7 ****         5.4240  -2.7450  -0.2855 C.3            1 S1                 0.0000
      8 ****         4.1742  -3.3940   0.8842 S.o2           1 S1                 0.0000
      9 ****         3.5932  -4.6263   0.3302 O.2            1 S1                 0.0000
     10 ****         4.7184  -3.3607   2.2502 O.2            1 S1                 0.0000
     11 ****         2.9885  -2.0090   0.6831 C.3            1 S1                 0.0000
     12 ****        -0.4442   1.2922  -0.5537 N.am           1 S1                 0.0000
     13 ****        -1.5167   2.2309  -0.5708 C.ar           1 S1                 0.0000
     14 ****        -1.3707   3.5674  -1.0174 C.ar           1 S1                 0.0000
     15 ****        -2.4915   4.4174  -1.0179 C.ar           1 S1                 0.0000
     16 ****        -3.7235   3.9007  -0.5794 C.ar           1 S1                 0.0000
     17 ****        -3.8835   2.6279  -0.1641 N.ar           1 S1                 0.0000
     18 ****        -2.8068   1.8044  -0.1615 C.ar           1 S1                 0.0000
     19 ****        -2.9999   0.4804   0.2718 N.3            1 S1                 0.0000
     20 ****        -3.4812   0.3276   1.6343 C.3            1 S1                 0.0000
     21 ****        -3.9387  -1.1284   1.7364 C.3            1 S1                 0.0000
     22 ****        -4.2527  -1.5420   0.2931 C.3            1 S1                 0.0000
     23 ****        -3.8785  -0.3256  -0.5598 C.3            1 S1                 0.0000
     24 ****         1.0589  -0.4951  -0.5274 H              1 S1                 0.0000
     25 ****         3.4340   0.8350  -1.3213 H              1 S1                 0.0000
     26 ****         3.3912   0.7908   0.4320 H              1 S1                 0.0000
     27 ****         3.1316  -1.6315  -1.4161 H              1 S1                 0.0000
     28 ****         5.4564  -0.9107  -1.4623 H              1 S1                 0.0000
     29 ****         5.4585  -0.6719   0.2750 H              1 S1                 0.0000
     30 ****         5.3525  -3.3198  -1.2090 H              1 S1                 0.0000
     31 ****         6.4266  -2.8641   0.1250 H              1 S1                 0.0000
     32 ****         2.9938  -1.4310   1.6079 H              1 S1                 0.0000
     33 ****         1.9827  -2.3978   0.5244 H              1 S1                 0.0000
     34 ****        -0.7261   0.3244  -0.4967 H              1 S1                 0.0000
     35 ****        -0.4291   3.9545  -1.3733 H              1 S1                 0.0000
     36 ****        -2.4089   5.4410  -1.3521 H              1 S1                 0.0000
     37 ****        -4.6053   4.5240  -0.5675 H              1 S1                 0.0000
     38 ****        -2.6968   0.5548   2.3569 H              1 S1                 0.0000
     39 ****        -4.3205   0.9980   1.8244 H              1 S1                 0.0000
     40 ****        -3.1328  -1.7482   2.1315 H              1 S1                 0.0000
     41 ****        -4.7974  -1.2373   2.3993 H              1 S1                 0.0000
     42 ****        -3.6505  -2.4071   0.0130 H              1 S1                 0.0000
     43 ****        -5.3012  -1.8104   0.1606 H              1 S1                 0.0000
     44 ****        -4.7749   0.2356  -0.8277 H              1 S1                 0.0000
     45 ****        -3.3791  -0.6217  -1.4828 H              1 S1                 0.0000
     46 ****         2.4071   2.7080  -0.4368 LP             1 S1                 0.0000
     47 ****         0.8465   3.4577  -0.4864 LP             1 S1                 0.0000
     48 ****        -4.7786   2.2980   0.1360 LP             1 S1                 0.0000
     49 ****        -2.0591   0.1483   0.2041 LP             1 S1                 0.0000
@<TRIPOS>BOND
    1    1    2 2     
    2    2    3 am    
    3    2   12 am    
    4    3    4 1     
    5    3   24 1     
    6    4    5 1     
    7    4   25 1     
    8    4   26 1     
    9    5   11 1     
   10    5    6 1     
   11    5   27 1     
   12    6    7 1     
   13    6   28 1     
   14    6   29 1     
   15    7    8 1     
   16    7   30 1     
   17    7   31 1     
   18    8    9 2     
   19    8   10 2     
   20    8   11 1     
   21   11   32 1     
   22   11   33 1     
   23   12   13 1     
   24   12   34 1     
   25   13   18 ar    
   26   13   14 ar    
   27   14   15 ar    
   28   14   35 1     
   29   15   16 ar    
   30   15   36 1     
   31   16   17 ar    
   32   16   37 1     
   33   17   18 ar    
   34   18   19 1     
   35   19   23 1     
   36   19   20 1     
   37   20   21 1     
   38   20   38 1     
   39   20   39 1     
   40   21   22 1     
   41   21   40 1     
   42   21   41 1     
   43   22   23 1     
   44   22   42 1     
   45   22   43 1     
   46   23   44 1     
   47   23   45 1     
   48    1   46 1     
   49    1   47 1     
   50   17   48 1     
   51   19   49 1     
@<TRIPOS>SUBSTRUCTURE
      1 S1             1
@<TRIPOS>SET
LONE_PAIRS      STATIC     ATOMS    <user>   **** ""
6 46 47 9 10 48 49
DONOR_HYDROGENS      STATIC     ATOMS    <user>   **** ""
2 24 34
ATOM$BLUE        STATIC     ATOMS    COLORGROUP SYSTEM
6 46 47 9 10 48 49
ATOM$RED        STATIC     ATOMS    COLORGROUP SYSTEM
2 24 34
