AV-unprocessed.smi:2906|AV-procd|sdf|11163|dock4
  -GOLD-   2272016 53D 1   1.00000     0.00000
 Structure written by MMmdl.
 40 41  0  0  0  0  0  0  0  0  1 V2000
  153.9742  141.3371  160.8381 C   0  0  0  0  0  0  0  0  0  0  0  0
  152.8592  141.7986  161.7903 C   0  0  0  0  0  0  0  0  0  0  0  0
  152.5522  143.3031  161.7018 C   0  0  0  0  0  0  0  0  0  0  0  0
  152.6383  144.0072  162.7091 O   0  0  0  0  0  0  0  0  0  0  0  0
  152.1917  143.8103  160.5044 N   0  0  0  0  0  0  0  0  0  0  0  0
  151.8611  145.2167  160.2911 C   0  0  0  0  0  0  0  0  0  0  0  0
  151.2846  145.3038  158.8779 C   0  0  0  0  0  0  0  0  0  0  0  0
  151.8658  144.0952  158.1494 C   0  0  2  0  0  0  0  0  0  0  0  0
  150.9699  143.6137  157.1028 N   0  0  0  0  0  0  0  0  0  0  0  0
  150.9825  142.3715  156.5988 C   0  0  0  0  0  0  0  0  0  0  0  0
  151.7609  141.4952  156.9767 O   0  0  0  0  0  0  0  0  0  0  0  0
  150.0455  142.2222  155.6462 N   0  0  0  0  0  0  0  0  0  0  0  0
  149.7440  141.0611  154.8873 C   0  0  0  0  0  0  0  0  0  0  0  0
  148.6437  140.9131  154.1412 N   0  0  0  0  0  0  0  0  0  0  0  0
  148.6029  139.6721  153.4983 C   0  0  0  0  0  0  0  0  0  0  0  0
  147.4441  139.3284  152.6125 C   0  0  0  0  0  0  0  0  0  0  0  0
  146.6856  138.0891  153.1006 C   0  0  0  0  0  0  0  0  0  0  0  0
  149.6934  138.8830  153.7729 C   0  0  0  0  0  0  0  0  0  0  0  0
  150.8159  139.6697  154.8501 S   0  0  0  0  0  0  0  0  0  0  0  0
  152.0789  143.0551  159.2583 C   0  0  0  0  0  0  0  0  0  0  0  0
  154.1592  140.2689  160.9522 H   0  0  0  0  0  0  0  0  0  0  0  0
  154.9115  141.8566  161.0408 H   0  0  0  0  0  0  0  0  0  0  0  0
  153.7073  141.5138  159.7954 H   0  0  0  0  0  0  0  0  0  0  0  0
  151.9481  141.2406  161.5718 H   0  0  0  0  0  0  0  0  0  0  0  0
  153.1456  141.5533  162.8136 H   0  0  0  0  0  0  0  0  0  0  0  0
  151.1521  145.5889  161.0324 H   0  0  0  0  0  0  0  0  0  0  0  0
  152.7737  145.8095  160.3680 H   0  0  0  0  0  0  0  0  0  0  0  0
  150.1978  145.2234  158.9334 H   0  0  0  0  0  0  0  0  0  0  0  0
  151.5211  146.2470  158.3846 H   0  0  0  0  0  0  0  0  0  0  0  0
  152.8318  144.3744  157.7241 H   0  0  0  0  0  0  0  0  0  0  0  0
  150.2979  144.2724  156.7377 H   0  0  0  0  0  0  0  0  0  0  0  0
  149.4810  143.0330  155.4399 H   0  0  0  0  0  0  0  0  0  0  0  0
  146.7541  140.1709  152.5558 H   0  0  0  0  0  0  0  0  0  0  0  0
  147.7920  139.1582  151.5930 H   0  0  0  0  0  0  0  0  0  0  0  0
  145.8468  137.8626  152.4422 H   0  0  0  0  0  0  0  0  0  0  0  0
  146.2899  138.2408  154.1051 H   0  0  0  0  0  0  0  0  0  0  0  0
  147.3350  137.2135  153.1248 H   0  0  0  0  0  0  0  0  0  0  0  0
  149.9047  137.8895  153.4057 H   0  0  0  0  0  0  0  0  0  0  0  0
  152.9667  142.4533  159.0592 H   0  0  0  0  0  0  0  0  0  0  0  0
  151.2235  142.3815  159.3358 H   0  0  0  0  0  0  0  0  0  0  0  0
  1  2  1  0  0  0  0
  1 21  1  0  0  0  0
  1 22  1  0  0  0  0
  1 23  1  0  0  0  0
  2  3  1  0  0  0  0
  2 24  1  0  0  0  0
  2 25  1  0  0  0  0
  3  4  2  0  0  0  0
  3  5  1  0  0  0  0
  5 20  1  0  0  0  0
  5  6  1  0  0  0  0
  6  7  1  0  0  0  0
  6 26  1  0  0  0  0
  6 27  1  0  0  0  0
  7  8  1  0  0  0  0
  7 28  1  0  0  0  0
  7 29  1  0  0  0  0
  8  9  1  0  0  0  0
  8 20  1  0  0  0  0
  8 30  1  0  0  0  0
  9 10  1  0  0  0  0
  9 31  1  0  0  0  0
 10 11  2  0  0  0  0
 10 12  1  0  0  0  0
 12 13  1  0  0  0  0
 12 32  1  0  0  0  0
 13 19  1  0  0  0  0
 13 14  2  0  0  0  0
 14 15  1  0  0  0  0
 15 16  1  0  0  0  0
 15 18  2  0  0  0  0
 16 17  1  0  0  0  0
 16 33  1  0  0  0  0
 16 34  1  0  0  0  0
 17 35  1  0  0  0  0
 17 36  1  0  0  0  0
 17 37  1  0  0  0  0
 18 19  1  0  0  0  0
 18 38  1  0  0  0  0
 20 39  1  0  0  0  0
 20 40  1  0  0  0  0
M  END
> <s_m_source_file>
AV-unprocessed.smi

> <i_m_source_file_index>
2906

> <i_lp_mmshare_version>
43012

> <i_f3d_flags>
0

> <s_epik_input>
W0NIM11bQ0gyXUMoPU8pTjFbQ0gyXVtDSDJdW0NASF0oW0NIMl0xKVtOSF1DKD1PKVtOSF1jMm5jKFtjSF1zMilbQ0gyXVtDSDNd

> <s_epik_cmdline>
J2VwaWtfcHl0aG9uJywgJy1waCcsICc3LjAnLCAnLXRuJywgJzgnLCAnLW1hJywgJzIwMCcsICctbWV0YWxfYmluZGluZycsICctaW1hZScsICc8aW5maWxlLm1hZT4nLCAnLW9tYWUnLCAnPG91dGZpbGUubWFlPic=

> <r_lp_tautomer_probability>
1

> <r_epik_Ionization_Penalty>
0.000174744

> <r_epik_Ionization_Penalty_Charging>
0

> <r_epik_Ionization_Penalty_Neutral>
0.000174744

> <r_epik_State_Penalty>
-0

> <r_epik_Charging_Adjusted_Penalty>
0

> <i_epik_Tot_Q>
0

> <i_epik_Tot_abs_Q>
0

> <r_epik_Metal_State_Penalty>
0.0273865

> <b_epik_Metal_Only>
0

> <s_lp_Force_Field>
OPLS_2005

> <r_lp_Energy>
21.1229

> <b_lp_Chiralities_Consistent>
1

> <s_lp_Variant>
AV-unprocessed.smi:2906-2

> <Gold.Version>
5.8.1

> <Gold.Id.Protein>
6NUR|6NUR_protein|mol2

> <Gold.PLP.Fitness>
54.3751

> <Gold.PLP.PLP>
-46.0358

> <Gold.PLP.part.hbond>
-2.0000

> <Gold.PLP.part.metal>
0.0000

> <Gold.PLP.part.buried>
-2.0221

> <Gold.PLP.part.nonpolar>
-42.3986

> <Gold.PLP.part.repulsive>
0.4687

> <Gold.PLP.ligand.clash>
0.0000

> <Gold.PLP.ligand.torsion>
0.3361

> <Gold.PLP.Chemscore.Hbond>
2.0000

> <Gold.PLP.Chemscore.CHOScore>
1.0000

> <Gold.PLP.Chemscore.Metal>
0.0000

> <Gold.Chemscore.Hbonds>
donor molecule, donor type, donor heavy atom, donor atom, acceptor molecule, acceptor atom, score
      L1  H     9    31       P1  8028  1.00
      L1  H    12    32       P1  8028  1.00
      L1  C    18    38       P1  7948  1.00

> <Gold.PLP.Chemscore.Internal.Correction>
0.0115

> <Gold.Rescore>
     Score         DG    S(hbond)    S(metal)    S(lipo)     H(rot)  DE(clash)    DE(int)     intcor
     15.93     -19.83       1.90        0.00      99.39       1.41       0.97       2.93       ----

> <Gold.Chemscore.Fitness>
15.9306

> <Gold.Chemscore.DG>
-19.8319

> <Gold.Chemscore.ZeroCoef>
-5.4800

> <Gold.Chemscore.Hbond>
1.8963

> <Gold.Chemscore.Metal>
0.0000

> <Gold.Chemscore.Lipo>
99.3875

> <Gold.Chemscore.Internal_Hbond>
0.0000

> <Gold.Chemscore.DEClash>
0.9738

> <Gold.Chemscore.DEInternal>
2.9275

> <Gold.Chemscore.Rot>
1.4102

> <Gold.Chemscore.Internal.Correction>
   9.000000E+99

> <Gold.Chemscore.Hbonds>
donor molecule, donor type, donor heavy atom, donor atom, acceptor molecule, acceptor atom, score
      L1  H     9    31       P1  8028  0.95
      L1  H    12    32       P1  8028  0.99

> <Gold.Chemscore.Hbond.Weighted>
-6.3337

> <Gold.Chemscore.Metal.Weighted>
-0.0000

> <Gold.Chemscore.Lipo.Weighted>
-11.6283

> <Gold.Chemscore.Internal_Hbond.Weighted>
0.0000

> <Gold.Chemscore.DEClash.Weighted>
0.9738

> <Gold.Chemscore.DEInternal.Weighted>
2.9275

> <Gold.Chemscore.Rot.Weighted>
3.6101

> <Gold.Chemscore.Internal.Correction.Weighted>
   9.000000E+99

> <Gold.Protein.RotatedTorsions>
[ 6907 6896 6895 6894 ] final   76.06 input  -60.11 | X-H torsion
[ 7974 7965 7964 7962 ] final -176.01 input  175.53 | X-H torsion
[ 8008 7997 7996 7995 ] final  -93.67 input   59.86 | X-H torsion
[ 10167 10162 10161 10158 ] final  -62.37 input  -65.29 | X-H torsion
[ 10718 10713 10712 10709 ] final   36.61 input   66.30 | X-H torsion
[ 10763 10752 10751 10750 ] final  -23.10 input  -60.55 | X-H torsion
[ 11005 11000 10999 10996 ] final -177.79 input  -57.11 | X-H torsion

> <Gold.Protein.ActiveResidues>
 VAL166  LYS551  ARG553  GLY616  TRP617  ASP618  TYR619  PRO620  LYS621  CYS622 
 ASP623  PHE694  ASN695  SER759  ASP760  ASP761  ALA762  ILE779  LEU786  VAL792 
 PHE793  MET794  SER795  GLU796  ALA797  LYS798  CYS799  TRP800  GLU811  SER814 

> <Gold.Protein.RotatedAtoms>
  152.5055  134.4027  159.9421 H   0  0  0  0  0  0  0  0  0  0  0  0  # atno 6907 bound_to 6896
  151.3991  133.3757  159.2738 H   0  0  0  0  0  0  0  0  0  0  0  0  # atno 6908 bound_to 6896
  150.9375  134.8807  159.7650 H   0  0  0  0  0  0  0  0  0  0  0  0  # atno 6909 bound_to 6896
  144.7127  140.1234  143.6403 H   0  0  0  0  0  0  0  0  0  0  0  0  # atno 7974 bound_to 7965
  154.7386  140.0496  157.0791 H   0  0  0  0  0  0  0  0  0  0  0  0  # atno 8008 bound_to 7997
  155.0208  140.3147  155.4775 H   0  0  0  0  0  0  0  0  0  0  0  0  # atno 8009 bound_to 7997
  156.2859  140.2167  156.5325 H   0  0  0  0  0  0  0  0  0  0  0  0  # atno 8010 bound_to 7997
  140.5944  143.2348  151.6069 H   0  0  0  0  0  0  0  0  0  0  0  0  # atno 10167 bound_to 10162
  157.3369  130.7527  149.6885 H   0  0  0  0  0  0  0  0  0  0  0  0  # atno 10718 bound_to 10713
  153.6625  135.6976  153.5173 H   0  0  0  0  0  0  0  0  0  0  0  0  # atno 10763 bound_to 10752
  153.2621  135.4241  155.0903 H   0  0  0  0  0  0  0  0  0  0  0  0  # atno 10764 bound_to 10752
  154.8448  135.3557  154.6169 H   0  0  0  0  0  0  0  0  0  0  0  0  # atno 10765 bound_to 10752
  140.4370  134.6466  157.4739 H   0  0  0  0  0  0  0  0  0  0  0  0  # atno 11005 bound_to 11000
  145.9351  139.2631  143.1302 LP  0  0  0  0  0  0  0  0  0  0  0  0  # atno 17320 bound_to 7965
  145.9483  140.8928  143.0272 LP  0  0  0  0  0  0  0  0  0  0  0  0  # atno 17321 bound_to 7965
  139.5248  144.3093  152.1007 LP  0  0  0  0  0  0  0  0  0  0  0  0  # atno 17342 bound_to 10162
  140.2262  144.4415  150.6320 LP  0  0  0  0  0  0  0  0  0  0  0  0  # atno 17343 bound_to 10162
  155.9702  130.4179  150.4301 LP  0  0  0  0  0  0  0  0  0  0  0  0  # atno 17370 bound_to 10713
  157.2342  131.0511  151.2475 LP  0  0  0  0  0  0  0  0  0  0  0  0  # atno 17371 bound_to 10713
  140.0095  134.6712  155.9402 LP  0  0  0  0  0  0  0  0  0  0  0  0  # atno 17394 bound_to 11000
  141.1721  133.6538  156.4692 LP  0  0  0  0  0  0  0  0  0  0  0  0  # atno 17395 bound_to 11000

$$$$
