AV-unprocessed.smi:1579|AV-procd|sdf|6354|dock10
  -GOLD-   22720 6573D 1   1.00000     0.00000
 Structure written by MMmdl.
 47 48  0  0  0  0  0  0  0  0  2 V2000
  148.1727  131.7495  158.9616 C   0  0  0  0  0  0  0  0  0  0  0  0
  148.3683  133.2417  158.9407 C   0  0  0  0  0  0  0  0  0  0  0  0
  148.9706  133.7338  157.9081 N   0  0  0  0  0  0  0  0  0  0  0  0
  149.2043  135.0897  157.7884 N   0  0  0  0  0  0  0  0  0  0  0  0
  149.9102  135.4618  156.5547 C   0  0  0  0  0  0  0  0  0  0  0  0
  149.3157  134.7794  155.3032 C   0  0  2  0  0  0  0  0  0  0  0  0
  150.1205  135.1482  154.2005 O   0  0  0  0  0  0  0  0  0  0  0  0
  147.8530  135.1897  155.0200 C   0  0  0  0  0  0  0  0  0  0  0  0
  147.3553  134.7110  153.7047 N   0  3  2  0  0  0  0  0  0  0  0  0
  146.0395  135.3079  153.3583 C   0  0  0  0  0  0  0  0  0  0  0  0
  145.6019  134.9081  151.9395 C   0  0  0  0  0  0  0  0  0  0  0  0
  145.5505  133.3795  151.7814 C   0  0  1  0  0  0  0  0  0  0  0  0
  145.1387  132.9679  150.3610 C   0  0  0  0  0  0  0  0  0  0  0  0
  146.9131  132.7863  152.1762 C   0  0  0  0  0  0  0  0  0  0  0  0
  147.3260  133.2279  153.5905 C   0  0  0  0  0  0  0  0  0  0  0  0
  148.8272  136.0253  158.7068 C   0  0  0  0  0  0  0  0  0  0  0  0
  149.0306  137.2299  158.5491 O   0  0  0  0  0  0  0  0  0  0  0  0
  148.1497  135.4612  159.8761 C   0  0  0  0  0  0  0  0  0  0  0  0
  147.7460  136.4074  160.8656 C   0  0  0  0  0  0  0  0  0  0  0  0
  147.4089  137.1606  161.6771 N   0  0  0  0  0  0  0  0  0  0  0  0
  147.9190  134.1309  160.0069 C   0  0  0  0  0  0  0  0  0  0  0  0
  147.2180  133.4964  161.2002 C   0  0  0  0  0  0  0  0  0  0  0  0
  148.6318  131.3106  159.8477 H   0  0  0  0  0  0  0  0  0  0  0  0
  148.6168  131.2679  158.0890 H   0  0  0  0  0  0  0  0  0  0  0  0
  147.1119  131.4991  158.9705 H   0  0  0  0  0  0  0  0  0  0  0  0
  149.9402  136.5440  156.4157 H   0  0  0  0  0  0  0  0  0  0  0  0
  150.9559  135.1667  156.6633 H   0  0  0  0  0  0  0  0  0  0  0  0
  149.4002  133.7004  155.4260 H   0  0  0  0  0  0  0  0  0  0  0  0
  149.6297  135.7307  153.6416 H   0  0  0  0  0  0  0  0  0  0  0  0
  147.1841  134.8131  155.7938 H   0  0  0  0  0  0  0  0  0  0  0  0
  147.7877  136.2779  155.0679 H   0  0  0  0  0  0  0  0  0  0  0  0
  145.2913  134.9924  154.0874 H   0  0  0  0  0  0  0  0  0  0  0  0
  146.1013  136.3952  153.4173 H   0  0  0  0  0  0  0  0  0  0  0  0
  144.6238  135.3395  151.7228 H   0  0  0  0  0  0  0  0  0  0  0  0
  146.2946  135.3337  151.2118 H   0  0  0  0  0  0  0  0  0  0  0  0
  144.7986  132.9907  152.4699 H   0  0  0  0  0  0  0  0  0  0  0  0
  145.8541  133.3255  149.6196 H   0  0  0  0  0  0  0  0  0  0  0  0
  144.1606  133.3753  150.1031 H   0  0  0  0  0  0  0  0  0  0  0  0
  145.0774  131.8832  150.2688 H   0  0  0  0  0  0  0  0  0  0  0  0
  146.8737  131.6973  152.1297 H   0  0  0  0  0  0  0  0  0  0  0  0
  147.6754  133.0978  151.4605 H   0  0  0  0  0  0  0  0  0  0  0  0
  148.3054  132.8081  153.8155 H   0  0  0  0  0  0  0  0  0  0  0  0
  146.6326  132.8183  154.3271 H   0  0  0  0  0  0  0  0  0  0  0  0
  146.8525  134.2401  161.9077 H   0  0  0  0  0  0  0  0  0  0  0  0
  147.9022  132.8396  161.7383 H   0  0  0  0  0  0  0  0  0  0  0  0
  146.3592  132.9082  160.8760 H   0  0  0  0  0  0  0  0  0  0  0  0
  148.0065  135.0509  153.0120 H   0  0  0  0  0  0  0  0  0  0  0  0
  1  2  1  0  0  0  0
  1 23  1  0  0  0  0
  1 24  1  0  0  0  0
  1 25  1  0  0  0  0
  2 21  1  0  0  0  0
  2  3  2  0  0  0  0
  3  4  1  0  0  0  0
  4  5  1  0  0  0  0
  4 16  1  0  0  0  0
  5  6  1  0  0  0  0
  5 26  1  0  0  0  0
  5 27  1  0  0  0  0
  6  7  1  0  0  0  0
  6  8  1  0  0  0  0
  6 28  1  0  0  0  0
  7 29  1  0  0  0  0
  8  9  1  0  0  0  0
  8 30  1  0  0  0  0
  8 31  1  0  0  0  0
  9 15  1  0  0  0  0
  9 10  1  0  0  0  0
  9 47  1  0  0  0  0
 10 11  1  0  0  0  0
 10 32  1  0  0  0  0
 10 33  1  0  0  0  0
 11 12  1  0  0  0  0
 11 34  1  0  0  0  0
 11 35  1  0  0  0  0
 12 13  1  0  0  0  0
 12 14  1  0  0  0  0
 12 36  1  0  0  0  0
 13 37  1  0  0  0  0
 13 38  1  0  0  0  0
 13 39  1  0  0  0  0
 14 15  1  0  0  0  0
 14 40  1  0  0  0  0
 14 41  1  0  0  0  0
 15 42  1  0  0  0  0
 15 43  1  0  0  0  0
 16 17  2  0  0  0  0
 16 18  1  0  0  0  0
 18 19  1  0  0  0  0
 18 21  2  0  0  0  0
 19 20  3  0  0  0  0
 21 22  1  0  0  0  0
 22 44  1  0  0  0  0
 22 45  1  0  0  0  0
 22 46  1  0  0  0  0
M  CHG  1   9   1
M  END
> <s_m_source_file>
AV-unprocessed.smi

> <i_m_source_file_index>
1579

> <i_lp_mmshare_version>
43012

> <i_f3d_flags>
0

> <s_epik_input>
TiNDYyhjMVtDSDNdKWMoPU8pbihuYzFbQ0gzXSlbQ0gyXVtDQEhdKFtPSF0pW0NIMl1OMltDSDJdW0NIMl1bQ0hdKFtDSDNdKVtDSDJdW0NIMl0y

> <s_epik_cmdline>
J2VwaWtfcHl0aG9uJywgJy1waCcsICc3LjAnLCAnLXRuJywgJzgnLCAnLW1hJywgJzIwMCcsICctbWV0YWxfYmluZGluZycsICctaW1hZScsICc8aW5maWxlLm1hZT4nLCAnLW9tYWUnLCAnPG91dGZpbGUubWFlPic=

> <r_epik_Ionization_Penalty>
0.00136816

> <r_epik_Ionization_Penalty_Charging>
0.00136813

> <r_epik_Ionization_Penalty_Neutral>
3.19884e-08

> <r_epik_State_Penalty>
0.000910892

> <r_epik_Charging_Adjusted_Penalty>
0.00227902

> <i_epik_Tot_Q>
1

> <i_epik_Tot_abs_Q>
1

> <r_epik_Metal_State_Penalty>
-0

> <b_epik_Metal_Only>
0

> <s_lp_Force_Field>
OPLS_2005

> <r_lp_Energy>
36.6054

> <b_lp_Chiralities_Consistent>
1

> <s_lp_Variant>
AV-unprocessed.smi:1579-1

> <Gold.Version>
5.8.1

> <Gold.Id.Protein>
6NUR|6NUR_protein|mol2

> <Gold.PLP.Fitness>
41.6909

> <Gold.PLP.PLP>
-28.1609

> <Gold.PLP.part.hbond>
-5.2768

> <Gold.PLP.part.metal>
0.0000

> <Gold.PLP.part.buried>
-3.1655

> <Gold.PLP.part.nonpolar>
-20.6057

> <Gold.PLP.part.repulsive>
0.0000

> <Gold.PLP.ligand.clash>
0.0000

> <Gold.PLP.ligand.torsion>
0.2294

> <Gold.PLP.Chemscore.Hbond>
4.6568

> <Gold.PLP.Chemscore.CHOScore>
0.0000

> <Gold.PLP.Chemscore.Metal>
0.0000

> <Gold.Chemscore.Hbonds>
donor molecule, donor type, donor heavy atom, donor atom, acceptor molecule, acceptor atom, score
      L1  H     7    29       P1  7948  0.88
      L1  H     9    47       P1  7948  2.00
      P1  H  6931  6943       L1    20  0.93
      P1  H  6934  6947       L1    20  0.83

> <Gold.PLP.Chemscore.Internal.Correction>
0.0184

> <Gold.Rescore>
     Score         DG    S(hbond)    S(metal)    S(lipo)     H(rot)  DE(clash)    DE(int)     intcor
     14.68     -15.94       2.74        0.00      58.55       2.17       1.08       0.18       ----

> <Gold.Chemscore.Fitness>
14.6795

> <Gold.Chemscore.DG>
-15.9390

> <Gold.Chemscore.ZeroCoef>
-5.4800

> <Gold.Chemscore.Hbond>
2.7450

> <Gold.Chemscore.Metal>
0.0000

> <Gold.Chemscore.Lipo>
58.5462

> <Gold.Chemscore.Internal_Hbond>
0.0000

> <Gold.Chemscore.DEClash>
1.0750

> <Gold.Chemscore.DEInternal>
0.1844

> <Gold.Chemscore.Rot>
2.1715

> <Gold.Chemscore.Internal.Correction>
   9.000000E+99

> <Gold.Chemscore.Hbonds>
donor molecule, donor type, donor heavy atom, donor atom, acceptor molecule, acceptor atom, score
      L1  H     7    29       P1  7948  0.17
      L1  H     9    47       P1  7948  0.98
      P1  H  6931  6943       L1    20  0.31
      P1  H  6934  6947       L1    20  0.68

> <Gold.Chemscore.Hbond.Weighted>
-9.1682

> <Gold.Chemscore.Metal.Weighted>
-0.0000

> <Gold.Chemscore.Lipo.Weighted>
-6.8499

> <Gold.Chemscore.Internal_Hbond.Weighted>
0.0000

> <Gold.Chemscore.DEClash.Weighted>
1.0750

> <Gold.Chemscore.DEInternal.Weighted>
0.1844

> <Gold.Chemscore.Rot.Weighted>
5.5591

> <Gold.Chemscore.Internal.Correction.Weighted>
   9.000000E+99

> <Gold.Protein.RotatedTorsions>
[ 6907 6896 6895 6894 ] final  -46.94 input  -60.11 | X-H torsion
[ 7974 7965 7964 7962 ] final  -20.81 input  175.53 | X-H torsion
[ 8008 7997 7996 7995 ] final  126.07 input   59.86 | X-H torsion
[ 10167 10162 10161 10158 ] final   35.94 input  -65.29 | X-H torsion
[ 10718 10713 10712 10709 ] final   -8.46 input   66.30 | X-H torsion
[ 10763 10752 10751 10750 ] final   81.68 input  -60.55 | X-H torsion
[ 11005 11000 10999 10996 ] final -121.11 input  -57.11 | X-H torsion

> <Gold.Protein.ActiveResidues>
 VAL166  LYS551  ARG553  GLY616  TRP617  ASP618  TYR619  PRO620  LYS621  CYS622 
 ASP623  PHE694  ASN695  SER759  ASP760  ASP761  ALA762  ILE779  LEU786  VAL792 
 PHE793  MET794  SER795  GLU796  ALA797  LYS798  CYS799  TRP800  GLU811  SER814 

> <Gold.Protein.RotatedAtoms>
  150.9060  134.8475  159.7392 H   0  0  0  0  0  0  0  0  0  0  0  0  # atno 6907 bound_to 6896
  152.4918  134.4431  159.9560 H   0  0  0  0  0  0  0  0  0  0  0  0  # atno 6908 bound_to 6896
  151.4478  133.3586  159.2826 H   0  0  0  0  0  0  0  0  0  0  0  0  # atno 6909 bound_to 6896
  146.1767  140.4254  142.8510 H   0  0  0  0  0  0  0  0  0  0  0  0  # atno 7974 bound_to 7965
  156.2853  140.2701  156.2051 H   0  0  0  0  0  0  0  0  0  0  0  0  # atno 8008 bound_to 7997
  155.0322  140.0386  157.2496 H   0  0  0  0  0  0  0  0  0  0  0  0  # atno 8009 bound_to 7997
  154.7345  140.2713  155.6432 H   0  0  0  0  0  0  0  0  0  0  0  0  # atno 8010 bound_to 7997
  140.4174  144.1507  150.6144 H   0  0  0  0  0  0  0  0  0  0  0  0  # atno 10167 bound_to 10162
  156.7022  130.5097  149.5914 H   0  0  0  0  0  0  0  0  0  0  0  0  # atno 10718 bound_to 10713
  153.1138  135.4756  154.9080 H   0  0  0  0  0  0  0  0  0  0  0  0  # atno 10763 bound_to 10752
  154.7507  135.3105  154.8564 H   0  0  0  0  0  0  0  0  0  0  0  0  # atno 10764 bound_to 10752
  153.9146  135.6861  153.4803 H   0  0  0  0  0  0  0  0  0  0  0  0  # atno 10765 bound_to 10752
  141.0095  134.0286  157.3433 H   0  0  0  0  0  0  0  0  0  0  0  0  # atno 11005 bound_to 11000
  144.8248  140.6610  143.6329 LP  0  0  0  0  0  0  0  0  0  0  0  0  # atno 17320 bound_to 7965
  145.4191  139.1567  143.4084 LP  0  0  0  0  0  0  0  0  0  0  0  0  # atno 17321 bound_to 7965
  140.4571  143.2463  151.9270 LP  0  0  0  0  0  0  0  0  0  0  0  0  # atno 17342 bound_to 10162
  139.4782  144.5504  151.8394 LP  0  0  0  0  0  0  0  0  0  0  0  0  # atno 17343 bound_to 10162
  156.1720  130.6443  151.0849 LP  0  0  0  0  0  0  0  0  0  0  0  0  # atno 17370 bound_to 10713
  157.6968  131.0791  150.6943 LP  0  0  0  0  0  0  0  0  0  0  0  0  # atno 17371 bound_to 10713
  139.9081  135.0184  156.7576 LP  0  0  0  0  0  0  0  0  0  0  0  0  # atno 17394 bound_to 11000
  140.6758  133.9519  155.7882 LP  0  0  0  0  0  0  0  0  0  0  0  0  # atno 17395 bound_to 11000

$$$$
