AV-unprocessed.smi:2929|AV-procd|sdf|11239|dock7
  -GOLD-   2272016133D 1   1.00000     0.00000
 Structure written by MMmdl.
 33 34  0  0  0  0  0  0  0  0  1 V2000
  153.6010  130.1712  156.7277 C   0  0  0  0  0  0  0  0  0  0  0  0
  152.1617  131.0842  157.4179 S   0  0  0  0  0  0  0  0  0  0  0  0
  151.5039  130.2117  158.4032 O   0  0  0  0  0  0  0  0  0  0  0  0
  152.6156  132.4239  157.8227 O   0  0  0  0  0  0  0  0  0  0  0  0
  151.0673  131.2735  156.0152 C   0  0  0  0  0  0  0  0  0  0  0  0
  150.7633  130.1694  155.1940 C   0  0  0  0  0  0  0  0  0  0  0  0
  149.9325  130.3812  154.0772 C   0  0  0  0  0  0  0  0  0  0  0  0
  149.4430  131.6870  153.8245 C   0  0  0  0  0  0  0  0  0  0  0  0
  148.6102  132.0402  152.7274 N   0  0  0  0  0  0  0  0  0  0  0  0
  147.6696  132.9976  152.6506 C   0  0  0  0  0  0  0  0  0  0  0  0
  147.3714  133.7809  153.5516 O   0  0  0  0  0  0  0  0  0  0  0  0
  147.0899  133.0078  151.4422 N   0  0  0  0  0  0  0  0  0  0  0  0
  146.0249  133.9155  151.0355 C   0  0  0  0  0  0  0  0  0  0  0  0
  144.9205  133.2748  150.2172 C   0  0  0  0  0  0  0  0  0  0  0  0
  144.4598  131.8694  150.5256 C   0  0  0  0  0  0  0  0  0  0  0  0
  145.2136  132.1517  149.2490 C   0  0  0  0  0  0  0  0  0  0  0  0
  149.8367  132.7189  154.7037 C   0  0  0  0  0  0  0  0  0  0  0  0
  150.6342  132.5291  155.7755 N   0  0  0  0  0  0  0  0  0  0  0  0
  154.3354  130.0031  157.5148 H   0  0  0  0  0  0  0  0  0  0  0  0
  154.0532  130.7574  155.9278 H   0  0  0  0  0  0  0  0  0  0  0  0
  153.2667  129.2128  156.3312 H   0  0  0  0  0  0  0  0  0  0  0  0
  151.1557  129.1862  155.4065 H   0  0  0  0  0  0  0  0  0  0  0  0
  149.7053  129.5435  153.4375 H   0  0  0  0  0  0  0  0  0  0  0  0
  148.7783  131.5213  151.8778 H   0  0  0  0  0  0  0  0  0  0  0  0
  147.3998  132.3332  150.7581 H   0  0  0  0  0  0  0  0  0  0  0  0
  145.5968  134.4087  151.9102 H   0  0  0  0  0  0  0  0  0  0  0  0
  146.4774  134.7039  150.4338 H   0  0  0  0  0  0  0  0  0  0  0  0
  144.1329  133.9681  149.9275 H   0  0  0  0  0  0  0  0  0  0  0  0
  144.9843  131.3224  151.3066 H   0  0  0  0  0  0  0  0  0  0  0  0
  143.3947  131.6613  150.4452 H   0  0  0  0  0  0  0  0  0  0  0  0
  144.6521  132.1348  148.3171 H   0  0  0  0  0  0  0  0  0  0  0  0
  146.2392  131.7940  149.1815 H   0  0  0  0  0  0  0  0  0  0  0  0
  149.5016  133.7330  154.5418 H   0  0  0  0  0  0  0  0  0  0  0  0
  1  2  1  0  0  0  0
  1 19  1  0  0  0  0
  1 20  1  0  0  0  0
  1 21  1  0  0  0  0
  2  3  2  0  0  0  0
  2  4  2  0  0  0  0
  2  5  1  0  0  0  0
  5 18  1  0  0  0  0
  5  6  2  0  0  0  0
  6  7  1  0  0  0  0
  6 22  1  0  0  0  0
  7  8  2  0  0  0  0
  7 23  1  0  0  0  0
  8  9  1  0  0  0  0
  8 17  1  0  0  0  0
  9 10  1  0  0  0  0
  9 24  1  0  0  0  0
 10 11  2  0  0  0  0
 10 12  1  0  0  0  0
 12 13  1  0  0  0  0
 12 25  1  0  0  0  0
 13 14  1  0  0  0  0
 13 26  1  0  0  0  0
 13 27  1  0  0  0  0
 14 16  1  0  0  0  0
 14 15  1  0  0  0  0
 14 28  1  0  0  0  0
 15 16  1  0  0  0  0
 15 29  1  0  0  0  0
 15 30  1  0  0  0  0
 16 31  1  0  0  0  0
 16 32  1  0  0  0  0
 17 18  2  0  0  0  0
 17 33  1  0  0  0  0
M  END
> <s_m_source_file>
AV-unprocessed.smi

> <i_m_source_file_index>
2929

> <i_lp_mmshare_version>
43012

> <i_f3d_flags>
0

> <s_epik_input>
W0NIM11TKD1PKSg9TyljMVtjSF1bY0hdYyhbY0hdbjEpW05IXUMoPU8pW05IXVtDSDJdW0NIXTJbQ0gyXVtDSDJdMg==

> <s_epik_cmdline>
J2VwaWtfcHl0aG9uJywgJy1waCcsICc3LjAnLCAnLXRuJywgJzgnLCAnLW1hJywgJzIwMCcsICctbWV0YWxfYmluZGluZycsICctaW1hZScsICc8aW5maWxlLm1hZT4nLCAnLW9tYWUnLCAnPG91dGZpbGUubWFlPic=

> <r_lp_tautomer_probability>
1

> <r_epik_Ionization_Penalty>
4.04513e-05

> <r_epik_Ionization_Penalty_Charging>
0

> <r_epik_Ionization_Penalty_Neutral>
4.04513e-05

> <r_epik_State_Penalty>
-0

> <r_epik_Charging_Adjusted_Penalty>
0

> <i_epik_Tot_Q>
0

> <i_epik_Tot_abs_Q>
0

> <r_epik_Metal_State_Penalty>
-0

> <b_epik_Metal_Only>
0

> <s_lp_Force_Field>
OPLS_2005

> <r_lp_Energy>
13.7936

> <b_lp_Chiralities_Consistent>
1

> <s_lp_Variant>
AV-unprocessed.smi:2929-1

> <Gold.Version>
5.8.1

> <Gold.Id.Protein>
6NUR|6NUR_protein|mol2

> <Gold.PLP.Fitness>
38.0429

> <Gold.PLP.PLP>
-30.9895

> <Gold.PLP.part.hbond>
-2.9326

> <Gold.PLP.part.metal>
0.0000

> <Gold.PLP.part.buried>
-4.1061

> <Gold.PLP.part.nonpolar>
-22.4457

> <Gold.PLP.part.repulsive>
0.1693

> <Gold.PLP.ligand.clash>
0.0000

> <Gold.PLP.ligand.torsion>
1.7034

> <Gold.PLP.Chemscore.Hbond>
2.6334

> <Gold.PLP.Chemscore.CHOScore>
0.0000

> <Gold.PLP.Chemscore.Metal>
0.0000

> <Gold.Chemscore.Hbonds>
donor molecule, donor type, donor heavy atom, donor atom, acceptor molecule, acceptor atom, score
      L1  H     9    24       P1 10747  1.00
      L1  H    12    25       P1 10747  0.50
      P1  H  6896  6908       L1     4  1.00

> <Gold.PLP.Chemscore.Internal.Correction>
2.5601

> <Gold.Rescore>
     Score         DG    S(hbond)    S(metal)    S(lipo)     H(rot)  DE(clash)    DE(int)     intcor
     15.77     -18.79       2.67        0.00      64.50       1.23       0.03       2.99       ----

> <Gold.Chemscore.Fitness>
15.7730

> <Gold.Chemscore.DG>
-18.7904

> <Gold.Chemscore.ZeroCoef>
-5.4800

> <Gold.Chemscore.Hbond>
2.6722

> <Gold.Chemscore.Metal>
0.0000

> <Gold.Chemscore.Lipo>
64.5031

> <Gold.Chemscore.Internal_Hbond>
0.0000

> <Gold.Chemscore.DEClash>
0.0309

> <Gold.Chemscore.DEInternal>
2.9865

> <Gold.Chemscore.Rot>
1.2350

> <Gold.Chemscore.Internal.Correction>
   9.000000E+99

> <Gold.Chemscore.Hbonds>
donor molecule, donor type, donor heavy atom, donor atom, acceptor molecule, acceptor atom, score
      L1  H     9    24       P1 10747  0.94
      L1  H    12    25       P1 10747  0.50
      P1  H  6896  6908       L1     4  0.95

> <Gold.Chemscore.Hbond.Weighted>
-8.9252

> <Gold.Chemscore.Metal.Weighted>
-0.0000

> <Gold.Chemscore.Lipo.Weighted>
-7.5469

> <Gold.Chemscore.Internal_Hbond.Weighted>
0.0000

> <Gold.Chemscore.DEClash.Weighted>
0.0309

> <Gold.Chemscore.DEInternal.Weighted>
2.9865

> <Gold.Chemscore.Rot.Weighted>
3.1616

> <Gold.Chemscore.Internal.Correction.Weighted>
   9.000000E+99

> <Gold.Protein.RotatedTorsions>
[ 6907 6896 6895 6894 ] final   28.53 input  -60.11 | X-H torsion
[ 7974 7965 7964 7962 ] final  176.17 input  175.53 | X-H torsion
[ 8008 7997 7996 7995 ] final  -91.64 input   59.86 | X-H torsion
[ 10167 10162 10161 10158 ] final -152.91 input  -65.29 | X-H torsion
[ 10718 10713 10712 10709 ] final  -36.90 input   66.30 | X-H torsion
[ 10763 10752 10751 10750 ] final -109.66 input  -60.55 | X-H torsion
[ 11005 11000 10999 10996 ] final  123.91 input  -57.11 | X-H torsion

> <Gold.Protein.ActiveResidues>
 VAL166  LYS551  ARG553  GLY616  TRP617  ASP618  TYR619  PRO620  LYS621  CYS622 
 ASP623  PHE694  ASN695  SER759  ASP760  ASP761  ALA762  ILE779  LEU786  VAL792 
 PHE793  MET794  SER795  GLU796  ALA797  LYS798  CYS799  TRP800  GLU811  SER814 

> <Gold.Protein.RotatedAtoms>
  152.0183  134.9837  160.0569 H   0  0  0  0  0  0  0  0  0  0  0  0  # atno 6907 bound_to 6896
  152.1362  133.4432  159.4753 H   0  0  0  0  0  0  0  0  0  0  0  0  # atno 6908 bound_to 6896
  150.6860  134.2279  159.4466 H   0  0  0  0  0  0  0  0  0  0  0  0  # atno 6909 bound_to 6896
  144.7189  140.0056  143.6440 H   0  0  0  0  0  0  0  0  0  0  0  0  # atno 7974 bound_to 7965
  154.7133  140.0517  157.0570 H   0  0  0  0  0  0  0  0  0  0  0  0  # atno 8008 bound_to 7997
  155.0526  140.3181  155.4668 H   0  0  0  0  0  0  0  0  0  0  0  0  # atno 8009 bound_to 7997
  156.2795  140.2113  156.5652 H   0  0  0  0  0  0  0  0  0  0  0  0  # atno 8010 bound_to 7997
  139.7141  143.9061  152.2479 H   0  0  0  0  0  0  0  0  0  0  0  0  # atno 10167 bound_to 10162
  156.3215  130.4266  149.7956 H   0  0  0  0  0  0  0  0  0  0  0  0  # atno 10718 bound_to 10713
  154.8206  135.4592  154.0767 H   0  0  0  0  0  0  0  0  0  0  0  0  # atno 10763 bound_to 10752
  153.2124  135.6883  153.8104 H   0  0  0  0  0  0  0  0  0  0  0  0  # atno 10764 bound_to 10752
  153.7551  135.3292  155.3304 H   0  0  0  0  0  0  0  0  0  0  0  0  # atno 10765 bound_to 10752
  139.9334  134.9640  156.8330 H   0  0  0  0  0  0  0  0  0  0  0  0  # atno 11005 bound_to 11000
  146.0300  139.3326  143.0761 LP  0  0  0  0  0  0  0  0  0  0  0  0  # atno 17320 bound_to 7965
  145.8464  140.9553  143.0772 LP  0  0  0  0  0  0  0  0  0  0  0  0  # atno 17321 bound_to 7965
  139.8939  144.6950  150.8740 LP  0  0  0  0  0  0  0  0  0  0  0  0  # atno 17342 bound_to 10162
  140.7740  143.3565  151.1911 LP  0  0  0  0  0  0  0  0  0  0  0  0  # atno 17343 bound_to 10162
  156.5262  130.8237  151.3221 LP  0  0  0  0  0  0  0  0  0  0  0  0  # atno 17370 bound_to 10713
  157.7412  130.9866  150.2433 LP  0  0  0  0  0  0  0  0  0  0  0  0  # atno 17371 bound_to 10713
  140.6140  134.0056  155.7589 LP  0  0  0  0  0  0  0  0  0  0  0  0  # atno 17394 bound_to 11000
  141.0935  133.9879  157.3198 LP  0  0  0  0  0  0  0  0  0  0  0  0  # atno 17395 bound_to 11000

$$$$
