#       Name:                AV-unprocessed.smi:3345
#       Creating user name   scv26
#       Creation time:       Fri Mar 27 19:31:44 2020


#       File generated by GOLD software.
#

@<TRIPOS>MOLECULE
AV-unprocessed.smi:3345
    47    48     1
SMALL
NO_CHARGES


@<TRIPOS>ATOM
      1 ****        -1.7373  -0.9743  -2.6898 C.3            1 S1                 0.0000
      2 ****        -1.3275  -0.3863  -1.3328 C.3            1 S1                 0.0000
      3 ****        -2.0434  -1.1101  -0.1688 C.3            1 S1                 0.0000
      4 ****        -1.7014  -0.5504   1.1633 N.4            1 S1                 1.0000
      5 ****        -2.4275   0.7025   1.4835 C.3            1 S1                 0.0000
      6 ****        -1.9543   1.2574   2.8370 C.3            1 S1                 0.0000
      7 ****        -2.1528   0.2761   3.8477 O.3            1 S1                 0.0000
      8 ****        -1.4051  -0.9075   3.5966 C.3            1 S1                 0.0000
      9 ****        -1.8525  -1.5311   2.2633 C.3            1 S1                 0.0000
     10 ****         0.1275  -0.4692  -1.2007 N.am           1 S1                 0.0000
     11 ****         0.9186   0.4235  -0.5826 C.2            1 S1                 0.0000
     12 ****         0.4845   1.4196  -0.0032 O.2            1 S1                 0.0000
     13 ****         2.4273   0.1394  -0.6240 C.3            1 S1                 0.0000
     14 ****         3.1448   0.5905   0.6644 C.3            1 S1                 0.0000
     15 ****         3.0137   0.7284  -1.8214 N.pl3          1 S1                 0.0000
     16 ****         3.2631   0.1796  -3.0125 C.2            1 S1                 0.0000
     17 ****         3.7606   1.0264  -3.9027 N.2            1 S1                 0.0000
     18 ****         3.7848   2.1639  -3.1470 C.2            1 S1                 0.0000
     19 ****         3.3370   2.0437  -1.8974 N.2            1 S1                 0.0000
     20 ****        -2.8142  -0.8958  -2.8415 H              1 S1                 0.0000
     21 ****        -1.4671  -2.0282  -2.7665 H              1 S1                 0.0000
     22 ****        -1.2513  -0.4450  -3.5104 H              1 S1                 0.0000
     23 ****        -1.6262   0.6629  -1.3425 H              1 S1                 0.0000
     24 ****        -3.1256  -1.0880  -0.3064 H              1 S1                 0.0000
     25 ****        -1.7570  -2.1626  -0.1990 H              1 S1                 0.0000
     26 ****        -2.2596   1.4491   0.7079 H              1 S1                 0.0000
     27 ****        -3.5009   0.5092   1.5141 H              1 S1                 0.0000
     28 ****        -0.9030   1.5471   2.7928 H              1 S1                 0.0000
     29 ****        -2.5210   2.1517   3.0963 H              1 S1                 0.0000
     30 ****        -0.3378  -0.6805   3.5813 H              1 S1                 0.0000
     31 ****        -1.5698  -1.6100   4.4138 H              1 S1                 0.0000
     32 ****        -2.8931  -1.8532   2.3283 H              1 S1                 0.0000
     33 ****        -1.2525  -2.4178   2.0557 H              1 S1                 0.0000
     34 ****         0.5739  -1.2571  -1.6478 H              1 S1                 0.0000
     35 ****         2.5593  -0.9412  -0.7033 H              1 S1                 0.0000
     36 ****         2.7220   0.0993   1.5414 H              1 S1                 0.0000
     37 ****         3.0706   1.6671   0.8225 H              1 S1                 0.0000
     38 ****         4.2044   0.3359   0.6272 H              1 S1                 0.0000
     39 ****         3.0728  -0.8601  -3.2350 H              1 S1                 0.0000
     40 ****         4.1355   3.1104  -3.5314 H              1 S1                 0.0000
     41 ****        -0.7190  -0.3172   1.1278 H              1 S1                 0.0000
     42 ****        -3.1244   0.0424   3.8842 LP             1 S1                 0.0000
     43 ****        -1.8684   0.6570   4.7276 LP             1 S1                 0.0000
     44 ****        -0.4999   1.5940   0.0222 LP             1 S1                 0.0000
     45 ****         1.1163   2.0542   0.4420 LP             1 S1                 0.0000
     46 ****         4.0377   0.8762  -4.8517 LP             1 S1                 0.0000
     47 ****         3.2588   2.7478  -1.1916 LP             1 S1                 0.0000
@<TRIPOS>BOND
    1    1    2 1     
    2    1   20 1     
    3    1   21 1     
    4    1   22 1     
    5    2    3 1     
    6    2   10 1     
    7    2   23 1     
    8    3    4 1     
    9    3   24 1     
   10    3   25 1     
   11    4    9 1     
   12    4    5 1     
   13    4   41 1     
   14    5    6 1     
   15    5   26 1     
   16    5   27 1     
   17    6    7 1     
   18    6   28 1     
   19    6   29 1     
   20    7    8 1     
   21    8    9 1     
   22    8   30 1     
   23    8   31 1     
   24    9   32 1     
   25    9   33 1     
   26   10   11 am    
   27   10   34 1     
   28   11   12 2     
   29   11   13 1     
   30   13   14 1     
   31   13   15 1     
   32   13   35 1     
   33   14   36 1     
   34   14   37 1     
   35   14   38 1     
   36   15   19 1     
   37   15   16 1     
   38   16   17 2     
   39   16   39 1     
   40   17   18 1     
   41   18   19 2     
   42   18   40 1     
   43    7   42 1     
   44    7   43 1     
   45   12   44 1     
   46   12   45 1     
   47   17   46 1     
   48   19   47 1     
@<TRIPOS>SUBSTRUCTURE
      1 S1             1
@<TRIPOS>SET
LONE_PAIRS      STATIC     ATOMS    <user>   **** ""
6 42 43 44 45 46 47
DONOR_HYDROGENS      STATIC     ATOMS    <user>   **** ""
2 41 34
ATOM$BLUE        STATIC     ATOMS    COLORGROUP SYSTEM
6 42 43 44 45 46 47
ATOM$RED        STATIC     ATOMS    COLORGROUP SYSTEM
2 41 34
