#       Name:                AV-unprocessed.smi:568
#       Creating user name   scv26
#       Creation time:       Thu Mar 26 23:46:14 2020


#       File generated by GOLD software.
#

@<TRIPOS>MOLECULE
AV-unprocessed.smi:568
    42    43     1
SMALL
NO_CHARGES


@<TRIPOS>ATOM
      1 ****        -2.9321   3.1113   1.4459 C.3            1 S1                 0.0000
      2 ****        -3.2711   1.6484   1.4190 C.2            1 S1                 0.0000
      3 ****        -4.5303   1.2813   1.2514 N.2            1 S1                 0.0000
      4 ****        -4.5281  -0.1164   1.2696 O.3            1 S1                 0.0000
      5 ****        -3.2525  -0.5419   1.4507 C.2            1 S1                 0.0000
      6 ****        -3.0467  -2.0181   1.4955 C.3            1 S1                 0.0000
      7 ****        -2.4032   0.5259   1.5551 C.2            1 S1                 0.0000
      8 ****        -0.9101   0.5264   1.7607 C.3            1 S1                 0.0000
      9 ****        -0.2068   0.5533   0.4035 C.2            1 S1                 0.0000
     10 ****        -0.0358   1.6242  -0.1787 O.2            1 S1                 0.0000
     11 ****         0.1896  -0.6305  -0.0896 N.am           1 S1                 0.0000
     12 ****         0.8587  -0.8350  -1.3706 C.3            1 S1                 0.0000
     13 ****         2.3918  -0.8677  -1.2228 C.3            1 S1                 0.0000
     14 ****         3.1252  -1.1536  -2.5173 C.3            1 S1                 0.0000
     15 ****         4.5398  -0.6781  -2.1970 C.3            1 S1                 0.0000
     16 ****         4.3955   0.3660  -1.2382 O.3            1 S1                 0.0000
     17 ****         3.0377   0.4589  -0.8193 C.3            1 S1                 0.0000
     18 ****        -1.8618   3.2759   1.3232 H              1 S1                 0.0000
     19 ****        -3.2305   3.5637   2.3917 H              1 S1                 0.0000
     20 ****        -3.4391   3.6486   0.6442 H              1 S1                 0.0000
     21 ****        -1.9877  -2.2696   1.4399 H              1 S1                 0.0000
     22 ****        -3.5513  -2.5040   0.6602 H              1 S1                 0.0000
     23 ****        -3.4449  -2.4348   2.4206 H              1 S1                 0.0000
     24 ****        -0.5893   1.3927   2.3401 H              1 S1                 0.0000
     25 ****        -0.5845  -0.3473   2.3266 H              1 S1                 0.0000
     26 ****         0.0050  -1.4557   0.4621 H              1 S1                 0.0000
     27 ****         0.5134  -1.7881  -1.7716 H              1 S1                 0.0000
     28 ****         0.5557  -0.0750  -2.0929 H              1 S1                 0.0000
     29 ****         2.6704  -1.6301  -0.4931 H              1 S1                 0.0000
     30 ****         3.0876  -2.2032  -2.8098 H              1 S1                 0.0000
     31 ****         2.7078  -0.5577  -3.3305 H              1 S1                 0.0000
     32 ****         5.1201  -1.4841  -1.7462 H              1 S1                 0.0000
     33 ****         5.0719  -0.3333  -3.0839 H              1 S1                 0.0000
     34 ****         2.5717   1.2918  -1.3480 H              1 S1                 0.0000
     35 ****         2.9649   0.6541   0.2509 H              1 S1                 0.0000
     36 ****        -5.3222   1.8810   1.1353 LP             1 S1                 0.0000
     37 ****        -4.8803  -0.4657   0.4013 LP             1 S1                 0.0000
     38 ****        -5.1031  -0.4450   2.0189 LP             1 S1                 0.0000
     39 ****        -0.3568   2.4757   0.2360 LP             1 S1                 0.0000
     40 ****         0.4241   1.6429  -1.0665 LP             1 S1                 0.0000
     41 ****         4.6753   1.2338  -1.6490 LP             1 S1                 0.0000
     42 ****         4.9737   0.1704  -0.4462 LP             1 S1                 0.0000
@<TRIPOS>BOND
    1    1    2 1     
    2    1   18 1     
    3    1   19 1     
    4    1   20 1     
    5    2    7 1     
    6    2    3 2     
    7    3    4 1     
    8    4    5 1     
    9    5    6 1     
   10    5    7 2     
   11    6   21 1     
   12    6   22 1     
   13    6   23 1     
   14    7    8 1     
   15    8    9 1     
   16    8   24 1     
   17    8   25 1     
   18    9   10 2     
   19    9   11 am    
   20   11   12 1     
   21   11   26 1     
   22   12   13 1     
   23   12   27 1     
   24   12   28 1     
   25   13   17 1     
   26   13   14 1     
   27   13   29 1     
   28   14   15 1     
   29   14   30 1     
   30   14   31 1     
   31   15   16 1     
   32   15   32 1     
   33   15   33 1     
   34   16   17 1     
   35   17   34 1     
   36   17   35 1     
   37    3   36 1     
   38    4   37 1     
   39    4   38 1     
   40   10   39 1     
   41   10   40 1     
   42   16   41 1     
   43   16   42 1     
@<TRIPOS>SUBSTRUCTURE
      1 S1             1
@<TRIPOS>SET
LONE_PAIRS      STATIC     ATOMS    <user>   **** ""
7 36 37 38 39 40 41 42
DONOR_HYDROGENS      STATIC     ATOMS    <user>   **** ""
1 26
ATOM$BLUE        STATIC     ATOMS    COLORGROUP SYSTEM
7 36 37 38 39 40 41 42
ATOM$RED        STATIC     ATOMS    COLORGROUP SYSTEM
1 26
