#       Name:                AV-unprocessed.smi:38
#       Creating user name   scv26
#       Creation time:       Thu Mar 26 16:18:55 2020


#       File generated by GOLD software.
#

@<TRIPOS>MOLECULE
AV-unprocessed.smi:38
    38    39     1
SMALL
NO_CHARGES


@<TRIPOS>ATOM
      1 ****        -4.3510   2.8172  -1.7228 O.2            1 S1                 0.0000
      2 ****        -3.4001   2.3230  -1.1191 C.2            1 S1                 0.0000
      3 ****        -3.3262   2.2904   0.2429 N.pl3          1 S1                -1.0000
      4 ****        -2.2687   1.7428   0.9109 C.2            1 S1                 0.0000
      5 ****        -2.1996   1.6973   2.1395 O.2            1 S1                 0.0000
      6 ****        -1.1932   1.1914   0.1623 N.am           1 S1                 0.0000
      7 ****        -0.0243   0.5779   0.9023 C.3            1 S1                 0.0000
      8 ****        -0.3660  -0.8516   1.3546 C.3            1 S1                 0.0000
      9 ****         0.9014  -1.6129   1.0182 C.3            1 S1                 0.0000
     10 ****         0.6261  -2.9749   0.7619 O.3            1 S1                 0.0000
     11 ****         1.3724  -0.8657  -0.2309 C.3            1 S1                 0.0000
     12 ****         2.8442  -1.0427  -0.6458 C.3            1 S1                 0.0000
     13 ****         3.7255  -0.9383   0.4534 O.3            1 S1                 0.0000
     14 ****         1.0826   0.4989   0.0481 O.3            1 S1                 0.0000
     15 ****        -1.2462   1.2017  -1.2220 C.2            1 S1                 0.0000
     16 ****        -2.2949   1.7399  -1.8773 C.2            1 S1                 0.0000
     17 ****        -2.3183   1.7346  -3.2213 F              1 S1                 0.0000
     18 ****         0.2164   1.2589   1.7201 H              1 S1                 0.0000
     19 ****         1.6136  -1.5173   1.8382 H              1 S1                 0.0000
     20 ****         0.7404  -1.1497  -1.0745 H              1 S1                 0.0000
     21 ****        -0.6273  -0.8795   2.4129 H              1 S1                 0.0000
     22 ****        -1.2102  -1.2268   0.7723 H              1 S1                 0.0000
     23 ****         1.4355  -3.4055   0.5329 H              1 S1                 0.0000
     24 ****         2.9827  -2.0291  -1.0888 H              1 S1                 0.0000
     25 ****         3.1180  -0.3109  -1.4061 H              1 S1                 0.0000
     26 ****         4.6108  -1.0442   0.1402 H              1 S1                 0.0000
     27 ****        -0.4433   0.7741  -1.8023 H              1 S1                 0.0000
     28 ****        -4.3628   2.8175  -2.7227 LP             1 S1                 0.0000
     29 ****        -5.1123   3.2188  -1.2137 LP             1 S1                 0.0000
     30 ****        -4.0771   2.6836   0.7735 LP             1 S1                 0.0000
     31 ****        -2.9407   2.0727   2.6962 LP             1 S1                 0.0000
     32 ****        -1.4024   1.2850   2.5805 LP             1 S1                 0.0000
     33 ****        -0.0229  -3.0514   0.0050 LP             1 S1                 0.0000
     34 ****         0.2369  -3.4002   1.5790 LP             1 S1                 0.0000
     35 ****         3.5167  -1.6522   1.1218 LP             1 S1                 0.0000
     36 ****         3.6247  -0.0405   0.8822 LP             1 S1                 0.0000
     37 ****         1.8736   0.9242   0.4879 LP             1 S1                 0.0000
     38 ****         0.8789   0.9775  -0.8060 LP             1 S1                 0.0000
@<TRIPOS>BOND
    1    1    2 2     
    2    2   16 1     
    3    2    3 1     
    4    3    4 1     
    5    4    5 2     
    6    4    6 am    
    7    6    7 1     
    8    6   15 1     
    9    7   18 1     
   10    7   14 1     
   11    7    8 1     
   12    8    9 1     
   13    8   21 1     
   14    8   22 1     
   15    9   19 1     
   16    9   10 1     
   17    9   11 1     
   18   10   23 1     
   19   11   20 1     
   20   11   12 1     
   21   11   14 1     
   22   12   13 1     
   23   12   24 1     
   24   12   25 1     
   25   13   26 1     
   26   15   16 2     
   27   15   27 1     
   28   16   17 1     
   29    1   28 1     
   30    1   29 1     
   31    3   30 1     
   32    5   31 1     
   33    5   32 1     
   34   10   33 1     
   35   10   34 1     
   36   13   35 1     
   37   13   36 1     
   38   14   37 1     
   39   14   38 1     
@<TRIPOS>SUBSTRUCTURE
      1 S1             1
@<TRIPOS>SET
LONE_PAIRS      STATIC     ATOMS    <user>   **** ""
11 28 29 30 31 32 33 34 35 36 37 38
DONOR_HYDROGENS      STATIC     ATOMS    <user>   **** ""
2 23 26
ATOM$BLUE        STATIC     ATOMS    COLORGROUP SYSTEM
11 28 29 30 31 32 33 34 35 36 37 38
ATOM$RED        STATIC     ATOMS    COLORGROUP SYSTEM
2 23 26
