#       Name:                AV-unprocessed.smi:1205
#       Creating user name   scv26
#       Creation time:       Fri Mar 27 04:06:28 2020


#       File generated by GOLD software.
#

@<TRIPOS>MOLECULE
AV-unprocessed.smi:1205
    52    53     1
SMALL
NO_CHARGES


@<TRIPOS>ATOM
      1 ****        -6.1894   3.6717   0.1245 C.3            1 S1                 0.0000
      2 ****        -5.5222   2.3762  -0.2329 C.2            1 S1                 0.0000
      3 ****        -4.1265   2.0921  -0.2839 C.2            1 S1                 0.0000
      4 ****        -4.1006   0.7778  -0.6630 C.2            1 S1                 0.0000
      5 ****        -3.0274  -0.0283  -0.8799 N.am           1 S1                 0.0000
      6 ****        -1.7233   0.2422  -0.6968 C.2            1 S1                 0.0000
      7 ****        -1.2630   1.3074  -0.2851 O.2            1 S1                 0.0000
      8 ****        -0.9599  -0.8131  -1.0146 N.am           1 S1                 0.0000
      9 ****         0.4962  -0.8472  -0.9202 C.3            1 S1                 0.0000
     10 ****         0.9929  -1.0180   0.5387 C.3            1 S1                 0.0000
     11 ****         0.4504  -2.2975   1.2038 C.3            1 S1                 0.0000
     12 ****         2.4781  -0.9471   0.6660 N.4            1 S1                 1.0000
     13 ****         3.2390  -1.8847  -0.2043 C.3            1 S1                 0.0000
     14 ****         4.7259  -1.8981   0.1829 C.3            1 S1                 0.0000
     15 ****         5.3209  -0.4853   0.1156 C.3            1 S1                 0.0000
     16 ****         4.5029   0.4825   0.9882 C.3            1 S1                 0.0000
     17 ****         5.0628   1.9101   0.9188 C.3            1 S1                 0.0000
     18 ****         3.0149   0.4381   0.5850 C.3            1 S1                 0.0000
     19 ****        -5.3949   0.3346  -0.8220 N.pl3          1 S1                 0.0000
     20 ****        -5.8804  -0.9730  -1.2183 C.3            1 S1                 0.0000
     21 ****        -6.2708   1.3270  -0.5543 N.2            1 S1                 0.0000
     22 ****        -5.4549   4.4358   0.3804 H              1 S1                 0.0000
     23 ****        -6.8522   3.5494   0.9811 H              1 S1                 0.0000
     24 ****        -6.7842   4.0492  -0.7076 H              1 S1                 0.0000
     25 ****        -3.3015   2.7568  -0.0768 H              1 S1                 0.0000
     26 ****        -3.2483  -0.9561  -1.2106 H              1 S1                 0.0000
     27 ****        -1.4168  -1.6498  -1.3474 H              1 S1                 0.0000
     28 ****         0.8336  -1.6788  -1.5384 H              1 S1                 0.0000
     29 ****         0.9045   0.0583  -1.3710 H              1 S1                 0.0000
     30 ****         0.5941  -0.1913   1.1284 H              1 S1                 0.0000
     31 ****        -0.6371  -2.2745   1.2772 H              1 S1                 0.0000
     32 ****         0.8374  -2.4069   2.2174 H              1 S1                 0.0000
     33 ****         0.7179  -3.1940   0.6450 H              1 S1                 0.0000
     34 ****         2.8409  -2.8951  -0.1176 H              1 S1                 0.0000
     35 ****         3.1396  -1.5908  -1.2499 H              1 S1                 0.0000
     36 ****         4.8400  -2.2980   1.1914 H              1 S1                 0.0000
     37 ****         5.2773  -2.5658  -0.4796 H              1 S1                 0.0000
     38 ****         6.3611  -0.5048   0.4431 H              1 S1                 0.0000
     39 ****         5.3263  -0.1397  -0.9191 H              1 S1                 0.0000
     40 ****         4.5809   0.1505   2.0248 H              1 S1                 0.0000
     41 ****         5.0208   2.3041  -0.0971 H              1 S1                 0.0000
     42 ****         6.1030   1.9395   1.2446 H              1 S1                 0.0000
     43 ****         4.4979   2.5858   1.5617 H              1 S1                 0.0000
     44 ****         2.8890   0.8258  -0.4268 H              1 S1                 0.0000
     45 ****         2.4459   1.0919   1.2474 H              1 S1                 0.0000
     46 ****        -5.3609  -1.7468  -0.6526 H              1 S1                 0.0000
     47 ****        -5.6970  -1.1235  -2.2825 H              1 S1                 0.0000
     48 ****        -6.9510  -1.0580  -1.0271 H              1 S1                 0.0000
     49 ****         2.6680  -1.2411   1.6135 H              1 S1                 0.0000
     50 ****        -1.8775   2.0622  -0.0556 LP             1 S1                 0.0000
     51 ****        -0.2747   1.4177  -0.1802 LP             1 S1                 0.0000
     52 ****        -7.2691   1.2817  -0.5903 LP             1 S1                 0.0000
@<TRIPOS>BOND
    1    1    2 1     
    2    1   22 1     
    3    1   23 1     
    4    1   24 1     
    5    2   21 2     
    6    2    3 1     
    7    3    4 2     
    8    3   25 1     
    9    4    5 1     
   10    4   19 1     
   11    5    6 am    
   12    5   26 1     
   13    6    7 2     
   14    6    8 am    
   15    8    9 1     
   16    8   27 1     
   17    9   10 1     
   18    9   28 1     
   19    9   29 1     
   20   10   11 1     
   21   10   12 1     
   22   10   30 1     
   23   11   31 1     
   24   11   32 1     
   25   11   33 1     
   26   12   18 1     
   27   12   13 1     
   28   12   49 1     
   29   13   14 1     
   30   13   34 1     
   31   13   35 1     
   32   14   15 1     
   33   14   36 1     
   34   14   37 1     
   35   15   16 1     
   36   15   38 1     
   37   15   39 1     
   38   16   17 1     
   39   16   18 1     
   40   16   40 1     
   41   17   41 1     
   42   17   42 1     
   43   17   43 1     
   44   18   44 1     
   45   18   45 1     
   46   19   20 1     
   47   19   21 1     
   48   20   46 1     
   49   20   47 1     
   50   20   48 1     
   51    7   50 1     
   52    7   51 1     
   53   21   52 1     
@<TRIPOS>SUBSTRUCTURE
      1 S1             1
@<TRIPOS>SET
LONE_PAIRS      STATIC     ATOMS    <user>   **** ""
3 50 51 52
DONOR_HYDROGENS      STATIC     ATOMS    <user>   **** ""
3 26 27 49
ATOM$BLUE        STATIC     ATOMS    COLORGROUP SYSTEM
3 50 51 52
ATOM$RED        STATIC     ATOMS    COLORGROUP SYSTEM
3 26 27 49
