AV-unprocessed.smi:1033|AV-procd|sdf|4490|dock5
  -GOLD-   22720 2473D 1   1.00000     0.00000
 Structure written by MMmdl.
 56 58  0  0  0  0  0  0  0  0  2 V2000
  153.5979  143.0734  163.6036 C   0  0  0  0  0  0  0  0  0  0  0  0
  153.1420  143.0413  162.1554 C   0  0  0  0  0  0  0  0  0  0  0  0
  152.3303  144.0899  161.6674 C   0  0  0  0  0  0  0  0  0  0  0  0
  151.8825  144.0954  160.3284 C   0  0  0  0  0  0  0  0  0  0  0  0
  151.0879  145.0037  159.6504 N   0  0  0  0  0  0  0  0  0  0  0  0
  151.0243  144.4546  158.4413 C   0  0  0  0  0  0  0  0  0  0  0  0
  151.6816  143.2937  158.2554 N   0  0  0  0  0  0  0  0  0  0  0  0
  151.7432  142.5147  157.0314 C   0  0  0  0  0  0  0  0  0  0  0  0
  150.4642  141.6872  156.8003 C   0  0  2  0  0  0  0  0  0  0  0  0
  150.2504  140.8387  157.9121 O   0  0  0  0  0  0  0  0  0  0  0  0
  150.5643  140.8203  155.5295 C   0  0  0  0  0  0  0  0  0  0  0  0
  149.2368  140.4946  154.9486 N   0  3  0  0  0  0  0  0  0  0  0  0
  148.5376  141.6955  154.4235 C   0  0  0  0  0  0  0  0  0  0  0  0
  147.2066  141.2932  153.7558 C   0  0  0  0  0  0  0  0  0  0  0  0
  146.3108  140.5592  154.6491 N   0  0  0  0  0  0  0  0  0  0  0  0
  145.7161  141.4135  155.6841 C   0  0  0  0  0  0  0  0  0  0  0  0
  144.7877  142.5317  155.1694 C   0  0  2  0  0  0  0  0  0  0  0  0
  144.7131  143.7339  156.1219 C   0  0  0  0  0  0  0  0  0  0  0  0
  143.4893  141.9930  155.0396 O   0  0  0  0  0  0  0  0  0  0  0  0
  147.0225  139.3845  155.1591 C   0  0  0  0  0  0  0  0  0  0  0  0
  148.3487  139.7311  155.8660 C   0  0  0  0  0  0  0  0  0  0  0  0
  152.2727  143.0153  159.4835 C   0  0  0  0  0  0  0  0  0  0  0  0
  153.0825  141.9677  159.9568 C   0  0  0  0  0  0  0  0  0  0  0  0
  153.5198  141.9769  161.2979 C   0  0  0  0  0  0  0  0  0  0  0  0
  154.3915  140.8399  161.8013 C   0  0  0  0  0  0  0  0  0  0  0  0
  153.2160  143.9534  164.1219 H   0  0  0  0  0  0  0  0  0  0  0  0
  154.6865  143.0974  163.6610 H   0  0  0  0  0  0  0  0  0  0  0  0
  153.2417  142.1914  164.1362 H   0  0  0  0  0  0  0  0  0  0  0  0
  152.0428  144.9008  162.3205 H   0  0  0  0  0  0  0  0  0  0  0  0
  150.4637  144.9213  157.6446 H   0  0  0  0  0  0  0  0  0  0  0  0
  151.8995  143.2034  156.2000 H   0  0  0  0  0  0  0  0  0  0  0  0
  152.6220  141.8692  157.0689 H   0  0  0  0  0  0  0  0  0  0  0  0
  149.6209  142.3732  156.7264 H   0  0  0  0  0  0  0  0  0  0  0  0
  150.7189  141.1911  158.6544 H   0  0  0  0  0  0  0  0  0  0  0  0
  151.1742  141.3171  154.7734 H   0  0  0  0  0  0  0  0  0  0  0  0
  151.0868  139.8964  155.7827 H   0  0  0  0  0  0  0  0  0  0  0  0
  148.3701  142.4117  155.2291 H   0  0  0  0  0  0  0  0  0  0  0  0
  149.1701  142.1934  153.6875 H   0  0  0  0  0  0  0  0  0  0  0  0
  146.7018  142.1800  153.3706 H   0  0  0  0  0  0  0  0  0  0  0  0
  147.4234  140.6746  152.8838 H   0  0  0  0  0  0  0  0  0  0  0  0
  145.1697  140.8038  156.4035 H   0  0  0  0  0  0  0  0  0  0  0  0
  146.5187  141.8847  156.2533 H   0  0  0  0  0  0  0  0  0  0  0  0
  145.0953  142.8651  154.1788 H   0  0  0  0  0  0  0  0  0  0  0  0
  145.6888  144.2072  156.2346 H   0  0  0  0  0  0  0  0  0  0  0  0
  144.3721  143.4361  157.1142 H   0  0  0  0  0  0  0  0  0  0  0  0
  144.0249  144.4916  155.7463 H   0  0  0  0  0  0  0  0  0  0  0  0
  143.5090  141.3139  154.3823 H   0  0  0  0  0  0  0  0  0  0  0  0
  146.3837  138.8079  155.8268 H   0  0  0  0  0  0  0  0  0  0  0  0
  147.2392  138.7173  154.3237 H   0  0  0  0  0  0  0  0  0  0  0  0
  148.8310  138.8044  156.1735 H   0  0  0  0  0  0  0  0  0  0  0  0
  148.1671  140.3043  156.7758 H   0  0  0  0  0  0  0  0  0  0  0  0
  153.3625  141.1622  159.2942 H   0  0  0  0  0  0  0  0  0  0  0  0
  154.5832  140.1075  161.0166 H   0  0  0  0  0  0  0  0  0  0  0  0
  153.9055  140.3232  162.6293 H   0  0  0  0  0  0  0  0  0  0  0  0
  155.3534  141.2202  162.1460 H   0  0  0  0  0  0  0  0  0  0  0  0
  149.4149  139.9023  154.1496 H   0  0  0  0  0  0  0  0  0  0  0  0
  1  2  1  0  0  0  0
  1 26  1  0  0  0  0
  1 27  1  0  0  0  0
  1 28  1  0  0  0  0
  2 24  1  0  0  0  0
  2  3  2  0  0  0  0
  3  4  1  0  0  0  0
  3 29  1  0  0  0  0
  4 22  2  0  0  0  0
  4  5  1  0  0  0  0
  5  6  2  0  0  0  0
  6  7  1  0  0  0  0
  6 30  1  0  0  0  0
  7  8  1  0  0  0  0
  7 22  1  0  0  0  0
  8  9  1  0  0  0  0
  8 31  1  0  0  0  0
  8 32  1  0  0  0  0
  9 10  1  0  0  0  0
  9 11  1  0  0  0  0
  9 33  1  0  0  0  0
 10 34  1  0  0  0  0
 11 12  1  0  0  0  0
 11 35  1  0  0  0  0
 11 36  1  0  0  0  0
 12 21  1  0  0  0  0
 12 13  1  0  0  0  0
 12 56  1  0  0  0  0
 13 14  1  0  0  0  0
 13 37  1  0  0  0  0
 13 38  1  0  0  0  0
 14 15  1  0  0  0  0
 14 39  1  0  0  0  0
 14 40  1  0  0  0  0
 15 16  1  0  0  0  0
 15 20  1  0  0  0  0
 16 17  1  0  0  0  0
 16 41  1  0  0  0  0
 16 42  1  0  0  0  0
 17 18  1  0  0  0  0
 17 19  1  0  0  0  0
 17 43  1  0  0  0  0
 18 44  1  0  0  0  0
 18 45  1  0  0  0  0
 18 46  1  0  0  0  0
 19 47  1  0  0  0  0
 20 21  1  0  0  0  0
 20 48  1  0  0  0  0
 20 49  1  0  0  0  0
 21 50  1  0  0  0  0
 21 51  1  0  0  0  0
 22 23  1  0  0  0  0
 23 24  2  0  0  0  0
 23 52  1  0  0  0  0
 24 25  1  0  0  0  0
 25 53  1  0  0  0  0
 25 54  1  0  0  0  0
 25 55  1  0  0  0  0
M  CHG  1  12   1
M  END
> <s_m_source_file>
AV-unprocessed.smi

> <i_m_source_file_index>
1033

> <i_lp_mmshare_version>
43012

> <i_f3d_flags>
0

> <s_epik_input>
W0NIM11jKFtjSF0xKWMoW0NIM10pW2NIXWMoYzEyKW4oW2NIXW4yKVtDSDJdW0NASF0oW09IXSlbQ0gyXU4zW0NIMl1bQ0gyXU4oW0NIMl1bQ0gyXTMpW0NIMl1bQ0BIXShbQ0gzXSlbT0hd

> <s_epik_cmdline>
J2VwaWtfcHl0aG9uJywgJy1waCcsICc3LjAnLCAnLXRuJywgJzgnLCAnLW1hJywgJzIwMCcsICctbWV0YWxfYmluZGluZycsICctaW1hZScsICc8aW5maWxlLm1hZT4nLCAnLW9tYWUnLCAnPG91dGZpbGUubWFlPic=

> <r_epik_Ionization_Penalty>
0.131893

> <r_epik_Ionization_Penalty_Charging>
0.00208556

> <r_epik_Ionization_Penalty_Neutral>
0.129808

> <r_epik_State_Penalty>
0.452125

> <r_epik_Charging_Adjusted_Penalty>
0.454211

> <i_epik_Tot_Q>
1

> <i_epik_Tot_abs_Q>
1

> <r_epik_Metal_State_Penalty>
0.376389

> <b_epik_Metal_Only>
0

> <s_lp_Force_Field>
OPLS_2005

> <r_lp_Energy>
32.1786

> <b_lp_Chiralities_Consistent>
1

> <s_lp_Variant>
AV-unprocessed.smi:1033-1

> <Gold.Version>
5.8.1

> <Gold.Id.Protein>
6NUR|6NUR_protein|mol2

> <Gold.PLP.Fitness>
57.2649

> <Gold.PLP.PLP>
-52.9392

> <Gold.PLP.part.hbond>
-2.0000

> <Gold.PLP.part.metal>
0.0000

> <Gold.PLP.part.buried>
-6.4421

> <Gold.PLP.part.nonpolar>
-44.1875

> <Gold.PLP.part.repulsive>
0.3484

> <Gold.PLP.ligand.clash>
0.0000

> <Gold.PLP.ligand.torsion>
0.8749

> <Gold.PLP.Chemscore.Hbond>
1.0000

> <Gold.PLP.Chemscore.CHOScore>
0.9536

> <Gold.PLP.Chemscore.Metal>
0.0000

> <Gold.Chemscore.Hbonds>
donor molecule, donor type, donor heavy atom, donor atom, acceptor molecule, acceptor atom, score
      L1  H    19    47       P1 10175  0.98
      L1  C     6    30       P1  8028  0.85
      L1  C     6    30       P1  8029  0.10

> <Gold.PLP.Chemscore.Internal.Correction>
0.2147

> <Gold.Rescore>
     Score         DG    S(hbond)    S(metal)    S(lipo)     H(rot)  DE(clash)    DE(int)     intcor
     14.02     -16.85       0.90        0.00     138.44       3.07       1.18       1.65       ----

> <Gold.Chemscore.Fitness>
14.0235

> <Gold.Chemscore.DG>
-16.8516

> <Gold.Chemscore.ZeroCoef>
-5.4800

> <Gold.Chemscore.Hbond>
0.9043

> <Gold.Chemscore.Metal>
0.0000

> <Gold.Chemscore.Lipo>
138.4412

> <Gold.Chemscore.Internal_Hbond>
0.0000

> <Gold.Chemscore.DEClash>
1.1778

> <Gold.Chemscore.DEInternal>
1.6503

> <Gold.Chemscore.Rot>
3.0650

> <Gold.Chemscore.Internal.Correction>
   9.000000E+99

> <Gold.Chemscore.Hbonds>
donor molecule, donor type, donor heavy atom, donor atom, acceptor molecule, acceptor atom, score
      L1  H    19    47       P1 10175  0.36

> <Gold.Chemscore.Hbond.Weighted>
-3.0205

> <Gold.Chemscore.Metal.Weighted>
-0.0000

> <Gold.Chemscore.Lipo.Weighted>
-16.1976

> <Gold.Chemscore.Internal_Hbond.Weighted>
0.0000

> <Gold.Chemscore.DEClash.Weighted>
1.1778

> <Gold.Chemscore.DEInternal.Weighted>
1.6503

> <Gold.Chemscore.Rot.Weighted>
7.8465

> <Gold.Chemscore.Internal.Correction.Weighted>
   9.000000E+99

> <Gold.Protein.RotatedTorsions>
[ 6907 6896 6895 6894 ] final -151.25 input  -60.11 | X-H torsion
[ 7974 7965 7964 7962 ] final   23.15 input  175.53 | X-H torsion
[ 8008 7997 7996 7995 ] final   45.71 input   59.86 | X-H torsion
[ 10167 10162 10161 10158 ] final   20.76 input  -65.29 | X-H torsion
[ 10718 10713 10712 10709 ] final  123.16 input   66.30 | X-H torsion
[ 10763 10752 10751 10750 ] final -166.31 input  -60.55 | X-H torsion
[ 11005 11000 10999 10996 ] final   22.53 input  -57.11 | X-H torsion

> <Gold.Protein.ActiveResidues>
 VAL166  LYS551  ARG553  GLY616  TRP617  ASP618  TYR619  PRO620  LYS621  CYS622 
 ASP623  PHE694  ASN695  SER759  ASP760  ASP761  ALA762  ILE779  LEU786  VAL792 
 PHE793  MET794  SER795  GLU796  ALA797  LYS798  CYS799  TRP800  GLU811  SER814 

> <Gold.Protein.RotatedAtoms>
  151.2103  133.4560  159.2597 H   0  0  0  0  0  0  0  0  0  0  0  0  # atno 6907 bound_to 6896
  151.0983  134.9957  159.8446 H   0  0  0  0  0  0  0  0  0  0  0  0  # atno 6908 bound_to 6896
  152.5441  134.2032  159.8773 H   0  0  0  0  0  0  0  0  0  0  0  0  # atno 6909 bound_to 6896
  146.1997  139.7785  142.8770 H   0  0  0  0  0  0  0  0  0  0  0  0  # atno 7974 bound_to 7965
  155.3403  140.3408  155.4239 H   0  0  0  0  0  0  0  0  0  0  0  0  # atno 8008 bound_to 7997
  156.1816  140.1666  156.8299 H   0  0  0  0  0  0  0  0  0  0  0  0  # atno 8009 bound_to 7997
  154.5340  140.0739  156.8378 H   0  0  0  0  0  0  0  0  0  0  0  0  # atno 8010 bound_to 7997
  140.5478  143.9562  150.6559 H   0  0  0  0  0  0  0  0  0  0  0  0  # atno 10167 bound_to 10162
  157.5686  131.1085  150.8409 H   0  0  0  0  0  0  0  0  0  0  0  0  # atno 10718 bound_to 10713
  154.6845  135.2960  154.9566 H   0  0  0  0  0  0  0  0  0  0  0  0  # atno 10763 bound_to 10752
  154.0550  135.6639  153.4809 H   0  0  0  0  0  0  0  0  0  0  0  0  # atno 10764 bound_to 10752
  153.0570  135.5139  154.7906 H   0  0  0  0  0  0  0  0  0  0  0  0  # atno 10765 bound_to 10752
  140.3796  134.1935  155.7664 H   0  0  0  0  0  0  0  0  0  0  0  0  # atno 11005 bound_to 11000
  145.3525  141.0310  143.3330 LP  0  0  0  0  0  0  0  0  0  0  0  0  # atno 17320 bound_to 7965
  144.8657  139.5112  143.6791 LP  0  0  0  0  0  0  0  0  0  0  0  0  # atno 17321 bound_to 7965
  140.2980  143.3279  152.0999 LP  0  0  0  0  0  0  0  0  0  0  0  0  # atno 17342 bound_to 10162
  139.5015  144.6714  151.6233 LP  0  0  0  0  0  0  0  0  0  0  0  0  # atno 17343 bound_to 10162
  156.8886  130.5205  149.5287 LP  0  0  0  0  0  0  0  0  0  0  0  0  # atno 17370 bound_to 10713
  156.0733  130.5761  150.9425 LP  0  0  0  0  0  0  0  0  0  0  0  0  # atno 17371 bound_to 10713
  141.1928  133.8165  157.0826 LP  0  0  0  0  0  0  0  0  0  0  0  0  # atno 17394 bound_to 11000
  140.0489  134.9816  157.1099 LP  0  0  0  0  0  0  0  0  0  0  0  0  # atno 17395 bound_to 11000

$$$$
