#       Name:                AV-unprocessed.smi:310
#       Creating user name   scv26
#       Creation time:       Thu Mar 26 22:19:44 2020


#       File generated by GOLD software.
#

@<TRIPOS>MOLECULE
AV-unprocessed.smi:310
    48    50     1
SMALL
NO_CHARGES


@<TRIPOS>ATOM
      1 ****        -7.1696  -3.0093   1.6236 C.3            1 S1                 0.0000
      2 ****        -5.8454  -2.7551   0.9884 C.2            1 S1                 0.0000
      3 ****        -4.5722  -2.7200   1.4818 C.2            1 S1                 0.0000
      4 ****        -3.7875  -2.4161   0.3358 C.2            1 S1                 0.0000
      5 ****        -2.4525  -2.2833   0.3061 N.pl3          1 S1                -1.0000
      6 ****        -1.8788  -1.1001   0.6259 C.2            1 S1                 0.0000
      7 ****        -2.4679  -0.0709   0.9650 O.2            1 S1                 0.0000
      8 ****        -0.5399  -1.1100   0.5472 N.am           1 S1                 0.0000
      9 ****         0.3462   0.0161   0.8301 C.3            1 S1                 0.0000
     10 ****         0.4193   0.9721  -0.3837 C.3            1 S1                 0.0000
     11 ****         1.5012   2.0462  -0.1773 C.3            1 S1                 0.0000
     12 ****         2.7873   1.3815   0.0742 N.am           1 S1                 0.0000
     13 ****         3.8502   1.3512  -0.7684 C.2            1 S1                 0.0000
     14 ****         4.9205   0.8281  -0.4535 O.2            1 S1                 0.0000
     15 ****         3.6660   1.9622  -2.1253 C.3            1 S1                 0.0000
     16 ****         4.8733   2.0683  -3.0402 C.3            1 S1                 0.0000
     17 ****         4.3285   3.3016  -2.3687 C.3            1 S1                 0.0000
     18 ****         2.7618   0.6421   1.3421 C.3            1 S1                 0.0000
     19 ****         1.7453  -0.5081   1.2196 C.3            1 S1                 0.0000
     20 ****        -4.5187  -2.2943  -0.7595 N.2            1 S1                 0.0000
     21 ****        -5.8405  -2.5036  -0.3483 O.3            1 S1                 0.0000
     22 ****        -7.1967  -4.0021   2.0723 H              1 S1                 0.0000
     23 ****        -7.9759  -2.9468   0.8924 H              1 S1                 0.0000
     24 ****        -7.3671  -2.2778   2.4072 H              1 S1                 0.0000
     25 ****        -4.2520  -2.8807   2.5002 H              1 S1                 0.0000
     26 ****        -0.1013  -1.9745   0.2657 H              1 S1                 0.0000
     27 ****        -0.0443   0.5723   1.6846 H              1 S1                 0.0000
     28 ****         0.6420   0.4066  -1.2897 H              1 S1                 0.0000
     29 ****        -0.5481   1.4483  -0.5469 H              1 S1                 0.0000
     30 ****         1.5187   2.7373  -1.0189 H              1 S1                 0.0000
     31 ****         1.2450   2.6623   0.6857 H              1 S1                 0.0000
     32 ****         2.7189   1.7676  -2.6251 H              1 S1                 0.0000
     33 ****         5.8392   1.7038  -2.6953 H              1 S1                 0.0000
     34 ****         4.6943   1.9474  -4.1065 H              1 S1                 0.0000
     35 ****         3.7824   4.0185  -2.9782 H              1 S1                 0.0000
     36 ****         4.9200   3.7358  -1.5643 H              1 S1                 0.0000
     37 ****         3.7372   0.2428   1.6226 H              1 S1                 0.0000
     38 ****         2.4731   1.3144   2.1514 H              1 S1                 0.0000
     39 ****         1.6905  -1.0587   2.1592 H              1 S1                 0.0000
     40 ****         2.0980  -1.2154   0.4670 H              1 S1                 0.0000
     41 ****        -1.8799  -3.0610   0.0469 LP             1 S1                 0.0000
     42 ****        -3.4662  -0.0623   1.0235 LP             1 S1                 0.0000
     43 ****        -1.9473   0.7550   1.1815 LP             1 S1                 0.0000
     44 ****         5.0257   0.4081   0.4480 LP             1 S1                 0.0000
     45 ****         5.6839   0.8236  -1.0993 LP             1 S1                 0.0000
     46 ****        -4.1960  -2.0950  -1.6847 LP             1 S1                 0.0000
     47 ****        -6.3858  -1.6874  -0.5393 LP             1 S1                 0.0000
     48 ****        -6.2262  -3.2847  -0.8393 LP             1 S1                 0.0000
@<TRIPOS>BOND
    1    1    2 1     
    2    1   22 1     
    3    1   23 1     
    4    1   24 1     
    5    2   21 1     
    6    2    3 2     
    7    3    4 1     
    8    3   25 1     
    9    4    5 1     
   10    4   20 2     
   11    5    6 1     
   12    6    7 2     
   13    6    8 am    
   14    8    9 1     
   15    8   26 1     
   16    9   19 1     
   17    9   10 1     
   18    9   27 1     
   19   10   11 1     
   20   10   28 1     
   21   10   29 1     
   22   11   12 1     
   23   11   30 1     
   24   11   31 1     
   25   12   13 am    
   26   12   18 1     
   27   13   14 2     
   28   13   15 1     
   29   15   17 1     
   30   15   16 1     
   31   15   32 1     
   32   16   17 1     
   33   16   33 1     
   34   16   34 1     
   35   17   35 1     
   36   17   36 1     
   37   18   19 1     
   38   18   37 1     
   39   18   38 1     
   40   19   39 1     
   41   19   40 1     
   42   20   21 1     
   43    5   41 1     
   44    7   42 1     
   45    7   43 1     
   46   14   44 1     
   47   14   45 1     
   48   20   46 1     
   49   21   47 1     
   50   21   48 1     
@<TRIPOS>SUBSTRUCTURE
      1 S1             1
@<TRIPOS>SET
LONE_PAIRS      STATIC     ATOMS    <user>   **** ""
8 41 42 43 44 45 46 47 48
DONOR_HYDROGENS      STATIC     ATOMS    <user>   **** ""
1 26
ATOM$BLUE        STATIC     ATOMS    COLORGROUP SYSTEM
8 41 42 43 44 45 46 47 48
ATOM$RED        STATIC     ATOMS    COLORGROUP SYSTEM
1 26
