AV-unprocessed.smi:2772|AV-procd|sdf|10669|dock5
  -GOLD-   2272015113D 1   1.00000     0.00000
 Structure written by MMmdl.
 54 56  0  0  0  0  0  0  0  0  2 V2000
  153.6834  142.1617  161.3423 C   0  0  0  0  0  0  0  0  0  0  0  0
  152.7211  142.3068  160.1819 C   0  0  0  0  0  0  0  0  0  0  0  0
  152.4793  143.5650  159.5932 C   0  0  0  0  0  0  0  0  0  0  0  0
  151.5715  143.6383  158.5196 C   0  0  0  0  0  0  0  0  0  0  0  0
  150.9311  142.4624  158.0782 C   0  0  0  0  0  0  0  0  0  0  0  0
  150.0284  142.5630  156.9854 N   0  0  0  0  0  0  0  0  0  0  0  0
  149.2267  141.6113  156.4774 C   0  0  0  0  0  0  0  0  0  0  0  0
  149.1476  140.4533  156.8871 O   0  0  0  0  0  0  0  0  0  0  0  0
  148.4888  142.0880  155.4647 N   0  0  0  0  0  0  0  0  0  0  0  0
  147.4948  141.3212  154.7193 C   0  0  0  0  0  0  0  0  0  0  0  0
  146.5147  140.6484  155.6832 C   0  0  0  0  0  0  0  0  0  0  0  0
  145.5234  139.7489  154.9244 C   0  0  0  0  0  0  0  0  0  0  0  0
  146.2128  138.6901  154.1674 N   0  0  0  0  0  0  0  0  0  0  0  0
  145.2458  137.7829  153.5063 C   0  0  2  0  0  0  0  0  0  0  0  0
  144.1443  137.2516  154.4599 C   0  0  0  0  0  0  0  0  0  0  0  0
  144.7106  136.2717  155.5035 C   0  0  0  0  0  0  0  0  0  0  0  0
  145.3852  135.1243  154.8486 N   0  3  2  0  0  0  0  0  0  0  0  0
  145.8663  134.1224  155.8236 C   0  0  0  0  0  0  0  0  0  0  0  0
  146.4502  135.5585  153.9116 C   0  0  0  0  0  0  0  0  0  0  0  0
  145.8956  136.5332  152.8569 C   0  0  0  0  0  0  0  0  0  0  0  0
  147.1071  139.3365  153.1920 C   0  0  0  0  0  0  0  0  0  0  0  0
  148.1590  140.2260  153.8763 C   0  0  0  0  0  0  0  0  0  0  0  0
  151.2574  141.2481  158.7308 C   0  0  0  0  0  0  0  0  0  0  0  0
  152.1284  141.1693  159.7601 N   0  0  0  0  0  0  0  0  0  0  0  0
  154.1567  143.1131  161.5857 H   0  0  0  0  0  0  0  0  0  0  0  0
  154.4678  141.4447  161.0980 H   0  0  0  0  0  0  0  0  0  0  0  0
  153.1568  141.8065  162.2285 H   0  0  0  0  0  0  0  0  0  0  0  0
  152.9754  144.4544  159.9532 H   0  0  0  0  0  0  0  0  0  0  0  0
  151.3668  144.5884  158.0476 H   0  0  0  0  0  0  0  0  0  0  0  0
  149.9251  143.4869  156.5923 H   0  0  0  0  0  0  0  0  0  0  0  0
  148.6163  143.0525  155.1951 H   0  0  0  0  0  0  0  0  0  0  0  0
  146.9348  141.9930  154.0655 H   0  0  0  0  0  0  0  0  0  0  0  0
  147.0579  140.0502  156.4163 H   0  0  0  0  0  0  0  0  0  0  0  0
  145.9669  141.4052  156.2458 H   0  0  0  0  0  0  0  0  0  0  0  0
  144.8618  139.3285  155.6768 H   0  0  0  0  0  0  0  0  0  0  0  0
  144.9055  140.3476  154.2532 H   0  0  0  0  0  0  0  0  0  0  0  0
  144.7611  138.3566  152.7146 H   0  0  0  0  0  0  0  0  0  0  0  0
  143.5735  138.0411  154.9429 H   0  0  0  0  0  0  0  0  0  0  0  0
  143.4020  136.7198  153.8632 H   0  0  0  0  0  0  0  0  0  0  0  0
  145.4120  136.7857  156.1630 H   0  0  0  0  0  0  0  0  0  0  0  0
  143.8990  135.9021  156.1315 H   0  0  0  0  0  0  0  0  0  0  0  0
  146.6315  134.5465  156.4750 H   0  0  0  0  0  0  0  0  0  0  0  0
  146.2928  133.2594  155.3111 H   0  0  0  0  0  0  0  0  0  0  0  0
  145.0451  133.7665  156.4469 H   0  0  0  0  0  0  0  0  0  0  0  0
  147.2647  136.0257  154.4676 H   0  0  0  0  0  0  0  0  0  0  0  0
  146.8694  134.6840  153.4122 H   0  0  0  0  0  0  0  0  0  0  0  0
  145.1304  136.0097  152.2818 H   0  0  0  0  0  0  0  0  0  0  0  0
  146.6539  136.7777  152.1162 H   0  0  0  0  0  0  0  0  0  0  0  0
  147.6663  138.5973  152.6241 H   0  0  0  0  0  0  0  0  0  0  0  0
  146.5241  139.9195  152.4774 H   0  0  0  0  0  0  0  0  0  0  0  0
  148.8035  140.6736  153.1190 H   0  0  0  0  0  0  0  0  0  0  0  0
  148.8035  139.6084  154.5040 H   0  0  0  0  0  0  0  0  0  0  0  0
  150.8378  140.3030  158.4240 H   0  0  0  0  0  0  0  0  0  0  0  0
  144.6830  134.6633  154.2875 H   0  0  0  0  0  0  0  0  0  0  0  0
  1  2  1  0  0  0  0
  1 25  1  0  0  0  0
  1 26  1  0  0  0  0
  1 27  1  0  0  0  0
  2 24  1  0  0  0  0
  2  3  2  0  0  0  0
  3  4  1  0  0  0  0
  3 28  1  0  0  0  0
  4  5  2  0  0  0  0
  4 29  1  0  0  0  0
  5  6  1  0  0  0  0
  5 23  1  0  0  0  0
  6  7  1  0  0  0  0
  6 30  1  0  0  0  0
  7  8  2  0  0  0  0
  7  9  1  0  0  0  0
  9 10  1  0  0  0  0
  9 31  1  0  0  0  0
 10 22  1  0  0  0  0
 10 11  1  0  0  0  0
 10 32  1  0  0  0  0
 11 12  1  0  0  0  0
 11 33  1  0  0  0  0
 11 34  1  0  0  0  0
 12 13  1  0  0  0  0
 12 35  1  0  0  0  0
 12 36  1  0  0  0  0
 13 14  1  0  0  0  0
 13 21  1  0  0  0  0
 14 20  1  0  0  0  0
 14 15  1  0  0  0  0
 14 37  1  0  0  0  0
 15 16  1  0  0  0  0
 15 38  1  0  0  0  0
 15 39  1  0  0  0  0
 16 17  1  0  0  0  0
 16 40  1  0  0  0  0
 16 41  1  0  0  0  0
 17 18  1  0  0  0  0
 17 19  1  0  0  0  0
 17 54  1  0  0  0  0
 18 42  1  0  0  0  0
 18 43  1  0  0  0  0
 18 44  1  0  0  0  0
 19 20  1  0  0  0  0
 19 45  1  0  0  0  0
 19 46  1  0  0  0  0
 20 47  1  0  0  0  0
 20 48  1  0  0  0  0
 21 22  1  0  0  0  0
 21 49  1  0  0  0  0
 21 50  1  0  0  0  0
 22 51  1  0  0  0  0
 22 52  1  0  0  0  0
 23 24  2  0  0  0  0
 23 53  1  0  0  0  0
M  CHG  1  17   1
M  END
> <s_m_source_file>
AV-unprocessed.smi

> <i_m_source_file_index>
2772

> <i_lp_mmshare_version>
43012

> <i_f3d_flags>
0

> <s_epik_input>
W0NIM11jMVtjSF1bY0hdYyhbY0hdbjEpW05IXUMoPU8pW05IXVtDSF0yW0NIMl1bQ0gyXU4oW0NIMl1bQ0gyXTIpW0NIXTNbQ0gyXVtDSDJdTihbQ0gzXSlbQ0gyXVtDSDJdMw==

> <s_epik_cmdline>
J2VwaWtfcHl0aG9uJywgJy1waCcsICc3LjAnLCAnLXRuJywgJzgnLCAnLW1hJywgJzIwMCcsICctbWV0YWxfYmluZGluZycsICctaW1hZScsICc8aW5maWxlLm1hZT4nLCAnLW9tYWUnLCAnPG91dGZpbGUubWFlPic=

> <r_epik_Ionization_Penalty>
1.02952

> <r_epik_Ionization_Penalty_Charging>
0.000974969

> <r_epik_Ionization_Penalty_Neutral>
1.02854

> <r_epik_State_Penalty>
1.11259

> <r_epik_Charging_Adjusted_Penalty>
1.11356

> <i_epik_Tot_Q>
1

> <i_epik_Tot_abs_Q>
1

> <r_epik_Metal_State_Penalty>
1.1091

> <b_epik_Metal_Only>
0

> <s_lp_Force_Field>
OPLS_2005

> <r_lp_Energy>
36.1162

> <b_lp_Chiralities_Consistent>
1

> <s_lp_Variant>
AV-unprocessed.smi:2772-6

> <Gold.Version>
5.8.1

> <Gold.Id.Protein>
6NUR|6NUR_protein|mol2

> <Gold.PLP.Fitness>
36.9846

> <Gold.PLP.PLP>
-31.2837

> <Gold.PLP.part.hbond>
-2.0000

> <Gold.PLP.part.metal>
0.0000

> <Gold.PLP.part.buried>
-1.8745

> <Gold.PLP.part.nonpolar>
-26.7780

> <Gold.PLP.part.repulsive>
0.2838

> <Gold.PLP.ligand.clash>
0.0000

> <Gold.PLP.ligand.torsion>
0.1516

> <Gold.PLP.Chemscore.Hbond>
2.0000

> <Gold.PLP.Chemscore.CHOScore>
0.0000

> <Gold.PLP.Chemscore.Metal>
0.0000

> <Gold.Chemscore.Hbonds>
donor molecule, donor type, donor heavy atom, donor atom, acceptor molecule, acceptor atom, score
      L1  H     6    30       P1  8028  0.99
      L1  H     9    31       P1  8028  1.00

> <Gold.PLP.Chemscore.Internal.Correction>
0.0042

> <Gold.Rescore>
     Score         DG    S(hbond)    S(metal)    S(lipo)     H(rot)  DE(clash)    DE(int)     intcor
     17.09     -19.76       1.93        0.00      93.11       1.20       0.13       2.54       ----

> <Gold.Chemscore.Fitness>
17.0851

> <Gold.Chemscore.DG>
-19.7565

> <Gold.Chemscore.ZeroCoef>
-5.4800

> <Gold.Chemscore.Hbond>
1.9304

> <Gold.Chemscore.Metal>
0.0000

> <Gold.Chemscore.Lipo>
93.1134

> <Gold.Chemscore.Internal_Hbond>
0.0000

> <Gold.Chemscore.DEClash>
0.1312

> <Gold.Chemscore.DEInternal>
2.5402

> <Gold.Chemscore.Rot>
1.1974

> <Gold.Chemscore.Internal.Correction>
   9.000000E+99

> <Gold.Chemscore.Hbonds>
donor molecule, donor type, donor heavy atom, donor atom, acceptor molecule, acceptor atom, score
      L1  H     6    30       P1  8028  0.94
      L1  H     9    31       P1  8028  0.94

> <Gold.Chemscore.Hbond.Weighted>
-6.4475

> <Gold.Chemscore.Metal.Weighted>
-0.0000

> <Gold.Chemscore.Lipo.Weighted>
-10.8943

> <Gold.Chemscore.Internal_Hbond.Weighted>
0.0000

> <Gold.Chemscore.DEClash.Weighted>
0.1312

> <Gold.Chemscore.DEInternal.Weighted>
2.5402

> <Gold.Chemscore.Rot.Weighted>
3.0652

> <Gold.Chemscore.Internal.Correction.Weighted>
   9.000000E+99

> <Gold.Protein.RotatedTorsions>
[ 6907 6896 6895 6894 ] final -150.72 input  -60.11 | X-H torsion
[ 7974 7965 7964 7962 ] final -115.88 input  175.53 | X-H torsion
[ 8008 7997 7996 7995 ] final  -19.56 input   59.86 | X-H torsion
[ 10167 10162 10161 10158 ] final   70.97 input  -65.29 | X-H torsion
[ 10718 10713 10712 10709 ] final  -45.90 input   66.30 | X-H torsion
[ 10763 10752 10751 10750 ] final   61.55 input  -60.55 | X-H torsion
[ 11005 11000 10999 10996 ] final   -8.81 input  -57.11 | X-H torsion

> <Gold.Protein.ActiveResidues>
 VAL166  LYS551  ARG553  GLY616  TRP617  ASP618  TYR619  PRO620  LYS621  CYS622 
 ASP623  PHE694  ASN695  SER759  ASP760  ASP761  ALA762  ILE779  LEU786  VAL792 
 PHE793  MET794  SER795  GLU796  ALA797  LYS798  CYS799  TRP800  GLU811  SER814 

> <Gold.Protein.RotatedAtoms>
  151.2026  133.4602  159.2596 H   0  0  0  0  0  0  0  0  0  0  0  0  # atno 6907 bound_to 6896
  151.1055  134.9996  159.8479 H   0  0  0  0  0  0  0  0  0  0  0  0  # atno 6908 bound_to 6896
  152.5446  134.1949  159.8742 H   0  0  0  0  0  0  0  0  0  0  0  0  # atno 6909 bound_to 6896
  145.1033  140.8566  143.3913 H   0  0  0  0  0  0  0  0  0  0  0  0  # atno 7974 bound_to 7965
  154.4828  140.2085  155.9723 H   0  0  0  0  0  0  0  0  0  0  0  0  # atno 8008 bound_to 7997
  156.1192  140.3216  155.8152 H   0  0  0  0  0  0  0  0  0  0  0  0  # atno 8009 bound_to 7997
  155.4499  140.0516  157.2993 H   0  0  0  0  0  0  0  0  0  0  0  0  # atno 8010 bound_to 7997
  140.0512  144.5310  150.7362 H   0  0  0  0  0  0  0  0  0  0  0  0  # atno 10167 bound_to 10162
  156.2237  130.4168  149.8960 H   0  0  0  0  0  0  0  0  0  0  0  0  # atno 10718 bound_to 10713
  152.9954  135.5497  154.6051 H   0  0  0  0  0  0  0  0  0  0  0  0  # atno 10763 bound_to 10752
  154.5384  135.2818  155.1120 H   0  0  0  0  0  0  0  0  0  0  0  0  # atno 10764 bound_to 10752
  154.2407  135.6417  153.5259 H   0  0  0  0  0  0  0  0  0  0  0  0  # atno 10765 bound_to 10752
  140.7274  133.8777  155.8867 H   0  0  0  0  0  0  0  0  0  0  0  0  # atno 11005 bound_to 11000
  145.0930  139.2876  143.5725 LP  0  0  0  0  0  0  0  0  0  0  0  0  # atno 17320 bound_to 7965
  146.3529  140.0474  142.8638 LP  0  0  0  0  0  0  0  0  0  0  0  0  # atno 17321 bound_to 7965
  140.7216  143.2594  151.4261 LP  0  0  0  0  0  0  0  0  0  0  0  0  # atno 17342 bound_to 10162
  139.5952  144.1413  152.2135 LP  0  0  0  0  0  0  0  0  0  0  0  0  # atno 17343 bound_to 10162
  156.6598  130.8777  151.3545 LP  0  0  0  0  0  0  0  0  0  0  0  0  # atno 17370 bound_to 10713
  157.7100  130.9429  150.1057 LP  0  0  0  0  0  0  0  0  0  0  0  0  # atno 17371 bound_to 10713
  140.9950  134.1227  157.4372 LP  0  0  0  0  0  0  0  0  0  0  0  0  # atno 17394 bound_to 11000
  139.8834  135.0052  156.6297 LP  0  0  0  0  0  0  0  0  0  0  0  0  # atno 17395 bound_to 11000

$$$$
