AV-unprocessed.smi:922|AV-procd|sdf|4174|dock3
  -GOLD-   22720 2 83D 1   1.00000     0.00000
 Structure written by MMmdl.
 32 33  0  0  0  0  0  0  0  0  2 V2000
  153.6998  142.0115  161.3675 C   0  0  0  0  0  0  0  0  0  0  0  0
  152.9612  142.1006  160.0285 C   0  0  1  0  0  0  0  0  0  0  0  0
  152.2957  140.7642  159.6503 C   0  0  0  0  0  0  0  0  0  0  0  0
  151.5075  140.9161  158.4347 N   0  0  0  0  0  0  0  0  0  0  0  0
  151.6160  140.1114  157.2994 C   0  0  0  0  0  0  0  0  0  0  0  0
  151.5520  140.7378  155.9555 C   0  0  0  0  0  0  0  0  0  0  0  0
  151.6421  140.0680  154.8761 N   0  0  0  0  0  0  0  0  0  0  0  0
  151.8088  138.6333  154.9048 N   0  5  0  0  0  0  0  0  0  0  0  0
  151.8886  137.9760  156.1007 C   0  0  0  0  0  0  0  0  0  0  0  0
  152.0407  136.7570  156.1637 O   0  0  0  0  0  0  0  0  0  0  0  0
  151.7876  138.7595  157.3395 C   0  0  0  0  0  0  0  0  0  0  0  0
  151.9538  137.8971  158.8347 Cl  0  0  0  0  0  0  0  0  0  0  0  0
  150.4926  141.9502  158.5974 C   0  0  0  0  0  0  0  0  0  0  0  0
  151.1340  143.3017  158.9866 C   0  0  0  0  0  0  0  0  0  0  0  0
  151.9383  143.9175  157.8214 C   0  0  0  0  0  0  0  0  0  0  0  0
  150.0391  144.2876  159.4221 C   0  0  0  0  0  0  0  0  0  0  0  0
  151.9602  143.1133  160.1419 O   0  0  0  0  0  0  0  0  0  0  0  0
  154.4894  141.2607  161.3298 H   0  0  0  0  0  0  0  0  0  0  0  0
  153.0200  141.7434  162.1768 H   0  0  0  0  0  0  0  0  0  0  0  0
  154.1608  142.9663  161.6217 H   0  0  0  0  0  0  0  0  0  0  0  0
  153.6849  142.3883  159.2671 H   0  0  0  0  0  0  0  0  0  0  0  0
  153.0419  139.9786  159.5325 H   0  0  0  0  0  0  0  0  0  0  0  0
  151.6332  140.4374  160.4529 H   0  0  0  0  0  0  0  0  0  0  0  0
  151.4172  141.8224  155.9412 H   0  0  0  0  0  0  0  0  0  0  0  0
  149.9143  142.0699  157.6804 H   0  0  0  0  0  0  0  0  0  0  0  0
  149.7927  141.6253  159.3685 H   0  0  0  0  0  0  0  0  0  0  0  0
  151.2845  144.1617  156.9836 H   0  0  0  0  0  0  0  0  0  0  0  0
  152.7018  143.2418  157.4374 H   0  0  0  0  0  0  0  0  0  0  0  0
  152.4359  144.8369  158.1302 H   0  0  0  0  0  0  0  0  0  0  0  0
  149.3386  144.4862  158.6102 H   0  0  0  0  0  0  0  0  0  0  0  0
  150.4671  145.2414  159.7322 H   0  0  0  0  0  0  0  0  0  0  0  0
  149.4674  143.8960  160.2640 H   0  0  0  0  0  0  0  0  0  0  0  0
  1  2  1  0  0  0  0
  1 18  1  0  0  0  0
  1 19  1  0  0  0  0
  1 20  1  0  0  0  0
  2 17  1  0  0  0  0
  2  3  1  0  0  0  0
  2 21  1  0  0  0  0
  3  4  1  0  0  0  0
  3 22  1  0  0  0  0
  3 23  1  0  0  0  0
  4  5  1  0  0  0  0
  4 13  1  0  0  0  0
  5 11  2  0  0  0  0
  5  6  1  0  0  0  0
  6  7  2  0  0  0  0
  6 24  1  0  0  0  0
  7  8  1  0  0  0  0
  8  9  1  0  0  0  0
  9 10  2  0  0  0  0
  9 11  1  0  0  0  0
 11 12  1  0  0  0  0
 13 14  1  0  0  0  0
 13 25  1  0  0  0  0
 13 26  1  0  0  0  0
 14 15  1  0  0  0  0
 14 16  1  0  0  0  0
 14 17  1  0  0  0  0
 15 27  1  0  0  0  0
 15 28  1  0  0  0  0
 15 29  1  0  0  0  0
 16 30  1  0  0  0  0
 16 31  1  0  0  0  0
 16 32  1  0  0  0  0
M  CHG  1   8  -1
M  END
> <s_m_source_file>
AV-unprocessed.smi

> <i_m_source_file_index>
922

> <i_lp_mmshare_version>
43012

> <i_f3d_flags>
0

> <s_epik_input>
W0NIM11bQ0BASF0oTzEpW0NIMl1OKFtDSDJdQzEoW0NIM10pW0NIM10pYzJbY0hdbltuSF1jKD1PKWMyQ2w=

> <s_epik_cmdline>
J2VwaWtfcHl0aG9uJywgJy1waCcsICc3LjAnLCAnLXRuJywgJzgnLCAnLW1hJywgJzIwMCcsICctbWV0YWxfYmluZGluZycsICctaW1hZScsICc8aW5maWxlLm1hZT4nLCAnLW9tYWUnLCAnPG91dGZpbGUubWFlPic=

> <r_lp_tautomer_probability>
1

> <r_epik_Ionization_Penalty>
2.48086

> <r_epik_Ionization_Penalty_Charging>
0.00187014

> <r_epik_Ionization_Penalty_Neutral>
2.47899

> <r_epik_State_Penalty>
0.0455822

> <r_epik_Charging_Adjusted_Penalty>
0.0474524

> <i_epik_Tot_Q>
-1

> <i_epik_Tot_abs_Q>
1

> <r_epik_Metal_State_Penalty>
0.000768086

> <b_epik_Metal_Only>
0

> <s_lp_Force_Field>
OPLS_2005

> <r_lp_Energy>
41.3096

> <b_lp_Chiralities_Consistent>
1

> <s_lp_Variant>
AV-unprocessed.smi:922-2

> <Gold.Version>
5.8.1

> <Gold.Id.Protein>
6NUR|6NUR_protein|mol2

> <Gold.PLP.Fitness>
37.1232

> <Gold.PLP.PLP>
-31.5640

> <Gold.PLP.part.hbond>
-1.9766

> <Gold.PLP.part.metal>
0.0000

> <Gold.PLP.part.buried>
-5.8265

> <Gold.PLP.part.nonpolar>
-23.6399

> <Gold.PLP.part.repulsive>
0.1422

> <Gold.PLP.ligand.clash>
0.0000

> <Gold.PLP.ligand.torsion>
0.7056

> <Gold.PLP.Chemscore.Hbond>
2.0000

> <Gold.PLP.Chemscore.CHOScore>
0.0000

> <Gold.PLP.Chemscore.Metal>
0.0000

> <Gold.Chemscore.Hbonds>
donor molecule, donor type, donor heavy atom, donor atom, acceptor molecule, acceptor atom, score
      P1  H  7989  7998       L1     7  1.00
      P1  H 10752 10765       L1    10  1.00

> <Gold.PLP.Chemscore.Internal.Correction>
0.9704

> <Gold.Rescore>
     Score         DG    S(hbond)    S(metal)    S(lipo)     H(rot)  DE(clash)    DE(int)     intcor
     20.07     -21.81       1.88        0.00      85.97       0.00       0.00       1.74       ----

> <Gold.Chemscore.Fitness>
20.0703

> <Gold.Chemscore.DG>
-21.8106

> <Gold.Chemscore.ZeroCoef>
-5.4800

> <Gold.Chemscore.Hbond>
1.8778

> <Gold.Chemscore.Metal>
0.0000

> <Gold.Chemscore.Lipo>
85.9731

> <Gold.Chemscore.Internal_Hbond>
0.0000

> <Gold.Chemscore.DEClash>
0.0004

> <Gold.Chemscore.DEInternal>
1.7399

> <Gold.Chemscore.Rot>
0.0000

> <Gold.Chemscore.Internal.Correction>
   9.000000E+99

> <Gold.Chemscore.Hbonds>
donor molecule, donor type, donor heavy atom, donor atom, acceptor molecule, acceptor atom, score
      P1  H  7989  7998       L1     7  0.89
      P1  H 10752 10765       L1    10  0.92

> <Gold.Chemscore.Hbond.Weighted>
-6.2718

> <Gold.Chemscore.Metal.Weighted>
-0.0000

> <Gold.Chemscore.Lipo.Weighted>
-10.0588

> <Gold.Chemscore.Internal_Hbond.Weighted>
0.0000

> <Gold.Chemscore.DEClash.Weighted>
0.0004

> <Gold.Chemscore.DEInternal.Weighted>
1.7399

> <Gold.Chemscore.Rot.Weighted>
0.0000

> <Gold.Chemscore.Internal.Correction.Weighted>
   9.000000E+99

> <Gold.Protein.RotatedTorsions>
[ 6907 6896 6895 6894 ] final   12.91 input  -60.11 | X-H torsion
[ 7974 7965 7964 7962 ] final  -95.21 input  175.53 | X-H torsion
[ 8008 7997 7996 7995 ] final  103.19 input   59.86 | X-H torsion
[ 10167 10162 10161 10158 ] final  -47.97 input  -65.29 | X-H torsion
[ 10718 10713 10712 10709 ] final  -57.32 input   66.30 | X-H torsion
[ 10763 10752 10751 10750 ] final -146.38 input  -60.55 | X-H torsion
[ 11005 11000 10999 10996 ] final -153.52 input  -57.11 | X-H torsion

> <Gold.Protein.ActiveResidues>
 VAL166  LYS551  ARG553  GLY616  TRP617  ASP618  TYR619  PRO620  LYS621  CYS622 
 ASP623  PHE694  ASN695  SER759  ASP760  ASP761  ALA762  ILE779  LEU786  VAL792 
 PHE793  MET794  SER795  GLU796  ALA797  LYS798  CYS799  TRP800  GLU811  SER814 

> <Gold.Protein.RotatedAtoms>
  151.7778  135.0769  160.0369 H   0  0  0  0  0  0  0  0  0  0  0  0  # atno 6907 bound_to 6896
  152.3244  133.5884  159.5775 H   0  0  0  0  0  0  0  0  0  0  0  0  # atno 6908 bound_to 6896
  150.7387  133.9879  159.3639 H   0  0  0  0  0  0  0  0  0  0  0  0  # atno 6909 bound_to 6896
  145.3630  140.9494  143.2490 H   0  0  0  0  0  0  0  0  0  0  0  0  # atno 7974 bound_to 7965
  156.1462  140.3169  155.8573 H   0  0  0  0  0  0  0  0  0  0  0  0  # atno 8008 bound_to 7997
  155.4060  140.0503  157.3051 H   0  0  0  0  0  0  0  0  0  0  0  0  # atno 8009 bound_to 7997
  154.5018  140.2132  155.9343 H   0  0  0  0  0  0  0  0  0  0  0  0  # atno 8010 bound_to 7997
  140.6752  143.2760  151.4003 H   0  0  0  0  0  0  0  0  0  0  0  0  # atno 10167 bound_to 10162
  156.1220  130.4165  150.0424 H   0  0  0  0  0  0  0  0  0  0  0  0  # atno 10718 bound_to 10713
  154.8339  135.3388  154.6652 H   0  0  0  0  0  0  0  0  0  0  0  0  # atno 10763 bound_to 10752
  153.7269  135.6954  153.5003 H   0  0  0  0  0  0  0  0  0  0  0  0  # atno 10764 bound_to 10752
  153.2341  135.4406  155.0579 H   0  0  0  0  0  0  0  0  0  0  0  0  # atno 10765 bound_to 10752
  140.7072  134.3872  157.5202 H   0  0  0  0  0  0  0  0  0  0  0  0  # atno 11005 bound_to 11000
  144.8632  139.5146  143.6802 LP  0  0  0  0  0  0  0  0  0  0  0  0  # atno 17320 bound_to 7965
  146.2919  139.7164  142.9155 LP  0  0  0  0  0  0  0  0  0  0  0  0  # atno 17321 bound_to 7965
  139.6040  144.1236  152.2229 LP  0  0  0  0  0  0  0  0  0  0  0  0  # atno 17342 bound_to 10162
  140.0629  144.5842  150.7249 LP  0  0  0  0  0  0  0  0  0  0  0  0  # atno 17343 bound_to 10162
  156.8360  130.9409  151.3634 LP  0  0  0  0  0  0  0  0  0  0  0  0  # atno 17370 bound_to 10713
  157.6403  130.8800  149.9436 LP  0  0  0  0  0  0  0  0  0  0  0  0  # atno 17371 bound_to 10713
  139.8881  134.8865  156.2492 LP  0  0  0  0  0  0  0  0  0  0  0  0  # atno 17394 bound_to 11000
  141.0115  133.7093  156.1119 LP  0  0  0  0  0  0  0  0  0  0  0  0  # atno 17395 bound_to 11000

$$$$
