AV-unprocessed.smi:2154|AV-procd|sdf|8774|dock5
  -GOLD-   2272011553D 1   1.00000     0.00000
 Structure written by MMmdl.
 31 32  0  0  0  0  0  0  0  0  2 V2000
  152.4140  142.6339  161.1498 C   0  0  0  0  0  0  0  0  0  0  0  0
  152.5078  143.6781  160.0588 C   0  0  2  0  0  0  0  0  0  0  0  0
  151.6869  144.9465  160.1260 C   0  0  0  0  0  0  0  0  0  0  0  0
  151.3589  143.8886  159.0994 C   0  0  1  0  0  0  0  0  0  0  0  0
  151.6120  144.1306  157.6271 C   0  0  0  0  0  0  0  0  0  0  0  0
  150.9650  143.1522  156.7648 N   0  0  0  0  0  0  0  0  0  0  0  0
  151.0983  141.8174  156.8347 C   0  0  0  0  0  0  0  0  0  0  0  0
  151.7836  141.2565  157.6894 O   0  0  0  0  0  0  0  0  0  0  0  0
  150.3512  140.9619  155.7958 C   0  0  0  0  0  0  0  0  0  0  0  0
  150.6196  139.5137  155.8754 N   0  0  0  0  0  0  0  0  0  0  0  0
  149.5498  138.6735  156.2312 C   0  0  0  0  0  0  0  0  0  0  0  0
  149.6931  137.3373  156.3157 C   0  0  0  0  0  0  0  0  0  0  0  0
  151.0014  136.7635  156.0265 C   0  0  0  0  0  0  0  0  0  0  0  0
  151.1502  135.5453  156.0972 O   0  0  0  0  0  0  0  0  0  0  0  0
  152.0083  137.6201  155.6854 N   0  5  0  0  0  0  0  0  0  0  0  0
  151.8479  138.9773  155.6025 C   0  0  0  0  0  0  0  0  0  0  0  0
  152.7673  139.7311  155.2829 O   0  0  0  0  0  0  0  0  0  0  0  0
  151.3980  142.5708  161.5401 H   0  0  0  0  0  0  0  0  0  0  0  0
  153.0866  142.8861  161.9693 H   0  0  0  0  0  0  0  0  0  0  0  0
  152.6950  141.6572  160.7552 H   0  0  0  0  0  0  0  0  0  0  0  0
  153.5076  143.7807  159.6407 H   0  0  0  0  0  0  0  0  0  0  0  0
  150.9983  145.0633  160.9604 H   0  0  0  0  0  0  0  0  0  0  0  0
  152.1550  145.8648  159.7773 H   0  0  0  0  0  0  0  0  0  0  0  0
  150.4567  143.3109  159.2938 H   0  0  0  0  0  0  0  0  0  0  0  0
  151.2787  145.1424  157.3919 H   0  0  0  0  0  0  0  0  0  0  0  0
  152.6850  144.1029  157.4340 H   0  0  0  0  0  0  0  0  0  0  0  0
  150.3833  143.5196  156.0251 H   0  0  0  0  0  0  0  0  0  0  0  0
  149.2815  141.1523  155.8968 H   0  0  0  0  0  0  0  0  0  0  0  0
  150.6098  141.3348  154.8039 H   0  0  0  0  0  0  0  0  0  0  0  0
  148.6140  139.1774  156.4230 H   0  0  0  0  0  0  0  0  0  0  0  0
  148.8600  136.7059  156.5876 H   0  0  0  0  0  0  0  0  0  0  0  0
  1  2  1  0  0  0  0
  1 18  1  0  0  0  0
  1 19  1  0  0  0  0
  1 20  1  0  0  0  0
  2  4  1  0  0  0  0
  2  3  1  0  0  0  0
  2 21  1  0  0  0  0
  3  4  1  0  0  0  0
  3 22  1  0  0  0  0
  3 23  1  0  0  0  0
  4  5  1  0  0  0  0
  4 24  1  0  0  0  0
  5  6  1  0  0  0  0
  5 25  1  0  0  0  0
  5 26  1  0  0  0  0
  6  7  1  0  0  0  0
  6 27  1  0  0  0  0
  7  8  2  0  0  0  0
  7  9  1  0  0  0  0
  9 10  1  0  0  0  0
  9 28  1  0  0  0  0
  9 29  1  0  0  0  0
 10 16  1  0  0  0  0
 10 11  1  0  0  0  0
 11 12  2  0  0  0  0
 11 30  1  0  0  0  0
 12 13  1  0  0  0  0
 12 31  1  0  0  0  0
 13 14  2  0  0  0  0
 13 15  1  0  0  0  0
 15 16  1  0  0  0  0
 16 17  2  0  0  0  0
M  CHG  1  15  -1
M  END
> <s_m_source_file>
AV-unprocessed.smi

> <i_m_source_file_index>
2154

> <i_lp_mmshare_version>
43012

> <i_f3d_flags>
0

> <s_epik_input>
W0NIM11bQ0BASF0xW0NIMl1bQ0BIXTFbQ0gyXVtOSF1DKD1PKVtDSDJdbjJbY0hdW2NIXWMoPU8pW25IXWMyPU8=

> <s_epik_cmdline>
J2VwaWtfcHl0aG9uJywgJy1waCcsICc3LjAnLCAnLXRuJywgJzgnLCAnLW1hJywgJzIwMCcsICctbWV0YWxfYmluZGluZycsICctaW1hZScsICc8aW5maWxlLm1hZT4nLCAnLW9tYWUnLCAnPG91dGZpbGUubWFlPic=

> <r_lp_tautomer_probability>
0.999537

> <r_epik_Ionization_Penalty>
3.12283

> <r_epik_Ionization_Penalty_Charging>
2.83566e-08

> <r_epik_Ionization_Penalty_Neutral>
3.12283

> <r_epik_State_Penalty>
3.12192

> <r_epik_Charging_Adjusted_Penalty>
3.12192

> <i_epik_Tot_Q>
-1

> <i_epik_Tot_abs_Q>
1

> <r_epik_Metal_State_Penalty>
0.463748

> <b_epik_Metal_Only>
1

> <s_lp_Force_Field>
OPLS_2005

> <r_lp_Energy>
23.7869

> <b_lp_Chiralities_Consistent>
1

> <s_lp_Variant>
AV-unprocessed.smi:2154-5

> <Gold.Version>
5.8.1

> <Gold.Id.Protein>
6NUR|6NUR_protein|mol2

> <Gold.PLP.Fitness>
46.6290

> <Gold.PLP.PLP>
-36.5710

> <Gold.PLP.part.hbond>
-4.4264

> <Gold.PLP.part.metal>
0.0000

> <Gold.PLP.part.buried>
-4.3161

> <Gold.PLP.part.nonpolar>
-28.8742

> <Gold.PLP.part.repulsive>
0.1939

> <Gold.PLP.ligand.clash>
0.0000

> <Gold.PLP.ligand.torsion>
0.4829

> <Gold.PLP.Chemscore.Hbond>
3.4960

> <Gold.PLP.Chemscore.CHOScore>
0.0000

> <Gold.PLP.Chemscore.Metal>
0.0000

> <Gold.Chemscore.Hbonds>
donor molecule, donor type, donor heavy atom, donor atom, acceptor molecule, acceptor atom, score
      L1  H     6    27       P1  8028  0.86
      P1  H  7989  7998       L1    17  0.08
      P1  H  7997  8010       L1    17  1.00
      P1  H 10752 10763       L1    14  0.40

> <Gold.PLP.Chemscore.Internal.Correction>
0.5359

> <Gold.Rescore>
     Score         DG    S(hbond)    S(metal)    S(lipo)     H(rot)  DE(clash)    DE(int)     intcor
     16.91     -17.63       2.74        0.00      68.53       1.96       0.13       0.59       ----

> <Gold.Chemscore.Fitness>
16.9100

> <Gold.Chemscore.DG>
-17.6348

> <Gold.Chemscore.ZeroCoef>
-5.4800

> <Gold.Chemscore.Hbond>
2.7415

> <Gold.Chemscore.Metal>
0.0000

> <Gold.Chemscore.Lipo>
68.5319

> <Gold.Chemscore.Internal_Hbond>
0.0000

> <Gold.Chemscore.DEClash>
0.1334

> <Gold.Chemscore.DEInternal>
0.5913

> <Gold.Chemscore.Rot>
1.9609

> <Gold.Chemscore.Internal.Correction>
   9.000000E+99

> <Gold.Chemscore.Hbonds>
donor molecule, donor type, donor heavy atom, donor atom, acceptor molecule, acceptor atom, score
      L1  H     6    27       P1  8028  0.84
      P1  H  7989  7998       L1    17  0.02
      P1  H  7997  8010       L1    17  1.00
      P1  H 10752 10763       L1    14  0.06

> <Gold.Chemscore.Hbond.Weighted>
-9.1565

> <Gold.Chemscore.Metal.Weighted>
-0.0000

> <Gold.Chemscore.Lipo.Weighted>
-8.0182

> <Gold.Chemscore.Internal_Hbond.Weighted>
0.0000

> <Gold.Chemscore.DEClash.Weighted>
0.1334

> <Gold.Chemscore.DEInternal.Weighted>
0.5913

> <Gold.Chemscore.Rot.Weighted>
5.0200

> <Gold.Chemscore.Internal.Correction.Weighted>
   9.000000E+99

> <Gold.Protein.RotatedTorsions>
[ 6907 6896 6895 6894 ] final  -59.10 input  -60.11 | X-H torsion
[ 7974 7965 7964 7962 ] final -176.47 input  175.53 | X-H torsion
[ 8008 7997 7996 7995 ] final  100.22 input   59.86 | X-H torsion
[ 10167 10162 10161 10158 ] final -121.25 input  -65.29 | X-H torsion
[ 10718 10713 10712 10709 ] final  136.66 input   66.30 | X-H torsion
[ 10763 10752 10751 10750 ] final   84.12 input  -60.55 | X-H torsion
[ 11005 11000 10999 10996 ] final -141.54 input  -57.11 | X-H torsion

> <Gold.Protein.ActiveResidues>
 VAL166  LYS551  ARG553  GLY616  TRP617  ASP618  TYR619  PRO620  LYS621  CYS622 
 ASP623  PHE694  ASN695  SER759  ASP760  ASP761  ALA762  ILE779  LEU786  VAL792 
 PHE793  MET794  SER795  GLU796  ALA797  LYS798  CYS799  TRP800  GLU811  SER814 

> <Gold.Protein.RotatedAtoms>
  150.7956  134.7012  159.6550 H   0  0  0  0  0  0  0  0  0  0  0  0  # atno 6907 bound_to 6896
  152.4067  134.6191  160.0056 H   0  0  0  0  0  0  0  0  0  0  0  0  # atno 6908 bound_to 6896
  151.6446  133.3287  159.3174 H   0  0  0  0  0  0  0  0  0  0  0  0  # atno 6909 bound_to 6896
  144.7127  140.1166  143.6408 H   0  0  0  0  0  0  0  0  0  0  0  0  # atno 7974 bound_to 7965
  156.1182  140.3216  155.8170 H   0  0  0  0  0  0  0  0  0  0  0  0  # atno 8008 bound_to 7997
  155.4552  140.0535  157.3014 H   0  0  0  0  0  0  0  0  0  0  0  0  # atno 8009 bound_to 7997
  154.4808  140.2052  155.9782 H   0  0  0  0  0  0  0  0  0  0  0  0  # atno 8010 bound_to 7997
  140.0271  143.5286  152.2194 H   0  0  0  0  0  0  0  0  0  0  0  0  # atno 10167 bound_to 10162
  157.4443  131.1060  151.0107 H   0  0  0  0  0  0  0  0  0  0  0  0  # atno 10718 bound_to 10713
  153.1353  135.4666  154.9412 H   0  0  0  0  0  0  0  0  0  0  0  0  # atno 10763 bound_to 10752
  154.7700  135.3156  154.8211 H   0  0  0  0  0  0  0  0  0  0  0  0  # atno 10764 bound_to 10752
  153.8744  135.6900  153.4826 H   0  0  0  0  0  0  0  0  0  0  0  0  # atno 10765 bound_to 10752
  140.8314  134.2512  157.4854 H   0  0  0  0  0  0  0  0  0  0  0  0  # atno 11005 bound_to 11000
  145.9408  139.2668  143.1270 LP  0  0  0  0  0  0  0  0  0  0  0  0  # atno 17320 bound_to 7965
  145.9426  140.8969  143.0300 LP  0  0  0  0  0  0  0  0  0  0  0  0  # atno 17321 bound_to 7965
  139.6101  144.7606  151.2972 LP  0  0  0  0  0  0  0  0  0  0  0  0  # atno 17342 bound_to 10162
  140.7318  143.6841  150.7976 LP  0  0  0  0  0  0  0  0  0  0  0  0  # atno 17343 bound_to 10162
  157.0960  130.5962  149.5450 LP  0  0  0  0  0  0  0  0  0  0  0  0  # atno 17370 bound_to 10713
  155.9961  130.5029  150.7484 LP  0  0  0  0  0  0  0  0  0  0  0  0  # atno 17371 bound_to 10713
  139.8705  134.9588  156.4312 LP  0  0  0  0  0  0  0  0  0  0  0  0  # atno 17394 bound_to 11000
  140.8993  133.7791  155.9662 LP  0  0  0  0  0  0  0  0  0  0  0  0  # atno 17395 bound_to 11000

$$$$
