#       Name:                AV-unprocessed.smi:601
#       Creating user name   scv26
#       Creation time:       Thu Mar 26 23:54:38 2020


#       File generated by GOLD software.
#

@<TRIPOS>MOLECULE
AV-unprocessed.smi:601
    58    59     1
SMALL
NO_CHARGES


@<TRIPOS>ATOM
      1 ****        -3.2245  -3.5629   2.8617 C.3            1 S1                 0.0000
      2 ****        -2.7854  -3.0771   1.4759 C.3            1 S1                 0.0000
      3 ****        -2.0821  -1.7136   1.5265 C.3            1 S1                 0.0000
      4 ****        -1.6474  -1.2236   0.1336 C.3            1 S1                 0.0000
      5 ****        -0.9875   0.0894   0.1920 N.am           1 S1                 0.0000
      6 ****        -1.7154   1.2362   0.2391 C.2            1 S1                 0.0000
      7 ****        -2.9440   1.2199   0.3388 O.2            1 S1                 0.0000
      8 ****        -0.9904   2.6019   0.1177 C.3            1 S1                 0.0000
      9 ****        -1.9165   3.8036  -0.1116 C.3            1 S1                 0.0000
     10 ****        -2.3363   4.2350   1.2882 C.3            1 S1                 0.0000
     11 ****        -1.3487   3.5221   2.2166 C.3            1 S1                 0.0000
     12 ****        -0.3738   2.9481   1.3527 O.3            1 S1                 0.0000
     13 ****         0.4182   0.0943   0.1511 C.2            1 S1                 0.0000
     14 ****         1.1009  -0.0563  -1.0229 C.2            1 S1                 0.0000
     15 ****         0.4119  -0.1942  -2.2192 N.pl3          1 S1                 0.0000
     16 ****         2.4983  -0.0789  -1.0614 N.am           1 S1                 0.0000
     17 ****         3.2665  -0.2272  -2.2818 C.3            1 S1                 0.0000
     18 ****         3.5708  -1.6972  -2.6159 C.3            1 S1                 0.0000
     19 ****         4.3624  -1.8461  -3.9186 C.3            1 S1                 0.0000
     20 ****         3.2428   0.0024   0.1402 C.2            1 S1                 0.0000
     21 ****         4.4724  -0.0498   0.1836 O.2            1 S1                 0.0000
     22 ****         2.5251   0.1415   1.3229 N.am           1 S1                 0.0000
     23 ****         1.1376   0.1957   1.4276 C.2            1 S1                 0.0000
     24 ****         0.6191   0.3121   2.5374 O.2            1 S1                 0.0000
     25 ****         3.0551   0.2023   2.1801 H              1 S1                 0.0000
     26 ****        -3.7172  -4.5331   2.7958 H              1 S1                 0.0000
     27 ****        -3.9257  -2.8647   3.3198 H              1 S1                 0.0000
     28 ****        -2.3698  -3.6681   3.5305 H              1 S1                 0.0000
     29 ****        -2.1194  -3.8167   1.0299 H              1 S1                 0.0000
     30 ****        -3.6581  -3.0148   0.8249 H              1 S1                 0.0000
     31 ****        -2.7489  -0.9834   1.9861 H              1 S1                 0.0000
     32 ****        -1.2094  -1.7841   2.1764 H              1 S1                 0.0000
     33 ****        -0.9700  -1.9570  -0.3070 H              1 S1                 0.0000
     34 ****        -2.5069  -1.1827  -0.5377 H              1 S1                 0.0000
     35 ****        -0.2464   2.5506  -0.6776 H              1 S1                 0.0000
     36 ****        -1.3517   4.6064  -0.5868 H              1 S1                 0.0000
     37 ****        -2.7676   3.5853  -0.7579 H              1 S1                 0.0000
     38 ****        -2.2831   5.3188   1.3952 H              1 S1                 0.0000
     39 ****        -3.3588   3.9261   1.5089 H              1 S1                 0.0000
     40 ****        -0.8827   4.2017   2.9302 H              1 S1                 0.0000
     41 ****        -1.8478   2.7318   2.7794 H              1 S1                 0.0000
     42 ****        -0.5974  -0.1873  -2.2561 H              1 S1                 0.0000
     43 ****         0.8905  -0.3612  -3.0927 H              1 S1                 0.0000
     44 ****         2.6981   0.2538  -3.0773 H              1 S1                 0.0000
     45 ****         4.1757   0.3693  -2.1862 H              1 S1                 0.0000
     46 ****         4.1340  -2.1545  -1.8018 H              1 S1                 0.0000
     47 ****         2.6381  -2.2566  -2.6971 H              1 S1                 0.0000
     48 ****         4.5632  -2.8959  -4.1334 H              1 S1                 0.0000
     49 ****         5.3206  -1.3295  -3.8570 H              1 S1                 0.0000
     50 ****         3.8109  -1.4326  -4.7636 H              1 S1                 0.0000
     51 ****        -3.4302   0.3474   0.3873 LP             1 S1                 0.0000
     52 ****        -3.4545   2.0792   0.3713 LP             1 S1                 0.0000
     53 ****         0.3579   3.6094   1.1877 LP             1 S1                 0.0000
     54 ****         0.0082   2.1275   1.7777 LP             1 S1                 0.0000
     55 ****         4.9985  -0.1550  -0.6603 LP             1 S1                 0.0000
     56 ****         4.9448   0.0130   1.0628 LP             1 S1                 0.0000
     57 ****        -0.3767   0.3447   2.6231 LP             1 S1                 0.0000
     58 ****         1.1935   0.3741   3.3537 LP             1 S1                 0.0000
@<TRIPOS>BOND
    1    1    2 1     
    2    1   26 1     
    3    1   27 1     
    4    1   28 1     
    5    2    3 1     
    6    2   29 1     
    7    2   30 1     
    8    3    4 1     
    9    3   31 1     
   10    3   32 1     
   11    4    5 1     
   12    4   33 1     
   13    4   34 1     
   14    5    6 am    
   15    5   13 1     
   16    6    7 2     
   17    6    8 1     
   18    8   12 1     
   19    8    9 1     
   20    8   35 1     
   21    9   10 1     
   22    9   36 1     
   23    9   37 1     
   24   10   11 1     
   25   10   38 1     
   26   10   39 1     
   27   11   12 1     
   28   11   40 1     
   29   11   41 1     
   30   13   23 1     
   31   13   14 2     
   32   14   15 1     
   33   14   16 1     
   34   15   42 1     
   35   15   43 1     
   36   16   17 1     
   37   16   20 1     
   38   17   18 1     
   39   17   44 1     
   40   17   45 1     
   41   18   19 1     
   42   18   46 1     
   43   18   47 1     
   44   19   48 1     
   45   19   49 1     
   46   19   50 1     
   47   20   21 2     
   48   20   22 1     
   49   22   25 1     
   50   22   23 1     
   51   23   24 2     
   52    7   51 1     
   53    7   52 1     
   54   12   53 1     
   55   12   54 1     
   56   21   55 1     
   57   21   56 1     
   58   24   57 1     
   59   24   58 1     
@<TRIPOS>SUBSTRUCTURE
      1 S1             1
@<TRIPOS>SET
LONE_PAIRS      STATIC     ATOMS    <user>   **** ""
8 51 52 53 54 55 56 57 58
DONOR_HYDROGENS      STATIC     ATOMS    <user>   **** ""
3 42 43 25
ATOM$BLUE        STATIC     ATOMS    COLORGROUP SYSTEM
8 51 52 53 54 55 56 57 58
ATOM$RED        STATIC     ATOMS    COLORGROUP SYSTEM
3 42 43 25
