#       Name:                AV-unprocessed.smi:2385
#       Creating user name   scv26
#       Creation time:       Fri Mar 27 13:09:08 2020


#       File generated by GOLD software.
#

@<TRIPOS>MOLECULE
AV-unprocessed.smi:2385
    55    57     1
SMALL
NO_CHARGES


@<TRIPOS>ATOM
      1 ****        -8.0972   2.5429  -0.0612 C.3            1 S1                 0.0000
      2 ****        -6.8870   1.6532   0.1300 C.ar           1 S1                 0.0000
      3 ****        -7.0288   0.2985   0.4850 C.ar           1 S1                 0.0000
      4 ****        -5.8701  -0.4847   0.6492 C.ar           1 S1                 0.0000
      5 ****        -4.5996   0.1036   0.4581 C.ar           1 S1                 0.0000
      6 ****        -3.4975  -0.7728   0.6449 N.am           1 S1                 0.0000
      7 ****        -2.1866  -0.4968   0.5280 C.2            1 S1                 0.0000
      8 ****        -1.7157   0.6062   0.2497 O.2            1 S1                 0.0000
      9 ****        -1.4403  -1.5903   0.7570 N.am           1 S1                 0.0000
     10 ****         0.0202  -1.6968   0.7215 C.3            1 S1                 0.0000
     11 ****         0.7090  -0.8281   1.7921 C.3            1 S1                 0.0000
     12 ****         2.2363  -0.9985   1.7355 C.3            1 S1                 0.0000
     13 ****         2.7604  -0.6882   0.3793 N.4            1 S1                 1.0000
     14 ****         4.2451  -0.6847   0.3201 C.3            1 S1                 0.0000
     15 ****         4.7895   0.5356  -0.4467 C.3            1 S1                 0.0000
     16 ****         4.6025   0.5009  -1.9517 C.3            1 S1                 0.0000
     17 ****         5.6428   1.5092  -2.4329 C.3            1 S1                 0.0000
     18 ****         6.6831   1.4965  -1.4598 O.3            1 S1                 0.0000
     19 ****         6.3087   0.6769  -0.3582 C.3            1 S1                 0.0000
     20 ****         2.1393  -1.5548  -0.6576 C.3            1 S1                 0.0000
     21 ****         0.6105  -1.3935  -0.6697 C.3            1 S1                 0.0000
     22 ****        -4.4732   1.4108   0.1192 N.ar           1 S1                 0.0000
     23 ****        -5.5843   2.1606  -0.0393 C.ar           1 S1                 0.0000
     24 ****        -8.9909   1.9512  -0.2621 H              1 S1                 0.0000
     25 ****        -7.9448   3.2222  -0.9005 H              1 S1                 0.0000
     26 ****        -8.2726   3.1374   0.8355 H              1 S1                 0.0000
     27 ****        -8.0067  -0.1372   0.6285 H              1 S1                 0.0000
     28 ****        -5.9618  -1.5270   0.9184 H              1 S1                 0.0000
     29 ****        -3.7372  -1.7228   0.8871 H              1 S1                 0.0000
     30 ****        -1.9355  -2.4420   0.9786 H              1 S1                 0.0000
     31 ****         0.2388  -2.7404   0.9523 H              1 S1                 0.0000
     32 ****         0.4673   0.2252   1.6482 H              1 S1                 0.0000
     33 ****         0.3448  -1.0960   2.7845 H              1 S1                 0.0000
     34 ****         2.6931  -0.3321   2.4683 H              1 S1                 0.0000
     35 ****         2.5151  -2.0167   2.0119 H              1 S1                 0.0000
     36 ****         4.6489  -0.6406   1.3327 H              1 S1                 0.0000
     37 ****         4.6197  -1.6185  -0.1027 H              1 S1                 0.0000
     38 ****         4.3372   1.4478  -0.0532 H              1 S1                 0.0000
     39 ****         4.8379  -0.4900  -2.3428 H              1 S1                 0.0000
     40 ****         3.5920   0.7635  -2.2661 H              1 S1                 0.0000
     41 ****         6.0236   1.2688  -3.4258 H              1 S1                 0.0000
     42 ****         5.2152   2.5118  -2.4686 H              1 S1                 0.0000
     43 ****         6.6350   1.1101   0.5878 H              1 S1                 0.0000
     44 ****         6.7945  -0.2937  -0.4699 H              1 S1                 0.0000
     45 ****         2.5332  -1.3066  -1.6423 H              1 S1                 0.0000
     46 ****         2.4035  -2.5966  -0.4685 H              1 S1                 0.0000
     47 ****         0.1750  -2.0596  -1.4154 H              1 S1                 0.0000
     48 ****         0.3664  -0.3777  -0.9819 H              1 S1                 0.0000
     49 ****        -5.4268   3.1945  -0.3095 H              1 S1                 0.0000
     50 ****         2.4698   0.2590   0.1822 H              1 S1                 0.0000
     51 ****        -2.3240   1.3839   0.0907 LP             1 S1                 0.0000
     52 ****        -0.7250   0.7244   0.1826 LP             1 S1                 0.0000
     53 ****         6.8471   2.4290  -1.1381 LP             1 S1                 0.0000
     54 ****         7.5187   1.1346  -1.8730 LP             1 S1                 0.0000
     55 ****        -3.5677   1.8143  -0.0117 LP             1 S1                 0.0000
@<TRIPOS>BOND
    1    1    2 1     
    2    1   24 1     
    3    1   25 1     
    4    1   26 1     
    5    2   23 ar    
    6    2    3 ar    
    7    3    4 ar    
    8    3   27 1     
    9    4    5 ar    
   10    4   28 1     
   11    5    6 1     
   12    5   22 ar    
   13    6    7 am    
   14    6   29 1     
   15    7    8 2     
   16    7    9 am    
   17    9   10 1     
   18    9   30 1     
   19   10   21 1     
   20   10   11 1     
   21   10   31 1     
   22   11   12 1     
   23   11   32 1     
   24   11   33 1     
   25   12   13 1     
   26   12   34 1     
   27   12   35 1     
   28   13   14 1     
   29   13   20 1     
   30   13   50 1     
   31   14   15 1     
   32   14   36 1     
   33   14   37 1     
   34   15   19 1     
   35   15   16 1     
   36   15   38 1     
   37   16   17 1     
   38   16   39 1     
   39   16   40 1     
   40   17   18 1     
   41   17   41 1     
   42   17   42 1     
   43   18   19 1     
   44   19   43 1     
   45   19   44 1     
   46   20   21 1     
   47   20   45 1     
   48   20   46 1     
   49   21   47 1     
   50   21   48 1     
   51   22   23 ar    
   52   23   49 1     
   53    8   51 1     
   54    8   52 1     
   55   18   53 1     
   56   18   54 1     
   57   22   55 1     
@<TRIPOS>SUBSTRUCTURE
      1 S1             1
@<TRIPOS>SET
LONE_PAIRS      STATIC     ATOMS    <user>   **** ""
5 51 52 53 54 55
DONOR_HYDROGENS      STATIC     ATOMS    <user>   **** ""
3 29 30 50
ATOM$BLUE        STATIC     ATOMS    COLORGROUP SYSTEM
5 51 52 53 54 55
ATOM$RED        STATIC     ATOMS    COLORGROUP SYSTEM
3 29 30 50
