#       Name:                AV-unprocessed.smi:658
#       Creating user name   scv26
#       Creation time:       Fri Mar 27 00:18:03 2020


#       File generated by GOLD software.
#

@<TRIPOS>MOLECULE
AV-unprocessed.smi:658
    39    39     1
SMALL
NO_CHARGES


@<TRIPOS>ATOM
      1 ****        -2.0970  -0.7367  -1.8164 C.3            1 S1                 0.0000
      2 ****        -1.6433  -0.0941  -0.4953 C.3            1 S1                 0.0000
      3 ****        -0.1691   0.0491  -0.4953 N.4            1 S1                 1.0000
      4 ****         0.3239   1.4397  -0.5108 C.3            1 S1                 0.0000
      5 ****         1.8553   1.4720  -0.4822 C.3            1 S1                 0.0000
      6 ****         2.4127   2.9004  -0.4920 C.3            1 S1                 0.0000
      7 ****         4.2536   2.8841  -0.4826 S.o2           1 S1                 0.0000
      8 ****         4.5721   4.4649  -0.4956 N.pl3          1 S1                -1.0000
      9 ****         4.6405   2.2382   0.7810 O.2            1 S1                 0.0000
     10 ****         4.6566   2.2199  -1.7312 O.2            1 S1                 0.0000
     11 ****        -2.1377  -0.8728   0.7519 C.3            1 S1                 0.0000
     12 ****        -1.8171  -0.1508   2.0744 C.3            1 S1                 0.0000
     13 ****        -1.6962  -2.2646   0.7737 N.pl3          1 S1                 0.0000
     14 ****        -2.4335  -3.3962   0.4886 C.2            1 S1                 0.0000
     15 ****        -1.6037  -4.4720   0.6245 C.2            1 S1                 0.0000
     16 ****        -0.3586  -3.8940   0.9959 C.2            1 S1                 0.0000
     17 ****        -0.4152  -2.5750   1.0791 N.2            1 S1                 0.0000
     18 ****        -3.1811  -0.8489  -1.8453 H              1 S1                 0.0000
     19 ****        -1.6564  -1.7239  -1.9602 H              1 S1                 0.0000
     20 ****        -1.8086  -0.1208  -2.6688 H              1 S1                 0.0000
     21 ****        -2.0923   0.8999  -0.4529 H              1 S1                 0.0000
     22 ****         0.1877  -0.4031   0.3351 H              1 S1                 0.0000
     23 ****        -0.0463   1.9427  -1.4051 H              1 S1                 0.0000
     24 ****        -0.0757   1.9721   0.3534 H              1 S1                 0.0000
     25 ****         2.2141   0.9503   0.4061 H              1 S1                 0.0000
     26 ****         2.2461   0.9254  -1.3412 H              1 S1                 0.0000
     27 ****         2.0853   3.4414  -1.3802 H              1 S1                 0.0000
     28 ****         2.0750   3.4570   0.3825 H              1 S1                 0.0000
     29 ****         4.7030   4.7722   0.4754 H              1 S1                 0.0000
     30 ****        -3.2265  -0.9038   0.6864 H              1 S1                 0.0000
     31 ****        -2.2331   0.8569   2.0805 H              1 S1                 0.0000
     32 ****        -0.7434  -0.0643   2.2441 H              1 S1                 0.0000
     33 ****        -2.2426  -0.6860   2.9239 H              1 S1                 0.0000
     34 ****        -3.4775  -3.3437   0.2165 H              1 S1                 0.0000
     35 ****        -1.8490  -5.5140   0.4807 H              1 S1                 0.0000
     36 ****         0.5784  -4.3894   1.2038 H              1 S1                 0.0000
     37 ****         0.2012  -0.4339  -1.3012 H              1 S1                 0.0000
     38 ****         4.6317   5.0450  -1.3080 LP             1 S1                 0.0000
     39 ****         0.3254  -1.9460   1.3155 LP             1 S1                 0.0000
@<TRIPOS>BOND
    1    1    2 1     
    2    1   18 1     
    3    1   19 1     
    4    1   20 1     
    5    2    3 1     
    6    2   11 1     
    7    2   21 1     
    8    3    4 1     
    9    3   22 1     
   10    3   37 1     
   11    4    5 1     
   12    4   23 1     
   13    4   24 1     
   14    5    6 1     
   15    5   25 1     
   16    5   26 1     
   17    6    7 1     
   18    6   27 1     
   19    6   28 1     
   20    7    8 1     
   21    7    9 2     
   22    7   10 2     
   23    8   29 1     
   24   11   12 1     
   25   11   13 1     
   26   11   30 1     
   27   12   31 1     
   28   12   32 1     
   29   12   33 1     
   30   13   17 1     
   31   13   14 1     
   32   14   15 2     
   33   14   34 1     
   34   15   16 1     
   35   15   35 1     
   36   16   17 2     
   37   16   36 1     
   38    8   38 1     
   39   17   39 1     
@<TRIPOS>SUBSTRUCTURE
      1 S1             1
@<TRIPOS>SET
LONE_PAIRS      STATIC     ATOMS    <user>   **** ""
4 38 9 10 39
DONOR_HYDROGENS      STATIC     ATOMS    <user>   **** ""
3 22 37 29
ATOM$BLUE        STATIC     ATOMS    COLORGROUP SYSTEM
4 38 9 10 39
ATOM$RED        STATIC     ATOMS    COLORGROUP SYSTEM
3 22 37 29
