AV-unprocessed.smi:1944|AV-procd|sdf|7856|dock1
  -GOLD-   2272010 03D 1   1.00000     0.00000
 Structure written by MMmdl.
 46 47  0  0  0  0  0  0  0  0  2 V2000
  153.2724  138.0940  154.6811 C   0  0  0  0  0  0  0  0  0  0  0  0
  151.8770  138.3697  154.6252 O   0  0  0  0  0  0  0  0  0  0  0  0
  151.3595  139.3288  155.4751 C   0  0  0  0  0  0  0  0  0  0  0  0
  152.1834  139.8842  156.3990 N   0  0  0  0  0  0  0  0  0  0  0  0
  151.6787  140.8158  157.2333 C   0  0  0  0  0  0  0  0  0  0  0  0
  150.3365  141.2354  157.1974 C   0  0  0  0  0  0  0  0  0  0  0  0
  149.4800  140.6616  156.2395 C   0  0  0  0  0  0  0  0  0  0  0  0
  149.9988  139.6930  155.3459 C   0  0  0  0  0  0  0  0  0  0  0  0
  149.2209  139.0362  154.3523 N   0  0  0  0  0  0  0  0  0  0  0  0
  147.8968  138.8093  154.3360 C   0  0  0  0  0  0  0  0  0  0  0  0
  147.1013  139.1543  155.2095 O   0  0  0  0  0  0  0  0  0  0  0  0
  147.5292  138.1600  153.2222 N   0  0  0  0  0  0  0  0  0  0  0  0
  146.1591  137.7867  152.8893 C   0  0  0  0  0  0  0  0  0  0  0  0
  145.7717  136.4318  153.5176 C   0  0  0  0  0  0  0  0  0  0  0  0
  146.2848  135.2681  152.7388 N   0  3  1  0  0  0  0  0  0  0  0  0
  146.6847  134.1490  153.6406 C   0  0  0  0  0  0  0  0  0  0  0  0
  147.3380  132.9917  152.8736 C   0  0  0  0  0  0  0  0  0  0  0  0
  146.3895  132.4645  151.7983 C   0  0  0  0  0  0  0  0  0  0  0  0
  145.9892  133.6158  150.8733 C   0  0  0  0  0  0  0  0  0  0  0  0
  145.3673  134.8014  151.6462 C   0  0  2  0  0  0  0  0  0  0  0  0
  145.0179  135.9093  150.6289 C   0  0  0  0  0  0  0  0  0  0  0  0
  153.5159  137.3175  153.9562 H   0  0  0  0  0  0  0  0  0  0  0  0
  153.5688  137.7308  155.6662 H   0  0  0  0  0  0  0  0  0  0  0  0
  153.8635  138.9763  154.4316 H   0  0  0  0  0  0  0  0  0  0  0  0
  152.3640  141.2346  157.9554 H   0  0  0  0  0  0  0  0  0  0  0  0
  149.9707  141.9772  157.8920 H   0  0  0  0  0  0  0  0  0  0  0  0
  148.4449  140.9647  156.2213 H   0  0  0  0  0  0  0  0  0  0  0  0
  149.7286  138.7651  153.5225 H   0  0  0  0  0  0  0  0  0  0  0  0
  148.2457  137.9197  152.5523 H   0  0  0  0  0  0  0  0  0  0  0  0
  145.4720  138.5697  153.2149 H   0  0  0  0  0  0  0  0  0  0  0  0
  146.0981  137.7521  151.8028 H   0  0  0  0  0  0  0  0  0  0  0  0
  146.1230  136.3695  154.5487 H   0  0  0  0  0  0  0  0  0  0  0  0
  144.6871  136.4124  153.5710 H   0  0  0  0  0  0  0  0  0  0  0  0
  147.3920  134.4938  154.3927 H   0  0  0  0  0  0  0  0  0  0  0  0
  145.8080  133.7867  154.1799 H   0  0  0  0  0  0  0  0  0  0  0  0
  148.2693  133.3285  152.4162 H   0  0  0  0  0  0  0  0  0  0  0  0
  147.6024  132.1892  153.5629 H   0  0  0  0  0  0  0  0  0  0  0  0
  146.8693  131.6693  151.2268 H   0  0  0  0  0  0  0  0  0  0  0  0
  145.5024  132.0297  152.2606 H   0  0  0  0  0  0  0  0  0  0  0  0
  146.8674  133.9561  150.3224 H   0  0  0  0  0  0  0  0  0  0  0  0
  145.2853  133.2453  150.1268 H   0  0  0  0  0  0  0  0  0  0  0  0
  144.4404  134.4585  152.1091 H   0  0  0  0  0  0  0  0  0  0  0  0
  144.5159  135.4911  149.7556 H   0  0  0  0  0  0  0  0  0  0  0  0
  145.9124  136.4232  150.2755 H   0  0  0  0  0  0  0  0  0  0  0  0
  144.3328  136.6525  151.0344 H   0  0  0  0  0  0  0  0  0  0  0  0
  147.1245  135.5854  152.2756 H   0  0  0  0  0  0  0  0  0  0  0  0
  1  2  1  0  0  0  0
  1 22  1  0  0  0  0
  1 23  1  0  0  0  0
  1 24  1  0  0  0  0
  2  3  1  0  0  0  0
  3  8  1  0  0  0  0
  3  4  2  0  0  0  0
  4  5  1  0  0  0  0
  5  6  2  0  0  0  0
  5 25  1  0  0  0  0
  6  7  1  0  0  0  0
  6 26  1  0  0  0  0
  7  8  2  0  0  0  0
  7 27  1  0  0  0  0
  8  9  1  0  0  0  0
  9 10  1  0  0  0  0
  9 28  1  0  0  0  0
 10 11  2  0  0  0  0
 10 12  1  0  0  0  0
 12 13  1  0  0  0  0
 12 29  1  0  0  0  0
 13 14  1  0  0  0  0
 13 30  1  0  0  0  0
 13 31  1  0  0  0  0
 14 15  1  0  0  0  0
 14 32  1  0  0  0  0
 14 33  1  0  0  0  0
 15 20  1  0  0  0  0
 15 16  1  0  0  0  0
 15 46  1  0  0  0  0
 16 17  1  0  0  0  0
 16 34  1  0  0  0  0
 16 35  1  0  0  0  0
 17 18  1  0  0  0  0
 17 36  1  0  0  0  0
 17 37  1  0  0  0  0
 18 19  1  0  0  0  0
 18 38  1  0  0  0  0
 18 39  1  0  0  0  0
 19 20  1  0  0  0  0
 19 40  1  0  0  0  0
 19 41  1  0  0  0  0
 20 21  1  0  0  0  0
 20 42  1  0  0  0  0
 21 43  1  0  0  0  0
 21 44  1  0  0  0  0
 21 45  1  0  0  0  0
M  CHG  1  15   1
M  END
> <s_m_source_file>
AV-unprocessed.smi

> <i_m_source_file_index>
1944

> <i_lp_mmshare_version>
43012

> <i_f3d_flags>
0

> <s_epik_input>
W0NIM11PYzFuW2NIXVtjSF1bY0hdYzFbTkhdQyg9TylbTkhdW0NIMl1bQ0gyXU4yW0NIMl1bQ0gyXVtDSDJdW0NIMl1bQ0BIXTJbQ0gzXQ==

> <s_epik_cmdline>
J2VwaWtfcHl0aG9uJywgJy1waCcsICc3LjAnLCAnLXRuJywgJzgnLCAnLW1hJywgJzIwMCcsICctbWV0YWxfYmluZGluZycsICctaW1hZScsICc8aW5maWxlLm1hZT4nLCAnLW9tYWUnLCAnPG91dGZpbGUubWFlPic=

> <r_lp_tautomer_probability>
1

> <r_epik_Ionization_Penalty>
0.00219525

> <r_epik_Ionization_Penalty_Charging>
0.00211816

> <r_epik_Ionization_Penalty_Neutral>
7.7088e-05

> <r_epik_State_Penalty>
0.00145254

> <r_epik_Charging_Adjusted_Penalty>
0.0035707

> <i_epik_Tot_Q>
1

> <i_epik_Tot_abs_Q>
1

> <r_epik_Metal_State_Penalty>
-0

> <b_epik_Metal_Only>
0

> <s_lp_Force_Field>
OPLS_2005

> <r_lp_Energy>
21.9876

> <b_lp_Chiralities_Consistent>
1

> <s_lp_Variant>
AV-unprocessed.smi:1944-4

> <Gold.Version>
5.8.1

> <Gold.Id.Protein>
6NUR|6NUR_protein|mol2

> <Gold.PLP.Fitness>
40.0165

> <Gold.PLP.PLP>
-31.3569

> <Gold.PLP.part.hbond>
-3.7486

> <Gold.PLP.part.metal>
0.0000

> <Gold.PLP.part.buried>
-1.2154

> <Gold.PLP.part.nonpolar>
-27.3327

> <Gold.PLP.part.repulsive>
0.2654

> <Gold.PLP.ligand.clash>
0.0000

> <Gold.PLP.ligand.torsion>
0.8635

> <Gold.PLP.Chemscore.Hbond>
3.4363

> <Gold.PLP.Chemscore.CHOScore>
0.0000

> <Gold.PLP.Chemscore.Metal>
0.0000

> <Gold.Chemscore.Hbonds>
donor molecule, donor type, donor heavy atom, donor atom, acceptor molecule, acceptor atom, score
      L1  H    12    29       P1  7948  0.70
      L1  H    15    46       P1  7948  2.00
      P1  H  7997  8009       L1     4  0.67

> <Gold.PLP.Chemscore.Internal.Correction>
0.0780

> <Gold.Rescore>
     Score         DG    S(hbond)    S(metal)    S(lipo)     H(rot)  DE(clash)    DE(int)     intcor
     15.95     -18.04       2.47        0.00      74.20       1.71       0.15       1.94       ----

> <Gold.Chemscore.Fitness>
15.9525

> <Gold.Chemscore.DG>
-18.0409

> <Gold.Chemscore.ZeroCoef>
-5.4800

> <Gold.Chemscore.Hbond>
2.4727

> <Gold.Chemscore.Metal>
0.0000

> <Gold.Chemscore.Lipo>
74.1997

> <Gold.Chemscore.Internal_Hbond>
0.0000

> <Gold.Chemscore.DEClash>
0.1514

> <Gold.Chemscore.DEInternal>
1.9370

> <Gold.Chemscore.Rot>
1.7107

> <Gold.Chemscore.Internal.Correction>
   9.000000E+99

> <Gold.Chemscore.Hbonds>
donor molecule, donor type, donor heavy atom, donor atom, acceptor molecule, acceptor atom, score
      L1  H    12    29       P1  7948  0.71
      L1  H    15    46       P1  7948  0.99
      P1  H  7997  8009       L1     4  0.43

> <Gold.Chemscore.Hbond.Weighted>
-8.2589

> <Gold.Chemscore.Metal.Weighted>
-0.0000

> <Gold.Chemscore.Lipo.Weighted>
-8.6814

> <Gold.Chemscore.Internal_Hbond.Weighted>
0.0000

> <Gold.Chemscore.DEClash.Weighted>
0.1514

> <Gold.Chemscore.DEInternal.Weighted>
1.9370

> <Gold.Chemscore.Rot.Weighted>
4.3794

> <Gold.Chemscore.Internal.Correction.Weighted>
   9.000000E+99

> <Gold.Protein.RotatedTorsions>
[ 6907 6896 6895 6894 ] final -129.25 input  -60.11 | X-H torsion
[ 7974 7965 7964 7962 ] final   71.41 input  175.53 | X-H torsion
[ 8008 7997 7996 7995 ] final -159.59 input   59.86 | X-H torsion
[ 10167 10162 10161 10158 ] final   47.86 input  -65.29 | X-H torsion
[ 10718 10713 10712 10709 ] final -153.34 input   66.30 | X-H torsion
[ 10763 10752 10751 10750 ] final -163.76 input  -60.55 | X-H torsion
[ 11005 11000 10999 10996 ] final  103.48 input  -57.11 | X-H torsion

> <Gold.Protein.ActiveResidues>
 VAL166  LYS551  ARG553  GLY616  TRP617  ASP618  TYR619  PRO620  LYS621  CYS622 
 ASP623  PHE694  ASN695  SER759  ASP760  ASP761  ALA762  ILE779  LEU786  VAL792 
 PHE793  MET794  SER795  GLU796  ALA797  LYS798  CYS799  TRP800  GLU811  SER814 

> <Gold.Protein.RotatedAtoms>
  150.9267  133.6816  159.2819 H   0  0  0  0  0  0  0  0  0  0  0  0  # atno 6907 bound_to 6896
  151.4252  135.1001  159.9635 H   0  0  0  0  0  0  0  0  0  0  0  0  # atno 6908 bound_to 6896
  152.5006  133.8709  159.7353 H   0  0  0  0  0  0  0  0  0  0  0  0  # atno 6909 bound_to 6896
  145.7661  139.2822  143.1348 H   0  0  0  0  0  0  0  0  0  0  0  0  # atno 7974 bound_to 7965
  155.7649  140.0844  157.2137 H   0  0  0  0  0  0  0  0  0  0  0  0  # atno 8008 bound_to 7997
  154.4000  140.1536  156.2932 H   0  0  0  0  0  0  0  0  0  0  0  0  # atno 8009 bound_to 7997
  155.8803  140.3421  155.5886 H   0  0  0  0  0  0  0  0  0  0  0  0  # atno 8010 bound_to 7997
  140.2993  144.2953  150.6222 H   0  0  0  0  0  0  0  0  0  0  0  0  # atno 10167 bound_to 10162
  156.4845  130.8318  151.2544 H   0  0  0  0  0  0  0  0  0  0  0  0  # atno 10718 bound_to 10713
  154.7092  135.3003  154.9223 H   0  0  0  0  0  0  0  0  0  0  0  0  # atno 10763 bound_to 10752
  154.0130  135.6692  153.4771 H   0  0  0  0  0  0  0  0  0  0  0  0  # atno 10764 bound_to 10752
  153.0741  135.5044  154.8281 H   0  0  0  0  0  0  0  0  0  0  0  0  # atno 10765 bound_to 10752
  139.8784  134.9265  156.5217 H   0  0  0  0  0  0  0  0  0  0  0  0  # atno 11005 bound_to 11000
  146.0216  140.8343  142.9920 LP  0  0  0  0  0  0  0  0  0  0  0  0  # atno 17320 bound_to 7965
  144.6821  140.2637  143.7315 LP  0  0  0  0  0  0  0  0  0  0  0  0  # atno 17321 bound_to 7965
  140.5665  143.2185  151.7674 LP  0  0  0  0  0  0  0  0  0  0  0  0  # atno 17342 bound_to 10162
  139.4919  144.4277  151.9908 LP  0  0  0  0  0  0  0  0  0  0  0  0  # atno 17343 bound_to 10162
  157.7480  131.0034  150.3036 LP  0  0  0  0  0  0  0  0  0  0  0  0  # atno 17370 bound_to 10713
  156.3488  130.3827  149.7346 LP  0  0  0  0  0  0  0  0  0  0  0  0  # atno 17371 bound_to 10713
  140.8446  133.8179  155.9108 LP  0  0  0  0  0  0  0  0  0  0  0  0  # atno 17394 bound_to 11000
  140.9204  134.2149  157.4930 LP  0  0  0  0  0  0  0  0  0  0  0  0  # atno 17395 bound_to 11000

$$$$
