#       Name:                AV-unprocessed.smi:912
#       Creating user name   scv26
#       Creation time:       Fri Mar 27 02:04:46 2020


#       File generated by GOLD software.
#

@<TRIPOS>MOLECULE
AV-unprocessed.smi:912
    30    30     1
SMALL
NO_CHARGES


@<TRIPOS>ATOM
      1 ****        -2.1757   1.9735  -0.1869 C.3            1 S1                 0.0000
      2 ****        -1.4683   0.7451  -0.5424 N.3            1 S1                 0.0000
      3 ****        -0.0405   0.6394  -0.1863 C.3            1 S1                 0.0000
      4 ****         0.7165   1.4035  -1.3041 C.3            1 S1                 0.0000
      5 ****         0.2618   1.2473   1.2114 C.2            1 S1                 0.0000
      6 ****        -0.2878   0.6500   2.2749 N.am           1 S1                 0.0000
      7 ****         0.9741   2.2431   1.3347 O.2            1 S1                 0.0000
      8 ****         0.4292  -0.8303  -0.1646 C.ar           1 S1                 0.0000
      9 ****        -0.4761  -1.9179  -0.2526 C.ar           1 S1                 0.0000
     10 ****         0.0273  -3.2336  -0.2205 C.ar           1 S1                 0.0000
     11 ****         1.3390  -3.5255  -0.1053 N.ar           1 S1                 0.0000
     12 ****         2.2038  -2.4948  -0.0153 C.ar           1 S1                 0.0000
     13 ****         1.8045  -1.1442  -0.0385 C.ar           1 S1                 0.0000
     14 ****        -3.1707   1.9497  -0.6307 H              1 S1                 0.0000
     15 ****        -1.6695   2.8615  -0.5647 H              1 S1                 0.0000
     16 ****        -2.3103   2.0764   0.8898 H              1 S1                 0.0000
     17 ****        -1.5248   0.6686  -1.5478 H              1 S1                 0.0000
     18 ****         1.7950   1.4104  -1.1449 H              1 S1                 0.0000
     19 ****         0.4098   2.4470  -1.3772 H              1 S1                 0.0000
     20 ****         0.5415   0.9461  -2.2786 H              1 S1                 0.0000
     21 ****        -0.1124   1.0151   3.1999 H              1 S1                 0.0000
     22 ****        -0.8727  -0.1630   2.1485 H              1 S1                 0.0000
     23 ****        -1.5420  -1.7710  -0.3402 H              1 S1                 0.0000
     24 ****        -0.6453  -4.0758  -0.2870 H              1 S1                 0.0000
     25 ****         3.2479  -2.7532   0.0814 H              1 S1                 0.0000
     26 ****         2.5497  -0.3674   0.0483 H              1 S1                 0.0000
     27 ****        -1.9132   0.0242  -0.0110 LP             1 S1                 0.0000
     28 ****         1.3711   2.6771   0.5260 LP             1 S1                 0.0000
     29 ****         1.1560   2.6182   2.2437 LP             1 S1                 0.0000
     30 ****         1.6589  -4.4728  -0.0872 LP             1 S1                 0.0000
@<TRIPOS>BOND
    1    1    2 1     
    2    1   14 1     
    3    1   15 1     
    4    1   16 1     
    5    2    3 1     
    6    2   17 1     
    7    3    4 1     
    8    3    5 1     
    9    3    8 1     
   10    4   18 1     
   11    4   19 1     
   12    4   20 1     
   13    5    6 am    
   14    5    7 2     
   15    6   21 1     
   16    6   22 1     
   17    8   13 ar    
   18    8    9 ar    
   19    9   10 ar    
   20    9   23 1     
   21   10   11 ar    
   22   10   24 1     
   23   11   12 ar    
   24   12   13 ar    
   25   12   25 1     
   26   13   26 1     
   27    2   27 1     
   28    7   28 1     
   29    7   29 1     
   30   11   30 1     
@<TRIPOS>SUBSTRUCTURE
      1 S1             1
@<TRIPOS>SET
LONE_PAIRS      STATIC     ATOMS    <user>   **** ""
4 27 28 29 30
DONOR_HYDROGENS      STATIC     ATOMS    <user>   **** ""
3 17 21 22
ATOM$BLUE        STATIC     ATOMS    COLORGROUP SYSTEM
4 27 28 29 30
ATOM$RED        STATIC     ATOMS    COLORGROUP SYSTEM
3 17 21 22
