AV-unprocessed.smi:2198|AV-procd|sdf|8915|dock6
  -GOLD-   2272012133D 1   1.00000     0.00000
 Structure written by MMmdl.
 43 44  0  0  0  0  0  0  0  0  1 V2000
  150.5858  129.4492  154.9295 C   0  0  0  0  0  0  0  0  0  0  0  0
  150.2359  130.8964  155.1999 C   0  0  0  0  0  0  0  0  0  0  0  0
  149.5788  131.5157  154.1496 N   0  0  0  0  0  0  0  0  0  0  0  0
  149.2180  132.8424  154.3040 C   0  0  0  0  0  0  0  0  0  0  0  0
  148.5049  133.4461  153.1065 C   0  0  0  0  0  0  0  0  0  0  0  0
  149.4930  133.5165  155.4495 C   0  0  0  0  0  0  0  0  0  0  0  0
  149.1045  134.9792  155.6611 C   0  0  0  0  0  0  0  0  0  0  0  0
  149.9339  136.0093  154.8899 C   0  0  0  0  0  0  0  0  0  0  0  0
  151.0493  135.7168  154.4589 O   0  0  0  0  0  0  0  0  0  0  0  0
  149.3729  137.2168  154.7257 N   0  0  0  0  0  0  0  0  0  0  0  0
  149.9872  138.3514  154.0385 C   0  0  2  0  0  0  0  0  0  0  0  0
  151.4733  138.4696  154.4281 C   0  0  0  0  0  0  0  0  0  0  0  0
  151.6589  138.9570  155.8752 C   0  0  0  0  0  0  0  0  0  0  0  0
  150.9135  140.2781  156.1193 C   0  0  0  0  0  0  0  0  0  0  0  0
  149.4160  140.1520  155.7807 C   0  0  1  0  0  0  0  0  0  0  0  0
  148.6715  141.4716  156.0290 C   0  0  0  0  0  0  0  0  0  0  0  0
  149.2306  139.6666  154.3280 C   0  0  0  0  0  0  0  0  0  0  0  0
  150.1912  132.7979  156.5416 C   0  0  0  0  0  0  0  0  0  0  0  0
  150.4558  133.3492  157.6090 O   0  0  0  0  0  0  0  0  0  0  0  0
  150.5432  131.4547  156.3311 N   0  0  0  0  0  0  0  0  0  0  0  0
  149.3502  131.0504  153.2829 H   0  0  0  0  0  0  0  0  0  0  0  0
  151.2446  129.0558  155.7049 H   0  0  0  0  0  0  0  0  0  0  0  0
  151.0947  129.3503  153.9702 H   0  0  0  0  0  0  0  0  0  0  0  0
  149.6816  128.8406  154.9079 H   0  0  0  0  0  0  0  0  0  0  0  0
  149.0800  134.2788  152.7012 H   0  0  0  0  0  0  0  0  0  0  0  0
  147.5199  133.8138  153.3943 H   0  0  0  0  0  0  0  0  0  0  0  0
  148.3685  132.7147  152.3090 H   0  0  0  0  0  0  0  0  0  0  0  0
  149.1816  135.2017  156.7258 H   0  0  0  0  0  0  0  0  0  0  0  0
  148.0528  135.1379  155.4206 H   0  0  0  0  0  0  0  0  0  0  0  0
  148.4513  137.3651  155.1104 H   0  0  0  0  0  0  0  0  0  0  0  0
  149.9437  138.1570  152.9654 H   0  0  0  0  0  0  0  0  0  0  0  0
  151.9787  137.5135  154.2865 H   0  0  0  0  0  0  0  0  0  0  0  0
  151.9628  139.1726  153.7531 H   0  0  0  0  0  0  0  0  0  0  0  0
  151.2973  138.1986  156.5706 H   0  0  0  0  0  0  0  0  0  0  0  0
  152.7204  139.0859  156.0878 H   0  0  0  0  0  0  0  0  0  0  0  0
  151.0379  140.5801  157.1599 H   0  0  0  0  0  0  0  0  0  0  0  0
  151.3640  141.0660  155.5139 H   0  0  0  0  0  0  0  0  0  0  0  0
  148.9822  139.4051  156.4470 H   0  0  0  0  0  0  0  0  0  0  0  0
  149.0526  142.2691  155.3904 H   0  0  0  0  0  0  0  0  0  0  0  0
  148.7791  141.7942  157.0649 H   0  0  0  0  0  0  0  0  0  0  0  0
  147.6053  141.3640  155.8271 H   0  0  0  0  0  0  0  0  0  0  0  0
  149.5931  140.4370  153.6462 H   0  0  0  0  0  0  0  0  0  0  0  0
  148.1696  139.5473  154.1053 H   0  0  0  0  0  0  0  0  0  0  0  0
  1 22  1  0  0  0  0
  1 23  1  0  0  0  0
  1 24  1  0  0  0  0
  1  2  1  0  0  0  0
  2  3  1  0  0  0  0
  2 20  2  0  0  0  0
  3  4  1  0  0  0  0
  3 21  1  0  0  0  0
  4  6  2  0  0  0  0
  4  5  1  0  0  0  0
  5 25  1  0  0  0  0
  5 26  1  0  0  0  0
  5 27  1  0  0  0  0
  6 18  1  0  0  0  0
  6  7  1  0  0  0  0
  7  8  1  0  0  0  0
  7 28  1  0  0  0  0
  7 29  1  0  0  0  0
  8  9  2  0  0  0  0
  8 10  1  0  0  0  0
 10 11  1  0  0  0  0
 10 30  1  0  0  0  0
 11 17  1  0  0  0  0
 11 12  1  0  0  0  0
 11 31  1  0  0  0  0
 12 13  1  0  0  0  0
 12 32  1  0  0  0  0
 12 33  1  0  0  0  0
 13 14  1  0  0  0  0
 13 34  1  0  0  0  0
 13 35  1  0  0  0  0
 14 15  1  0  0  0  0
 14 36  1  0  0  0  0
 14 37  1  0  0  0  0
 15 16  1  0  0  0  0
 15 17  1  0  0  0  0
 15 38  1  0  0  0  0
 16 39  1  0  0  0  0
 16 40  1  0  0  0  0
 16 41  1  0  0  0  0
 17 42  1  0  0  0  0
 17 43  1  0  0  0  0
 18 19  2  0  0  0  0
 18 20  1  0  0  0  0
M  END
> <s_m_source_file>
AV-unprocessed.smi

> <i_m_source_file_index>
2198

> <i_lp_mmshare_version>
43012

> <i_f3d_flags>
0

> <s_epik_input>
W0NIM11jMW5jKFtDSDNdKWMoYyg9TylbbkhdMSlbQ0gyXUMoPU8pW05IXVtDQEBIXTJbQ0gyXVtDSDJdW0NIMl1bQ0BASF0oW0NIM10pW0NIMl0y

> <s_epik_cmdline>
J2VwaWtfcHl0aG9uJywgJy1waCcsICc3LjAnLCAnLXRuJywgJzgnLCAnLW1hJywgJzIwMCcsICctbWV0YWxfYmluZGluZycsICctaW1hZScsICc8aW5maWxlLm1hZT4nLCAnLW9tYWUnLCAnPG91dGZpbGUubWFlPic=

> <r_lp_tautomer_probability>
0.156392

> <r_epik_Ionization_Penalty>
0.0136514

> <r_epik_Ionization_Penalty_Charging>
0.0135207

> <r_epik_Ionization_Penalty_Neutral>
0.000130657

> <r_epik_State_Penalty>
1.15342

> <r_epik_Charging_Adjusted_Penalty>
1.16694

> <i_epik_Tot_Q>
0

> <i_epik_Tot_abs_Q>
0

> <r_epik_Metal_State_Penalty>
1.31404

> <b_epik_Metal_Only>
0

> <s_lp_Force_Field>
OPLS_2005

> <r_lp_Energy>
13.5111

> <b_lp_Chiralities_Consistent>
1

> <s_lp_Variant>
AV-unprocessed.smi:2198-5

> <Gold.Version>
5.8.1

> <Gold.Id.Protein>
6NUR|6NUR_protein|mol2

> <Gold.PLP.Fitness>
34.3383

> <Gold.PLP.PLP>
-29.7162

> <Gold.PLP.part.hbond>
-2.6117

> <Gold.PLP.part.metal>
0.0000

> <Gold.PLP.part.buried>
-1.0365

> <Gold.PLP.part.nonpolar>
-27.9161

> <Gold.PLP.part.repulsive>
0.8296

> <Gold.PLP.ligand.clash>
0.0000

> <Gold.PLP.ligand.torsion>
0.6334

> <Gold.PLP.Chemscore.Hbond>
1.9600

> <Gold.PLP.Chemscore.CHOScore>
0.0000

> <Gold.PLP.Chemscore.Metal>
0.0000

> <Gold.Chemscore.Hbonds>
donor molecule, donor type, donor heavy atom, donor atom, acceptor molecule, acceptor atom, score
      P1  H  6896  6909       L1    19  0.99
      P1  H 10752 10764       L1     9  1.00

> <Gold.PLP.Chemscore.Internal.Correction>
0.0089

> <Gold.Rescore>
     Score         DG    S(hbond)    S(metal)    S(lipo)     H(rot)  DE(clash)    DE(int)     intcor
     14.03     -16.06       1.95        0.00      67.25       1.48       0.12       1.91       ----

> <Gold.Chemscore.Fitness>
14.0349

> <Gold.Chemscore.DG>
-16.0571

> <Gold.Chemscore.ZeroCoef>
-5.4800

> <Gold.Chemscore.Hbond>
1.9456

> <Gold.Chemscore.Metal>
0.0000

> <Gold.Chemscore.Lipo>
67.2481

> <Gold.Chemscore.Internal_Hbond>
0.0000

> <Gold.Chemscore.DEClash>
0.1154

> <Gold.Chemscore.DEInternal>
1.9068

> <Gold.Chemscore.Rot>
1.4801

> <Gold.Chemscore.Internal.Correction>
   9.000000E+99

> <Gold.Chemscore.Hbonds>
donor molecule, donor type, donor heavy atom, donor atom, acceptor molecule, acceptor atom, score
      P1  H  6896  6909       L1    19  0.94
      P1  H 10752 10764       L1     9  0.98

> <Gold.Chemscore.Hbond.Weighted>
-6.4982

> <Gold.Chemscore.Metal.Weighted>
-0.0000

> <Gold.Chemscore.Lipo.Weighted>
-7.8680

> <Gold.Chemscore.Internal_Hbond.Weighted>
0.0000

> <Gold.Chemscore.DEClash.Weighted>
0.1154

> <Gold.Chemscore.DEInternal.Weighted>
1.9068

> <Gold.Chemscore.Rot.Weighted>
3.7891

> <Gold.Chemscore.Internal.Correction.Weighted>
   9.000000E+99

> <Gold.Protein.RotatedTorsions>
[ 6907 6896 6895 6894 ] final  -22.44 input  -60.11 | X-H torsion
[ 7974 7965 7964 7962 ] final   67.47 input  175.53 | X-H torsion
[ 8008 7997 7996 7995 ] final  138.06 input   59.86 | X-H torsion
[ 10167 10162 10161 10158 ] final -125.46 input  -65.29 | X-H torsion
[ 10718 10713 10712 10709 ] final  113.64 input   66.30 | X-H torsion
[ 10763 10752 10751 10750 ] final  -76.29 input  -60.55 | X-H torsion
[ 11005 11000 10999 10996 ] final   38.27 input  -57.11 | X-H torsion

> <Gold.Protein.ActiveResidues>
 VAL166  LYS551  ARG553  GLY616  TRP617  ASP618  TYR619  PRO620  LYS621  CYS622 
 ASP623  PHE694  ASN695  SER759  ASP760  ASP761  ALA762  ILE779  LEU786  VAL792 
 PHE793  MET794  SER795  GLU796  ALA797  LYS798  CYS799  TRP800  GLU811  SER814 

> <Gold.Protein.RotatedAtoms>
  151.2186  135.0509  159.8940 H   0  0  0  0  0  0  0  0  0  0  0  0  # atno 6907 bound_to 6896
  152.5417  134.0666  159.8185 H   0  0  0  0  0  0  0  0  0  0  0  0  # atno 6908 bound_to 6896
  151.0829  133.5328  159.2651 H   0  0  0  0  0  0  0  0  0  0  0  0  # atno 6909 bound_to 6896
  145.8143  139.3049  143.1081 H   0  0  0  0  0  0  0  0  0  0  0  0  # atno 7974 bound_to 7965
  156.2999  140.2403  156.4012 H   0  0  0  0  0  0  0  0  0  0  0  0  # atno 8008 bound_to 7997
  154.8525  140.0423  157.1633 H   0  0  0  0  0  0  0  0  0  0  0  0  # atno 8009 bound_to 7997
  154.8983  140.2973  155.5335 H   0  0  0  0  0  0  0  0  0  0  0  0  # atno 8010 bound_to 7997
  139.9818  143.5734  152.2375 H   0  0  0  0  0  0  0  0  0  0  0  0  # atno 10167 bound_to 10162
  157.6327  131.0986  150.7070 H   0  0  0  0  0  0  0  0  0  0  0  0  # atno 10718 bound_to 10713
  154.4979  135.5802  153.6509 H   0  0  0  0  0  0  0  0  0  0  0  0  # atno 10763 bound_to 10752
  152.9873  135.6128  154.3040 H   0  0  0  0  0  0  0  0  0  0  0  0  # atno 10764 bound_to 10752
  154.2945  135.2848  155.2619 H   0  0  0  0  0  0  0  0  0  0  0  0  # atno 10765 bound_to 10752
  140.2143  134.3718  155.8034 H   0  0  0  0  0  0  0  0  0  0  0  0  # atno 11005 bound_to 11000
  145.9744  140.8734  143.0146 LP  0  0  0  0  0  0  0  0  0  0  0  0  # atno 17320 bound_to 7965
  144.6754  140.1991  143.7389 LP  0  0  0  0  0  0  0  0  0  0  0  0  # atno 17321 bound_to 7965
  139.6404  144.7654  151.2351 LP  0  0  0  0  0  0  0  0  0  0  0  0  # atno 17342 bound_to 10162
  140.7486  143.6327  150.8408 LP  0  0  0  0  0  0  0  0  0  0  0  0  # atno 17343 bound_to 10162
  156.7407  130.4738  149.5478 LP  0  0  0  0  0  0  0  0  0  0  0  0  # atno 17370 bound_to 10713
  156.1542  130.6330  151.0635 LP  0  0  0  0  0  0  0  0  0  0  0  0  # atno 17371 bound_to 10713
  141.2225  133.7159  156.8470 LP  0  0  0  0  0  0  0  0  0  0  0  0  # atno 17394 bound_to 11000
  140.1917  134.8960  157.3068 LP  0  0  0  0  0  0  0  0  0  0  0  0  # atno 17395 bound_to 11000

$$$$
