#       Name:                AV-unprocessed.smi:3026
#       Creating user name   scv26
#       Creation time:       Fri Mar 27 16:45:16 2020


#       File generated by GOLD software.
#

@<TRIPOS>MOLECULE
AV-unprocessed.smi:3026
    40    41     1
SMALL
NO_CHARGES


@<TRIPOS>ATOM
      1 ****         0.9686  -3.2983  -2.8743 C.3            1 S1                 0.0000
      2 ****         0.5565  -2.7567  -1.5223 C.ar           1 S1                 0.0000
      3 ****         0.6315  -3.5467  -0.3563 C.ar           1 S1                 0.0000
      4 ****         0.2169  -2.9289   0.8403 C.ar           1 S1                 0.0000
      5 ****        -0.2243  -1.6528   0.8661 N.ar           1 S1                 0.0000
      6 ****        -0.2426  -0.9896  -0.2980 C.ar           1 S1                 0.0000
      7 ****        -0.7185   0.3154  -0.2961 N.3            1 S1                 0.0000
      8 ****        -2.1298   0.3959  -0.6608 C.3            1 S1                 0.0000
      9 ****        -2.5399   1.8413  -0.9648 C.3            1 S1                 0.0000
     10 ****        -2.2533   2.6425   0.1709 O.3            1 S1                 0.0000
     11 ****        -0.8606   2.6636   0.4544 C.3            1 S1                 0.0000
     12 ****        -0.3355   1.2429   0.7806 C.3            1 S1                 0.0000
     13 ****         1.1989   1.2739   1.0143 C.3            1 S1                 0.0000
     14 ****         1.6311   2.0983   2.2379 C.3            1 S1                 0.0000
     15 ****         3.0254   1.9818   2.4238 O.3            1 S1                 0.0000
     16 ****         0.1152  -1.4802  -1.4895 N.ar           1 S1                 0.0000
     17 ****         1.1500  -4.3724  -2.8287 H              1 S1                 0.0000
     18 ****         1.8827  -2.8106  -3.2138 H              1 S1                 0.0000
     19 ****         0.1868  -3.1170  -3.6123 H              1 S1                 0.0000
     20 ****         0.9842  -4.5674  -0.3746 H              1 S1                 0.0000
     21 ****         0.2371  -3.4609   1.7799 H              1 S1                 0.0000
     22 ****        -2.3307  -0.2296  -1.5318 H              1 S1                 0.0000
     23 ****        -2.7323   0.0022   0.1591 H              1 S1                 0.0000
     24 ****        -2.0196   2.2224  -1.8451 H              1 S1                 0.0000
     25 ****        -3.6081   1.8926  -1.1760 H              1 S1                 0.0000
     26 ****        -0.3198   3.0959  -0.3893 H              1 S1                 0.0000
     27 ****        -0.7123   3.3337   1.3002 H              1 S1                 0.0000
     28 ****        -0.8216   0.8982   1.6945 H              1 S1                 0.0000
     29 ****         1.5820   0.2641   1.1580 H              1 S1                 0.0000
     30 ****         1.6967   1.6551   0.1213 H              1 S1                 0.0000
     31 ****         1.3912   3.1538   2.1131 H              1 S1                 0.0000
     32 ****         1.1236   1.7473   3.1369 H              1 S1                 0.0000
     33 ****         3.2711   2.4899   3.1819 H              1 S1                 0.0000
     34 ****        -0.5243  -1.2216   1.7170 LP             1 S1                 0.0000
     35 ****        -0.1621   0.7040  -1.0305 LP             1 S1                 0.0000
     36 ****        -2.7405   2.2718   0.9616 LP             1 S1                 0.0000
     37 ****        -2.5637   3.5769  -0.0037 LP             1 S1                 0.0000
     38 ****         3.5032   2.3281   1.6165 LP             1 S1                 0.0000
     39 ****         3.2672   1.0223   2.5682 LP             1 S1                 0.0000
     40 ****         0.0586  -0.9263  -2.3201 LP             1 S1                 0.0000
@<TRIPOS>BOND
    1    1    2 1     
    2    1   17 1     
    3    1   18 1     
    4    1   19 1     
    5    2   16 ar    
    6    2    3 ar    
    7    3    4 ar    
    8    3   20 1     
    9    4    5 ar    
   10    4   21 1     
   11    5    6 ar    
   12    6    7 1     
   13    6   16 ar    
   14    7   12 1     
   15    7    8 1     
   16    8    9 1     
   17    8   22 1     
   18    8   23 1     
   19    9   10 1     
   20    9   24 1     
   21    9   25 1     
   22   10   11 1     
   23   11   12 1     
   24   11   26 1     
   25   11   27 1     
   26   12   13 1     
   27   12   28 1     
   28   13   14 1     
   29   13   29 1     
   30   13   30 1     
   31   14   15 1     
   32   14   31 1     
   33   14   32 1     
   34   15   33 1     
   35    5   34 1     
   36    7   35 1     
   37   10   36 1     
   38   10   37 1     
   39   15   38 1     
   40   15   39 1     
   41   16   40 1     
@<TRIPOS>SUBSTRUCTURE
      1 S1             1
@<TRIPOS>SET
LONE_PAIRS      STATIC     ATOMS    <user>   **** ""
7 34 35 36 37 38 39 40
DONOR_HYDROGENS      STATIC     ATOMS    <user>   **** ""
1 33
ATOM$BLUE        STATIC     ATOMS    COLORGROUP SYSTEM
7 34 35 36 37 38 39 40
ATOM$RED        STATIC     ATOMS    COLORGROUP SYSTEM
1 33
