#       Name:                AV-unprocessed.smi:1785
#       Creating user name   scv26
#       Creation time:       Fri Mar 27 08:44:11 2020


#       File generated by GOLD software.
#

@<TRIPOS>MOLECULE
AV-unprocessed.smi:1785
    35    36     1
SMALL
NO_CHARGES


@<TRIPOS>ATOM
      1 ****        -1.6341  -2.1717  -0.3421 C.3            1 S1                 0.0000
      2 ****        -2.4278  -0.8927  -0.1286 C.ar           1 S1                 0.0000
      3 ****        -3.8378  -0.9476  -0.1262 C.ar           1 S1                 0.0000
      4 ****        -4.5699   0.2356   0.0713 C.ar           1 S1                 0.0000
      5 ****        -3.8559   1.4313   0.2598 C.ar           1 S1                 0.0000
      6 ****        -2.5087   1.4930   0.2595 N.ar           1 S1                 0.0000
      7 ****        -1.7868   0.3599   0.0695 C.ar           1 S1                 0.0000
      8 ****        -0.3637   0.3476   0.0558 N.am           1 S1                 0.0000
      9 ****         0.4944   1.3747   0.2129 C.2            1 S1                 0.0000
     10 ****         0.1461   2.5415   0.4025 O.2            1 S1                 0.0000
     11 ****         1.8787   0.9251   0.1275 C.2            1 S1                 0.0000
     12 ****         2.8811   1.8192   0.2922 C.2            1 S1                 0.0000
     13 ****         4.2120   1.4999   0.1893 O.3            1 S1                 0.0000
     14 ****         4.4723   0.2128  -0.3578 C.3            1 S1                 0.0000
     15 ****         3.4796  -0.8166   0.2017 C.3            1 S1                 0.0000
     16 ****         2.1429  -0.4123  -0.0750 O.3            1 S1                 0.0000
     17 ****        -2.2927  -3.0280  -0.4905 H              1 S1                 0.0000
     18 ****        -1.0048  -2.3787   0.5239 H              1 S1                 0.0000
     19 ****        -0.9963  -2.0840  -1.2222 H              1 S1                 0.0000
     20 ****        -4.3555  -1.8841  -0.2739 H              1 S1                 0.0000
     21 ****        -5.6498   0.2268   0.0777 H              1 S1                 0.0000
     22 ****        -4.3794   2.3631   0.4147 H              1 S1                 0.0000
     23 ****         0.0594  -0.5567  -0.0934 H              1 S1                 0.0000
     24 ****         2.7410   2.8746   0.4781 H              1 S1                 0.0000
     25 ****         4.3960   0.2628  -1.4449 H              1 S1                 0.0000
     26 ****         5.4965  -0.0756  -0.1205 H              1 S1                 0.0000
     27 ****         3.6550  -1.7966  -0.2422 H              1 S1                 0.0000
     28 ****         3.6072  -0.9243   1.2798 H              1 S1                 0.0000
     29 ****        -2.0448   2.3680   0.3984 LP             1 S1                 0.0000
     30 ****        -0.8259   2.7721   0.4476 LP             1 S1                 0.0000
     31 ****         0.8355   3.2577   0.5113 LP             1 S1                 0.0000
     32 ****         4.6131   1.5366   1.1046 LP             1 S1                 0.0000
     33 ****         4.6520   2.1819  -0.3949 LP             1 S1                 0.0000
     34 ****         1.9479  -0.6243  -1.0326 LP             1 S1                 0.0000
     35 ****         1.5320  -0.9407   0.5145 LP             1 S1                 0.0000
@<TRIPOS>BOND
    1    1    2 1     
    2    1   17 1     
    3    1   18 1     
    4    1   19 1     
    5    2    7 ar    
    6    2    3 ar    
    7    3    4 ar    
    8    3   20 1     
    9    4    5 ar    
   10    4   21 1     
   11    5    6 ar    
   12    5   22 1     
   13    6    7 ar    
   14    7    8 1     
   15    8    9 am    
   16    8   23 1     
   17    9   10 2     
   18    9   11 1     
   19   11   16 1     
   20   11   12 2     
   21   12   13 1     
   22   12   24 1     
   23   13   14 1     
   24   14   15 1     
   25   14   25 1     
   26   14   26 1     
   27   15   16 1     
   28   15   27 1     
   29   15   28 1     
   30    6   29 1     
   31   10   30 1     
   32   10   31 1     
   33   13   32 1     
   34   13   33 1     
   35   16   34 1     
   36   16   35 1     
@<TRIPOS>SUBSTRUCTURE
      1 S1             1
@<TRIPOS>SET
LONE_PAIRS      STATIC     ATOMS    <user>   **** ""
7 29 30 31 32 33 34 35
DONOR_HYDROGENS      STATIC     ATOMS    <user>   **** ""
1 23
ATOM$BLUE        STATIC     ATOMS    COLORGROUP SYSTEM
7 29 30 31 32 33 34 35
ATOM$RED        STATIC     ATOMS    COLORGROUP SYSTEM
1 23
