AV-unprocessed.smi:338|AV-procd|sdf|2375|dock5
  -GOLD-   2262022293D 1   1.00000     0.00000
 Structure written by MMmdl.
 41 43  0  0  0  0  0  0  0  0  1 V2000
  152.1503  144.3643  161.2545 C   0  0  0  0  0  0  0  0  0  0  0  0
  152.6903  142.9616  161.5295 C   0  0  0  0  0  0  0  0  0  0  0  0
  153.1359  142.7105  162.6488 O   0  0  0  0  0  0  0  0  0  0  0  0
  152.6464  141.9681  160.4181 C   0  0  0  0  0  0  0  0  0  0  0  0
  153.4656  140.8151  160.4217 C   0  0  0  0  0  0  0  0  0  0  0  0
  153.4008  139.8945  159.3600 C   0  0  0  0  0  0  0  0  0  0  0  0
  152.5203  140.1159  158.2860 C   0  0  0  0  0  0  0  0  0  0  0  0
  151.6948  141.2567  158.2572 C   0  0  0  0  0  0  0  0  0  0  0  0
  150.8628  141.3955  157.1668 O   0  0  0  0  0  0  0  0  0  0  0  0
  151.2218  140.7440  155.9552 C   0  0  0  0  0  0  0  0  0  0  0  0
  150.0450  140.8338  154.9728 C   0  0  1  0  0  0  0  0  0  0  0  0
  150.2007  139.8271  153.9920 O   0  0  0  0  0  0  0  0  0  0  0  0
  148.6808  140.6740  155.6721 C   0  0  0  0  0  0  0  0  0  0  0  0
  147.6194  141.3955  154.9930 N   0  0  0  0  0  0  0  0  0  0  0  0
  147.3660  141.4148  153.6701 C   0  0  0  0  0  0  0  0  0  0  0  0
  146.3349  142.1466  153.2579 N   0  0  0  0  0  0  0  0  0  0  0  0
  145.8603  142.6590  154.4532 C   0  0  0  0  0  0  0  0  0  0  0  0
  144.7699  143.5194  154.7141 C   0  0  0  0  0  0  0  0  0  0  0  0
  144.4713  143.9140  156.0350 C   0  0  0  0  0  0  0  0  0  0  0  0
  145.2562  143.4558  157.1131 C   0  0  0  0  0  0  0  0  0  0  0  0
  146.3474  142.5974  156.8781 C   0  0  0  0  0  0  0  0  0  0  0  0
  146.6422  142.2065  155.5588 C   0  0  0  0  0  0  0  0  0  0  0  0
  151.7647  142.1794  159.3318 C   0  0  0  0  0  0  0  0  0  0  0  0
  152.7074  144.8372  160.4453 H   0  0  0  0  0  0  0  0  0  0  0  0
  152.2431  144.9898  162.1428 H   0  0  0  0  0  0  0  0  0  0  0  0
  151.0968  144.3203  160.9777 H   0  0  0  0  0  0  0  0  0  0  0  0
  154.1524  140.6145  161.2304 H   0  0  0  0  0  0  0  0  0  0  0  0
  154.0284  139.0155  159.3697 H   0  0  0  0  0  0  0  0  0  0  0  0
  152.4785  139.4031  157.4755 H   0  0  0  0  0  0  0  0  0  0  0  0
  152.0959  141.2367  155.5256 H   0  0  0  0  0  0  0  0  0  0  0  0
  151.4773  139.6987  156.1381 H   0  0  0  0  0  0  0  0  0  0  0  0
  150.0845  141.7964  154.4614 H   0  0  0  0  0  0  0  0  0  0  0  0
  149.9917  140.1972  153.1478 H   0  0  0  0  0  0  0  0  0  0  0  0
  148.4046  139.6202  155.7323 H   0  0  0  0  0  0  0  0  0  0  0  0
  148.7353  141.0401  156.6980 H   0  0  0  0  0  0  0  0  0  0  0  0
  147.9753  140.8622  152.9696 H   0  0  0  0  0  0  0  0  0  0  0  0
  144.1615  143.8758  153.8962 H   0  0  0  0  0  0  0  0  0  0  0  0
  143.6349  144.5714  156.2218 H   0  0  0  0  0  0  0  0  0  0  0  0
  145.0193  143.7631  158.1212 H   0  0  0  0  0  0  0  0  0  0  0  0
  146.9506  142.2438  157.7012 H   0  0  0  0  0  0  0  0  0  0  0  0
  151.1412  143.0608  159.3351 H   0  0  0  0  0  0  0  0  0  0  0  0
  1  2  1  0  0  0  0
  1 24  1  0  0  0  0
  1 25  1  0  0  0  0
  1 26  1  0  0  0  0
  2  3  2  0  0  0  0
  2  4  1  0  0  0  0
  4 23  1  0  0  0  0
  4  5  2  0  0  0  0
  5  6  1  0  0  0  0
  5 27  1  0  0  0  0
  6  7  2  0  0  0  0
  6 28  1  0  0  0  0
  7  8  1  0  0  0  0
  7 29  1  0  0  0  0
  8  9  1  0  0  0  0
  8 23  2  0  0  0  0
  9 10  1  0  0  0  0
 10 11  1  0  0  0  0
 10 30  1  0  0  0  0
 10 31  1  0  0  0  0
 11 12  1  0  0  0  0
 11 13  1  0  0  0  0
 11 32  1  0  0  0  0
 12 33  1  0  0  0  0
 13 14  1  0  0  0  0
 13 34  1  0  0  0  0
 13 35  1  0  0  0  0
 14 22  1  0  0  0  0
 14 15  1  0  0  0  0
 15 16  2  0  0  0  0
 15 36  1  0  0  0  0
 16 17  1  0  0  0  0
 17 22  2  0  0  0  0
 17 18  1  0  0  0  0
 18 19  2  0  0  0  0
 18 37  1  0  0  0  0
 19 20  1  0  0  0  0
 19 38  1  0  0  0  0
 20 21  2  0  0  0  0
 20 39  1  0  0  0  0
 21 22  1  0  0  0  0
 21 40  1  0  0  0  0
 23 41  1  0  0  0  0
M  END
> <s_m_source_file>
AV-unprocessed.smi

> <i_m_source_file_index>
338

> <i_lp_mmshare_version>
43012

> <i_f3d_flags>
0

> <s_epik_input>
W0NIM11DKD1PKWMxW2NIXVtjSF1bY0hdYyhbY0hdMSlPW0NIMl1bQ0BIXShbT0hdKVtDSDJdbihbY0hdbjIpYyhjMjMpW2NIXVtjSF1bY0hdW2NIXTM=

> <s_epik_cmdline>
J2VwaWtfcHl0aG9uJywgJy1waCcsICc3LjAnLCAnLXRuJywgJzgnLCAnLW1hJywgJzIwMCcsICctbWV0YWxfYmluZGluZycsICctaW1hZScsICc8aW5maWxlLm1hZT4nLCAnLW9tYWUnLCAnPG91dGZpbGUubWFlPic=

> <r_lp_tautomer_probability>
0.99995

> <r_epik_Ionization_Penalty>
0.0640132

> <r_epik_Ionization_Penalty_Charging>
0

> <r_epik_Ionization_Penalty_Neutral>
0.0640132

> <r_epik_State_Penalty>
0.0557325

> <r_epik_Charging_Adjusted_Penalty>
0.0557325

> <i_epik_Tot_Q>
0

> <i_epik_Tot_abs_Q>
0

> <r_epik_Metal_State_Penalty>
5.8435e-05

> <b_epik_Metal_Only>
0

> <s_lp_Force_Field>
OPLS_2005

> <r_lp_Energy>
20.9332

> <b_lp_Chiralities_Consistent>
1

> <s_lp_Variant>
AV-unprocessed.smi:338-2

> <Gold.Version>
5.8.1

> <Gold.Id.Protein>
6NUR|6NUR_protein|mol2

> <Gold.PLP.Fitness>
48.1025

> <Gold.PLP.PLP>
-44.8087

> <Gold.PLP.part.hbond>
-2.0000

> <Gold.PLP.part.metal>
0.0000

> <Gold.PLP.part.buried>
-3.9085

> <Gold.PLP.part.nonpolar>
-38.4063

> <Gold.PLP.part.repulsive>
0.3597

> <Gold.PLP.ligand.clash>
0.3271

> <Gold.PLP.ligand.torsion>
1.2716

> <Gold.PLP.Chemscore.Hbond>
1.0000

> <Gold.PLP.Chemscore.CHOScore>
0.9965

> <Gold.PLP.Chemscore.Metal>
0.0000

> <Gold.Chemscore.Hbonds>
donor molecule, donor type, donor heavy atom, donor atom, acceptor molecule, acceptor atom, score
      L1  H    12    33       P1  7957  1.00
      L1  C    15    36       P1  7957  0.93

> <Gold.PLP.Chemscore.Internal.Correction>
0.1745

> <Gold.Rescore>
     Score         DG    S(hbond)    S(metal)    S(lipo)     H(rot)  DE(clash)    DE(int)     intcor
     12.58     -14.55       0.95        0.00     102.82       2.40       0.88       1.09       ----

> <Gold.Chemscore.Fitness>
12.5790

> <Gold.Chemscore.DG>
-14.5475

> <Gold.Chemscore.ZeroCoef>
-5.4800

> <Gold.Chemscore.Hbond>
0.9530

> <Gold.Chemscore.Metal>
0.0000

> <Gold.Chemscore.Lipo>
102.8174

> <Gold.Chemscore.Internal_Hbond>
0.0000

> <Gold.Chemscore.DEClash>
0.8785

> <Gold.Chemscore.DEInternal>
1.0900

> <Gold.Chemscore.Rot>
2.4005

> <Gold.Chemscore.Internal.Correction>
   9.000000E+99

> <Gold.Chemscore.Hbonds>
donor molecule, donor type, donor heavy atom, donor atom, acceptor molecule, acceptor atom, score
      L1  H    12    33       P1  7957  0.90

> <Gold.Chemscore.Hbond.Weighted>
-3.1832

> <Gold.Chemscore.Metal.Weighted>
-0.0000

> <Gold.Chemscore.Lipo.Weighted>
-12.0296

> <Gold.Chemscore.Internal_Hbond.Weighted>
0.0000

> <Gold.Chemscore.DEClash.Weighted>
0.8785

> <Gold.Chemscore.DEInternal.Weighted>
1.0900

> <Gold.Chemscore.Rot.Weighted>
6.1453

> <Gold.Chemscore.Internal.Correction.Weighted>
   9.000000E+99

> <Gold.Protein.RotatedTorsions>
[ 6907 6896 6895 6894 ] final  174.36 input  -60.11 | X-H torsion
[ 7974 7965 7964 7962 ] final -145.64 input  175.53 | X-H torsion
[ 8008 7997 7996 7995 ] final   38.20 input   59.86 | X-H torsion
[ 10167 10162 10161 10158 ] final  162.57 input  -65.29 | X-H torsion
[ 10718 10713 10712 10709 ] final  157.87 input   66.30 | X-H torsion
[ 10763 10752 10751 10750 ] final -110.19 input  -60.55 | X-H torsion
[ 11005 11000 10999 10996 ] final  -20.77 input  -57.11 | X-H torsion

> <Gold.Protein.ActiveResidues>
 VAL166  LYS551  ARG553  GLY616  TRP617  ASP618  TYR619  PRO620  LYS621  CYS622 
 ASP623  PHE694  ASN695  SER759  ASP760  ASP761  ALA762  ILE779  LEU786  VAL792 
 PHE793  MET794  SER795  GLU796  ALA797  LYS798  CYS799  TRP800  GLU811  SER814 

> <Gold.Protein.RotatedAtoms>
  151.7536  133.3329  159.3398 H   0  0  0  0  0  0  0  0  0  0  0  0  # atno 6907 bound_to 6896
  150.7525  134.6170  159.6125 H   0  0  0  0  0  0  0  0  0  0  0  0  # atno 6908 bound_to 6896
  152.3452  134.7083  160.0304 H   0  0  0  0  0  0  0  0  0  0  0  0  # atno 6909 bound_to 6896
  144.8214  140.5558  143.5576 H   0  0  0  0  0  0  0  0  0  0  0  0  # atno 7974 bound_to 7965
  155.2163  140.3327  155.4321 H   0  0  0  0  0  0  0  0  0  0  0  0  # atno 8008 bound_to 7997
  156.2351  140.1868  156.7190 H   0  0  0  0  0  0  0  0  0  0  0  0  # atno 8009 bound_to 7997
  154.6044  140.0618  156.9397 H   0  0  0  0  0  0  0  0  0  0  0  0  # atno 8010 bound_to 7997
  139.4862  144.4424  151.8935 H   0  0  0  0  0  0  0  0  0  0  0  0  # atno 10167 bound_to 10162
  157.1857  131.0643  151.2107 H   0  0  0  0  0  0  0  0  0  0  0  0  # atno 10718 bound_to 10713
  154.8234  135.4573  154.0847 H   0  0  0  0  0  0  0  0  0  0  0  0  # atno 10763 bound_to 10752
  153.2181  135.6890  153.8039 H   0  0  0  0  0  0  0  0  0  0  0  0  # atno 10764 bound_to 10752
  153.7466  135.3304  155.3290 H   0  0  0  0  0  0  0  0  0  0  0  0  # atno 10765 bound_to 10752
  140.8497  133.7866  155.9952 H   0  0  0  0  0  0  0  0  0  0  0  0  # atno 11005 bound_to 11000
  145.5098  139.1480  143.3611 LP  0  0  0  0  0  0  0  0  0  0  0  0  # atno 17320 bound_to 7965
  146.2519  140.5238  142.8890 LP  0  0  0  0  0  0  0  0  0  0  0  0  # atno 17321 bound_to 7965
  140.3877  144.2656  150.5902 LP  0  0  0  0  0  0  0  0  0  0  0  0  # atno 17342 bound_to 10162
  140.5175  143.2274  151.8440 LP  0  0  0  0  0  0  0  0  0  0  0  0  # atno 17343 bound_to 10162
  157.3910  130.7282  149.6697 LP  0  0  0  0  0  0  0  0  0  0  0  0  # atno 17370 bound_to 10713
  155.9718  130.4146  150.4143 LP  0  0  0  0  0  0  0  0  0  0  0  0  # atno 17371 bound_to 10713
  140.8804  134.2618  157.5147 LP  0  0  0  0  0  0  0  0  0  0  0  0  # atno 17394 bound_to 11000
  139.8704  134.9612  156.4389 LP  0  0  0  0  0  0  0  0  0  0  0  0  # atno 17395 bound_to 11000

$$$$
