AV-unprocessed.smi:104|AV-procd|sdf|1006|dock5
  -GOLD-   2262018 03D 1   1.00000     0.00000
 Structure written by MMmdl.
 47 49  0  0  0  0  0  0  0  0  1 V2000
  147.6808  134.8436  161.9040 C   0  0  0  0  0  0  0  0  0  0  0  0
  147.6841  136.0657  160.9953 C   0  0  0  0  0  0  0  0  0  0  0  0
  147.5351  137.2020  161.4445 O   0  0  0  0  0  0  0  0  0  0  0  0
  147.8627  135.7448  159.7070 O   0  0  0  0  0  0  0  0  0  0  0  0
  147.4815  136.6604  158.6918 C   0  0  0  0  0  0  0  0  0  0  0  0
  148.6512  136.9306  157.7329 C   0  0  1  0  0  0  0  0  0  0  0  0
  149.0379  135.7427  157.0414 O   0  0  0  0  0  0  0  0  0  0  0  0
  148.9070  135.9150  155.6621 C   0  0  1  0  0  0  0  0  0  0  0  0
  147.5490  135.3721  155.2830 N   0  0  0  0  0  0  0  0  0  0  0  0
  147.0895  134.0988  155.5397 C   0  0  0  0  0  0  0  0  0  0  0  0
  148.1491  132.8037  156.4494 Br  0  0  0  0  0  0  0  0  0  0  0  0
  145.8877  133.7955  155.1437 N   0  0  0  0  0  0  0  0  0  0  0  0
  145.4646  134.9684  154.5384 C   0  0  0  0  0  0  0  0  0  0  0  0
  144.2590  135.3536  153.8998 C   0  0  0  0  0  0  0  0  0  0  0  0
  143.2075  134.5334  153.7699 N   0  0  0  0  0  0  0  0  0  0  0  0
  144.1598  136.6063  153.4013 N   0  0  0  0  0  0  0  0  0  0  0  0
  145.1942  137.4419  153.5192 C   0  0  0  0  0  0  0  0  0  0  0  0
  146.3808  137.2227  154.0890 N   0  0  0  0  0  0  0  0  0  0  0  0
  146.4892  135.9614  154.6031 C   0  0  0  0  0  0  0  0  0  0  0  0
  149.0923  137.4206  155.4374 C   0  0  2  0  0  0  0  0  0  0  0  0
  150.4838  137.7277  155.4529 O   0  0  0  0  0  0  0  0  0  0  0  0
  150.9508  138.8055  154.7998 C   0  0  0  0  0  0  0  0  0  0  0  0
  152.4474  139.0012  155.0015 C   0  0  0  0  0  0  0  0  0  0  0  0
  150.2888  139.5741  154.1024 O   0  0  0  0  0  0  0  0  0  0  0  0
  148.3885  137.9985  156.6626 C   0  0  2  0  0  0  0  0  0  0  0  0
  148.8910  139.2768  157.0332 O   0  0  0  0  0  0  0  0  0  0  0  0
  148.7039  140.3335  156.2230 C   0  0  0  0  0  0  0  0  0  0  0  0
  149.3936  141.5895  156.7385 C   0  0  0  0  0  0  0  0  0  0  0  0
  148.0635  140.3361  155.1715 O   0  0  0  0  0  0  0  0  0  0  0  0
  147.1160  134.0303  161.4475 H   0  0  0  0  0  0  0  0  0  0  0  0
  147.2252  135.0821  162.8652 H   0  0  0  0  0  0  0  0  0  0  0  0
  148.7006  134.5017  162.0799 H   0  0  0  0  0  0  0  0  0  0  0  0
  146.6400  136.2454  158.1357 H   0  0  0  0  0  0  0  0  0  0  0  0
  147.1459  137.5967  159.1399 H   0  0  0  0  0  0  0  0  0  0  0  0
  149.5209  137.2222  158.3230 H   0  0  0  0  0  0  0  0  0  0  0  0
  149.6027  135.2881  155.1029 H   0  0  0  0  0  0  0  0  0  0  0  0
  143.2538  133.5935  154.1361 H   0  0  0  0  0  0  0  0  0  0  0  0
  142.3725  134.8557  153.3027 H   0  0  0  0  0  0  0  0  0  0  0  0
  145.0519  138.4268  153.0991 H   0  0  0  0  0  0  0  0  0  0  0  0
  148.6597  137.7558  154.4971 H   0  0  0  0  0  0  0  0  0  0  0  0
  152.6636  139.2056  156.0502 H   0  0  0  0  0  0  0  0  0  0  0  0
  152.8089  139.8387  154.4043 H   0  0  0  0  0  0  0  0  0  0  0  0
  152.9908  138.1046  154.7037 H   0  0  0  0  0  0  0  0  0  0  0  0
  147.3166  138.0600  156.4779 H   0  0  0  0  0  0  0  0  0  0  0  0
  148.9872  141.8740  157.7090 H   0  0  0  0  0  0  0  0  0  0  0  0
  149.2478  142.4186  156.0458 H   0  0  0  0  0  0  0  0  0  0  0  0
  150.4642  141.4154  156.8475 H   0  0  0  0  0  0  0  0  0  0  0  0
  1  2  1  0  0  0  0
  1 30  1  0  0  0  0
  1 31  1  0  0  0  0
  1 32  1  0  0  0  0
  2  3  2  0  0  0  0
  2  4  1  0  0  0  0
  4  5  1  0  0  0  0
  5  6  1  0  0  0  0
  5 33  1  0  0  0  0
  5 34  1  0  0  0  0
  6 25  1  0  0  0  0
  6  7  1  0  0  0  0
  6 35  1  0  0  0  0
  7  8  1  0  0  0  0
  8  9  1  0  0  0  0
  8 20  1  0  0  0  0
  8 36  1  0  0  0  0
  9 19  1  0  0  0  0
  9 10  1  0  0  0  0
 10 11  1  0  0  0  0
 10 12  2  0  0  0  0
 12 13  1  0  0  0  0
 13 19  2  0  0  0  0
 13 14  1  0  0  0  0
 14 15  1  0  0  0  0
 14 16  2  0  0  0  0
 15 37  1  0  0  0  0
 15 38  1  0  0  0  0
 16 17  1  0  0  0  0
 17 18  2  0  0  0  0
 17 39  1  0  0  0  0
 18 19  1  0  0  0  0
 20 21  1  0  0  0  0
 20 25  1  0  0  0  0
 20 40  1  0  0  0  0
 21 22  1  0  0  0  0
 22 23  1  0  0  0  0
 22 24  2  0  0  0  0
 23 41  1  0  0  0  0
 23 42  1  0  0  0  0
 23 43  1  0  0  0  0
 25 26  1  0  0  0  0
 25 44  1  0  0  0  0
 26 27  1  0  0  0  0
 27 28  1  0  0  0  0
 27 29  2  0  0  0  0
 28 45  1  0  0  0  0
 28 46  1  0  0  0  0
 28 47  1  0  0  0  0
M  END
> <s_m_source_file>
AV-unprocessed.smi

> <i_m_source_file_index>
104

> <i_lp_mmshare_version>
43012

> <i_f3d_flags>
0

> <s_epik_input>
W0NIM11DKD1PKU9bQ0gyXVtDQEBIXTFPW0NASF0oW0NAQEhdKE9DKD1PKVtDSDNdKVtDQEhdMU9DKD1PKVtDSDNdKW4oYyhCciluMiljKGMyMyluW2NIXW5jM1tOSDJd

> <s_epik_cmdline>
J2VwaWtfcHl0aG9uJywgJy1waCcsICc3LjAnLCAnLXRuJywgJzgnLCAnLW1hJywgJzIwMCcsICctbWV0YWxfYmluZGluZycsICctaW1hZScsICc8aW5maWxlLm1hZT4nLCAnLW9tYWUnLCAnPG91dGZpbGUubWFlPic=

> <r_lp_tautomer_probability>
1

> <r_epik_Ionization_Penalty>
7.36622e-05

> <r_epik_Ionization_Penalty_Charging>
0

> <r_epik_Ionization_Penalty_Neutral>
7.36622e-05

> <r_epik_State_Penalty>
-0

> <r_epik_Charging_Adjusted_Penalty>
0

> <i_epik_Tot_Q>
0

> <i_epik_Tot_abs_Q>
0

> <r_epik_Metal_State_Penalty>
-0

> <b_epik_Metal_Only>
0

> <s_epik_Chemistry_Notes>
This compound has an ester and may undergo hydrolysis at high or low pH. This compound contains an acetal/aminal-like group ( X-CH(R)-Y where X, Y are N, S, or O) that may be acid/base labile, releasing an aldehyde.

> <s_lp_Force_Field>
OPLS_2005

> <r_lp_Energy>
17.7308

> <b_lp_Chiralities_Consistent>
1

> <s_lp_Variant>
AV-unprocessed.smi:104-14

> <Gold.Version>
5.8.1

> <Gold.Id.Protein>
6NUR|6NUR_protein|mol2

> <Gold.PLP.Fitness>
36.1707

> <Gold.PLP.PLP>
-23.8784

> <Gold.PLP.part.hbond>
-4.0000

> <Gold.PLP.part.metal>
0.0000

> <Gold.PLP.part.buried>
-6.1455

> <Gold.PLP.part.nonpolar>
-14.4811

> <Gold.PLP.part.repulsive>
1.0548

> <Gold.PLP.ligand.clash>
0.0000

> <Gold.PLP.ligand.torsion>
1.1671

> <Gold.PLP.Chemscore.Hbond>
3.8080

> <Gold.PLP.Chemscore.CHOScore>
1.0000

> <Gold.PLP.Chemscore.Metal>
0.0000

> <Gold.Chemscore.Hbonds>
donor molecule, donor type, donor heavy atom, donor atom, acceptor molecule, acceptor atom, score
      L1  H    15    37       P1 10957  1.00
      P1  H  6931  6943       L1     3  0.94
      P1  H  6934  6947       L1     3  0.86
      P1  H  7989  7998       L1    24  1.00
      L1  C    17    39       P1 10175  1.00

> <Gold.PLP.Chemscore.Internal.Correction>
0.2025

> <Gold.Rescore>
     Score         DG    S(hbond)    S(metal)    S(lipo)     H(rot)  DE(clash)    DE(int)     intcor
      7.29     -10.23       3.61        0.00      31.93       4.31       0.01       2.94       ----

> <Gold.Chemscore.Fitness>
7.2850

> <Gold.Chemscore.DG>
-10.2310

> <Gold.Chemscore.ZeroCoef>
-5.4800

> <Gold.Chemscore.Hbond>
3.6052

> <Gold.Chemscore.Metal>
0.0000

> <Gold.Chemscore.Lipo>
31.9280

> <Gold.Chemscore.Internal_Hbond>
0.0000

> <Gold.Chemscore.DEClash>
0.0052

> <Gold.Chemscore.DEInternal>
2.9407

> <Gold.Chemscore.Rot>
4.3070

> <Gold.Chemscore.Internal.Correction>
   9.000000E+99

> <Gold.Chemscore.Hbonds>
donor molecule, donor type, donor heavy atom, donor atom, acceptor molecule, acceptor atom, score
      L1  H    15    37       P1 10957  0.93
      P1  H  6931  6943       L1     3  0.89
      P1  H  6934  6947       L1     3  0.85
      P1  H  7989  7998       L1    24  0.39

> <Gold.Chemscore.Hbond.Weighted>
-12.0413

> <Gold.Chemscore.Metal.Weighted>
-0.0000

> <Gold.Chemscore.Lipo.Weighted>
-3.7356

> <Gold.Chemscore.Internal_Hbond.Weighted>
0.0000

> <Gold.Chemscore.DEClash.Weighted>
0.0052

> <Gold.Chemscore.DEInternal.Weighted>
2.9407

> <Gold.Chemscore.Rot.Weighted>
11.0259

> <Gold.Chemscore.Internal.Correction.Weighted>
   9.000000E+99

> <Gold.Protein.RotatedTorsions>
[ 6907 6896 6895 6894 ] final -100.64 input  -60.11 | X-H torsion
[ 7974 7965 7964 7962 ] final  -16.68 input  175.53 | X-H torsion
[ 8008 7997 7996 7995 ] final  160.33 input   59.86 | X-H torsion
[ 10167 10162 10161 10158 ] final   47.79 input  -65.29 | X-H torsion
[ 10718 10713 10712 10709 ] final  112.50 input   66.30 | X-H torsion
[ 10763 10752 10751 10750 ] final   53.19 input  -60.55 | X-H torsion
[ 11005 11000 10999 10996 ] final -146.16 input  -57.11 | X-H torsion

> <Gold.Protein.ActiveResidues>
 VAL166  LYS551  ARG553  GLY616  TRP617  ASP618  TYR619  PRO620  LYS621  CYS622 
 ASP623  PHE694  ASN695  SER759  ASP760  ASP761  ALA762  ILE779  LEU786  VAL792 
 PHE793  MET794  SER795  GLU796  ALA797  LYS798  CYS799  TRP800  GLU811  SER814 

> <Gold.Protein.RotatedAtoms>
  150.7123  134.0856  159.3913 H   0  0  0  0  0  0  0  0  0  0  0  0  # atno 6907 bound_to 6896
  151.8841  135.0440  160.0501 H   0  0  0  0  0  0  0  0  0  0  0  0  # atno 6908 bound_to 6896
  152.2544  133.5207  159.5381 H   0  0  0  0  0  0  0  0  0  0  0  0  # atno 6909 bound_to 6896
  146.1976  140.3670  142.8435 H   0  0  0  0  0  0  0  0  0  0  0  0  # atno 7974 bound_to 7965
  156.2180  140.1807  156.7545 H   0  0  0  0  0  0  0  0  0  0  0  0  # atno 8008 bound_to 7997
  154.5820  140.0664  156.9147 H   0  0  0  0  0  0  0  0  0  0  0  0  # atno 8009 bound_to 7997
  155.2485  140.3327  155.4287 H   0  0  0  0  0  0  0  0  0  0  0  0  # atno 8010 bound_to 7997
  140.3000  144.2945  150.6221 H   0  0  0  0  0  0  0  0  0  0  0  0  # atno 10167 bound_to 10162
  157.6389  131.0968  150.6904 H   0  0  0  0  0  0  0  0  0  0  0  0  # atno 10718 bound_to 10713
  152.9793  135.5787  154.4702 H   0  0  0  0  0  0  0  0  0  0  0  0  # atno 10763 bound_to 10752
  154.4265  135.2772  155.1942 H   0  0  0  0  0  0  0  0  0  0  0  0  # atno 10764 bound_to 10752
  154.3669  135.6176  153.5773 H   0  0  0  0  0  0  0  0  0  0  0  0  # atno 10765 bound_to 10752
  140.7848  134.3036  157.5033 H   0  0  0  0  0  0  0  0  0  0  0  0  # atno 11005 bound_to 11000
  144.8614  140.7145  143.6105 LP  0  0  0  0  0  0  0  0  0  0  0  0  # atno 17320 bound_to 7965
  145.3590  139.1686  143.4393 LP  0  0  0  0  0  0  0  0  0  0  0  0  # atno 17321 bound_to 7965
  140.5659  143.2186  151.7684 LP  0  0  0  0  0  0  0  0  0  0  0  0  # atno 17342 bound_to 10162
  139.4917  144.4284  151.9900 LP  0  0  0  0  0  0  0  0  0  0  0  0  # atno 17343 bound_to 10162
  156.7231  130.4687  149.5518 LP  0  0  0  0  0  0  0  0  0  0  0  0  # atno 17370 bound_to 10713
  156.1652  130.6400  151.0769 LP  0  0  0  0  0  0  0  0  0  0  0  0  # atno 17371 bound_to 10713
  139.8738  134.9340  156.3595 LP  0  0  0  0  0  0  0  0  0  0  0  0  # atno 17394 bound_to 11000
  140.9447  133.7491  156.0192 LP  0  0  0  0  0  0  0  0  0  0  0  0  # atno 17395 bound_to 11000

$$$$
