AV-unprocessed.smi:210|AV-procd|sdf|1611|dock10
  -GOLD-   2262019533D 1   1.00000     0.00000
 Structure written by MMmdl.
 57 61  0  0  0  0  0  0  0  0  1 V2000
  141.6500  134.0772  160.4468 C   0  0  0  0  0  0  0  0  0  0  0  0
  142.4580  133.8652  159.3013 O   0  0  0  0  0  0  0  0  0  0  0  0
  143.6733  134.6008  159.3440 C   0  0  2  0  0  0  0  0  0  0  0  0
  143.4112  136.0804  159.0361 C   0  0  0  0  0  0  0  0  0  0  0  0
  143.6337  135.7494  157.5511 C   0  0  1  0  0  0  0  0  0  0  0  0
  144.3709  136.7688  156.8029 N   0  0  0  0  0  0  0  0  0  0  0  0
  145.4258  137.4625  157.5327 C   0  0  0  0  0  0  0  0  0  0  0  0
  144.8072  136.3424  155.5971 C   0  0  0  0  0  0  0  0  0  0  0  0
  146.0969  136.5581  155.2262 N   0  0  0  0  0  0  0  0  0  0  0  0
  146.5260  136.1302  154.0348 C   0  0  0  0  0  0  0  0  0  0  0  0
  145.8473  135.4789  153.0870 N   0  0  0  0  0  0  0  0  0  0  0  0
  144.5532  135.2605  153.4614 C   0  0  0  0  0  0  0  0  0  0  0  0
  143.9569  135.6589  154.6902 C   0  0  0  0  0  0  0  0  0  0  0  0
  142.6247  135.2702  154.7255 N   0  0  0  0  0  0  0  0  0  0  0  0
  142.4411  134.6759  153.5781 C   0  0  0  0  0  0  0  0  0  0  0  0
  143.5471  134.6192  152.7581 N   0  0  0  0  0  0  0  0  0  0  0  0
  143.6161  134.0367  151.4477 C   0  0  0  0  0  0  0  0  0  0  0  0
  143.7336  132.5225  151.2718 C   0  0  0  0  0  0  0  0  0  0  0  0
  144.5810  132.7427  149.9986 C   0  0  0  0  0  0  0  0  0  0  0  0
  145.7920  131.8065  149.8509 C   0  0  0  0  0  0  0  0  0  0  0  0
  146.5559  131.7648  151.0391 O   0  0  0  0  0  0  0  0  0  0  0  0
  143.7855  132.7539  148.6776 C   0  0  0  0  0  0  0  0  0  0  0  0
  142.5365  132.1077  148.8197 O   0  0  0  0  0  0  0  0  0  0  0  0
  144.8847  134.1360  150.5977 C   0  0  0  0  0  0  0  0  0  0  0  0
  144.4802  134.5499  158.0276 C   0  0  0  0  0  0  0  0  0  0  0  0
  144.6127  133.2599  157.2043 C   0  0  0  0  0  0  0  0  0  0  0  0
  146.0068  133.0762  157.8119 C   0  0  0  0  0  0  0  0  0  0  0  0
  146.0187  134.5785  158.1134 C   0  0  0  0  0  0  0  0  0  0  0  0
  140.7618  133.4479  160.3907 H   0  0  0  0  0  0  0  0  0  0  0  0
  141.3220  135.1159  160.5043 H   0  0  0  0  0  0  0  0  0  0  0  0
  142.1808  133.8319  161.3669 H   0  0  0  0  0  0  0  0  0  0  0  0
  144.2574  134.4578  160.2551 H   0  0  0  0  0  0  0  0  0  0  0  0
  142.4080  136.4322  159.2784 H   0  0  0  0  0  0  0  0  0  0  0  0
  144.1780  136.7327  159.4585 H   0  0  0  0  0  0  0  0  0  0  0  0
  142.7112  135.4238  157.0665 H   0  0  0  0  0  0  0  0  0  0  0  0
  145.9498  138.1685  156.8869 H   0  0  0  0  0  0  0  0  0  0  0  0
  146.1541  136.7540  157.9292 H   0  0  0  0  0  0  0  0  0  0  0  0
  145.0151  138.0259  158.3692 H   0  0  0  0  0  0  0  0  0  0  0  0
  147.5614  136.3389  153.8094 H   0  0  0  0  0  0  0  0  0  0  0  0
  141.4841  134.2610  153.2968 H   0  0  0  0  0  0  0  0  0  0  0  0
  142.7615  134.4163  150.8856 H   0  0  0  0  0  0  0  0  0  0  0  0
  144.2951  132.0481  152.0789 H   0  0  0  0  0  0  0  0  0  0  0  0
  142.7837  132.0130  151.1072 H   0  0  0  0  0  0  0  0  0  0  0  0
  145.4883  130.7928  149.5886 H   0  0  0  0  0  0  0  0  0  0  0  0
  146.4468  132.1455  149.0478 H   0  0  0  0  0  0  0  0  0  0  0  0
  147.4070  131.4075  150.8358 H   0  0  0  0  0  0  0  0  0  0  0  0
  143.6155  133.7706  148.3230 H   0  0  0  0  0  0  0  0  0  0  0  0
  144.3336  132.2463  147.8837 H   0  0  0  0  0  0  0  0  0  0  0  0
  141.9057  132.7390  149.1308 H   0  0  0  0  0  0  0  0  0  0  0  0
  144.8799  134.9585  149.8817 H   0  0  0  0  0  0  0  0  0  0  0  0
  145.7970  134.1517  151.1961 H   0  0  0  0  0  0  0  0  0  0  0  0
  143.8993  132.4722  157.4426 H   0  0  0  0  0  0  0  0  0  0  0  0
  144.6468  133.4475  156.1304 H   0  0  0  0  0  0  0  0  0  0  0  0
  145.9942  132.4653  158.7159 H   0  0  0  0  0  0  0  0  0  0  0  0
  146.7711  132.7447  157.1088 H   0  0  0  0  0  0  0  0  0  0  0  0
  146.5002  135.1539  157.3228 H   0  0  0  0  0  0  0  0  0  0  0  0
  146.4199  134.8395  159.0931 H   0  0  0  0  0  0  0  0  0  0  0  0
  1  2  1  0  0  0  0
  1 29  1  0  0  0  0
  1 30  1  0  0  0  0
  1 31  1  0  0  0  0
  2  3  1  0  0  0  0
  3 25  1  0  0  0  0
  3  4  1  0  0  0  0
  3 32  1  0  0  0  0
  4  5  1  0  0  0  0
  4 33  1  0  0  0  0
  4 34  1  0  0  0  0
  5  6  1  0  0  0  0
  5 25  1  0  0  0  0
  5 35  1  0  0  0  0
  6  7  1  0  0  0  0
  6  8  1  0  0  0  0
  7 36  1  0  0  0  0
  7 37  1  0  0  0  0
  7 38  1  0  0  0  0
  8 13  1  0  0  0  0
  8  9  2  0  0  0  0
  9 10  1  0  0  0  0
 10 11  2  0  0  0  0
 10 39  1  0  0  0  0
 11 12  1  0  0  0  0
 12 16  1  0  0  0  0
 12 13  2  0  0  0  0
 13 14  1  0  0  0  0
 14 15  2  0  0  0  0
 15 16  1  0  0  0  0
 15 40  1  0  0  0  0
 16 17  1  0  0  0  0
 17 24  1  0  0  0  0
 17 18  1  0  0  0  0
 17 41  1  0  0  0  0
 18 19  1  0  0  0  0
 18 42  1  0  0  0  0
 18 43  1  0  0  0  0
 19 20  1  0  0  0  0
 19 22  1  0  0  0  0
 19 24  1  0  0  0  0
 20 21  1  0  0  0  0
 20 44  1  0  0  0  0
 20 45  1  0  0  0  0
 21 46  1  0  0  0  0
 22 23  1  0  0  0  0
 22 47  1  0  0  0  0
 22 48  1  0  0  0  0
 23 49  1  0  0  0  0
 24 50  1  0  0  0  0
 24 51  1  0  0  0  0
 25 28  1  0  0  0  0
 25 26  1  0  0  0  0
 26 27  1  0  0  0  0
 26 52  1  0  0  0  0
 26 53  1  0  0  0  0
 27 28  1  0  0  0  0
 27 54  1  0  0  0  0
 27 55  1  0  0  0  0
 28 56  1  0  0  0  0
 28 57  1  0  0  0  0
M  END
> <s_m_source_file>
AV-unprocessed.smi

> <i_m_source_file_index>
210

> <i_lp_mmshare_version>
43012

> <i_f3d_flags>
0

> <s_epik_input>
W0NIMl0xW0NIMl1bQ0gyXUMxMltDQEhdKE9bQ0gzXSlbQ0gyXVtDQEhdMk4oW0NIM10pYyhuW2NIXW4zKWMoYzM0KW5bY0hdbjRbQ0hdKFtDSDJdNSlbQ0gyXUM1KFtDSDJdW09IXSlbQ0gyXVtPSF0=

> <s_epik_cmdline>
J2VwaWtfcHl0aG9uJywgJy1waCcsICc3LjAnLCAnLXRuJywgJzgnLCAnLW1hJywgJzIwMCcsICctbWV0YWxfYmluZGluZycsICctaW1hZScsICc8aW5maWxlLm1hZT4nLCAnLW9tYWUnLCAnPG91dGZpbGUubWFlPic=

> <r_lp_tautomer_probability>
1

> <r_epik_Ionization_Penalty>
0.00313676

> <r_epik_Ionization_Penalty_Charging>
0

> <r_epik_Ionization_Penalty_Neutral>
0.00313676

> <r_epik_State_Penalty>
0.00199132

> <r_epik_Charging_Adjusted_Penalty>
0.00199132

> <i_epik_Tot_Q>
0

> <i_epik_Tot_abs_Q>
0

> <r_epik_Metal_State_Penalty>
-0

> <b_epik_Metal_Only>
0

> <s_lp_Force_Field>
OPLS_2005

> <r_lp_Energy>
59.5036

> <b_lp_Chiralities_Consistent>
1

> <s_lp_Variant>
AV-unprocessed.smi:210-1

> <Gold.Version>
5.8.1

> <Gold.Id.Protein>
6NUR|6NUR_protein|mol2

> <Gold.PLP.Fitness>
47.4505

> <Gold.PLP.PLP>
-34.8227

> <Gold.PLP.part.hbond>
-5.2739

> <Gold.PLP.part.metal>
0.0000

> <Gold.PLP.part.buried>
-5.3471

> <Gold.PLP.part.nonpolar>
-23.7511

> <Gold.PLP.part.repulsive>
0.1848

> <Gold.PLP.ligand.clash>
0.0000

> <Gold.PLP.ligand.torsion>
1.7344

> <Gold.PLP.Chemscore.Hbond>
4.0000

> <Gold.PLP.Chemscore.CHOScore>
1.0000

> <Gold.PLP.Chemscore.Metal>
0.0000

> <Gold.Chemscore.Hbonds>
donor molecule, donor type, donor heavy atom, donor atom, acceptor molecule, acceptor atom, score
      L1  H    21    46       P1 10747  1.00
      L1  H    23    49       P1 10186  1.00
      P1  H 10785 10796       L1    23  0.86
      P1  H 11000 11005       L1     2  0.16
      L1  C    10    39       P1  7948  1.00

> <Gold.PLP.Chemscore.Internal.Correction>
1.0966

> <Gold.Rescore>
     Score         DG    S(hbond)    S(metal)    S(lipo)     H(rot)  DE(clash)    DE(int)     intcor
     10.94     -15.40       3.52        0.00      62.57       3.57       0.09       4.37       ----

> <Gold.Chemscore.Fitness>
10.9437

> <Gold.Chemscore.DG>
-15.3991

> <Gold.Chemscore.ZeroCoef>
-5.4800

> <Gold.Chemscore.Hbond>
3.5152

> <Gold.Chemscore.Metal>
0.0000

> <Gold.Chemscore.Lipo>
62.5697

> <Gold.Chemscore.Internal_Hbond>
0.0000

> <Gold.Chemscore.DEClash>
0.0855

> <Gold.Chemscore.DEInternal>
4.3699

> <Gold.Chemscore.Rot>
3.5712

> <Gold.Chemscore.Internal.Correction>
   9.000000E+99

> <Gold.Chemscore.Hbonds>
donor molecule, donor type, donor heavy atom, donor atom, acceptor molecule, acceptor atom, score
      L1  H    21    46       P1 10747  1.00
      L1  H    23    49       P1 10186  0.99
      P1  H 10785 10796       L1    23  0.18
      P1  H 11000 11005       L1     2  0.09

> <Gold.Chemscore.Hbond.Weighted>
-11.7408

> <Gold.Chemscore.Metal.Weighted>
-0.0000

> <Gold.Chemscore.Lipo.Weighted>
-7.3207

> <Gold.Chemscore.Internal_Hbond.Weighted>
0.0000

> <Gold.Chemscore.DEClash.Weighted>
0.0855

> <Gold.Chemscore.DEInternal.Weighted>
4.3699

> <Gold.Chemscore.Rot.Weighted>
9.1423

> <Gold.Chemscore.Internal.Correction.Weighted>
   9.000000E+99

> <Gold.Protein.RotatedTorsions>
[ 6907 6896 6895 6894 ] final   39.54 input  -60.11 | X-H torsion
[ 7974 7965 7964 7962 ] final  -77.04 input  175.53 | X-H torsion
[ 8008 7997 7996 7995 ] final  -88.31 input   59.86 | X-H torsion
[ 10167 10162 10161 10158 ] final -121.91 input  -65.29 | X-H torsion
[ 10718 10713 10712 10709 ] final  -58.91 input   66.30 | X-H torsion
[ 10763 10752 10751 10750 ] final  -27.82 input  -60.55 | X-H torsion
[ 11005 11000 10999 10996 ] final -129.53 input  -57.11 | X-H torsion

> <Gold.Protein.ActiveResidues>
 VAL166  LYS551  ARG553  GLY616  TRP617  ASP618  TYR619  PRO620  LYS621  CYS622 
 ASP623  PHE694  ASN695  SER759  ASP760  ASP761  ALA762  ILE779  LEU786  VAL792 
 PHE793  MET794  SER795  GLU796  ALA797  LYS798  CYS799  TRP800  GLU811  SER814 

> <Gold.Protein.RotatedAtoms>
  152.1709  134.8835  160.0534 H   0  0  0  0  0  0  0  0  0  0  0  0  # atno 6907 bound_to 6896
  151.9795  133.3748  159.4110 H   0  0  0  0  0  0  0  0  0  0  0  0  # atno 6908 bound_to 6896
  150.6901  134.3976  159.5148 H   0  0  0  0  0  0  0  0  0  0  0  0  # atno 6909 bound_to 6896
  145.6049  140.9400  143.1220 H   0  0  0  0  0  0  0  0  0  0  0  0  # atno 7974 bound_to 7965
  154.6733  140.0555  157.0189 H   0  0  0  0  0  0  0  0  0  0  0  0  # atno 8008 bound_to 7997
  155.1057  140.3233  155.4516 H   0  0  0  0  0  0  0  0  0  0  0  0  # atno 8009 bound_to 7997
  156.2666  140.2023  156.6182 H   0  0  0  0  0  0  0  0  0  0  0  0  # atno 8010 bound_to 7997
  140.0199  143.5354  152.2225 H   0  0  0  0  0  0  0  0  0  0  0  0  # atno 10167 bound_to 10162
  156.1100  130.4176  150.0642 H   0  0  0  0  0  0  0  0  0  0  0  0  # atno 10718 bound_to 10713
  153.7383  135.6934  153.4973 H   0  0  0  0  0  0  0  0  0  0  0  0  # atno 10763 bound_to 10752
  153.2087  135.4410  155.0352 H   0  0  0  0  0  0  0  0  0  0  0  0  # atno 10764 bound_to 10752
  154.8229  135.3431  154.6910 H   0  0  0  0  0  0  0  0  0  0  0  0  # atno 10765 bound_to 10752
  140.9424  134.1176  157.4139 H   0  0  0  0  0  0  0  0  0  0  0  0  # atno 11005 bound_to 11000
  144.7294  139.7773  143.7353 LP  0  0  0  0  0  0  0  0  0  0  0  0  # atno 17320 bound_to 7965
  146.1548  139.4642  143.0026 LP  0  0  0  0  0  0  0  0  0  0  0  0  # atno 17321 bound_to 7965
  139.6147  144.7616  151.2874 LP  0  0  0  0  0  0  0  0  0  0  0  0  # atno 17342 bound_to 10162
  140.7346  143.6760  150.8041 LP  0  0  0  0  0  0  0  0  0  0  0  0  # atno 17343 bound_to 10162
  156.8608  130.9491  151.3618 LP  0  0  0  0  0  0  0  0  0  0  0  0  # atno 17370 bound_to 10713
  157.6281  130.8707  149.9224 LP  0  0  0  0  0  0  0  0  0  0  0  0  # atno 17371 bound_to 10713
  139.8824  135.0040  156.6225 LP  0  0  0  0  0  0  0  0  0  0  0  0  # atno 17394 bound_to 11000
  140.7716  133.8734  155.8496 LP  0  0  0  0  0  0  0  0  0  0  0  0  # atno 17395 bound_to 11000

$$$$
