AV-unprocessed.smi:26|AV-procd|sdf|184|dock2
  -GOLD-   2262015443D 1   1.00000     0.00000
 Structure written by MMmdl.
 58 61  0  0  0  0  0  0  0  0  1 V2000
  152.5952  140.6943  158.0944 C   0  0  0  0  0  0  0  0  0  0  0  0
  151.2388  140.0650  158.0571 C   0  0  0  0  0  0  0  0  0  0  0  0
  150.8554  138.8376  158.5083 C   0  0  0  0  0  0  0  0  0  0  0  0
  149.4620  138.6887  158.2800 C   0  0  0  0  0  0  0  0  0  0  0  0
  148.5914  137.5262  158.5787 C   0  0  0  0  0  0  0  0  0  0  0  0
  147.4715  137.3888  158.0872 O   0  0  0  0  0  0  0  0  0  0  0  0
  149.1249  136.4800  159.5709 C   0  0  0  0  0  0  0  0  0  0  0  0
  148.0691  135.5667  159.9941 N   0  0  0  0  0  0  0  0  0  0  0  0
  147.1845  135.9896  161.0196 C   0  0  0  0  0  0  0  0  0  0  0  0
  147.3004  137.0790  161.5822 O   0  0  0  0  0  0  0  0  0  0  0  0
  146.1338  135.0329  161.3491 C   0  0  0  0  0  0  0  0  0  0  0  0
  145.2458  135.3276  162.3134 F   0  0  0  0  0  0  0  0  0  0  0  0
  146.0362  133.8525  160.7018 C   0  0  0  0  0  0  0  0  0  0  0  0
  146.9066  133.4686  159.6963 N   0  0  0  0  0  0  0  0  0  0  0  0
  146.7585  132.1338  159.0015 C   0  0  1  0  0  0  0  0  0  0  0  0
  147.9604  131.2362  159.3158 C   0  0  0  0  0  0  0  0  0  0  0  0
  147.4393  130.4072  160.4699 C   0  0  0  0  0  0  0  0  0  0  0  0
  145.9681  130.2598  160.1014 C   0  0  0  0  0  0  0  0  0  0  0  0
  145.6124  131.4938  159.4848 O   0  0  0  0  0  0  0  0  0  0  0  0
  147.9669  134.3228  159.3229 C   0  0  0  0  0  0  0  0  0  0  0  0
  148.7667  133.9893  158.4455 O   0  0  0  0  0  0  0  0  0  0  0  0
  149.0167  139.8392  157.6726 C   0  0  0  0  0  0  0  0  0  0  0  0
  147.6296  140.2177  157.2327 C   0  0  0  0  0  0  0  0  0  0  0  0
  150.1176  140.6929  157.5182 N   0  0  0  0  0  0  0  0  0  0  0  0
  150.1263  142.0439  156.9364 C   0  0  2  0  0  0  0  0  0  0  0  0
  150.6673  142.0199  155.4932 C   0  0  0  0  0  0  0  0  0  0  0  0
  150.7490  143.0850  157.8707 C   0  0  0  0  0  0  0  0  0  0  0  0
  151.9530  143.7150  157.4837 C   0  0  0  0  0  0  0  0  0  0  0  0
  152.5599  144.6755  158.3154 C   0  0  0  0  0  0  0  0  0  0  0  0
  151.9700  145.0134  159.5474 C   0  0  0  0  0  0  0  0  0  0  0  0
  150.7742  144.3879  159.9462 C   0  0  0  0  0  0  0  0  0  0  0  0
  150.1671  143.4267  159.1148 C   0  0  0  0  0  0  0  0  0  0  0  0
  153.2996  140.0654  158.6393 H   0  0  0  0  0  0  0  0  0  0  0  0
  152.5647  141.6635  158.5927 H   0  0  0  0  0  0  0  0  0  0  0  0
  152.9879  140.8356  157.0873 H   0  0  0  0  0  0  0  0  0  0  0  0
  151.5174  138.1169  158.9653 H   0  0  0  0  0  0  0  0  0  0  0  0
  149.9199  135.8812  159.1232 H   0  0  0  0  0  0  0  0  0  0  0  0
  149.5733  136.9369  160.4531 H   0  0  0  0  0  0  0  0  0  0  0  0
  145.2394  133.1850  160.9940 H   0  0  0  0  0  0  0  0  0  0  0  0
  146.6326  132.3486  157.9395 H   0  0  0  0  0  0  0  0  0  0  0  0
  148.1574  130.6038  158.4495 H   0  0  0  0  0  0  0  0  0  0  0  0
  148.8594  131.8090  159.5479 H   0  0  0  0  0  0  0  0  0  0  0  0
  147.9499  129.4498  160.5757 H   0  0  0  0  0  0  0  0  0  0  0  0
  147.5426  130.9555  161.4069 H   0  0  0  0  0  0  0  0  0  0  0  0
  145.8377  129.4552  159.3765 H   0  0  0  0  0  0  0  0  0  0  0  0
  145.3366  130.0465  160.9640 H   0  0  0  0  0  0  0  0  0  0  0  0
  147.4762  139.9695  156.1826 H   0  0  0  0  0  0  0  0  0  0  0  0
  147.4315  141.2784  157.3645 H   0  0  0  0  0  0  0  0  0  0  0  0
  146.8696  139.6965  157.8132 H   0  0  0  0  0  0  0  0  0  0  0  0
  149.0932  142.3779  156.8541 H   0  0  0  0  0  0  0  0  0  0  0  0
  150.5550  142.9931  155.0148 H   0  0  0  0  0  0  0  0  0  0  0  0
  150.1163  141.2993  154.8881 H   0  0  0  0  0  0  0  0  0  0  0  0
  151.7191  141.7420  155.4446 H   0  0  0  0  0  0  0  0  0  0  0  0
  152.4141  143.4629  156.5397 H   0  0  0  0  0  0  0  0  0  0  0  0
  153.4781  145.1533  158.0076 H   0  0  0  0  0  0  0  0  0  0  0  0
  152.4343  145.7505  160.1857 H   0  0  0  0  0  0  0  0  0  0  0  0
  150.3207  144.6459  160.8918 H   0  0  0  0  0  0  0  0  0  0  0  0
  149.2491  142.9668  159.4470 H   0  0  0  0  0  0  0  0  0  0  0  0
  1  2  1  0  0  0  0
  1 33  1  0  0  0  0
  1 34  1  0  0  0  0
  1 35  1  0  0  0  0
  2 24  1  0  0  0  0
  2  3  2  0  0  0  0
  3  4  1  0  0  0  0
  3 36  1  0  0  0  0
  4  5  1  0  0  0  0
  4 22  2  0  0  0  0
  5  6  2  0  0  0  0
  5  7  1  0  0  0  0
  7  8  1  0  0  0  0
  7 37  1  0  0  0  0
  7 38  1  0  0  0  0
  8 20  1  0  0  0  0
  8  9  1  0  0  0  0
  9 10  2  0  0  0  0
  9 11  1  0  0  0  0
 11 12  1  0  0  0  0
 11 13  2  0  0  0  0
 13 14  1  0  0  0  0
 13 39  1  0  0  0  0
 14 15  1  0  0  0  0
 14 20  1  0  0  0  0
 15 19  1  0  0  0  0
 15 16  1  0  0  0  0
 15 40  1  0  0  0  0
 16 17  1  0  0  0  0
 16 41  1  0  0  0  0
 16 42  1  0  0  0  0
 17 18  1  0  0  0  0
 17 43  1  0  0  0  0
 17 44  1  0  0  0  0
 18 19  1  0  0  0  0
 18 45  1  0  0  0  0
 18 46  1  0  0  0  0
 20 21  2  0  0  0  0
 22 23  1  0  0  0  0
 22 24  1  0  0  0  0
 23 47  1  0  0  0  0
 23 48  1  0  0  0  0
 23 49  1  0  0  0  0
 24 25  1  0  0  0  0
 25 26  1  0  0  0  0
 25 27  1  0  0  0  0
 25 50  1  0  0  0  0
 26 51  1  0  0  0  0
 26 52  1  0  0  0  0
 26 53  1  0  0  0  0
 27 32  1  0  0  0  0
 27 28  2  0  0  0  0
 28 29  1  0  0  0  0
 28 54  1  0  0  0  0
 29 30  2  0  0  0  0
 29 55  1  0  0  0  0
 30 31  1  0  0  0  0
 30 56  1  0  0  0  0
 31 32  2  0  0  0  0
 31 57  1  0  0  0  0
 32 58  1  0  0  0  0
M  END
> <s_m_source_file>
AV-unprocessed.smi

> <i_m_source_file_index>
26

> <i_lp_mmshare_version>
43012

> <i_f3d_flags>
0

> <s_epik_input>
W2NIXTFbY0hdW2NIXVtjSF1bY0hdYzFbQ0BASF0oW0NIM10pbjJjKFtDSDNdKWMoW2NIXWMyW0NIM10pQyg9TylbQ0gyXW4zYyg9TyljKEYpW2NIXW4oYzM9TylbQ0BASF00W0NIMl1bQ0gyXVtDSDJdTzQ=

> <s_epik_cmdline>
J2VwaWtfcHl0aG9uJywgJy1waCcsICc3LjAnLCAnLXRuJywgJzgnLCAnLW1hJywgJzIwMCcsICctbWV0YWxfYmluZGluZycsICctaW1hZScsICc8aW5maWxlLm1hZT4nLCAnLW9tYWUnLCAnPG91dGZpbGUubWFlPic=

> <r_lp_tautomer_probability>
1

> <r_epik_Ionization_Penalty>
5.02402e-09

> <r_epik_Ionization_Penalty_Charging>
5.01743e-09

> <r_epik_Ionization_Penalty_Neutral>
6.58831e-12

> <r_epik_State_Penalty>
-0

> <r_epik_Charging_Adjusted_Penalty>
5.01743e-09

> <i_epik_Tot_Q>
0

> <i_epik_Tot_abs_Q>
0

> <r_epik_Metal_State_Penalty>
-0

> <b_epik_Metal_Only>
0

> <s_epik_Chemistry_Notes>
This compound contains an acetal/aminal-like group ( X-CH(R)-Y where X, Y are N, S, or O) that may be acid/base labile, releasing an aldehyde.

> <s_lp_Force_Field>
OPLS_2005

> <r_lp_Energy>
51.2992

> <b_lp_Chiralities_Consistent>
1

> <s_lp_Variant>
AV-unprocessed.smi:26-2

> <Gold.Version>
5.8.1

> <Gold.Id.Protein>
6NUR|6NUR_protein|mol2

> <Gold.PLP.Fitness>
52.8226

> <Gold.PLP.PLP>
-46.7882

> <Gold.PLP.part.hbond>
-3.0000

> <Gold.PLP.part.metal>
0.0000

> <Gold.PLP.part.buried>
-5.5648

> <Gold.PLP.part.nonpolar>
-39.3406

> <Gold.PLP.part.repulsive>
0.0000

> <Gold.PLP.ligand.clash>
0.0000

> <Gold.PLP.ligand.torsion>
1.1247

> <Gold.PLP.Chemscore.Hbond>
2.6571

> <Gold.PLP.Chemscore.CHOScore>
0.0000

> <Gold.PLP.Chemscore.Metal>
0.0000

> <Gold.Chemscore.Hbonds>
donor molecule, donor type, donor heavy atom, donor atom, acceptor molecule, acceptor atom, score
      P1  H  6896  6908       L1    21  0.78
      P1  H  6931  6943       L1    10  0.75
      P1  H  6934  6947       L1    10  0.89

> <Gold.PLP.Chemscore.Internal.Correction>
0.3124

> <Gold.Rescore>
     Score         DG    S(hbond)    S(metal)    S(lipo)     H(rot)  DE(clash)    DE(int)     intcor
     19.17     -24.21       2.44        0.00     130.74       1.84       1.57       3.48       ----

> <Gold.Chemscore.Fitness>
19.1694

> <Gold.Chemscore.DG>
-24.2146

> <Gold.Chemscore.ZeroCoef>
-5.4800

> <Gold.Chemscore.Hbond>
2.4365

> <Gold.Chemscore.Metal>
0.0000

> <Gold.Chemscore.Lipo>
130.7406

> <Gold.Chemscore.Internal_Hbond>
0.0000

> <Gold.Chemscore.DEClash>
1.5680

> <Gold.Chemscore.DEInternal>
3.4773

> <Gold.Chemscore.Rot>
1.8359

> <Gold.Chemscore.Internal.Correction>
   9.000000E+99

> <Gold.Chemscore.Hbonds>
donor molecule, donor type, donor heavy atom, donor atom, acceptor molecule, acceptor atom, score
      P1  H  6896  6908       L1    21  0.27
      P1  H  6931  6943       L1    10  0.71
      P1  H  6934  6947       L1    10  0.82

> <Gold.Chemscore.Hbond.Weighted>
-8.1380

> <Gold.Chemscore.Metal.Weighted>
-0.0000

> <Gold.Chemscore.Lipo.Weighted>
-15.2967

> <Gold.Chemscore.Internal_Hbond.Weighted>
0.0000

> <Gold.Chemscore.DEClash.Weighted>
1.5680

> <Gold.Chemscore.DEInternal.Weighted>
3.4773

> <Gold.Chemscore.Rot.Weighted>
4.7000

> <Gold.Chemscore.Internal.Correction.Weighted>
   9.000000E+99

> <Gold.Protein.RotatedTorsions>
[ 6907 6896 6895 6894 ] final  150.94 input  -60.11 | X-H torsion
[ 7974 7965 7964 7962 ] final  -47.85 input  175.53 | X-H torsion
[ 8008 7997 7996 7995 ] final -102.90 input   59.86 | X-H torsion
[ 10167 10162 10161 10158 ] final  -76.72 input  -65.29 | X-H torsion
[ 10718 10713 10712 10709 ] final -178.86 input   66.30 | X-H torsion
[ 10763 10752 10751 10750 ] final   22.82 input  -60.55 | X-H torsion
[ 11005 11000 10999 10996 ] final  -59.43 input  -57.11 | X-H torsion

> <Gold.Protein.ActiveResidues>
 VAL166  LYS551  ARG553  GLY616  TRP617  ASP618  TYR619  PRO620  LYS621  CYS622 
 ASP623  PHE694  ASN695  SER759  ASP760  ASP761  ALA762  ILE779  LEU786  VAL792 
 PHE793  MET794  SER795  GLU796  ALA797  LYS798  CYS799  TRP800  GLU811  SER814 

> <Gold.Protein.RotatedAtoms>
  152.1074  133.4282  159.4615 H   0  0  0  0  0  0  0  0  0  0  0  0  # atno 6907 bound_to 6896
  150.6866  134.2688  159.4589 H   0  0  0  0  0  0  0  0  0  0  0  0  # atno 6908 bound_to 6896
  152.0554  134.9627  160.0625 H   0  0  0  0  0  0  0  0  0  0  0  0  # atno 6909 bound_to 6896
  145.9573  140.7514  142.9475 H   0  0  0  0  0  0  0  0  0  0  0  0  # atno 7974 bound_to 7965
  154.8633  140.0426  157.1678 H   0  0  0  0  0  0  0  0  0  0  0  0  # atno 8008 bound_to 7997
  154.8817  140.2973  155.5401 H   0  0  0  0  0  0  0  0  0  0  0  0  # atno 8009 bound_to 7997
  156.2998  140.2410  156.3821 H   0  0  0  0  0  0  0  0  0  0  0  0  # atno 8010 bound_to 7997
  140.4833  143.2397  151.8024 H   0  0  0  0  0  0  0  0  0  0  0  0  # atno 10167 bound_to 10162
  156.8505  130.9717  151.3092 H   0  0  0  0  0  0  0  0  0  0  0  0  # atno 10718 bound_to 10713
  153.0885  135.6640  153.9900 H   0  0  0  0  0  0  0  0  0  0  0  0  # atno 10763 bound_to 10752
  153.9503  135.2984  155.3440 H   0  0  0  0  0  0  0  0  0  0  0  0  # atno 10764 bound_to 10752
  154.7297  135.5128  153.9016 H   0  0  0  0  0  0  0  0  0  0  0  0  # atno 10765 bound_to 10752
  141.1248  133.6616  156.5070 H   0  0  0  0  0  0  0  0  0  0  0  0  # atno 11005 bound_to 11000
  144.6808  140.2533  143.7328 LP  0  0  0  0  0  0  0  0  0  0  0  0  # atno 17320 bound_to 7965
  145.8088  139.1994  143.2005 LP  0  0  0  0  0  0  0  0  0  0  0  0  # atno 17321 bound_to 7965
  139.4837  144.4745  151.9384 LP  0  0  0  0  0  0  0  0  0  0  0  0  # atno 17342 bound_to 10162
  140.3830  144.2712  150.5906 LP  0  0  0  0  0  0  0  0  0  0  0  0  # atno 17343 bound_to 10162
  157.6306  130.8726  149.9267 LP  0  0  0  0  0  0  0  0  0  0  0  0  # atno 17370 bound_to 10713
  156.0831  130.3671  150.0541 LP  0  0  0  0  0  0  0  0  0  0  0  0  # atno 17371 bound_to 10713
  140.4400  134.7024  157.4986 LP  0  0  0  0  0  0  0  0  0  0  0  0  # atno 17394 bound_to 11000
  140.0236  134.6511  155.9205 LP  0  0  0  0  0  0  0  0  0  0  0  0  # atno 17395 bound_to 11000

$$$$
