AV-unprocessed.smi:2689|AV-procd|sdf|10387|dock4
  -GOLD-   2272014423D 1   1.00000     0.00000
 Structure written by MMmdl.
 32 32  0  0  0  0  0  0  0  0  2 V2000
  146.6769  141.9682  154.8761 C   0  0  0  0  0  0  0  0  0  0  0  0
  146.9334  140.5064  155.2604 C   0  0  0  0  0  0  0  0  0  0  0  0
  148.2969  140.0414  154.8267 C   0  0  0  0  0  0  0  0  0  0  0  0
  149.1763  140.9297  154.3935 N   0  0  0  0  0  0  0  0  0  0  0  0
  150.3350  140.2080  154.0942 O   0  0  0  0  0  0  0  0  0  0  0  0
  150.1068  138.8970  154.3621 C   0  0  0  0  0  0  0  0  0  0  0  0
  151.2442  137.9601  154.1176 C   0  0  0  0  0  0  0  0  0  0  0  0
  152.5609  138.4357  154.7397 C   0  0  0  0  0  0  0  0  0  0  0  0
  148.8299  138.7194  154.8218 C   0  0  0  0  0  0  0  0  0  0  0  0
  148.1497  137.4404  155.2413 C   0  0  0  0  0  0  0  0  0  0  0  0
  147.8185  137.5038  156.7316 C   0  0  0  0  0  0  0  0  0  0  0  0
  148.1061  138.5067  157.3843 O   0  0  0  0  0  0  0  0  0  0  0  0
  147.2252  136.4182  157.2494 N   0  0  0  0  0  0  0  0  0  0  0  0
  146.9119  136.1963  158.6550 C   0  0  0  0  0  0  0  0  0  0  0  0
  148.1642  136.4257  159.4990 C   0  0  0  0  0  0  0  0  0  0  0  0
  148.0538  137.1670  160.4996 O   0  0  0  0  0  0  0  0  0  0  0  0
  149.2147  135.8597  159.1233 O   0  5  0  0  0  0  0  0  0  0  0  0
  145.6886  142.2890  155.2056 H   0  0  0  0  0  0  0  0  0  0  0  0
  146.7296  142.1078  153.7960 H   0  0  0  0  0  0  0  0  0  0  0  0
  147.4118  142.6301  155.3348 H   0  0  0  0  0  0  0  0  0  0  0  0
  146.8218  140.3939  156.3385 H   0  0  0  0  0  0  0  0  0  0  0  0
  146.1644  139.8752  154.8137 H   0  0  0  0  0  0  0  0  0  0  0  0
  150.9894  136.9769  154.5144 H   0  0  0  0  0  0  0  0  0  0  0  0
  151.3837  137.8229  153.0454 H   0  0  0  0  0  0  0  0  0  0  0  0
  153.3643  137.7278  154.5354 H   0  0  0  0  0  0  0  0  0  0  0  0
  152.4720  138.5357  155.8218 H   0  0  0  0  0  0  0  0  0  0  0  0
  152.8581  139.4039  154.3359 H   0  0  0  0  0  0  0  0  0  0  0  0
  147.2318  137.2698  154.6786 H   0  0  0  0  0  0  0  0  0  0  0  0
  148.7812  136.5718  155.0504 H   0  0  0  0  0  0  0  0  0  0  0  0
  147.0381  135.6444  156.6287 H   0  0  0  0  0  0  0  0  0  0  0  0
  146.1048  136.8423  159.0047 H   0  0  0  0  0  0  0  0  0  0  0  0
  146.5752  135.1676  158.7850 H   0  0  0  0  0  0  0  0  0  0  0  0
  1  2  1  0  0  0  0
  1 18  1  0  0  0  0
  1 19  1  0  0  0  0
  1 20  1  0  0  0  0
  2  3  1  0  0  0  0
  2 21  1  0  0  0  0
  2 22  1  0  0  0  0
  3  9  1  0  0  0  0
  3  4  2  0  0  0  0
  4  5  1  0  0  0  0
  5  6  1  0  0  0  0
  6  7  1  0  0  0  0
  6  9  2  0  0  0  0
  7  8  1  0  0  0  0
  7 23  1  0  0  0  0
  7 24  1  0  0  0  0
  8 25  1  0  0  0  0
  8 26  1  0  0  0  0
  8 27  1  0  0  0  0
  9 10  1  0  0  0  0
 10 11  1  0  0  0  0
 10 28  1  0  0  0  0
 10 29  1  0  0  0  0
 11 12  2  0  0  0  0
 11 13  1  0  0  0  0
 13 14  1  0  0  0  0
 13 30  1  0  0  0  0
 14 15  1  0  0  0  0
 14 31  1  0  0  0  0
 14 32  1  0  0  0  0
 15 16  2  0  0  0  0
 15 17  1  0  0  0  0
M  CHG  1  17  -1
M  END
> <s_m_source_file>
AV-unprocessed.smi

> <i_m_source_file_index>
2689

> <i_lp_mmshare_version>
43012

> <i_f3d_flags>
0

> <s_epik_input>
W0NIM11bQ0gyXWMxbm9jKFtDSDJdW0NIM10pYzFbQ0gyXUMoPU8pW05IXVtDSDJdQyg9TylbT0hd

> <s_epik_cmdline>
J2VwaWtfcHl0aG9uJywgJy1waCcsICc3LjAnLCAnLXRuJywgJzgnLCAnLW1hJywgJzIwMCcsICctbWV0YWxfYmluZGluZycsICctaW1hZScsICc8aW5maWxlLm1hZT4nLCAnLW9tYWUnLCAnPG91dGZpbGUubWFlPic=

> <r_lp_tautomer_probability>
1

> <r_epik_Ionization_Penalty>
0.000217839

> <r_epik_Ionization_Penalty_Charging>
0.000217819

> <r_epik_Ionization_Penalty_Neutral>
1.99806e-08

> <r_epik_State_Penalty>
-0

> <r_epik_Charging_Adjusted_Penalty>
0.000217819

> <i_epik_Tot_Q>
-1

> <i_epik_Tot_abs_Q>
1

> <r_epik_Metal_State_Penalty>
-0

> <b_epik_Metal_Only>
0

> <s_lp_Force_Field>
OPLS_2005

> <r_lp_Energy>
-12.6879

> <b_lp_Chiralities_Consistent>
1

> <s_lp_Variant>
AV-unprocessed.smi:2689-1

> <Gold.Version>
5.8.1

> <Gold.Id.Protein>
6NUR|6NUR_protein|mol2

> <Gold.PLP.Fitness>
39.7852

> <Gold.PLP.PLP>
-22.1171

> <Gold.PLP.part.hbond>
-3.8512

> <Gold.PLP.part.metal>
0.0000

> <Gold.PLP.part.buried>
-5.1935

> <Gold.PLP.part.nonpolar>
-14.2616

> <Gold.PLP.part.repulsive>
0.2675

> <Gold.PLP.ligand.clash>
0.0000

> <Gold.PLP.ligand.torsion>
0.3701

> <Gold.PLP.Chemscore.Hbond>
6.1040

> <Gold.PLP.Chemscore.CHOScore>
0.0000

> <Gold.PLP.Chemscore.Metal>
0.0000

> <Gold.Chemscore.Hbonds>
donor molecule, donor type, donor heavy atom, donor atom, acceptor molecule, acceptor atom, score
      P1  H  6896  6909       L1    17  2.00
      P1  H  6931  6943       L1    16  1.54
      P1  H  6934  6947       L1    16  1.27
      P1  H  7989  7998       L1     5  0.99

> <Gold.PLP.Chemscore.Internal.Correction>
0.0963

> <Gold.Rescore>
     Score         DG    S(hbond)    S(metal)    S(lipo)     H(rot)  DE(clash)    DE(int)     intcor
     12.57     -14.98       3.47        0.00      41.24       2.71       0.00       2.41       ----

> <Gold.Chemscore.Fitness>
12.5650

> <Gold.Chemscore.DG>
-14.9780

> <Gold.Chemscore.ZeroCoef>
-5.4800

> <Gold.Chemscore.Hbond>
3.4723

> <Gold.Chemscore.Metal>
0.0000

> <Gold.Chemscore.Lipo>
41.2446

> <Gold.Chemscore.Internal_Hbond>
0.0000

> <Gold.Chemscore.DEClash>
0.0009

> <Gold.Chemscore.DEInternal>
2.4121

> <Gold.Chemscore.Rot>
2.7051

> <Gold.Chemscore.Internal.Correction>
   9.000000E+99

> <Gold.Chemscore.Hbonds>
donor molecule, donor type, donor heavy atom, donor atom, acceptor molecule, acceptor atom, score
      P1  H  6896  6909       L1    17  0.99
      P1  H  6931  6943       L1    16  0.72
      P1  H  6934  6947       L1    16  0.62
      P1  H  7989  7998       L1     5  0.91

> <Gold.Chemscore.Hbond.Weighted>
-11.5975

> <Gold.Chemscore.Metal.Weighted>
-0.0000

> <Gold.Chemscore.Lipo.Weighted>
-4.8256

> <Gold.Chemscore.Internal_Hbond.Weighted>
0.0000

> <Gold.Chemscore.DEClash.Weighted>
0.0009

> <Gold.Chemscore.DEInternal.Weighted>
2.4121

> <Gold.Chemscore.Rot.Weighted>
6.9251

> <Gold.Chemscore.Internal.Correction.Weighted>
   9.000000E+99

> <Gold.Protein.RotatedTorsions>
[ 6907 6896 6895 6894 ] final   56.31 input  -60.11 | X-H torsion
[ 7974 7965 7964 7962 ] final  -17.68 input  175.53 | X-H torsion
[ 8008 7997 7996 7995 ] final -132.28 input   59.86 | X-H torsion
[ 10167 10162 10161 10158 ] final    1.87 input  -65.29 | X-H torsion
[ 10718 10713 10712 10709 ] final  -13.87 input   66.30 | X-H torsion
[ 10763 10752 10751 10750 ] final  110.38 input  -60.55 | X-H torsion
[ 11005 11000 10999 10996 ] final -166.28 input  -57.11 | X-H torsion

> <Gold.Protein.ActiveResidues>
 VAL166  LYS551  ARG553  GLY616  TRP617  ASP618  TYR619  PRO620  LYS621  CYS622 
 ASP623  PHE694  ASN695  SER759  ASP760  ASP761  ALA762  ILE779  LEU786  VAL792 
 PHE793  MET794  SER795  GLU796  ALA797  LYS798  CYS799  TRP800  GLU811  SER814 

> <Gold.Protein.RotatedAtoms>
  152.3623  134.6853  160.0202 H   0  0  0  0  0  0  0  0  0  0  0  0  # atno 6907 bound_to 6896
  151.7173  133.3308  159.3314 H   0  0  0  0  0  0  0  0  0  0  0  0  # atno 6908 bound_to 6896
  150.7614  134.6414  159.6283 H   0  0  0  0  0  0  0  0  0  0  0  0  # atno 6909 bound_to 6896
  146.1929  140.3813  142.8451 H   0  0  0  0  0  0  0  0  0  0  0  0  # atno 7974 bound_to 7965
  155.3263  140.0464  157.3041 H   0  0  0  0  0  0  0  0  0  0  0  0  # atno 8008 bound_to 7997
  154.5352  140.2270  155.8700 H   0  0  0  0  0  0  0  0  0  0  0  0  # atno 8009 bound_to 7997
  156.1828  140.3070  155.9187 H   0  0  0  0  0  0  0  0  0  0  0  0  # atno 8010 bound_to 7997
  140.6662  143.7172  150.7832 H   0  0  0  0  0  0  0  0  0  0  0  0  # atno 10167 bound_to 10162
  156.6241  130.4883  149.6153 H   0  0  0  0  0  0  0  0  0  0  0  0  # atno 10718 bound_to 10713
  153.4481  135.3750  155.2267 H   0  0  0  0  0  0  0  0  0  0  0  0  # atno 10763 bound_to 10752
  154.8755  135.3879  154.4072 H   0  0  0  0  0  0  0  0  0  0  0  0  # atno 10764 bound_to 10752
  153.4627  135.7087  153.6104 H   0  0  0  0  0  0  0  0  0  0  0  0  # atno 10765 bound_to 10752
  140.5662  134.5283  157.5153 H   0  0  0  0  0  0  0  0  0  0  0  0  # atno 11005 bound_to 11000
  144.8523  140.7019  143.6160 LP  0  0  0  0  0  0  0  0  0  0  0  0  # atno 17320 bound_to 7965
  145.3735  139.1653  143.4319 LP  0  0  0  0  0  0  0  0  0  0  0  0  # atno 17321 bound_to 7965
  140.0850  143.4932  152.2510 LP  0  0  0  0  0  0  0  0  0  0  0  0  # atno 17342 bound_to 10162
  139.5912  144.7551  151.3396 LP  0  0  0  0  0  0  0  0  0  0  0  0  # atno 17343 bound_to 10162
  156.2287  130.6781  151.1442 LP  0  0  0  0  0  0  0  0  0  0  0  0  # atno 17370 bound_to 10713
  157.7219  131.0676  150.6099 LP  0  0  0  0  0  0  0  0  0  0  0  0  # atno 17371 bound_to 10713
  139.9383  134.7833  156.0743 LP  0  0  0  0  0  0  0  0  0  0  0  0  # atno 17394 bound_to 11000
  141.1084  133.6652  156.2919 LP  0  0  0  0  0  0  0  0  0  0  0  0  # atno 17395 bound_to 11000

$$$$
