AV-unprocessed.smi:3198|AV-procd|sdf|12228|dock6
  -GOLD-   2272018 63D 1   1.00000     0.00000
 Structure written by MMmdl.
 38 39  0  0  0  0  0  0  0  0  2 V2000
  145.9046  132.3830  149.9401 C   0  0  0  0  0  0  0  0  0  0  0  0
  145.2456  133.4945  150.7286 C   0  0  0  0  0  0  0  0  0  0  0  0
  143.9102  133.4133  151.1741 C   0  0  0  0  0  0  0  0  0  0  0  0
  143.3659  134.4891  151.9027 C   0  0  0  0  0  0  0  0  0  0  0  0
  144.1660  135.6180  152.1724 C   0  0  0  0  0  0  0  0  0  0  0  0
  145.5058  135.6476  151.7144 C   0  0  0  0  0  0  0  0  0  0  0  0
  146.4019  136.7025  151.9427 N   0  0  0  0  0  0  0  0  0  0  0  0
  145.9804  137.8766  152.6981 C   0  0  0  0  0  0  0  0  0  0  0  0
  147.0389  138.9908  152.6894 C   0  0  0  0  0  0  0  0  0  0  0  0
  147.8820  138.8311  153.8156 O   0  0  0  0  0  0  0  0  0  0  0  0
  148.9206  139.7908  153.8950 C   0  0  0  0  0  0  0  0  0  0  0  0
  150.0424  139.2403  154.7869 C   0  0  1  0  0  0  0  0  0  0  0  0
  150.9170  138.1537  154.1548 C   0  0  0  0  0  0  0  0  0  0  0  0
  152.2782  138.3562  154.8082 C   0  0  0  0  0  0  0  0  0  0  0  0
  152.1101  139.6148  155.6629 C   0  0  0  0  0  0  0  0  0  0  0  0
  150.9661  140.2619  155.1276 O   0  0  0  0  0  0  0  0  0  0  0  0
  145.9793  134.5940  151.0115 N   0  3  0  0  0  0  0  0  0  0  0  0
  145.1768  131.6263  149.6454 H   0  0  0  0  0  0  0  0  0  0  0  0
  146.6765  131.9000  150.5396 H   0  0  0  0  0  0  0  0  0  0  0  0
  146.3671  132.7790  149.0355 H   0  0  0  0  0  0  0  0  0  0  0  0
  143.3094  132.5407  150.9621 H   0  0  0  0  0  0  0  0  0  0  0  0
  142.3456  134.4483  152.2542 H   0  0  0  0  0  0  0  0  0  0  0  0
  143.7428  136.4370  152.7337 H   0  0  0  0  0  0  0  0  0  0  0  0
  147.3863  136.4785  151.9663 H   0  0  0  0  0  0  0  0  0  0  0  0
  145.0756  138.2510  152.2188 H   0  0  0  0  0  0  0  0  0  0  0  0
  145.6912  137.6139  153.7152 H   0  0  0  0  0  0  0  0  0  0  0  0
  147.6122  138.9620  151.7614 H   0  0  0  0  0  0  0  0  0  0  0  0
  146.5531  139.9657  152.7446 H   0  0  0  0  0  0  0  0  0  0  0  0
  149.3169  140.0054  152.9014 H   0  0  0  0  0  0  0  0  0  0  0  0
  148.5326  140.7247  154.3041 H   0  0  0  0  0  0  0  0  0  0  0  0
  149.6095  138.8589  155.7138 H   0  0  0  0  0  0  0  0  0  0  0  0
  150.5130  137.1554  154.3254 H   0  0  0  0  0  0  0  0  0  0  0  0
  151.0092  138.2939  153.0773 H   0  0  0  0  0  0  0  0  0  0  0  0
  152.5758  137.5016  155.4164 H   0  0  0  0  0  0  0  0  0  0  0  0
  153.0429  138.5052  154.0452 H   0  0  0  0  0  0  0  0  0  0  0  0
  151.9172  139.3488  156.7035 H   0  0  0  0  0  0  0  0  0  0  0  0
  152.9860  140.2631  155.6339 H   0  0  0  0  0  0  0  0  0  0  0  0
  146.9445  134.6246  150.6828 H   0  0  0  0  0  0  0  0  0  0  0  0
  1  2  1  0  0  0  0
  1 18  1  0  0  0  0
  1 19  1  0  0  0  0
  1 20  1  0  0  0  0
  2 17  1  0  0  0  0
  2  3  2  0  0  0  0
  3  4  1  0  0  0  0
  3 21  1  0  0  0  0
  4  5  2  0  0  0  0
  4 22  1  0  0  0  0
  5  6  1  0  0  0  0
  5 23  1  0  0  0  0
  6  7  1  0  0  0  0
  6 17  2  0  0  0  0
  7  8  1  0  0  0  0
  7 24  1  0  0  0  0
  8  9  1  0  0  0  0
  8 25  1  0  0  0  0
  8 26  1  0  0  0  0
  9 10  1  0  0  0  0
  9 27  1  0  0  0  0
  9 28  1  0  0  0  0
 10 11  1  0  0  0  0
 11 12  1  0  0  0  0
 11 29  1  0  0  0  0
 11 30  1  0  0  0  0
 12 16  1  0  0  0  0
 12 13  1  0  0  0  0
 12 31  1  0  0  0  0
 13 14  1  0  0  0  0
 13 32  1  0  0  0  0
 13 33  1  0  0  0  0
 14 15  1  0  0  0  0
 14 34  1  0  0  0  0
 14 35  1  0  0  0  0
 15 16  1  0  0  0  0
 15 36  1  0  0  0  0
 15 37  1  0  0  0  0
 17 38  1  0  0  0  0
M  CHG  1  17   1
M  END
> <s_m_source_file>
AV-unprocessed.smi

> <i_m_source_file_index>
3198

> <i_lp_mmshare_version>
43012

> <i_f3d_flags>
0

> <s_epik_input>
W0NIM11jMVtjSF1bY0hdW2NIXWMobjEpW05IXVtDSDJdW0NIMl1PW0NIMl1bQ0BASF0yW0NIMl1bQ0gyXVtDSDJdTzI=

> <s_epik_cmdline>
J2VwaWtfcHl0aG9uJywgJy1waCcsICc3LjAnLCAnLXRuJywgJzgnLCAnLW1hJywgJzIwMCcsICctbWV0YWxfYmluZGluZycsICctaW1hZScsICc8aW5maWxlLm1hZT4nLCAnLW9tYWUnLCAnPG91dGZpbGUubWFlPic=

> <r_lp_tautomer_probability>
0.999994

> <r_epik_Ionization_Penalty>
0.0710016

> <r_epik_Ionization_Penalty_Charging>
0.0710012

> <r_epik_Ionization_Penalty_Neutral>
3.47026e-07

> <r_epik_State_Penalty>
0.0622974

> <r_epik_Charging_Adjusted_Penalty>
0.133299

> <i_epik_Tot_Q>
1

> <i_epik_Tot_abs_Q>
1

> <r_epik_Metal_State_Penalty>
2.79497

> <b_epik_Metal_Only>
0

> <s_lp_Force_Field>
OPLS_2005

> <r_lp_Energy>
24.0011

> <b_lp_Chiralities_Consistent>
1

> <s_lp_Variant>
AV-unprocessed.smi:3198-2

> <Gold.Version>
5.8.1

> <Gold.Id.Protein>
6NUR|6NUR_protein|mol2

> <Gold.PLP.Fitness>
43.1001

> <Gold.PLP.PLP>
-34.9174

> <Gold.PLP.part.hbond>
-2.0000

> <Gold.PLP.part.metal>
0.0000

> <Gold.PLP.part.buried>
-3.4949

> <Gold.PLP.part.nonpolar>
-30.2356

> <Gold.PLP.part.repulsive>
0.3514

> <Gold.PLP.ligand.clash>
0.0000

> <Gold.PLP.ligand.torsion>
0.4235

> <Gold.PLP.Chemscore.Hbond>
3.0000

> <Gold.PLP.Chemscore.CHOScore>
0.0000

> <Gold.PLP.Chemscore.Metal>
0.0000

> <Gold.Chemscore.Hbonds>
donor molecule, donor type, donor heavy atom, donor atom, acceptor molecule, acceptor atom, score
      L1  H     7    24       P1  7948  2.00
      P1  H  7989  7998       L1    16  1.00

> <Gold.PLP.Chemscore.Internal.Correction>
0.0298

> <Gold.Rescore>
     Score         DG    S(hbond)    S(metal)    S(lipo)     H(rot)  DE(clash)    DE(int)     intcor
     15.46     -17.51       1.91        0.00      85.52       1.71       1.63       0.41       ----

> <Gold.Chemscore.Fitness>
15.4626

> <Gold.Chemscore.DG>
-17.5077

> <Gold.Chemscore.ZeroCoef>
-5.4800

> <Gold.Chemscore.Hbond>
1.9133

> <Gold.Chemscore.Metal>
0.0000

> <Gold.Chemscore.Lipo>
85.5166

> <Gold.Chemscore.Internal_Hbond>
0.0000

> <Gold.Chemscore.DEClash>
1.6337

> <Gold.Chemscore.DEInternal>
0.4114

> <Gold.Chemscore.Rot>
1.7063

> <Gold.Chemscore.Internal.Correction>
   9.000000E+99

> <Gold.Chemscore.Hbonds>
donor molecule, donor type, donor heavy atom, donor atom, acceptor molecule, acceptor atom, score
      L1  H     7    24       P1  7948  0.97
      P1  H  7989  7998       L1    16  0.15

> <Gold.Chemscore.Hbond.Weighted>
-6.3903

> <Gold.Chemscore.Metal.Weighted>
-0.0000

> <Gold.Chemscore.Lipo.Weighted>
-10.0054

> <Gold.Chemscore.Internal_Hbond.Weighted>
0.0000

> <Gold.Chemscore.DEClash.Weighted>
1.6337

> <Gold.Chemscore.DEInternal.Weighted>
0.4114

> <Gold.Chemscore.Rot.Weighted>
4.3681

> <Gold.Chemscore.Internal.Correction.Weighted>
   9.000000E+99

> <Gold.Protein.RotatedTorsions>
[ 6907 6896 6895 6894 ] final  179.26 input  -60.11 | X-H torsion
[ 7974 7965 7964 7962 ] final  -19.59 input  175.53 | X-H torsion
[ 8008 7997 7996 7995 ] final   -2.03 input   59.86 | X-H torsion
[ 10167 10162 10161 10158 ] final  124.42 input  -65.29 | X-H torsion
[ 10718 10713 10712 10709 ] final -110.95 input   66.30 | X-H torsion
[ 10763 10752 10751 10750 ] final  -72.23 input  -60.55 | X-H torsion
[ 11005 11000 10999 10996 ] final    8.84 input  -57.11 | X-H torsion

> <Gold.Protein.ActiveResidues>
 VAL166  LYS551  ARG553  GLY616  TRP617  ASP618  TYR619  PRO620  LYS621  CYS622 
 ASP623  PHE694  ASN695  SER759  ASP760  ASP761  ALA762  ILE779  LEU786  VAL792 
 PHE793  MET794  SER795  GLU796  ALA797  LYS798  CYS799  TRP800  GLU811  SER814 

> <Gold.Protein.RotatedAtoms>
  151.6745  133.3313  159.3204 H   0  0  0  0  0  0  0  0  0  0  0  0  # atno 6907 bound_to 6896
  150.7852  134.6834  159.6466 H   0  0  0  0  0  0  0  0  0  0  0  0  # atno 6908 bound_to 6896
  152.3920  134.6430  160.0156 H   0  0  0  0  0  0  0  0  0  0  0  0  # atno 6909 bound_to 6896
  146.1833  140.4084  142.8486 H   0  0  0  0  0  0  0  0  0  0  0  0  # atno 7974 bound_to 7965
  154.6403  140.2544  155.7330 H   0  0  0  0  0  0  0  0  0  0  0  0  # atno 8008 bound_to 7997
  156.2525  140.2889  156.0714 H   0  0  0  0  0  0  0  0  0  0  0  0  # atno 8009 bound_to 7997
  155.1607  140.0384  157.2832 H   0  0  0  0  0  0  0  0  0  0  0  0  # atno 8010 bound_to 7997
  139.5743  144.6955  151.3696 H   0  0  0  0  0  0  0  0  0  0  0  0  # atno 10167 bound_to 10162
  156.0619  130.5842  150.8307 H   0  0  0  0  0  0  0  0  0  0  0  0  # atno 10718 bound_to 10713
  154.4428  135.5936  153.6140 H   0  0  0  0  0  0  0  0  0  0  0  0  # atno 10763 bound_to 10752
  152.9807  135.6002  154.3701 H   0  0  0  0  0  0  0  0  0  0  0  0  # atno 10764 bound_to 10752
  154.3553  135.2841  155.2328 H   0  0  0  0  0  0  0  0  0  0  0  0  # atno 10765 bound_to 10752
  140.5324  134.0453  155.7877 H   0  0  0  0  0  0  0  0  0  0  0  0  # atno 11005 bound_to 11000
  144.8353  140.6771  143.6265 LP  0  0  0  0  0  0  0  0  0  0  0  0  # atno 17320 bound_to 7965
  145.4013  139.1597  143.4176 LP  0  0  0  0  0  0  0  0  0  0  0  0  # atno 17321 bound_to 7965
  140.7026  143.7594  150.7428 LP  0  0  0  0  0  0  0  0  0  0  0  0  # atno 17342 bound_to 10162
  140.1109  143.4700  152.2371 LP  0  0  0  0  0  0  0  0  0  0  0  0  # atno 17343 bound_to 10162
  157.5634  131.0946  150.9525 LP  0  0  0  0  0  0  0  0  0  0  0  0  # atno 17370 bound_to 10713
  156.9757  130.5508  149.5293 LP  0  0  0  0  0  0  0  0  0  0  0  0  # atno 17371 bound_to 10713
  141.1274  133.9360  157.2607 LP  0  0  0  0  0  0  0  0  0  0  0  0  # atno 17394 bound_to 11000
  139.9547  135.0168  156.9094 LP  0  0  0  0  0  0  0  0  0  0  0  0  # atno 17395 bound_to 11000

$$$$
