AV-unprocessed.smi:275|AV-procd|sdf|2064|dock10
  -GOLD-   2262021313D 1   1.00000     0.00000
 Structure written by MMmdl.
 65 69  0  0  0  0  0  0  0  0  1 V2000
  151.8541  138.4803  158.3289 C   0  0  0  0  0  0  0  0  0  0  0  0
  152.2517  139.9547  158.5125 C   0  0  0  0  0  0  0  0  0  0  0  0
  153.3369  140.0516  159.5979 C   0  0  0  0  0  0  0  0  0  0  0  0
  151.0491  140.8564  158.8472 C   0  0  2  0  0  0  0  0  0  0  0  0
  150.1562  141.0914  157.7142 N   0  0  0  0  0  0  0  0  0  0  0  0
  148.9941  140.2817  157.5655 C   0  0  0  0  0  0  0  0  0  0  0  0
  147.9959  140.2872  158.4898 N   0  0  0  0  0  0  0  0  0  0  0  0
  146.9120  139.5213  158.3367 C   0  0  0  0  0  0  0  0  0  0  0  0
  146.6185  138.6816  157.3431 N   0  0  0  0  0  0  0  0  0  0  0  0
  147.6103  138.6660  156.4086 C   0  0  0  0  0  0  0  0  0  0  0  0
  148.8144  139.4246  156.4452 C   0  0  0  0  0  0  0  0  0  0  0  0
  149.5856  139.1440  155.3242 N   0  0  0  0  0  0  0  0  0  0  0  0
  148.8784  138.2699  154.6619 C   0  0  0  0  0  0  0  0  0  0  0  0
  147.6689  137.9399  155.2315 N   0  0  0  0  0  0  0  0  0  0  0  0
  146.6949  136.9937  154.7152 C   0  0  0  0  0  0  0  0  0  0  0  0
  145.7868  137.5526  153.5882 C   0  0  1  0  0  0  0  0  0  0  0  0
  146.6999  138.1527  152.4909 C   0  0  0  0  0  0  0  0  0  0  0  0
  145.9640  138.8840  151.5321 O   0  0  0  0  0  0  0  0  0  0  0  0
  144.8045  136.4846  153.0159 C   0  0  2  0  0  0  0  0  0  0  0  0
  143.9492  135.7634  154.0460 C   0  0  0  0  0  0  0  0  0  0  0  0
  143.4672  134.5452  153.2726 C   0  0  0  0  0  0  0  0  0  0  0  0
  144.5813  134.1668  152.4795 O   0  0  0  0  0  0  0  0  0  0  0  0
  145.4526  135.2813  152.3108 C   0  0  0  0  0  0  0  0  0  0  0  0
  149.8404  142.4281  158.1842 C   0  0  0  0  0  0  0  0  0  0  0  0
  151.1827  142.3991  158.9330 C   0  0  0  0  0  0  0  0  0  0  0  0
  152.3559  143.0686  158.1814 C   0  0  0  0  0  0  0  0  0  0  0  0
  152.2516  144.6034  158.1563 C   0  0  0  0  0  0  0  0  0  0  0  0
  152.1652  145.1769  159.5765 C   0  0  0  0  0  0  0  0  0  0  0  0
  151.0363  144.5124  160.3744 C   0  0  0  0  0  0  0  0  0  0  0  0
  151.1695  142.9804  160.3561 C   0  0  0  0  0  0  0  0  0  0  0  0
  151.3642  138.0866  159.2199 H   0  0  0  0  0  0  0  0  0  0  0  0
  152.7272  137.8590  158.1284 H   0  0  0  0  0  0  0  0  0  0  0  0
  151.1731  138.3530  157.4876 H   0  0  0  0  0  0  0  0  0  0  0  0
  152.7000  140.2859  157.5753 H   0  0  0  0  0  0  0  0  0  0  0  0
  152.9611  139.7010  160.5596 H   0  0  0  0  0  0  0  0  0  0  0  0
  153.6877  141.0723  159.7385 H   0  0  0  0  0  0  0  0  0  0  0  0
  154.2052  139.4447  159.3407 H   0  0  0  0  0  0  0  0  0  0  0  0
  150.4977  140.4983  159.7184 H   0  0  0  0  0  0  0  0  0  0  0  0
  146.1744  139.5931  159.1223 H   0  0  0  0  0  0  0  0  0  0  0  0
  149.2190  137.8449  153.7290 H   0  0  0  0  0  0  0  0  0  0  0  0
  147.2612  136.1355  154.3518 H   0  0  0  0  0  0  0  0  0  0  0  0
  146.0828  136.6254  155.5393 H   0  0  0  0  0  0  0  0  0  0  0  0
  145.2036  138.3724  154.0105 H   0  0  0  0  0  0  0  0  0  0  0  0
  147.4194  138.8499  152.9211 H   0  0  0  0  0  0  0  0  0  0  0  0
  147.2786  137.3722  151.9957 H   0  0  0  0  0  0  0  0  0  0  0  0
  145.2785  139.3588  151.9772 H   0  0  0  0  0  0  0  0  0  0  0  0
  144.1292  136.9711  152.3099 H   0  0  0  0  0  0  0  0  0  0  0  0
  144.5568  135.4460  154.8947 H   0  0  0  0  0  0  0  0  0  0  0  0
  143.1222  136.3677  154.4199 H   0  0  0  0  0  0  0  0  0  0  0  0
  143.1427  133.7328  153.9231 H   0  0  0  0  0  0  0  0  0  0  0  0
  142.6380  134.8103  152.6155 H   0  0  0  0  0  0  0  0  0  0  0  0
  145.6152  135.4652  151.2495 H   0  0  0  0  0  0  0  0  0  0  0  0
  146.4118  135.0280  152.7629 H   0  0  0  0  0  0  0  0  0  0  0  0
  149.7707  143.1660  157.3849 H   0  0  0  0  0  0  0  0  0  0  0  0
  148.9727  142.4546  158.8467 H   0  0  0  0  0  0  0  0  0  0  0  0
  153.3076  142.7964  158.6353 H   0  0  0  0  0  0  0  0  0  0  0  0
  152.4073  142.7068  157.1539 H   0  0  0  0  0  0  0  0  0  0  0  0
  153.1121  145.0265  157.6373 H   0  0  0  0  0  0  0  0  0  0  0  0
  151.3720  144.9046  157.5867 H   0  0  0  0  0  0  0  0  0  0  0  0
  153.1137  145.0165  160.0903 H   0  0  0  0  0  0  0  0  0  0  0  0
  152.0130  146.2558  159.5369 H   0  0  0  0  0  0  0  0  0  0  0  0
  151.0456  144.8748  161.4027 H   0  0  0  0  0  0  0  0  0  0  0  0
  150.0717  144.8003  159.9545 H   0  0  0  0  0  0  0  0  0  0  0  0
  150.3488  142.5502  160.9314 H   0  0  0  0  0  0  0  0  0  0  0  0
  152.0792  142.6937  160.8850 H   0  0  0  0  0  0  0  0  0  0  0  0
  1  2  1  0  0  0  0
  1 31  1  0  0  0  0
  1 32  1  0  0  0  0
  1 33  1  0  0  0  0
  2  3  1  0  0  0  0
  2  4  1  0  0  0  0
  2 34  1  0  0  0  0
  3 35  1  0  0  0  0
  3 36  1  0  0  0  0
  3 37  1  0  0  0  0
  4 25  1  0  0  0  0
  4  5  1  0  0  0  0
  4 38  1  0  0  0  0
  5  6  1  0  0  0  0
  5 24  1  0  0  0  0
  6 11  1  0  0  0  0
  6  7  2  0  0  0  0
  7  8  1  0  0  0  0
  8  9  2  0  0  0  0
  8 39  1  0  0  0  0
  9 10  1  0  0  0  0
 10 14  1  0  0  0  0
 10 11  2  0  0  0  0
 11 12  1  0  0  0  0
 12 13  2  0  0  0  0
 13 14  1  0  0  0  0
 13 40  1  0  0  0  0
 14 15  1  0  0  0  0
 15 16  1  0  0  0  0
 15 41  1  0  0  0  0
 15 42  1  0  0  0  0
 16 17  1  0  0  0  0
 16 19  1  0  0  0  0
 16 43  1  0  0  0  0
 17 18  1  0  0  0  0
 17 44  1  0  0  0  0
 17 45  1  0  0  0  0
 18 46  1  0  0  0  0
 19 23  1  0  0  0  0
 19 20  1  0  0  0  0
 19 47  1  0  0  0  0
 20 21  1  0  0  0  0
 20 48  1  0  0  0  0
 20 49  1  0  0  0  0
 21 22  1  0  0  0  0
 21 50  1  0  0  0  0
 21 51  1  0  0  0  0
 22 23  1  0  0  0  0
 23 52  1  0  0  0  0
 23 53  1  0  0  0  0
 24 25  1  0  0  0  0
 24 54  1  0  0  0  0
 24 55  1  0  0  0  0
 25 30  1  0  0  0  0
 25 26  1  0  0  0  0
 26 27  1  0  0  0  0
 26 56  1  0  0  0  0
 26 57  1  0  0  0  0
 27 28  1  0  0  0  0
 27 58  1  0  0  0  0
 27 59  1  0  0  0  0
 28 29  1  0  0  0  0
 28 60  1  0  0  0  0
 28 61  1  0  0  0  0
 29 30  1  0  0  0  0
 29 62  1  0  0  0  0
 29 63  1  0  0  0  0
 30 64  1  0  0  0  0
 30 65  1  0  0  0  0
M  END
> <s_m_source_file>
AV-unprocessed.smi

> <i_m_source_file_index>
275

> <i_lp_mmshare_version>
43012

> <i_f3d_flags>
0

> <s_epik_input>
W0NIMl0xW0NIMl1bQ0gyXVtDSDJdW0NIMl1DMTJbQ0BIXShbQ0hdKFtDSDNdKVtDSDNdKU4oW0NIMl0yKWMobltjSF1uMyljKGMzNCluW2NIXW40W0NIMl1bQ0BIXShbQ0gyXVtPSF0pW0NAQEhdNVtDSDJdW0NIMl1PW0NIMl01

> <s_epik_cmdline>
J2VwaWtfcHl0aG9uJywgJy1waCcsICc3LjAnLCAnLXRuJywgJzgnLCAnLW1hJywgJzIwMCcsICctbWV0YWxfYmluZGluZycsICctaW1hZScsICc8aW5maWxlLm1hZT4nLCAnLW9tYWUnLCAnPG91dGZpbGUubWFlPic=

> <r_lp_tautomer_probability>
1

> <r_epik_Ionization_Penalty>
0.00375122

> <r_epik_Ionization_Penalty_Charging>
0

> <r_epik_Ionization_Penalty_Neutral>
0.00375122

> <r_epik_State_Penalty>
0.00260593

> <r_epik_Charging_Adjusted_Penalty>
0.00260593

> <i_epik_Tot_Q>
0

> <i_epik_Tot_abs_Q>
0

> <r_epik_Metal_State_Penalty>
-0

> <b_epik_Metal_Only>
0

> <s_lp_Force_Field>
OPLS_2005

> <r_lp_Energy>
64.5971

> <b_lp_Chiralities_Consistent>
1

> <s_lp_Variant>
AV-unprocessed.smi:275-3

> <Gold.Version>
5.8.1

> <Gold.Id.Protein>
6NUR|6NUR_protein|mol2

> <Gold.PLP.Fitness>
42.5994

> <Gold.PLP.PLP>
-37.3862

> <Gold.PLP.part.hbond>
-2.8042

> <Gold.PLP.part.metal>
0.0000

> <Gold.PLP.part.buried>
-3.4419

> <Gold.PLP.part.nonpolar>
-33.0988

> <Gold.PLP.part.repulsive>
0.2501

> <Gold.PLP.ligand.clash>
0.0000

> <Gold.PLP.ligand.torsion>
0.7020

> <Gold.PLP.Chemscore.Hbond>
1.0000

> <Gold.PLP.Chemscore.CHOScore>
1.0000

> <Gold.PLP.Chemscore.Metal>
0.0000

> <Gold.Chemscore.Hbonds>
donor molecule, donor type, donor heavy atom, donor atom, acceptor molecule, acceptor atom, score
      L1  H    18    46       P1 10175  1.00
      L1  C    13    40       P1  7948  1.00

> <Gold.PLP.Chemscore.Internal.Correction>
0.6173

> <Gold.Rescore>
     Score         DG    S(hbond)    S(metal)    S(lipo)     H(rot)  DE(clash)    DE(int)     intcor
     12.81     -15.01       0.60        0.00     119.88       2.54       1.49       0.71       ----

> <Gold.Chemscore.Fitness>
12.8107

> <Gold.Chemscore.DG>
-15.0076

> <Gold.Chemscore.ZeroCoef>
-5.4800

> <Gold.Chemscore.Hbond>
0.5984

> <Gold.Chemscore.Metal>
0.0000

> <Gold.Chemscore.Lipo>
119.8764

> <Gold.Chemscore.Internal_Hbond>
0.0000

> <Gold.Chemscore.DEClash>
1.4896

> <Gold.Chemscore.DEInternal>
0.7074

> <Gold.Chemscore.Rot>
2.5377

> <Gold.Chemscore.Internal.Correction>
   9.000000E+99

> <Gold.Chemscore.Hbonds>
donor molecule, donor type, donor heavy atom, donor atom, acceptor molecule, acceptor atom, score
      L1  H    18    46       P1 10175  0.95

> <Gold.Chemscore.Hbond.Weighted>
-1.9987

> <Gold.Chemscore.Metal.Weighted>
-0.0000

> <Gold.Chemscore.Lipo.Weighted>
-14.0255

> <Gold.Chemscore.Internal_Hbond.Weighted>
0.0000

> <Gold.Chemscore.DEClash.Weighted>
1.4896

> <Gold.Chemscore.DEInternal.Weighted>
0.7074

> <Gold.Chemscore.Rot.Weighted>
6.4966

> <Gold.Chemscore.Internal.Correction.Weighted>
   9.000000E+99

> <Gold.Protein.RotatedTorsions>
[ 6907 6896 6895 6894 ] final  -73.68 input  -60.11 | X-H torsion
[ 7974 7965 7964 7962 ] final  105.59 input  175.53 | X-H torsion
[ 8008 7997 7996 7995 ] final  161.42 input   59.86 | X-H torsion
[ 10167 10162 10161 10158 ] final -105.56 input  -65.29 | X-H torsion
[ 10718 10713 10712 10709 ] final -119.09 input   66.30 | X-H torsion
[ 10763 10752 10751 10750 ] final -124.86 input  -60.55 | X-H torsion
[ 11005 11000 10999 10996 ] final  123.82 input  -57.11 | X-H torsion

> <Gold.Protein.ActiveResidues>
 VAL166  LYS551  ARG553  GLY616  TRP617  ASP618  TYR619  PRO620  LYS621  CYS622 
 ASP623  PHE694  ASN695  SER759  ASP760  ASP761  ALA762  ILE779  LEU786  VAL792 
 PHE793  MET794  SER795  GLU796  ALA797  LYS798  CYS799  TRP800  GLU811  SER814 

> <Gold.Protein.RotatedAtoms>
  150.7121  134.4980  159.5547 H   0  0  0  0  0  0  0  0  0  0  0  0  # atno 6907 bound_to 6896
  152.2584  134.8057  160.0444 H   0  0  0  0  0  0  0  0  0  0  0  0  # atno 6908 bound_to 6896
  151.8780  133.3454  159.3793 H   0  0  0  0  0  0  0  0  0  0  0  0  # atno 6909 bound_to 6896
  145.3176  139.2522  143.3729 H   0  0  0  0  0  0  0  0  0  0  0  0  # atno 7974 bound_to 7965
  156.2104  140.1777  156.7708 H   0  0  0  0  0  0  0  0  0  0  0  0  # atno 8008 bound_to 7997
  154.5714  140.0682  156.9000 H   0  0  0  0  0  0  0  0  0  0  0  0  # atno 8009 bound_to 7997
  155.2666  140.3339  155.4271 H   0  0  0  0  0  0  0  0  0  0  0  0  # atno 8010 bound_to 7997
  140.1973  143.3846  152.1158 H   0  0  0  0  0  0  0  0  0  0  0  0  # atno 10167 bound_to 10162
  156.1155  130.6282  150.9373 H   0  0  0  0  0  0  0  0  0  0  0  0  # atno 10718 bound_to 10713
  154.8729  135.4049  154.3173 H   0  0  0  0  0  0  0  0  0  0  0  0  # atno 10763 bound_to 10752
  153.4007  135.7018  153.6433 H   0  0  0  0  0  0  0  0  0  0  0  0  # atno 10764 bound_to 10752
  153.5177  135.3694  155.2588 H   0  0  0  0  0  0  0  0  0  0  0  0  # atno 10765 bound_to 10752
  139.9330  134.9641  156.8316 H   0  0  0  0  0  0  0  0  0  0  0  0  # atno 11005 bound_to 11000
  146.3094  140.3727  142.8676 LP  0  0  0  0  0  0  0  0  0  0  0  0  # atno 17320 bound_to 7965
  144.8965  140.7589  143.5894 LP  0  0  0  0  0  0  0  0  0  0  0  0  # atno 17321 bound_to 7965
  139.5231  144.7068  151.5330 LP  0  0  0  0  0  0  0  0  0  0  0  0  # atno 17342 bound_to 10162
  140.6415  143.8880  150.6696 LP  0  0  0  0  0  0  0  0  0  0  0  0  # atno 17343 bound_to 10162
  157.6338  131.0918  150.8389 LP  0  0  0  0  0  0  0  0  0  0  0  0  # atno 17370 bound_to 10713
  156.8493  130.5075  149.5313 LP  0  0  0  0  0  0  0  0  0  0  0  0  # atno 17371 bound_to 10713
  140.6151  134.0046  155.7594 LP  0  0  0  0  0  0  0  0  0  0  0  0  # atno 17394 bound_to 11000
  141.0929  133.9889  157.3208 LP  0  0  0  0  0  0  0  0  0  0  0  0  # atno 17395 bound_to 11000

$$$$
