#       Name:                AV-unprocessed.smi:1033
#       Creating user name   scv26
#       Creation time:       Fri Mar 27 02:48:53 2020


#       File generated by GOLD software.
#

@<TRIPOS>MOLECULE
AV-unprocessed.smi:1033
    62    64     1
SMALL
NO_CHARGES


@<TRIPOS>ATOM
      1 ****        -6.5836   1.8495   1.3004 C.3            1 S1                 0.0000
      2 ****        -5.3416   1.8670   0.4267 C.ar           1 S1                 0.0000
      3 ****        -5.4792   2.1080  -0.9592 C.ar           1 S1                 0.0000
      4 ****        -4.3489   2.1341  -1.8056 C.ar           1 S1                 0.0000
      5 ****        -4.2504   2.3484  -3.1700 N.2            1 S1                 0.0000
      6 ****        -2.9379   2.2498  -3.3631 C.2            1 S1                 0.0000
      7 ****        -2.1739   1.9962  -2.2831 N.pl3          1 S1                 0.0000
      8 ****        -0.7314   1.8447  -2.2371 C.3            1 S1                 0.0000
      9 ****        -0.3035   0.3645  -2.1795 C.3            1 S1                 0.0000
     10 ****        -0.6811  -0.2742  -3.3823 O.3            1 S1                 0.0000
     11 ****         1.2171   0.1841  -2.0018 C.3            1 S1                 0.0000
     12 ****         1.7741   0.7224  -0.7547 N.3            1 S1                 0.0000
     13 ****         1.2982   0.0657   0.4663 C.3            1 S1                 0.0000
     14 ****         1.8502  -1.3624   0.6470 C.3            1 S1                 0.0000
     15 ****         3.3374  -1.3392   0.6441 N.4            1 S1                 1.0000
     16 ****         3.9587  -2.6666   0.8842 C.3            1 S1                 0.0000
     17 ****         3.9039  -3.0867   2.3665 C.3            1 S1                 0.0000
     18 ****         4.4662  -4.4965   2.5892 C.3            1 S1                 0.0000
     19 ****         4.6704  -2.1822   3.1362 O.3            1 S1                 0.0000
     20 ****         3.8464  -0.6856  -0.5891 C.3            1 S1                 0.0000
     21 ****         3.2366   0.7236  -0.7412 C.3            1 S1                 0.0000
     22 ****        -3.0677   1.9120  -1.2220 C.ar           1 S1                 0.0000
     23 ****        -2.9174   1.6714   0.1550 C.ar           1 S1                 0.0000
     24 ****        -4.0570   1.6468   0.9858 C.ar           1 S1                 0.0000
     25 ****        -3.8845   1.3852   2.4716 C.3            1 S1                 0.0000
     26 ****        -7.4823   2.0592   0.7196 H              1 S1                 0.0000
     27 ****        -6.5102   2.6031   2.0848 H              1 S1                 0.0000
     28 ****        -6.7081   0.8727   1.7681 H              1 S1                 0.0000
     29 ****        -6.4572   2.2756  -1.3856 H              1 S1                 0.0000
     30 ****        -2.5064   2.3665  -4.3467 H              1 S1                 0.0000
     31 ****        -0.2939   2.3414  -3.1044 H              1 S1                 0.0000
     32 ****        -0.3704   2.3803  -1.3584 H              1 S1                 0.0000
     33 ****        -0.8370  -0.1437  -1.3769 H              1 S1                 0.0000
     34 ****        -0.2563   0.1646  -4.1035 H              1 S1                 0.0000
     35 ****         1.4597  -0.8746  -2.0923 H              1 S1                 0.0000
     36 ****         1.7114   0.6699  -2.8442 H              1 S1                 0.0000
     37 ****         1.6013   0.6647   1.3262 H              1 S1                 0.0000
     38 ****         0.2098   0.0533   0.4995 H              1 S1                 0.0000
     39 ****         1.4804  -1.7635   1.5897 H              1 S1                 0.0000
     40 ****         1.4830  -2.0243  -0.1382 H              1 S1                 0.0000
     41 ****         3.4685  -3.4116   0.2553 H              1 S1                 0.0000
     42 ****         5.0036  -2.6437   0.5697 H              1 S1                 0.0000
     43 ****         2.8786  -3.0663   2.7344 H              1 S1                 0.0000
     44 ****         3.8958  -5.2382   2.0294 H              1 S1                 0.0000
     45 ****         4.4218  -4.7754   3.6426 H              1 S1                 0.0000
     46 ****         5.5068  -4.5671   2.2699 H              1 S1                 0.0000
     47 ****         5.5808  -2.2764   2.8994 H              1 S1                 0.0000
     48 ****         4.9323  -0.6005  -0.5354 H              1 S1                 0.0000
     49 ****         3.6232  -1.3055  -1.4586 H              1 S1                 0.0000
     50 ****         3.6162   1.1969  -1.6476 H              1 S1                 0.0000
     51 ****         3.5824   1.3471   0.0845 H              1 S1                 0.0000
     52 ****        -1.9326   1.5082   0.5670 H              1 S1                 0.0000
     53 ****        -2.8397   1.2053   2.7260 H              1 S1                 0.0000
     54 ****        -4.4571   0.5086   2.7751 H              1 S1                 0.0000
     55 ****        -4.2278   2.2420   3.0519 H              1 S1                 0.0000
     56 ****         3.6241  -0.7491   1.4125 H              1 S1                 0.0000
     57 ****        -4.9750   2.5296  -3.8350 LP             1 S1                 0.0000
     58 ****        -1.6735  -0.2223  -3.4939 LP             1 S1                 0.0000
     59 ****        -0.3981  -1.2330  -3.3577 LP             1 S1                 0.0000
     60 ****         1.4324   1.6622  -0.7463 LP             1 S1                 0.0000
     61 ****         4.5532  -2.3849   4.1084 LP             1 S1                 0.0000
     62 ****         4.3703  -1.2461   2.9524 LP             1 S1                 0.0000
@<TRIPOS>BOND
    1    1    2 1     
    2    1   26 1     
    3    1   27 1     
    4    1   28 1     
    5    2   24 ar    
    6    2    3 ar    
    7    3    4 ar    
    8    3   29 1     
    9    4   22 ar    
   10    4    5 1     
   11    5    6 2     
   12    6    7 1     
   13    6   30 1     
   14    7    8 1     
   15    7   22 1     
   16    8    9 1     
   17    8   31 1     
   18    8   32 1     
   19    9   10 1     
   20    9   11 1     
   21    9   33 1     
   22   10   34 1     
   23   11   12 1     
   24   11   35 1     
   25   11   36 1     
   26   12   21 1     
   27   12   13 1     
   28   13   14 1     
   29   13   37 1     
   30   13   38 1     
   31   14   15 1     
   32   14   39 1     
   33   14   40 1     
   34   15   16 1     
   35   15   20 1     
   36   15   56 1     
   37   16   17 1     
   38   16   41 1     
   39   16   42 1     
   40   17   18 1     
   41   17   19 1     
   42   17   43 1     
   43   18   44 1     
   44   18   45 1     
   45   18   46 1     
   46   19   47 1     
   47   20   21 1     
   48   20   48 1     
   49   20   49 1     
   50   21   50 1     
   51   21   51 1     
   52   22   23 ar    
   53   23   24 ar    
   54   23   52 1     
   55   24   25 1     
   56   25   53 1     
   57   25   54 1     
   58   25   55 1     
   59    5   57 1     
   60   10   58 1     
   61   10   59 1     
   62   12   60 1     
   63   19   61 1     
   64   19   62 1     
@<TRIPOS>SUBSTRUCTURE
      1 S1             1
@<TRIPOS>SET
LONE_PAIRS      STATIC     ATOMS    <user>   **** ""
6 57 58 59 60 61 62
DONOR_HYDROGENS      STATIC     ATOMS    <user>   **** ""
3 34 56 47
ATOM$BLUE        STATIC     ATOMS    COLORGROUP SYSTEM
6 57 58 59 60 61 62
ATOM$RED        STATIC     ATOMS    COLORGROUP SYSTEM
3 34 56 47
