AV-unprocessed.smi:3075|AV-procd|sdf|11724|dock1
  -GOLD-   2272017123D 1   1.00000     0.00000
 Structure written by MMmdl.
 29 30  0  0  0  0  0  0  0  0  1 V2000
  152.8153  143.3851  163.6104 N   0  0  0  0  0  0  0  0  0  0  0  0
  153.0221  142.6007  162.4087 C   0  0  0  0  0  0  0  0  0  0  0  0
  152.5453  143.3148  161.1525 C   0  0  0  0  0  0  0  0  0  0  0  0
  152.1188  144.6563  161.2507 C   0  0  0  0  0  0  0  0  0  0  0  0
  151.6551  145.3180  160.0996 C   0  0  0  0  0  0  0  0  0  0  0  0
  151.6331  144.6060  158.8871 C   0  0  0  0  0  0  0  0  0  0  0  0
  152.0386  143.3243  158.7760 N   0  0  0  0  0  0  0  0  0  0  0  0
  152.4908  142.6814  159.8810 C   0  0  0  0  0  0  0  0  0  0  0  0
  152.9336  141.3551  159.7209 N   0  0  0  0  0  0  0  0  0  0  0  0
  152.4243  140.6239  158.5648 C   0  0  0  0  0  0  0  0  0  0  0  0
  152.8446  139.1470  158.6541 C   0  0  0  0  0  0  0  0  0  0  0  0
  154.2627  139.0612  158.7658 O   0  0  0  0  0  0  0  0  0  0  0  0
  154.7489  139.7162  159.9341 C   0  0  0  0  0  0  0  0  0  0  0  0
  154.3740  141.2076  159.8876 C   0  0  0  0  0  0  0  0  0  0  0  0
  153.3281  142.9674  164.3737 H   0  0  0  0  0  0  0  0  0  0  0  0
  153.2123  144.3046  163.4805 H   0  0  0  0  0  0  0  0  0  0  0  0
  154.0734  142.3234  162.3367 H   0  0  0  0  0  0  0  0  0  0  0  0
  152.4671  141.6675  162.5088 H   0  0  0  0  0  0  0  0  0  0  0  0
  152.1440  145.1723  162.1994 H   0  0  0  0  0  0  0  0  0  0  0  0
  151.3222  146.3443  160.1459 H   0  0  0  0  0  0  0  0  0  0  0  0
  151.2825  145.0784  157.9814 H   0  0  0  0  0  0  0  0  0  0  0  0
  151.3372  140.7036  158.5253 H   0  0  0  0  0  0  0  0  0  0  0  0
  152.8174  141.0615  157.6459 H   0  0  0  0  0  0  0  0  0  0  0  0
  152.3714  138.6583  159.5074 H   0  0  0  0  0  0  0  0  0  0  0  0
  152.5250  138.6101  157.7609 H   0  0  0  0  0  0  0  0  0  0  0  0
  154.3393  139.2409  160.8271 H   0  0  0  0  0  0  0  0  0  0  0  0
  155.8321  139.6024  159.9810 H   0  0  0  0  0  0  0  0  0  0  0  0
  154.8818  141.6946  159.0539 H   0  0  0  0  0  0  0  0  0  0  0  0
  154.7098  141.7036  160.7978 H   0  0  0  0  0  0  0  0  0  0  0  0
  1  2  1  0  0  0  0
  1 15  1  0  0  0  0
  1 16  1  0  0  0  0
  2  3  1  0  0  0  0
  2 17  1  0  0  0  0
  2 18  1  0  0  0  0
  3  8  1  0  0  0  0
  3  4  2  0  0  0  0
  4  5  1  0  0  0  0
  4 19  1  0  0  0  0
  5  6  2  0  0  0  0
  5 20  1  0  0  0  0
  6  7  1  0  0  0  0
  6 21  1  0  0  0  0
  7  8  2  0  0  0  0
  8  9  1  0  0  0  0
  9 14  1  0  0  0  0
  9 10  1  0  0  0  0
 10 11  1  0  0  0  0
 10 22  1  0  0  0  0
 10 23  1  0  0  0  0
 11 12  1  0  0  0  0
 11 24  1  0  0  0  0
 11 25  1  0  0  0  0
 12 13  1  0  0  0  0
 13 14  1  0  0  0  0
 13 26  1  0  0  0  0
 13 27  1  0  0  0  0
 14 28  1  0  0  0  0
 14 29  1  0  0  0  0
M  END
> <s_m_source_file>
AV-unprocessed.smi

> <i_m_source_file_index>
3075

> <i_lp_mmshare_version>
43012

> <i_f3d_flags>
0

> <s_epik_input>
W05IMl1bQ0gyXWMxW2NIXVtjSF1bY0hdbmMxTjJbQ0gyXVtDSDJdT1tDSDJdW0NIMl0y

> <s_epik_cmdline>
J2VwaWtfcHl0aG9uJywgJy1waCcsICc3LjAnLCAnLXRuJywgJzgnLCAnLW1hJywgJzIwMCcsICctbWV0YWxfYmluZGluZycsICctaW1hZScsICc8aW5maWxlLm1hZT4nLCAnLW9tYWUnLCAnPG91dGZpbGUubWFlPic=

> <r_lp_tautomer_probability>
1

> <r_epik_Ionization_Penalty>
1.38161

> <r_epik_Ionization_Penalty_Charging>
0

> <r_epik_Ionization_Penalty_Neutral>
1.38161

> <r_epik_State_Penalty>
1.45585

> <r_epik_Charging_Adjusted_Penalty>
1.45585

> <i_epik_Tot_Q>
0

> <i_epik_Tot_abs_Q>
0

> <r_epik_Metal_State_Penalty>
1.45048

> <b_epik_Metal_Only>
0

> <s_lp_Force_Field>
OPLS_2005

> <r_lp_Energy>
18.9945

> <b_lp_Chiralities_Consistent>
1

> <s_lp_Variant>
AV-unprocessed.smi:3075-2

> <Gold.Version>
5.8.1

> <Gold.Id.Protein>
6NUR|6NUR_protein|mol2

> <Gold.PLP.Fitness>
39.3999

> <Gold.PLP.PLP>
-37.1041

> <Gold.PLP.part.hbond>
-2.2259

> <Gold.PLP.part.metal>
0.0000

> <Gold.PLP.part.buried>
-5.7957

> <Gold.PLP.part.nonpolar>
-28.5343

> <Gold.PLP.part.repulsive>
0.0174

> <Gold.PLP.ligand.clash>
0.0000

> <Gold.PLP.ligand.torsion>
0.4408

> <Gold.PLP.Chemscore.Hbond>
1.0000

> <Gold.PLP.Chemscore.CHOScore>
0.0000

> <Gold.PLP.Chemscore.Metal>
0.0000

> <Gold.Chemscore.Hbonds>
donor molecule, donor type, donor heavy atom, donor atom, acceptor molecule, acceptor atom, score
      P1  H  7997  8009       L1    12  1.00

> <Gold.PLP.Chemscore.Internal.Correction>
0.1774

> <Gold.Rescore>
     Score         DG    S(hbond)    S(metal)    S(lipo)     H(rot)  DE(clash)    DE(int)     intcor
     13.25     -13.97       0.39        0.00      89.61       1.29       0.20       0.52       ----

> <Gold.Chemscore.Fitness>
13.2471

> <Gold.Chemscore.DG>
-13.9652

> <Gold.Chemscore.ZeroCoef>
-5.4800

> <Gold.Chemscore.Hbond>
0.3882

> <Gold.Chemscore.Metal>
0.0000

> <Gold.Chemscore.Lipo>
89.6144

> <Gold.Chemscore.Internal_Hbond>
0.0000

> <Gold.Chemscore.DEClash>
0.1978

> <Gold.Chemscore.DEInternal>
0.5204

> <Gold.Chemscore.Rot>
1.2875

> <Gold.Chemscore.Internal.Correction>
   9.000000E+99

> <Gold.Chemscore.Hbonds>
donor molecule, donor type, donor heavy atom, donor atom, acceptor molecule, acceptor atom, score
      P1  H  7997  8009       L1    12  0.22

> <Gold.Chemscore.Hbond.Weighted>
-1.2964

> <Gold.Chemscore.Metal.Weighted>
-0.0000

> <Gold.Chemscore.Lipo.Weighted>
-10.4849

> <Gold.Chemscore.Internal_Hbond.Weighted>
0.0000

> <Gold.Chemscore.DEClash.Weighted>
0.1978

> <Gold.Chemscore.DEInternal.Weighted>
0.5204

> <Gold.Chemscore.Rot.Weighted>
3.2961

> <Gold.Chemscore.Internal.Correction.Weighted>
   9.000000E+99

> <Gold.Protein.RotatedTorsions>
[ 6907 6896 6895 6894 ] final -177.08 input  -60.11 | X-H torsion
[ 7974 7965 7964 7962 ] final   25.65 input  175.53 | X-H torsion
[ 8008 7997 7996 7995 ] final  140.42 input   59.86 | X-H torsion
[ 10167 10162 10161 10158 ] final  139.89 input  -65.29 | X-H torsion
[ 10718 10713 10712 10709 ] final  100.00 input   66.30 | X-H torsion
[ 10763 10752 10751 10750 ] final  -79.23 input  -60.55 | X-H torsion
[ 11005 11000 10999 10996 ] final   87.46 input  -57.11 | X-H torsion

> <Gold.Protein.ActiveResidues>
 VAL166  LYS551  ARG553  GLY616  TRP617  ASP618  TYR619  PRO620  LYS621  CYS622 
 ASP623  PHE694  ASN695  SER759  ASP760  ASP761  ALA762  ILE779  LEU786  VAL792 
 PHE793  MET794  SER795  GLU796  ALA797  LYS798  CYS799  TRP800  GLU811  SER814 

> <Gold.Protein.RotatedAtoms>
  151.6151  133.3344  159.3075 H   0  0  0  0  0  0  0  0  0  0  0  0  # atno 6907 bound_to 6896
  150.8135  134.7308  159.6721 H   0  0  0  0  0  0  0  0  0  0  0  0  # atno 6908 bound_to 6896
  152.4232  134.5922  160.0029 H   0  0  0  0  0  0  0  0  0  0  0  0  # atno 6909 bound_to 6896
  146.1878  139.7437  142.8854 H   0  0  0  0  0  0  0  0  0  0  0  0  # atno 7974 bound_to 7965
  156.2979  140.2342  156.4398 H   0  0  0  0  0  0  0  0  0  0  0  0  # atno 8008 bound_to 7997
  154.8196  140.0438  157.1421 H   0  0  0  0  0  0  0  0  0  0  0  0  # atno 8009 bound_to 7997
  154.9330  140.3019  155.5161 H   0  0  0  0  0  0  0  0  0  0  0  0  # atno 8010 bound_to 7997
  139.5065  144.6267  151.5919 H   0  0  0  0  0  0  0  0  0  0  0  0  # atno 10167 bound_to 10162
  157.6864  131.0686  150.5033 H   0  0  0  0  0  0  0  0  0  0  0  0  # atno 10718 bound_to 10713
  154.5360  135.5702  153.6799 H   0  0  0  0  0  0  0  0  0  0  0  0  # atno 10763 bound_to 10752
  152.9951  135.6216  154.2565 H   0  0  0  0  0  0  0  0  0  0  0  0  # atno 10764 bound_to 10752
  154.2494  135.2859  155.2802 H   0  0  0  0  0  0  0  0  0  0  0  0  # atno 10765 bound_to 10752
  139.8919  134.8423  156.2862 H   0  0  0  0  0  0  0  0  0  0  0  0  # atno 11005 bound_to 11000
  145.3886  141.0369  143.3137 LP  0  0  0  0  0  0  0  0  0  0  0  0  # atno 17320 bound_to 7965
  144.8429  139.5443  143.6892 LP  0  0  0  0  0  0  0  0  0  0  0  0  # atno 17321 bound_to 7965
  140.5986  143.9650  150.6371 LP  0  0  0  0  0  0  0  0  0  0  0  0  # atno 17342 bound_to 10162
  140.2854  143.3360  152.1112 LP  0  0  0  0  0  0  0  0  0  0  0  0  # atno 17343 bound_to 10162
  156.5354  130.4195  149.6180 LP  0  0  0  0  0  0  0  0  0  0  0  0  # atno 17370 bound_to 10713
  156.3032  130.7188  151.2065 LP  0  0  0  0  0  0  0  0  0  0  0  0  # atno 17371 bound_to 10713
  141.0006  133.7154  156.0954 LP  0  0  0  0  0  0  0  0  0  0  0  0  # atno 17394 bound_to 11000
  140.7503  134.4052  157.5542 LP  0  0  0  0  0  0  0  0  0  0  0  0  # atno 17395 bound_to 11000

$$$$
