AV-unprocessed.smi:371|AV-procd|sdf|2441|dock10
  -GOLD-   2262022383D 1   1.00000     0.00000
 Structure written by MMmdl.
 39 40  0  0  0  0  0  0  0  0  1 V2000
  154.0743  141.7883  161.4523 C   0  0  0  0  0  0  0  0  0  0  0  0
  153.0021  141.6180  160.3829 C   0  0  0  0  0  0  0  0  0  0  0  0
  152.2026  142.7704  160.0378 C   0  0  0  0  0  0  0  0  0  0  0  0
  151.2028  142.6809  159.1464 C   0  0  0  0  0  0  0  0  0  0  0  0
  150.3575  143.9021  158.8019 C   0  0  0  0  0  0  0  0  0  0  0  0
  150.9218  141.4464  158.4983 N   0  0  0  0  0  0  0  0  0  0  0  0
  149.8019  141.3651  157.5298 C   0  0  0  0  0  0  0  0  0  0  0  0
  150.2982  141.1744  156.0763 C   0  0  2  0  0  0  0  0  0  0  0  0
  150.6972  142.4270  155.5551 O   0  0  0  0  0  0  0  0  0  0  0  0
  149.2163  140.5482  155.2051 C   0  0  0  0  0  0  0  0  0  0  0  0
  148.0509  141.2828  154.8890 C   0  0  0  0  0  0  0  0  0  0  0  0
  147.0444  140.7132  154.0857 C   0  0  0  0  0  0  0  0  0  0  0  0
  147.1939  139.4032  153.5937 C   0  0  0  0  0  0  0  0  0  0  0  0
  148.3500  138.6636  153.9070 C   0  0  0  0  0  0  0  0  0  0  0  0
  149.3591  139.2313  154.7095 C   0  0  0  0  0  0  0  0  0  0  0  0
  150.4638  138.5018  154.9965 F   0  0  0  0  0  0  0  0  0  0  0  0
  151.6655  140.3171  158.7303 C   0  0  0  0  0  0  0  0  0  0  0  0
  151.4462  139.2843  158.0889 O   0  0  0  0  0  0  0  0  0  0  0  0
  152.7312  140.4372  159.7635 C   0  0  0  0  0  0  0  0  0  0  0  0
  153.5021  139.2142  160.0643 C   0  0  0  0  0  0  0  0  0  0  0  0
  152.9128  138.0650  159.7061 N   0  0  0  0  0  0  0  0  0  0  0  0
  154.5727  139.1893  160.6693 O   0  0  0  0  0  0  0  0  0  0  0  0
  153.9931  142.7597  161.9407 H   0  0  0  0  0  0  0  0  0  0  0  0
  155.0691  141.7221  161.0112 H   0  0  0  0  0  0  0  0  0  0  0  0
  153.9815  141.0264  162.2269 H   0  0  0  0  0  0  0  0  0  0  0  0
  152.4067  143.7186  160.5142 H   0  0  0  0  0  0  0  0  0  0  0  0
  150.5283  144.7043  159.5206 H   0  0  0  0  0  0  0  0  0  0  0  0
  149.2908  143.6874  158.8224 H   0  0  0  0  0  0  0  0  0  0  0  0
  150.6243  144.2850  157.8166 H   0  0  0  0  0  0  0  0  0  0  0  0
  149.1453  140.5405  157.8031 H   0  0  0  0  0  0  0  0  0  0  0  0
  149.1279  142.2218  157.5894 H   0  0  0  0  0  0  0  0  0  0  0  0
  151.1792  140.5329  156.0669 H   0  0  0  0  0  0  0  0  0  0  0  0
  149.9227  142.9093  155.3088 H   0  0  0  0  0  0  0  0  0  0  0  0
  147.9256  142.2883  155.2634 H   0  0  0  0  0  0  0  0  0  0  0  0
  146.1575  141.2818  153.8472 H   0  0  0  0  0  0  0  0  0  0  0  0
  146.4229  138.9657  152.9768 H   0  0  0  0  0  0  0  0  0  0  0  0
  148.4640  137.6579  153.5302 H   0  0  0  0  0  0  0  0  0  0  0  0
  153.3679  137.1840  159.8973 H   0  0  0  0  0  0  0  0  0  0  0  0
  152.0052  138.0835  159.2644 H   0  0  0  0  0  0  0  0  0  0  0  0
  1  2  1  0  0  0  0
  1 23  1  0  0  0  0
  1 24  1  0  0  0  0
  1 25  1  0  0  0  0
  2 19  2  0  0  0  0
  2  3  1  0  0  0  0
  3  4  2  0  0  0  0
  3 26  1  0  0  0  0
  4  5  1  0  0  0  0
  4  6  1  0  0  0  0
  5 27  1  0  0  0  0
  5 28  1  0  0  0  0
  5 29  1  0  0  0  0
  6  7  1  0  0  0  0
  6 17  1  0  0  0  0
  7  8  1  0  0  0  0
  7 30  1  0  0  0  0
  7 31  1  0  0  0  0
  8  9  1  0  0  0  0
  8 10  1  0  0  0  0
  8 32  1  0  0  0  0
  9 33  1  0  0  0  0
 10 15  1  0  0  0  0
 10 11  2  0  0  0  0
 11 12  1  0  0  0  0
 11 34  1  0  0  0  0
 12 13  2  0  0  0  0
 12 35  1  0  0  0  0
 13 14  1  0  0  0  0
 13 36  1  0  0  0  0
 14 15  2  0  0  0  0
 14 37  1  0  0  0  0
 15 16  1  0  0  0  0
 17 18  2  0  0  0  0
 17 19  1  0  0  0  0
 19 20  1  0  0  0  0
 20 21  1  0  0  0  0
 20 22  2  0  0  0  0
 21 38  1  0  0  0  0
 21 39  1  0  0  0  0
M  END
> <s_m_source_file>
AV-unprocessed.smi

> <i_m_source_file_index>
371

> <i_lp_mmshare_version>
43012

> <i_f3d_flags>
0

> <s_epik_input>
W0NIM11jMVtjSF1jKFtDSDNdKW4oYyg9TyljMUMoPU8pW05IMl0pW0NIMl1bQ0BIXShbT0hdKWMyW2NIXVtjSF1bY0hdW2NIXWMyRg==

> <s_epik_cmdline>
J2VwaWtfcHl0aG9uJywgJy1waCcsICc3LjAnLCAnLXRuJywgJzgnLCAnLW1hJywgJzIwMCcsICctbWV0YWxfYmluZGluZycsICctaW1hZScsICc8aW5maWxlLm1hZT4nLCAnLW9tYWUnLCAnPG91dGZpbGUubWFlPic=

> <r_lp_tautomer_probability>
1

> <r_epik_Ionization_Penalty>
3.46512e-07

> <r_epik_Ionization_Penalty_Charging>
1.35363e-07

> <r_epik_Ionization_Penalty_Neutral>
2.11149e-07

> <r_epik_State_Penalty>
-0

> <r_epik_Charging_Adjusted_Penalty>
1.35363e-07

> <i_epik_Tot_Q>
0

> <i_epik_Tot_abs_Q>
0

> <r_epik_Metal_State_Penalty>
-0

> <b_epik_Metal_Only>
0

> <s_lp_Force_Field>
OPLS_2005

> <r_lp_Energy>
40.8148

> <b_lp_Chiralities_Consistent>
1

> <s_lp_Variant>
AV-unprocessed.smi:371-1

> <Gold.Version>
5.8.1

> <Gold.Id.Protein>
6NUR|6NUR_protein|mol2

> <Gold.PLP.Fitness>
42.2878

> <Gold.PLP.PLP>
-40.0756

> <Gold.PLP.part.hbond>
-1.1012

> <Gold.PLP.part.metal>
0.0000

> <Gold.PLP.part.buried>
3.2195

> <Gold.PLP.part.nonpolar>
-41.3214

> <Gold.PLP.part.repulsive>
0.0979

> <Gold.PLP.ligand.clash>
0.0000

> <Gold.PLP.ligand.torsion>
0.5488

> <Gold.PLP.Chemscore.Hbond>
1.0000

> <Gold.PLP.Chemscore.CHOScore>
0.0000

> <Gold.PLP.Chemscore.Metal>
0.0000

> <Gold.Chemscore.Hbonds>
donor molecule, donor type, donor heavy atom, donor atom, acceptor molecule, acceptor atom, score
      L1  H     9    33       P1  8028  0.69

> <Gold.PLP.Chemscore.Internal.Correction>
0.3097

> <Gold.Rescore>
     Score         DG    S(hbond)    S(metal)    S(lipo)     H(rot)  DE(clash)    DE(int)     intcor
     10.95     -15.62       0.99        0.00     102.88       2.04       1.54       3.13       ----

> <Gold.Chemscore.Fitness>
10.9515

> <Gold.Chemscore.DG>
-15.6174

> <Gold.Chemscore.ZeroCoef>
-5.4800

> <Gold.Chemscore.Hbond>
0.9944

> <Gold.Chemscore.Metal>
0.0000

> <Gold.Chemscore.Lipo>
102.8841

> <Gold.Chemscore.Internal_Hbond>
0.0000

> <Gold.Chemscore.DEClash>
1.5397

> <Gold.Chemscore.DEInternal>
3.1262

> <Gold.Chemscore.Rot>
2.0396

> <Gold.Chemscore.Internal.Correction>
   9.000000E+99

> <Gold.Chemscore.Hbonds>
donor molecule, donor type, donor heavy atom, donor atom, acceptor molecule, acceptor atom, score
      L1  H     9    33       P1  8028  0.67

> <Gold.Chemscore.Hbond.Weighted>
-3.3214

> <Gold.Chemscore.Metal.Weighted>
-0.0000

> <Gold.Chemscore.Lipo.Weighted>
-12.0374

> <Gold.Chemscore.Internal_Hbond.Weighted>
0.0000

> <Gold.Chemscore.DEClash.Weighted>
1.5397

> <Gold.Chemscore.DEInternal.Weighted>
3.1262

> <Gold.Chemscore.Rot.Weighted>
5.2214

> <Gold.Chemscore.Internal.Correction.Weighted>
   9.000000E+99

> <Gold.Protein.RotatedTorsions>
[ 6907 6896 6895 6894 ] final -123.16 input  -60.11 | X-H torsion
[ 7974 7965 7964 7962 ] final   21.46 input  175.53 | X-H torsion
[ 8008 7997 7996 7995 ] final   -3.23 input   59.86 | X-H torsion
[ 10167 10162 10161 10158 ] final -166.23 input  -65.29 | X-H torsion
[ 10718 10713 10712 10709 ] final   17.18 input   66.30 | X-H torsion
[ 10763 10752 10751 10750 ] final   11.92 input  -60.55 | X-H torsion
[ 11005 11000 10999 10996 ] final   36.84 input  -57.11 | X-H torsion

> <Gold.Protein.ActiveResidues>
 VAL166  LYS551  ARG553  GLY616  TRP617  ASP618  TYR619  PRO620  LYS621  CYS622 
 ASP623  PHE694  ASN695  SER759  ASP760  ASP761  ALA762  ILE779  LEU786  VAL792 
 PHE793  MET794  SER795  GLU796  ALA797  LYS798  CYS799  TRP800  GLU811  SER814 

> <Gold.Protein.RotatedAtoms>
  150.8645  133.7595  159.2981 H   0  0  0  0  0  0  0  0  0  0  0  0  # atno 6907 bound_to 6896
  151.5227  135.1066  159.9892 H   0  0  0  0  0  0  0  0  0  0  0  0  # atno 6908 bound_to 6896
  152.4650  133.7860  159.6932 H   0  0  0  0  0  0  0  0  0  0  0  0  # atno 6909 bound_to 6896
  146.2070  139.8024  142.8718 H   0  0  0  0  0  0  0  0  0  0  0  0  # atno 7974 bound_to 7965
  154.6272  140.2514  155.7478 H   0  0  0  0  0  0  0  0  0  0  0  0  # atno 8008 bound_to 7997
  156.2459  140.2914  156.0527 H   0  0  0  0  0  0  0  0  0  0  0  0  # atno 8009 bound_to 7997
  155.1803  140.0389  157.2871 H   0  0  0  0  0  0  0  0  0  0  0  0  # atno 8010 bound_to 7997
  139.6128  144.0779  152.1859 H   0  0  0  0  0  0  0  0  0  0  0  0  # atno 10167 bound_to 10162
  157.0784  130.6377  149.5821 H   0  0  0  0  0  0  0  0  0  0  0  0  # atno 10718 bound_to 10713
  153.1876  135.6837  153.8395 H   0  0  0  0  0  0  0  0  0  0  0  0  # atno 10763 bound_to 10752
  153.7705  135.3197  155.3352 H   0  0  0  0  0  0  0  0  0  0  0  0  # atno 10764 bound_to 10752
  154.8098  135.4725  154.0584 H   0  0  0  0  0  0  0  0  0  0  0  0  # atno 10765 bound_to 10752
  140.2285  134.3556  155.7974 H   0  0  0  0  0  0  0  0  0  0  0  0  # atno 11005 bound_to 11000
  145.3282  141.0260  143.3461 LP  0  0  0  0  0  0  0  0  0  0  0  0  # atno 17320 bound_to 7965
  144.8818  139.4894  143.6719 LP  0  0  0  0  0  0  0  0  0  0  0  0  # atno 17321 bound_to 7965
  140.0402  144.6013  150.7417 LP  0  0  0  0  0  0  0  0  0  0  0  0  # atno 17342 bound_to 10162
  140.7331  143.2713  151.3880 LP  0  0  0  0  0  0  0  0  0  0  0  0  # atno 17343 bound_to 10162
  155.9930  130.4990  150.7365 LP  0  0  0  0  0  0  0  0  0  0  0  0  # atno 17370 bound_to 10713
  157.4820  131.0903  151.0525 LP  0  0  0  0  0  0  0  0  0  0  0  0  # atno 17371 bound_to 10713
  141.2219  133.7232  156.8692 LP  0  0  0  0  0  0  0  0  0  0  0  0  # atno 17394 bound_to 11000
  140.1775  134.9056  157.2909 LP  0  0  0  0  0  0  0  0  0  0  0  0  # atno 17395 bound_to 11000

$$$$
