AV-unprocessed.smi:2492|AV-procd|sdf|9812|dock1
  -GOLD-   2272013443D 1   1.00000     0.00000
 Structure written by MMmdl.
 33 34  0  0  0  0  0  0  0  0  1 V2000
  154.3101  141.2193  160.3667 C   0  0  0  0  0  0  0  0  0  0  0  0
  153.4090  142.5685  161.1746 S   0  0  0  0  0  0  0  0  0  0  0  0
  153.0013  143.5905  159.7301 C   0  0  1  0  0  0  0  0  0  0  0  0
  152.2685  142.8053  158.6456 C   0  0  0  0  0  0  0  0  0  0  0  0
  151.6005  143.8830  157.7914 C   0  0  0  0  0  0  0  0  0  0  0  0
  151.2968  145.0546  158.7471 C   0  0  1  0  0  0  0  0  0  0  0  0
  149.8627  145.1924  158.9887 N   0  0  0  0  0  0  0  0  0  0  0  0
  149.1457  144.4204  159.8180 C   0  0  0  0  0  0  0  0  0  0  0  0
  149.6298  143.4987  160.4758 O   0  0  0  0  0  0  0  0  0  0  0  0
  147.8535  144.7882  159.8333 N   0  0  0  0  0  0  0  0  0  0  0  0
  146.7976  144.2085  160.5815 C   0  0  0  0  0  0  0  0  0  0  0  0
  145.8573  144.8614  161.2647 N   0  0  0  0  0  0  0  0  0  0  0  0
  145.1376  143.8217  161.7681 C   0  0  0  0  0  0  0  0  0  0  0  0
  143.9386  144.0191  162.6319 C   0  0  0  0  0  0  0  0  0  0  0  0
  145.5661  142.6067  161.4442 N   0  0  0  0  0  0  0  0  0  0  0  0
  146.6890  142.8607  160.6428 O   0  0  0  0  0  0  0  0  0  0  0  0
  152.0473  144.7441  160.0558 C   0  0  0  0  0  0  0  0  0  0  0  0
  154.6070  140.4731  161.1038 H   0  0  0  0  0  0  0  0  0  0  0  0
  155.2088  141.5958  159.8781 H   0  0  0  0  0  0  0  0  0  0  0  0
  153.6822  140.7354  159.6185 H   0  0  0  0  0  0  0  0  0  0  0  0
  153.9243  143.9916  159.3087 H   0  0  0  0  0  0  0  0  0  0  0  0
  152.9342  142.1652  158.0658 H   0  0  0  0  0  0  0  0  0  0  0  0
  151.5027  142.1710  159.0946 H   0  0  0  0  0  0  0  0  0  0  0  0
  152.2993  144.2189  157.0242 H   0  0  0  0  0  0  0  0  0  0  0  0
  150.7189  143.5015  157.2745 H   0  0  0  0  0  0  0  0  0  0  0  0
  151.6869  145.9806  158.3201 H   0  0  0  0  0  0  0  0  0  0  0  0
  149.3855  145.9278  158.4880 H   0  0  0  0  0  0  0  0  0  0  0  0
  147.5950  145.5683  159.2474 H   0  0  0  0  0  0  0  0  0  0  0  0
  143.5280  143.0621  162.9559 H   0  0  0  0  0  0  0  0  0  0  0  0
  143.1657  144.5585  162.0841 H   0  0  0  0  0  0  0  0  0  0  0  0
  144.2040  144.5974  163.5172 H   0  0  0  0  0  0  0  0  0  0  0  0
  151.3465  144.4279  160.8308 H   0  0  0  0  0  0  0  0  0  0  0  0
  152.5775  145.6167  160.4388 H   0  0  0  0  0  0  0  0  0  0  0  0
  1  2  1  0  0  0  0
  1 18  1  0  0  0  0
  1 19  1  0  0  0  0
  1 20  1  0  0  0  0
  2  3  1  0  0  0  0
  3 17  1  0  0  0  0
  3  4  1  0  0  0  0
  3 21  1  0  0  0  0
  4  5  1  0  0  0  0
  4 22  1  0  0  0  0
  4 23  1  0  0  0  0
  5  6  1  0  0  0  0
  5 24  1  0  0  0  0
  5 25  1  0  0  0  0
  6  7  1  0  0  0  0
  6 17  1  0  0  0  0
  6 26  1  0  0  0  0
  7  8  1  0  0  0  0
  7 27  1  0  0  0  0
  8  9  2  0  0  0  0
  8 10  1  0  0  0  0
 10 11  1  0  0  0  0
 10 28  1  0  0  0  0
 11 16  1  0  0  0  0
 11 12  2  0  0  0  0
 12 13  1  0  0  0  0
 13 14  1  0  0  0  0
 13 15  2  0  0  0  0
 14 29  1  0  0  0  0
 14 30  1  0  0  0  0
 14 31  1  0  0  0  0
 15 16  1  0  0  0  0
 17 32  1  0  0  0  0
 17 33  1  0  0  0  0
M  END
> <s_m_source_file>
AV-unprocessed.smi

> <i_m_source_file_index>
2492

> <i_lp_mmshare_version>
43012

> <i_f3d_flags>
0

> <s_epik_input>
W0NIM11TW0NAQEhdMVtDSDJdW0NIMl1bQ0BIXShbQ0gyXTEpW05IXUMoPU8pW05IXWMybmMoW0NIM10pbm8y

> <s_epik_cmdline>
J2VwaWtfcHl0aG9uJywgJy1waCcsICc3LjAnLCAnLXRuJywgJzgnLCAnLW1hJywgJzIwMCcsICctbWV0YWxfYmluZGluZycsICctaW1hZScsICc8aW5maWxlLm1hZT4nLCAnLW9tYWUnLCAnPG91dGZpbGUubWFlPic=

> <r_lp_tautomer_probability>
1

> <r_epik_Ionization_Penalty>
3.56659e-05

> <r_epik_Ionization_Penalty_Charging>
0

> <r_epik_Ionization_Penalty_Neutral>
3.56659e-05

> <r_epik_State_Penalty>
-0

> <r_epik_Charging_Adjusted_Penalty>
0

> <i_epik_Tot_Q>
0

> <i_epik_Tot_abs_Q>
0

> <r_epik_Metal_State_Penalty>
0.0146047

> <b_epik_Metal_Only>
0

> <s_lp_Force_Field>
OPLS_2005

> <r_lp_Energy>
14.0642

> <b_lp_Chiralities_Consistent>
1

> <s_lp_Variant>
AV-unprocessed.smi:2492-2

> <Gold.Version>
5.8.1

> <Gold.Id.Protein>
6NUR|6NUR_protein|mol2

> <Gold.PLP.Fitness>
47.6428

> <Gold.PLP.PLP>
-41.7949

> <Gold.PLP.part.hbond>
-5.0497

> <Gold.PLP.part.metal>
0.0000

> <Gold.PLP.part.buried>
-5.0401

> <Gold.PLP.part.nonpolar>
-32.7415

> <Gold.PLP.part.repulsive>
0.6303

> <Gold.PLP.ligand.clash>
0.0000

> <Gold.PLP.ligand.torsion>
0.6540

> <Gold.PLP.Chemscore.Hbond>
2.3816

> <Gold.PLP.Chemscore.CHOScore>
0.0000

> <Gold.PLP.Chemscore.Metal>
0.0000

> <Gold.Chemscore.Hbonds>
donor molecule, donor type, donor heavy atom, donor atom, acceptor molecule, acceptor atom, score
      L1  H     7    27       P1  8029  0.69
      L1  H    10    28       P1  8029  0.66
      P1  H  6933  6944       L1    16  0.89
      P1  H  6934  6946       L1    16  0.19

> <Gold.PLP.Chemscore.Internal.Correction>
0.0111

> <Gold.Rescore>
     Score         DG    S(hbond)    S(metal)    S(lipo)     H(rot)  DE(clash)    DE(int)     intcor
     17.47     -20.78       2.35        0.00      91.60       1.28       0.06       3.25       ----

> <Gold.Chemscore.Fitness>
17.4678

> <Gold.Chemscore.DG>
-20.7789

> <Gold.Chemscore.ZeroCoef>
-5.4800

> <Gold.Chemscore.Hbond>
2.3541

> <Gold.Chemscore.Metal>
0.0000

> <Gold.Chemscore.Lipo>
91.5972

> <Gold.Chemscore.Internal_Hbond>
0.0000

> <Gold.Chemscore.DEClash>
0.0609

> <Gold.Chemscore.DEInternal>
3.2501

> <Gold.Chemscore.Rot>
1.2815

> <Gold.Chemscore.Internal.Correction>
   9.000000E+99

> <Gold.Chemscore.Hbonds>
donor molecule, donor type, donor heavy atom, donor atom, acceptor molecule, acceptor atom, score
      L1  H     7    27       P1  8029  0.68
      L1  H    10    28       P1  8029  0.62
      P1  H  6933  6944       L1    16  0.26

> <Gold.Chemscore.Hbond.Weighted>
-7.8627

> <Gold.Chemscore.Metal.Weighted>
-0.0000

> <Gold.Chemscore.Lipo.Weighted>
-10.7169

> <Gold.Chemscore.Internal_Hbond.Weighted>
0.0000

> <Gold.Chemscore.DEClash.Weighted>
0.0609

> <Gold.Chemscore.DEInternal.Weighted>
3.2501

> <Gold.Chemscore.Rot.Weighted>
3.2808

> <Gold.Chemscore.Internal.Correction.Weighted>
   9.000000E+99

> <Gold.Protein.RotatedTorsions>
[ 6907 6896 6895 6894 ] final   90.49 input  -60.11 | X-H torsion
[ 7974 7965 7964 7962 ] final  -93.49 input  175.53 | X-H torsion
[ 8008 7997 7996 7995 ] final -175.03 input   59.86 | X-H torsion
[ 10167 10162 10161 10158 ] final  103.76 input  -65.29 | X-H torsion
[ 10718 10713 10712 10709 ] final -152.51 input   66.30 | X-H torsion
[ 10763 10752 10751 10750 ] final   82.01 input  -60.55 | X-H torsion
[ 11005 11000 10999 10996 ] final   41.80 input  -57.11 | X-H torsion

> <Gold.Protein.ActiveResidues>
 VAL166  LYS551  ARG553  GLY616  TRP617  ASP618  TYR619  PRO620  LYS621  CYS622 
 ASP623  PHE694  ASN695  SER759  ASP760  ASP761  ALA762  ILE779  LEU786  VAL792 
 PHE793  MET794  SER795  GLU796  ALA797  LYS798  CYS799  TRP800  GLU811  SER814 

> <Gold.Protein.RotatedAtoms>
  152.5445  134.1803  159.8632 H   0  0  0  0  0  0  0  0  0  0  0  0  # atno 6907 bound_to 6896
  151.1806  133.4720  159.2601 H   0  0  0  0  0  0  0  0  0  0  0  0  # atno 6908 bound_to 6896
  151.1182  135.0076  159.8581 H   0  0  0  0  0  0  0  0  0  0  0  0  # atno 6909 bound_to 6896
  145.3859  140.9523  143.2367 H   0  0  0  0  0  0  0  0  0  0  0  0  # atno 7974 bound_to 7965
  155.9776  140.1175  157.0756 H   0  0  0  0  0  0  0  0  0  0  0  0  # atno 8008 bound_to 7997
  154.4173  140.1151  156.5458 H   0  0  0  0  0  0  0  0  0  0  0  0  # atno 8009 bound_to 7997
  155.6514  140.3473  155.4752 H   0  0  0  0  0  0  0  0  0  0  0  0  # atno 8010 bound_to 7997
  139.7235  144.7053  151.0835 H   0  0  0  0  0  0  0  0  0  0  0  0  # atno 10167 bound_to 10162
  156.4735  130.8269  151.2498 H   0  0  0  0  0  0  0  0  0  0  0  0  # atno 10718 bound_to 10713
  153.1165  135.4744  154.9124 H   0  0  0  0  0  0  0  0  0  0  0  0  # atno 10763 bound_to 10752
  154.7534  135.3112  154.8518 H   0  0  0  0  0  0  0  0  0  0  0  0  # atno 10764 bound_to 10752
  153.9093  135.6867  153.4805 H   0  0  0  0  0  0  0  0  0  0  0  0  # atno 10765 bound_to 10752
  140.1800  134.4116  155.8206 H   0  0  0  0  0  0  0  0  0  0  0  0  # atno 11005 bound_to 11000
  144.8474  139.5375  143.6872 LP  0  0  0  0  0  0  0  0  0  0  0  0  # atno 17320 bound_to 7965
  146.2820  139.6903  142.9222 LP  0  0  0  0  0  0  0  0  0  0  0  0  # atno 17321 bound_to 7965
  140.7758  143.5135  150.9623 LP  0  0  0  0  0  0  0  0  0  0  0  0  # atno 17342 bound_to 10162
  139.8823  143.7057  152.3155 LP  0  0  0  0  0  0  0  0  0  0  0  0  # atno 17343 bound_to 10162
  157.7489  131.0068  150.3167 LP  0  0  0  0  0  0  0  0  0  0  0  0  # atno 17370 bound_to 10713
  156.3594  130.3844  149.7263 LP  0  0  0  0  0  0  0  0  0  0  0  0  # atno 17371 bound_to 10713
  141.2222  133.6996  156.7913 LP  0  0  0  0  0  0  0  0  0  0  0  0  # atno 17394 bound_to 11000
  140.2279  134.8708  157.3445 LP  0  0  0  0  0  0  0  0  0  0  0  0  # atno 17395 bound_to 11000

$$$$
