AV-unprocessed.smi:716|AV-procd|sdf|3489|dock8
  -GOLD-   22720 0483D 1   1.00000     0.00000
 Structure written by MMmdl.
 48 50  0  0  0  0  0  0  0  0  1 V2000
  153.4044  144.0558  163.5096 C   0  0  0  0  0  0  0  0  0  0  0  0
  153.1665  142.6266  163.0175 C   0  0  0  0  0  0  0  0  0  0  0  0
  152.2718  142.6646  161.9181 O   0  0  0  0  0  0  0  0  0  0  0  0
  152.9331  142.7764  160.6642 C   0  0  1  0  0  0  0  0  0  0  0  0
  153.2667  141.4021  160.0681 C   0  0  0  0  0  0  0  0  0  0  0  0
  151.8786  141.4425  159.4254 C   0  0  2  0  0  0  0  0  0  0  0  0
  151.8707  140.8836  158.0793 N   0  0  0  0  0  0  0  0  0  0  0  0
  151.0354  141.2692  157.1042 C   0  0  0  0  0  0  0  0  0  0  0  0
  150.1219  142.0764  157.2772 O   0  0  0  0  0  0  0  0  0  0  0  0
  151.2787  140.6518  155.7220 C   0  0  0  0  0  0  0  0  0  0  0  0
  150.0174  140.2660  155.0758 N   0  0  0  0  0  0  0  0  0  0  0  0
  149.1648  141.3337  154.8423 N   0  0  0  0  0  0  0  0  0  0  0  0
  147.9924  141.1526  154.3303 C   0  0  0  0  0  0  0  0  0  0  0  0
  147.1290  142.3634  154.1319 C   0  0  0  0  0  0  0  0  0  0  0  0
  147.5680  139.8118  153.9760 C   0  0  0  0  0  0  0  0  0  0  0  0
  148.4016  138.7733  154.1996 C   0  0  0  0  0  0  0  0  0  0  0  0
  149.7234  138.9618  154.7942 C   0  0  0  0  0  0  0  0  0  0  0  0
  150.4963  138.0326  155.0262 O   0  0  0  0  0  0  0  0  0  0  0  0
  151.9524  142.9906  159.4829 C   0  0  0  0  0  0  0  0  0  0  0  0
  152.5197  143.7694  158.2879 C   0  0  0  0  0  0  0  0  0  0  0  0
  152.1862  145.2455  158.5191 C   0  0  0  0  0  0  0  0  0  0  0  0
  150.9884  145.2517  159.4745 C   0  0  0  0  0  0  0  0  0  0  0  0
  150.6717  143.7794  159.7494 C   0  0  0  0  0  0  0  0  0  0  0  0
  154.0924  144.0673  164.3551 H   0  0  0  0  0  0  0  0  0  0  0  0
  152.4712  144.5193  163.8311 H   0  0  0  0  0  0  0  0  0  0  0  0
  153.8327  144.6752  162.7212 H   0  0  0  0  0  0  0  0  0  0  0  0
  154.1119  142.1750  162.7136 H   0  0  0  0  0  0  0  0  0  0  0  0
  152.7564  142.0200  163.8260 H   0  0  0  0  0  0  0  0  0  0  0  0
  153.7644  143.4838  160.6738 H   0  0  0  0  0  0  0  0  0  0  0  0
  154.0859  141.4427  159.3476 H   0  0  0  0  0  0  0  0  0  0  0  0
  153.4073  140.5983  160.7909 H   0  0  0  0  0  0  0  0  0  0  0  0
  151.1113  141.0326  160.0866 H   0  0  0  0  0  0  0  0  0  0  0  0
  152.5850  140.2049  157.8580 H   0  0  0  0  0  0  0  0  0  0  0  0
  151.8059  141.3643  155.0842 H   0  0  0  0  0  0  0  0  0  0  0  0
  151.9563  139.8037  155.8311 H   0  0  0  0  0  0  0  0  0  0  0  0
  146.1259  142.0845  153.8085 H   0  0  0  0  0  0  0  0  0  0  0  0
  147.5545  143.0221  153.3744 H   0  0  0  0  0  0  0  0  0  0  0  0
  147.0341  142.9299  155.0590 H   0  0  0  0  0  0  0  0  0  0  0  0
  146.5936  139.6542  153.5373 H   0  0  0  0  0  0  0  0  0  0  0  0
  148.0843  137.7754  153.9354 H   0  0  0  0  0  0  0  0  0  0  0  0
  153.5921  143.6212  158.1573 H   0  0  0  0  0  0  0  0  0  0  0  0
  152.0437  143.4515  157.3597 H   0  0  0  0  0  0  0  0  0  0  0  0
  153.0314  145.7567  158.9815 H   0  0  0  0  0  0  0  0  0  0  0  0
  151.9657  145.7560  157.5810 H   0  0  0  0  0  0  0  0  0  0  0  0
  151.2590  145.7570  160.4024 H   0  0  0  0  0  0  0  0  0  0  0  0
  150.1288  145.7739  159.0532 H   0  0  0  0  0  0  0  0  0  0  0  0
  149.8876  143.4493  159.0671 H   0  0  0  0  0  0  0  0  0  0  0  0
  150.2807  143.6377  160.7568 H   0  0  0  0  0  0  0  0  0  0  0  0
  1  2  1  0  0  0  0
  1 24  1  0  0  0  0
  1 25  1  0  0  0  0
  1 26  1  0  0  0  0
  2  3  1  0  0  0  0
  2 27  1  0  0  0  0
  2 28  1  0  0  0  0
  3  4  1  0  0  0  0
  4 19  1  0  0  0  0
  4  5  1  0  0  0  0
  4 29  1  0  0  0  0
  5  6  1  0  0  0  0
  5 30  1  0  0  0  0
  5 31  1  0  0  0  0
  6  7  1  0  0  0  0
  6 19  1  0  0  0  0
  6 32  1  0  0  0  0
  7  8  1  0  0  0  0
  7 33  1  0  0  0  0
  8  9  2  0  0  0  0
  8 10  1  0  0  0  0
 10 11  1  0  0  0  0
 10 34  1  0  0  0  0
 10 35  1  0  0  0  0
 11 17  1  0  0  0  0
 11 12  1  0  0  0  0
 12 13  2  0  0  0  0
 13 14  1  0  0  0  0
 13 15  1  0  0  0  0
 14 36  1  0  0  0  0
 14 37  1  0  0  0  0
 14 38  1  0  0  0  0
 15 16  2  0  0  0  0
 15 39  1  0  0  0  0
 16 17  1  0  0  0  0
 16 40  1  0  0  0  0
 17 18  2  0  0  0  0
 19 23  1  0  0  0  0
 19 20  1  0  0  0  0
 20 21  1  0  0  0  0
 20 41  1  0  0  0  0
 20 42  1  0  0  0  0
 21 22  1  0  0  0  0
 21 43  1  0  0  0  0
 21 44  1  0  0  0  0
 22 23  1  0  0  0  0
 22 45  1  0  0  0  0
 22 46  1  0  0  0  0
 23 47  1  0  0  0  0
 23 48  1  0  0  0  0
M  END
> <s_m_source_file>
AV-unprocessed.smi

> <i_m_source_file_index>
716

> <i_lp_mmshare_version>
43012

> <i_f3d_flags>
0

> <s_epik_input>
W0NIMl0xW0NIMl1bQ0gyXVtDSDJdQzEyW0NASF0oT1tDSDJdW0NIM10pW0NIMl1bQ0BIXTJbTkhdQyg9TylbQ0gyXW4zbmMoW0NIM10pW2NIXVtjSF1jMz1P

> <s_epik_cmdline>
J2VwaWtfcHl0aG9uJywgJy1waCcsICc3LjAnLCAnLXRuJywgJzgnLCAnLW1hJywgJzIwMCcsICctbWV0YWxfYmluZGluZycsICctaW1hZScsICc8aW5maWxlLm1hZT4nLCAnLW9tYWUnLCAnPG91dGZpbGUubWFlPic=

> <r_lp_tautomer_probability>
1

> <r_epik_Ionization_Penalty>
4.75561e-08

> <r_epik_Ionization_Penalty_Charging>
2.86617e-08

> <r_epik_Ionization_Penalty_Neutral>
1.88944e-08

> <r_epik_State_Penalty>
-0

> <r_epik_Charging_Adjusted_Penalty>
2.86617e-08

> <i_epik_Tot_Q>
0

> <i_epik_Tot_abs_Q>
0

> <r_epik_Metal_State_Penalty>
-0

> <b_epik_Metal_Only>
0

> <s_lp_Force_Field>
OPLS_2005

> <r_lp_Energy>
50.6956

> <b_lp_Chiralities_Consistent>
1

> <s_lp_Variant>
AV-unprocessed.smi:716-4

> <Gold.Version>
5.8.1

> <Gold.Id.Protein>
6NUR|6NUR_protein|mol2

> <Gold.PLP.Fitness>
51.8790

> <Gold.PLP.PLP>
-52.9767

> <Gold.PLP.part.hbond>
-0.2025

> <Gold.PLP.part.metal>
0.0000

> <Gold.PLP.part.buried>
-6.6113

> <Gold.PLP.part.nonpolar>
-46.2575

> <Gold.PLP.part.repulsive>
0.6104

> <Gold.PLP.ligand.clash>
0.0000

> <Gold.PLP.ligand.torsion>
0.8605

> <Gold.PLP.Chemscore.Hbond>
0.0715

> <Gold.PLP.Chemscore.CHOScore>
0.0000

> <Gold.PLP.Chemscore.Metal>
0.0000

> <Gold.Chemscore.Hbonds>
donor molecule, donor type, donor heavy atom, donor atom, acceptor molecule, acceptor atom, score
      P1  H  6933  6945       L1     3  0.03

> <Gold.PLP.Chemscore.Internal.Correction>
0.4089

> <Gold.Rescore>
     Score         DG    S(hbond)    S(metal)    S(lipo)     H(rot)  DE(clash)    DE(int)     intcor
     15.64     -18.63       0.40        0.00     139.04       1.73       0.87       2.11       ----

> <Gold.Chemscore.Fitness>
15.6418

> <Gold.Chemscore.DG>
-18.6277

> <Gold.Chemscore.ZeroCoef>
-5.4800

> <Gold.Chemscore.Hbond>
0.3955

> <Gold.Chemscore.Metal>
0.0000

> <Gold.Chemscore.Lipo>
139.0409

> <Gold.Chemscore.Internal_Hbond>
0.0000

> <Gold.Chemscore.DEClash>
0.8723

> <Gold.Chemscore.DEInternal>
2.1135

> <Gold.Chemscore.Rot>
1.7348

> <Gold.Chemscore.Internal.Correction>
   9.000000E+99

> <Gold.Chemscore.Hbonds>
donor molecule, donor type, donor heavy atom, donor atom, acceptor molecule, acceptor atom, score
      P1  H  6933  6945       L1     3  0.07

> <Gold.Chemscore.Hbond.Weighted>
-1.3210

> <Gold.Chemscore.Metal.Weighted>
-0.0000

> <Gold.Chemscore.Lipo.Weighted>
-16.2678

> <Gold.Chemscore.Internal_Hbond.Weighted>
0.0000

> <Gold.Chemscore.DEClash.Weighted>
0.8723

> <Gold.Chemscore.DEInternal.Weighted>
2.1135

> <Gold.Chemscore.Rot.Weighted>
4.4411

> <Gold.Chemscore.Internal.Correction.Weighted>
   9.000000E+99

> <Gold.Protein.RotatedTorsions>
[ 6907 6896 6895 6894 ] final -163.47 input  -60.11 | X-H torsion
[ 7974 7965 7964 7962 ] final -139.05 input  175.53 | X-H torsion
[ 8008 7997 7996 7995 ] final  -86.94 input   59.86 | X-H torsion
[ 10167 10162 10161 10158 ] final  -16.90 input  -65.29 | X-H torsion
[ 10718 10713 10712 10709 ] final -177.16 input   66.30 | X-H torsion
[ 10763 10752 10751 10750 ] final  -58.61 input  -60.55 | X-H torsion
[ 11005 11000 10999 10996 ] final  -49.07 input  -57.11 | X-H torsion

> <Gold.Protein.ActiveResidues>
 VAL166  LYS551  ARG553  GLY616  TRP617  ASP618  TYR619  PRO620  LYS621  CYS622 
 ASP623  PHE694  ASN695  SER759  ASP760  ASP761  ALA762  ILE779  LEU786  VAL792 
 PHE793  MET794  SER795  GLU796  ALA797  LYS798  CYS799  TRP800  GLU811  SER814 

> <Gold.Protein.RotatedAtoms>
  151.3965  133.3771  159.2726 H   0  0  0  0  0  0  0  0  0  0  0  0  # atno 6907 bound_to 6896
  150.9465  134.8871  159.7656 H   0  0  0  0  0  0  0  0  0  0  0  0  # atno 6908 bound_to 6896
  152.5094  134.3919  159.9439 H   0  0  0  0  0  0  0  0  0  0  0  0  # atno 6909 bound_to 6896
  144.8708  140.6364  143.5268 H   0  0  0  0  0  0  0  0  0  0  0  0  # atno 7974 bound_to 7965
  154.6575  140.0572  157.0025 H   0  0  0  0  0  0  0  0  0  0  0  0  # atno 8008 bound_to 7997
  155.1278  140.3253  155.4463 H   0  0  0  0  0  0  0  0  0  0  0  0  # atno 8009 bound_to 7997
  156.2604  140.1986  156.6398 H   0  0  0  0  0  0  0  0  0  0  0  0  # atno 8010 bound_to 7997
  140.7240  143.5070  150.9797 H   0  0  0  0  0  0  0  0  0  0  0  0  # atno 10167 bound_to 10162
  156.8254  130.9634  151.3109 H   0  0  0  0  0  0  0  0  0  0  0  0  # atno 10718 bound_to 10713
  154.2408  135.6344  153.5206 H   0  0  0  0  0  0  0  0  0  0  0  0  # atno 10763 bound_to 10752
  152.9930  135.5541  154.5912 H   0  0  0  0  0  0  0  0  0  0  0  0  # atno 10764 bound_to 10752
  154.5417  135.2895  155.1064 H   0  0  0  0  0  0  0  0  0  0  0  0  # atno 10765 bound_to 10752
  141.0738  133.6671  156.3532 H   0  0  0  0  0  0  0  0  0  0  0  0  # atno 11005 bound_to 11000
  145.4134  139.1576  143.4113 LP  0  0  0  0  0  0  0  0  0  0  0  0  # atno 17320 bound_to 7965
  146.2929  140.4240  142.8733 LP  0  0  0  0  0  0  0  0  0  0  0  0  # atno 17321 bound_to 7965
  139.8782  143.7106  152.3160 LP  0  0  0  0  0  0  0  0  0  0  0  0  # atno 17342 bound_to 10162
  139.7379  144.7567  151.0699 LP  0  0  0  0  0  0  0  0  0  0  0  0  # atno 17343 bound_to 10162
  157.6435  130.8825  149.9493 LP  0  0  0  0  0  0  0  0  0  0  0  0  # atno 17370 bound_to 10713
  156.0965  130.3659  150.0297 LP  0  0  0  0  0  0  0  0  0  0  0  0  # atno 17371 bound_to 10713
  140.5617  134.5927  157.5435 LP  0  0  0  0  0  0  0  0  0  0  0  0  # atno 17394 bound_to 11000
  139.9550  134.7550  156.0361 LP  0  0  0  0  0  0  0  0  0  0  0  0  # atno 17395 bound_to 11000

$$$$
