AV-unprocessed.smi:802|AV-procd|sdf|3792|dock2
  -GOLD-   22720 1223D 1   1.00000     0.00000
 Structure written by MMmdl.
 37 38  0  0  0  0  0  0  0  0  2 V2000
  147.1369  140.6015  153.7485 C   0  0  0  0  0  0  0  0  0  0  0  0
  148.5461  140.2125  154.0832 C   0  0  0  0  0  0  0  0  0  0  0  0
  149.1156  138.9112  154.1388 C   0  0  0  0  0  0  0  0  0  0  0  0
  150.4183  139.1429  154.4796 C   0  0  0  0  0  0  0  0  0  0  0  0
  151.5859  138.2434  154.7128 C   0  0  0  0  0  0  0  0  0  0  0  0
  151.9385  138.1228  156.5175 S   0  0  0  0  0  0  0  0  0  0  0  0
  150.6657  137.7522  157.1579 O   0  0  0  0  0  0  0  0  0  0  0  0
  153.0543  137.1718  156.6520 O   0  0  0  0  0  0  0  0  0  0  0  0
  152.3764  139.6497  156.8365 N   0  5  0  0  0  0  0  0  0  0  0  0
  151.4591  140.5151  157.5589 C   0  0  0  0  0  0  0  0  0  0  0  0
  152.1023  141.9086  157.8011 C   0  0  0  0  0  0  0  0  0  0  0  0
  152.5302  142.1434  159.2768 C   0  0  0  0  0  0  0  0  0  0  0  0
  153.2001  143.5152  159.4622 C   0  0  0  0  0  0  0  0  0  0  0  0
  152.2860  144.6530  158.9869 C   0  0  0  0  0  0  0  0  0  0  0  0
  151.8543  144.4383  157.5294 C   0  0  0  0  0  0  0  0  0  0  0  0
  151.1799  143.0690  157.3412 C   0  0  0  0  0  0  0  0  0  0  0  0
  150.6316  140.4757  154.6314 O   0  0  0  0  0  0  0  0  0  0  0  0
  149.4318  141.1496  154.3773 N   0  0  0  0  0  0  0  0  0  0  0  0
  146.5446  139.7305  153.4676 H   0  0  0  0  0  0  0  0  0  0  0  0
  147.1102  141.3029  152.9144 H   0  0  0  0  0  0  0  0  0  0  0  0
  146.6480  141.0751  154.6002 H   0  0  0  0  0  0  0  0  0  0  0  0
  148.6474  137.9566  153.9498 H   0  0  0  0  0  0  0  0  0  0  0  0
  151.3863  137.2409  154.3343 H   0  0  0  0  0  0  0  0  0  0  0  0
  152.4743  138.6246  154.2102 H   0  0  0  0  0  0  0  0  0  0  0  0
  150.5318  140.6484  157.0007 H   0  0  0  0  0  0  0  0  0  0  0  0
  151.1654  140.0893  158.5190 H   0  0  0  0  0  0  0  0  0  0  0  0
  153.0018  141.9603  157.1846 H   0  0  0  0  0  0  0  0  0  0  0  0
  151.6661  142.0820  159.9420 H   0  0  0  0  0  0  0  0  0  0  0  0
  153.2306  141.3766  159.6136 H   0  0  0  0  0  0  0  0  0  0  0  0
  153.4591  143.6622  160.5111 H   0  0  0  0  0  0  0  0  0  0  0  0
  154.1377  143.5419  158.9056 H   0  0  0  0  0  0  0  0  0  0  0  0
  151.4041  144.7059  159.6265 H   0  0  0  0  0  0  0  0  0  0  0  0
  152.7999  145.6094  159.0868 H   0  0  0  0  0  0  0  0  0  0  0  0
  151.1724  145.2324  157.2240 H   0  0  0  0  0  0  0  0  0  0  0  0
  152.7243  144.5092  156.8755 H   0  0  0  0  0  0  0  0  0  0  0  0
  150.9107  142.9639  156.2879 H   0  0  0  0  0  0  0  0  0  0  0  0
  150.2420  143.0618  157.9012 H   0  0  0  0  0  0  0  0  0  0  0  0
  1  2  1  0  0  0  0
  1 19  1  0  0  0  0
  1 20  1  0  0  0  0
  1 21  1  0  0  0  0
  2 18  2  0  0  0  0
  2  3  1  0  0  0  0
  3  4  2  0  0  0  0
  3 22  1  0  0  0  0
  4  5  1  0  0  0  0
  4 17  1  0  0  0  0
  5  6  1  0  0  0  0
  5 23  1  0  0  0  0
  5 24  1  0  0  0  0
  6  7  2  0  0  0  0
  6  8  2  0  0  0  0
  6  9  1  0  0  0  0
  9 10  1  0  0  0  0
 10 11  1  0  0  0  0
 10 25  1  0  0  0  0
 10 26  1  0  0  0  0
 11 16  1  0  0  0  0
 11 12  1  0  0  0  0
 11 27  1  0  0  0  0
 12 13  1  0  0  0  0
 12 28  1  0  0  0  0
 12 29  1  0  0  0  0
 13 14  1  0  0  0  0
 13 30  1  0  0  0  0
 13 31  1  0  0  0  0
 14 15  1  0  0  0  0
 14 32  1  0  0  0  0
 14 33  1  0  0  0  0
 15 16  1  0  0  0  0
 15 34  1  0  0  0  0
 15 35  1  0  0  0  0
 16 36  1  0  0  0  0
 16 37  1  0  0  0  0
 17 18  1  0  0  0  0
M  CHG  1   9  -1
M  END
> <s_m_source_file>
AV-unprocessed.smi

> <i_m_source_file_index>
802

> <i_lp_mmshare_version>
43012

> <i_f3d_flags>
0

> <s_epik_input>
W0NIM11jMVtjSF1jKG9uMSlbQ0gyXVMoPU8pKD1PKVtOSF1bQ0gyXVtDSF0yW0NIMl1bQ0gyXVtDSDJdW0NIMl1bQ0gyXTI=

> <s_epik_cmdline>
J2VwaWtfcHl0aG9uJywgJy1waCcsICc3LjAnLCAnLXRuJywgJzgnLCAnLW1hJywgJzIwMCcsICctbWV0YWxfYmluZGluZycsICctaW1hZScsICc8aW5maWxlLm1hZT4nLCAnLW9tYWUnLCAnPG91dGZpbGUubWFlPic=

> <r_lp_tautomer_probability>
1

> <r_epik_Ionization_Penalty>
5.54077

> <r_epik_Ionization_Penalty_Charging>
5.54077

> <r_epik_Ionization_Penalty_Neutral>
8.84355e-10

> <r_epik_State_Penalty>
5.54071

> <r_epik_Charging_Adjusted_Penalty>
11.0815

> <i_epik_Tot_Q>
-1

> <i_epik_Tot_abs_Q>
1

> <r_epik_Metal_State_Penalty>
1.54279

> <b_epik_Metal_Only>
1

> <s_lp_Force_Field>
OPLS_2005

> <r_lp_Energy>
6.62566

> <b_lp_Chiralities_Consistent>
1

> <s_lp_Variant>
AV-unprocessed.smi:802-2

> <Gold.Version>
5.8.1

> <Gold.Id.Protein>
6NUR|6NUR_protein|mol2

> <Gold.PLP.Fitness>
48.1267

> <Gold.PLP.PLP>
-38.7857

> <Gold.PLP.part.hbond>
-4.0650

> <Gold.PLP.part.metal>
0.0000

> <Gold.PLP.part.buried>
-2.5637

> <Gold.PLP.part.nonpolar>
-31.2129

> <Gold.PLP.part.repulsive>
0.2453

> <Gold.PLP.ligand.clash>
0.0000

> <Gold.PLP.ligand.torsion>
1.4090

> <Gold.PLP.Chemscore.Hbond>
3.7088

> <Gold.PLP.Chemscore.CHOScore>
0.0000

> <Gold.PLP.Chemscore.Metal>
0.0000

> <Gold.Chemscore.Hbonds>
donor molecule, donor type, donor heavy atom, donor atom, acceptor molecule, acceptor atom, score
      P1  H  7989  7998       L1    17  1.00
      P1  H  7997  8010       L1     9  1.76
      P1  H 10752 10763       L1     8  0.35

> <Gold.PLP.Chemscore.Internal.Correction>
1.0327

> <Gold.Rescore>
     Score         DG    S(hbond)    S(metal)    S(lipo)     H(rot)  DE(clash)    DE(int)     intcor
     20.03     -21.79       2.46        0.00     101.92       1.50       0.14       1.62       ----

> <Gold.Chemscore.Fitness>
20.0306

> <Gold.Chemscore.DG>
-21.7896

> <Gold.Chemscore.ZeroCoef>
-5.4800

> <Gold.Chemscore.Hbond>
2.4593

> <Gold.Chemscore.Metal>
0.0000

> <Gold.Chemscore.Lipo>
101.9181

> <Gold.Chemscore.Internal_Hbond>
0.0000

> <Gold.Chemscore.DEClash>
0.1400

> <Gold.Chemscore.DEInternal>
1.6189

> <Gold.Chemscore.Rot>
1.4956

> <Gold.Chemscore.Internal.Correction>
   9.000000E+99

> <Gold.Chemscore.Hbonds>
donor molecule, donor type, donor heavy atom, donor atom, acceptor molecule, acceptor atom, score
      P1  H  7989  7998       L1    17  0.31
      P1  H  7997  8010       L1     9  0.77
      P1  H  8011  8017       L1    18  0.02
      P1  H 10752 10763       L1     8  0.34

> <Gold.Chemscore.Hbond.Weighted>
-8.2139

> <Gold.Chemscore.Metal.Weighted>
-0.0000

> <Gold.Chemscore.Lipo.Weighted>
-11.9244

> <Gold.Chemscore.Internal_Hbond.Weighted>
0.0000

> <Gold.Chemscore.DEClash.Weighted>
0.1400

> <Gold.Chemscore.DEInternal.Weighted>
1.6189

> <Gold.Chemscore.Rot.Weighted>
3.8287

> <Gold.Chemscore.Internal.Correction.Weighted>
   9.000000E+99

> <Gold.Protein.RotatedTorsions>
[ 6907 6896 6895 6894 ] final  143.72 input  -60.11 | X-H torsion
[ 7974 7965 7964 7962 ] final -106.96 input  175.53 | X-H torsion
[ 8008 7997 7996 7995 ] final   79.18 input   59.86 | X-H torsion
[ 10167 10162 10161 10158 ] final  -25.80 input  -65.29 | X-H torsion
[ 10718 10713 10712 10709 ] final   57.65 input   66.30 | X-H torsion
[ 10763 10752 10751 10750 ] final  108.73 input  -60.55 | X-H torsion
[ 11005 11000 10999 10996 ] final  151.79 input  -57.11 | X-H torsion

> <Gold.Protein.ActiveResidues>
 VAL166  LYS551  ARG553  GLY616  TRP617  ASP618  TYR619  PRO620  LYS621  CYS622 
 ASP623  PHE694  ASN695  SER759  ASP760  ASP761  ALA762  ILE779  LEU786  VAL792 
 PHE793  MET794  SER795  GLU796  ALA797  LYS798  CYS799  TRP800  GLU811  SER814 

> <Gold.Protein.RotatedAtoms>
  152.2027  133.4853  159.5067 H   0  0  0  0  0  0  0  0  0  0  0  0  # atno 6907 bound_to 6896
  150.6973  134.1569  159.4170 H   0  0  0  0  0  0  0  0  0  0  0  0  # atno 6908 bound_to 6896
  151.9487  135.0179  160.0591 H   0  0  0  0  0  0  0  0  0  0  0  0  # atno 6909 bound_to 6896
  145.2113  140.9097  143.3313 H   0  0  0  0  0  0  0  0  0  0  0  0  # atno 7974 bound_to 7965
  155.8662  140.3451  155.5789 H   0  0  0  0  0  0  0  0  0  0  0  0  # atno 8008 bound_to 7997
  155.7879  140.0867  157.2044 H   0  0  0  0  0  0  0  0  0  0  0  0  # atno 8009 bound_to 7997
  154.4014  140.1488  156.3115 H   0  0  0  0  0  0  0  0  0  0  0  0  # atno 8010 bound_to 7997
  140.7285  143.4233  151.0916 H   0  0  0  0  0  0  0  0  0  0  0  0  # atno 10167 bound_to 10162
  157.5532  130.8781  149.8995 H   0  0  0  0  0  0  0  0  0  0  0  0  # atno 10718 bound_to 10713
  153.4247  135.3803  155.2133 H   0  0  0  0  0  0  0  0  0  0  0  0  # atno 10763 bound_to 10752
  154.8747  135.3825  154.4341 H   0  0  0  0  0  0  0  0  0  0  0  0  # atno 10764 bound_to 10752
  153.4865  135.7088  153.5971 H   0  0  0  0  0  0  0  0  0  0  0  0  # atno 10765 bound_to 10752
  140.1250  134.8839  157.2125 H   0  0  0  0  0  0  0  0  0  0  0  0  # atno 11005 bound_to 11000
  144.9853  139.3742  143.6241 LP  0  0  0  0  0  0  0  0  0  0  0  0  # atno 17320 bound_to 7965
  146.3397  139.9012  142.8794 LP  0  0  0  0  0  0  0  0  0  0  0  0  # atno 17321 bound_to 7965
  139.7881  143.8257  152.3148 LP  0  0  0  0  0  0  0  0  0  0  0  0  # atno 17342 bound_to 10162
  139.8232  144.7286  150.9546 LP  0  0  0  0  0  0  0  0  0  0  0  0  # atno 17343 bound_to 10162
  156.0595  130.3702  150.1015 LP  0  0  0  0  0  0  0  0  0  0  0  0  # atno 17370 bound_to 10713
  156.9186  130.9675  151.3552 LP  0  0  0  0  0  0  0  0  0  0  0  0  # atno 17371 bound_to 10713
  140.2916  134.3234  155.7314 LP  0  0  0  0  0  0  0  0  0  0  0  0  # atno 17394 bound_to 11000
  141.2159  133.7538  156.9511 LP  0  0  0  0  0  0  0  0  0  0  0  0  # atno 17395 bound_to 11000

$$$$
