AV-unprocessed.smi:2114|AV-procd|sdf|8619|dock1
  -GOLD-   2272011363D 1   1.00000     0.00000
 Structure written by MMmdl.
 47 48  0  0  0  0  0  0  0  0  1 V2000
  155.6514  129.8845  154.1335 C   0  0  0  0  0  0  0  0  0  0  0  0
  154.7156  130.6133  154.9076 O   0  0  0  0  0  0  0  0  0  0  0  0
  154.1440  129.8359  155.9474 C   0  0  0  0  0  0  0  0  0  0  0  0
  153.1655  130.6977  156.7643 C   0  0  2  0  0  0  0  0  0  0  0  0
  152.5873  129.9179  157.9532 C   0  0  0  0  0  0  0  0  0  0  0  0
  152.0660  131.1576  155.9194 N   0  0  0  0  0  0  0  0  0  0  0  0
  151.1021  132.0188  156.2859 C   0  0  0  0  0  0  0  0  0  0  0  0
  151.0138  132.5067  157.4126 O   0  0  0  0  0  0  0  0  0  0  0  0
  150.0699  132.3164  155.2371 C   0  0  0  0  0  0  0  0  0  0  0  0
  149.4947  133.5988  155.1036 C   0  0  0  0  0  0  0  0  0  0  0  0
  148.5148  133.8111  154.1151 C   0  0  0  0  0  0  0  0  0  0  0  0
  148.1256  132.7334  153.2856 C   0  0  0  0  0  0  0  0  0  0  0  0
  147.1477  132.9272  152.2870 N   0  0  0  0  0  0  0  0  0  0  0  0
  146.2391  131.8050  152.0703 C   0  0  0  0  0  0  0  0  0  0  0  0
  145.4452  131.9814  150.7610 C   0  0  2  0  0  0  0  0  0  0  0  0
  146.2787  131.7003  149.4978 C   0  0  0  0  0  0  0  0  0  0  0  0
  144.8283  133.2706  150.7263 O   0  0  0  0  0  0  0  0  0  0  0  0
  145.7268  134.3681  150.8843 C   0  0  1  0  0  0  0  0  0  0  0  0
  144.9093  135.6629  150.8274 C   0  0  0  0  0  0  0  0  0  0  0  0
  146.4848  134.2263  152.2160 C   0  0  0  0  0  0  0  0  0  0  0  0
  148.6658  131.4984  153.4273 N   0  0  0  0  0  0  0  0  0  0  0  0
  149.6052  131.2995  154.3763 C   0  0  0  0  0  0  0  0  0  0  0  0
  156.0577  130.5262  153.3518 H   0  0  0  0  0  0  0  0  0  0  0  0
  155.1813  129.0254  153.6530 H   0  0  0  0  0  0  0  0  0  0  0  0
  156.4819  129.5327  154.7467 H   0  0  0  0  0  0  0  0  0  0  0  0
  153.6309  128.9653  155.5348 H   0  0  0  0  0  0  0  0  0  0  0  0
  154.9406  129.4665  156.5952 H   0  0  0  0  0  0  0  0  0  0  0  0
  153.7077  131.5544  157.1689 H   0  0  0  0  0  0  0  0  0  0  0  0
  153.3787  129.5798  158.6227 H   0  0  0  0  0  0  0  0  0  0  0  0
  152.0341  129.0384  157.6217 H   0  0  0  0  0  0  0  0  0  0  0  0
  151.9074  130.5393  158.5371 H   0  0  0  0  0  0  0  0  0  0  0  0
  152.0377  130.7943  154.9781 H   0  0  0  0  0  0  0  0  0  0  0  0
  149.7876  134.4148  155.7481 H   0  0  0  0  0  0  0  0  0  0  0  0
  148.0630  134.7867  154.0158 H   0  0  0  0  0  0  0  0  0  0  0  0
  146.7637  130.8507  152.0498 H   0  0  0  0  0  0  0  0  0  0  0  0
  145.5477  131.7612  152.9129 H   0  0  0  0  0  0  0  0  0  0  0  0
  144.6309  131.2564  150.7680 H   0  0  0  0  0  0  0  0  0  0  0  0
  146.6259  130.6670  149.4878 H   0  0  0  0  0  0  0  0  0  0  0  0
  147.1608  132.3370  149.4334 H   0  0  0  0  0  0  0  0  0  0  0  0
  145.6850  131.8572  148.5971 H   0  0  0  0  0  0  0  0  0  0  0  0
  146.4382  134.3827  150.0583 H   0  0  0  0  0  0  0  0  0  0  0  0
  145.5513  136.5378  150.9320 H   0  0  0  0  0  0  0  0  0  0  0  0
  144.1661  135.6954  151.6246 H   0  0  0  0  0  0  0  0  0  0  0  0
  144.3823  135.7493  149.8768 H   0  0  0  0  0  0  0  0  0  0  0  0
  145.7953  134.3232  153.0560 H   0  0  0  0  0  0  0  0  0  0  0  0
  147.2180  135.0295  152.3007 H   0  0  0  0  0  0  0  0  0  0  0  0
  149.9975  130.2951  154.4411 H   0  0  0  0  0  0  0  0  0  0  0  0
  1  2  1  0  0  0  0
  1 23  1  0  0  0  0
  1 24  1  0  0  0  0
  1 25  1  0  0  0  0
  2  3  1  0  0  0  0
  3  4  1  0  0  0  0
  3 26  1  0  0  0  0
  3 27  1  0  0  0  0
  4  5  1  0  0  0  0
  4  6  1  0  0  0  0
  4 28  1  0  0  0  0
  5 29  1  0  0  0  0
  5 30  1  0  0  0  0
  5 31  1  0  0  0  0
  6  7  1  0  0  0  0
  6 32  1  0  0  0  0
  7  8  2  0  0  0  0
  7  9  1  0  0  0  0
  9 22  1  0  0  0  0
  9 10  2  0  0  0  0
 10 11  1  0  0  0  0
 10 33  1  0  0  0  0
 11 12  2  0  0  0  0
 11 34  1  0  0  0  0
 12 13  1  0  0  0  0
 12 21  1  0  0  0  0
 13 20  1  0  0  0  0
 13 14  1  0  0  0  0
 14 15  1  0  0  0  0
 14 35  1  0  0  0  0
 14 36  1  0  0  0  0
 15 16  1  0  0  0  0
 15 17  1  0  0  0  0
 15 37  1  0  0  0  0
 16 38  1  0  0  0  0
 16 39  1  0  0  0  0
 16 40  1  0  0  0  0
 17 18  1  0  0  0  0
 18 19  1  0  0  0  0
 18 20  1  0  0  0  0
 18 41  1  0  0  0  0
 19 42  1  0  0  0  0
 19 43  1  0  0  0  0
 19 44  1  0  0  0  0
 20 45  1  0  0  0  0
 20 46  1  0  0  0  0
 21 22  2  0  0  0  0
 22 47  1  0  0  0  0
M  END
> <s_m_source_file>
AV-unprocessed.smi

> <i_m_source_file_index>
2114

> <i_lp_mmshare_version>
43012

> <i_f3d_flags>
0

> <s_epik_input>
W0NIM11PW0NIMl1bQ0BIXShbQ0gzXSlbTkhdQyg9TyljMVtjSF1bY0hdYyhuW2NIXTEpTjJbQ0gyXVtDQEBIXShbQ0gzXSlPW0NAQEhdKFtDSDNdKVtDSDJdMg==

> <s_epik_cmdline>
J2VwaWtfcHl0aG9uJywgJy1waCcsICc3LjAnLCAnLXRuJywgJzgnLCAnLW1hJywgJzIwMCcsICctbWV0YWxfYmluZGluZycsICctaW1hZScsICc8aW5maWxlLm1hZT4nLCAnLW9tYWUnLCAnPG91dGZpbGUubWFlPic=

> <r_lp_tautomer_probability>
1

> <r_epik_Ionization_Penalty>
1.92915e-05

> <r_epik_Ionization_Penalty_Charging>
0

> <r_epik_Ionization_Penalty_Neutral>
1.92915e-05

> <r_epik_State_Penalty>
-0

> <r_epik_Charging_Adjusted_Penalty>
0

> <i_epik_Tot_Q>
0

> <i_epik_Tot_abs_Q>
0

> <r_epik_Metal_State_Penalty>
-0

> <b_epik_Metal_Only>
0

> <s_lp_Force_Field>
OPLS_2005

> <r_lp_Energy>
21.9464

> <b_lp_Chiralities_Consistent>
1

> <s_lp_Variant>
AV-unprocessed.smi:2114-3

> <Gold.Version>
5.8.1

> <Gold.Id.Protein>
6NUR|6NUR_protein|mol2

> <Gold.PLP.Fitness>
36.1489

> <Gold.PLP.PLP>
-34.7283

> <Gold.PLP.part.hbond>
-1.0000

> <Gold.PLP.part.metal>
0.0000

> <Gold.PLP.part.buried>
-2.4457

> <Gold.PLP.part.nonpolar>
-31.8480

> <Gold.PLP.part.repulsive>
0.3903

> <Gold.PLP.ligand.clash>
0.0000

> <Gold.PLP.ligand.torsion>
0.9694

> <Gold.PLP.Chemscore.Hbond>
0.9913

> <Gold.PLP.Chemscore.CHOScore>
0.0000

> <Gold.PLP.Chemscore.Metal>
0.0000

> <Gold.Chemscore.Hbonds>
donor molecule, donor type, donor heavy atom, donor atom, acceptor molecule, acceptor atom, score
      P1  H  6896  6909       L1     8  0.96

> <Gold.PLP.Chemscore.Internal.Correction>
0.3856

> <Gold.Rescore>
     Score         DG    S(hbond)    S(metal)    S(lipo)     H(rot)  DE(clash)    DE(int)     intcor
     13.43     -14.45       0.90        0.00      84.19       1.52       0.09       0.93       ----

> <Gold.Chemscore.Fitness>
13.4274

> <Gold.Chemscore.DG>
-14.4499

> <Gold.Chemscore.ZeroCoef>
-5.4800

> <Gold.Chemscore.Hbond>
0.9034

> <Gold.Chemscore.Metal>
0.0000

> <Gold.Chemscore.Lipo>
84.1934

> <Gold.Chemscore.Internal_Hbond>
0.0000

> <Gold.Chemscore.DEClash>
0.0922

> <Gold.Chemscore.DEInternal>
0.9304

> <Gold.Chemscore.Rot>
1.5226

> <Gold.Chemscore.Internal.Correction>
   9.000000E+99

> <Gold.Chemscore.Hbonds>
donor molecule, donor type, donor heavy atom, donor atom, acceptor molecule, acceptor atom, score
      P1  H  6896  6909       L1     8  0.89

> <Gold.Chemscore.Hbond.Weighted>
-3.0173

> <Gold.Chemscore.Metal.Weighted>
-0.0000

> <Gold.Chemscore.Lipo.Weighted>
-9.8506

> <Gold.Chemscore.Internal_Hbond.Weighted>
0.0000

> <Gold.Chemscore.DEClash.Weighted>
0.0922

> <Gold.Chemscore.DEInternal.Weighted>
0.9304

> <Gold.Chemscore.Rot.Weighted>
3.8980

> <Gold.Chemscore.Internal.Correction.Weighted>
   9.000000E+99

> <Gold.Protein.RotatedTorsions>
[ 6907 6896 6895 6894 ] final  -50.42 input  -60.11 | X-H torsion
[ 7974 7965 7964 7962 ] final   88.54 input  175.53 | X-H torsion
[ 8008 7997 7996 7995 ] final  -40.72 input   59.86 | X-H torsion
[ 10167 10162 10161 10158 ] final -128.48 input  -65.29 | X-H torsion
[ 10718 10713 10712 10709 ] final  157.92 input   66.30 | X-H torsion
[ 10763 10752 10751 10750 ] final   87.82 input  -60.55 | X-H torsion
[ 11005 11000 10999 10996 ] final -123.02 input  -57.11 | X-H torsion

> <Gold.Protein.ActiveResidues>
 VAL166  LYS551  ARG553  GLY616  TRP617  ASP618  TYR619  PRO620  LYS621  CYS622 
 ASP623  PHE694  ASN695  SER759  ASP760  ASP761  ALA762  ILE779  LEU786  VAL792 
 PHE793  MET794  SER795  GLU796  ALA797  LYS798  CYS799  TRP800  GLU811  SER814 

> <Gold.Protein.RotatedAtoms>
  150.8709  134.8082  159.7153 H   0  0  0  0  0  0  0  0  0  0  0  0  # atno 6907 bound_to 6896
  152.4714  134.4949  159.9716 H   0  0  0  0  0  0  0  0  0  0  0  0  # atno 6908 bound_to 6896
  151.5037  133.3460  159.2909 H   0  0  0  0  0  0  0  0  0  0  0  0  # atno 6909 bound_to 6896
  145.5444  139.2291  143.2548 H   0  0  0  0  0  0  0  0  0  0  0  0  # atno 7974 bound_to 7965
  154.4009  140.1518  156.3073 H   0  0  0  0  0  0  0  0  0  0  0  0  # atno 8008 bound_to 7997
  155.8647  140.3452  155.5758 H   0  0  0  0  0  0  0  0  0  0  0  0  # atno 8009 bound_to 7997
  155.7841  140.0847  157.2034 H   0  0  0  0  0  0  0  0  0  0  0  0  # atno 8010 bound_to 7997
  139.9498  143.6069  152.2479 H   0  0  0  0  0  0  0  0  0  0  0  0  # atno 10167 bound_to 10162
  157.1850  131.0641  151.2111 H   0  0  0  0  0  0  0  0  0  0  0  0  # atno 10718 bound_to 10713
  153.1706  135.4529  154.9897 H   0  0  0  0  0  0  0  0  0  0  0  0  # atno 10763 bound_to 10752
  154.7963  135.3239  154.7661 H   0  0  0  0  0  0  0  0  0  0  0  0  # atno 10764 bound_to 10752
  153.8138  135.6952  153.4892 H   0  0  0  0  0  0  0  0  0  0  0  0  # atno 10765 bound_to 10752
  140.9951  134.0483  157.3607 H   0  0  0  0  0  0  0  0  0  0  0  0  # atno 11005 bound_to 11000
  146.1959  140.6265  142.9124 LP  0  0  0  0  0  0  0  0  0  0  0  0  # atno 17320 bound_to 7965
  144.7561  140.5310  143.6768 LP  0  0  0  0  0  0  0  0  0  0  0  0  # atno 17321 bound_to 7965
  139.6637  144.7662  151.1913 LP  0  0  0  0  0  0  0  0  0  0  0  0  # atno 17342 bound_to 10162
  140.7586  143.5970  150.8738 LP  0  0  0  0  0  0  0  0  0  0  0  0  # atno 17343 bound_to 10162
  157.3916  130.7285  149.6702 LP  0  0  0  0  0  0  0  0  0  0  0  0  # atno 17370 bound_to 10713
  155.9719  130.4145  150.4134 LP  0  0  0  0  0  0  0  0  0  0  0  0  # atno 17371 bound_to 10713
  139.9011  135.0164  156.7271 LP  0  0  0  0  0  0  0  0  0  0  0  0  # atno 17394 bound_to 11000
  140.6978  133.9333  155.8006 LP  0  0  0  0  0  0  0  0  0  0  0  0  # atno 17395 bound_to 11000

$$$$
