AV-unprocessed.smi:776|AV-procd|sdf|3699|dock10
  -GOLD-   22720 1123D 1   1.00000     0.00000
 Structure written by MMmdl.
 44 45  0  0  0  0  0  0  0  0  1 V2000
  146.5479  137.3460  153.5280 C   0  0  0  0  0  0  0  0  0  0  0  0
  146.3519  138.7416  152.9166 C   0  0  0  0  0  0  0  0  0  0  0  0
  146.6789  138.7925  151.4164 C   0  0  0  0  0  0  0  0  0  0  0  0
  147.0863  139.7980  153.6847 C   0  0  0  0  0  0  0  0  0  0  0  0
  146.4453  140.7951  154.2858 N   0  0  0  0  0  0  0  0  0  0  0  0
  147.4784  141.5398  154.8723 O   0  0  0  0  0  0  0  0  0  0  0  0
  148.6239  140.8836  154.5694 C   0  0  0  0  0  0  0  0  0  0  0  0
  149.9244  141.4586  155.0204 C   0  0  0  0  0  0  0  0  0  0  0  0
  150.2816  141.0439  156.4568 C   0  0  0  0  0  0  0  0  0  0  0  0
  151.1431  142.0274  157.1030 N   0  0  0  0  0  0  0  0  0  0  0  0
  151.6318  141.9309  158.3512 C   0  0  0  0  0  0  0  0  0  0  0  0
  151.4267  140.9463  159.0610 O   0  0  0  0  0  0  0  0  0  0  0  0
  152.4557  142.9547  158.6915 N   0  0  0  0  0  0  0  0  0  0  0  0
  152.2225  144.3183  158.1802 C   0  0  0  0  0  0  0  0  0  0  0  0
  151.3575  145.0943  159.1929 C   0  0  0  0  0  0  0  0  0  0  0  0
  152.0133  145.1109  160.5865 C   0  0  0  0  0  0  0  0  0  0  0  0
  152.4467  143.7018  161.0337 C   0  0  0  0  0  0  0  0  0  0  0  0
  153.2675  143.0056  159.9281 C   0  0  1  0  0  0  0  0  0  0  0  0
  153.8560  141.6559  160.3907 C   0  0  0  0  0  0  0  0  0  0  0  0
  148.4417  139.8012  153.8177 N   0  0  0  0  0  0  0  0  0  0  0  0
  146.2392  137.3288  154.5738 H   0  0  0  0  0  0  0  0  0  0  0  0
  147.5920  137.0348  153.4835 H   0  0  0  0  0  0  0  0  0  0  0  0
  145.9572  136.5992  152.9970 H   0  0  0  0  0  0  0  0  0  0  0  0
  145.2880  138.9667  153.0058 H   0  0  0  0  0  0  0  0  0  0  0  0
  146.4499  139.7734  150.9987 H   0  0  0  0  0  0  0  0  0  0  0  0
  146.0972  138.0546  150.8633 H   0  0  0  0  0  0  0  0  0  0  0  0
  147.7341  138.5892  151.2316 H   0  0  0  0  0  0  0  0  0  0  0  0
  150.7050  141.1354  154.3309 H   0  0  0  0  0  0  0  0  0  0  0  0
  149.8671  142.5448  154.9402 H   0  0  0  0  0  0  0  0  0  0  0  0
  149.3769  140.8925  157.0481 H   0  0  0  0  0  0  0  0  0  0  0  0
  150.8096  140.0899  156.4465 H   0  0  0  0  0  0  0  0  0  0  0  0
  151.3933  142.8414  156.5607 H   0  0  0  0  0  0  0  0  0  0  0  0
  153.1780  144.8250  158.0372 H   0  0  0  0  0  0  0  0  0  0  0  0
  151.7392  144.3369  157.2029 H   0  0  0  0  0  0  0  0  0  0  0  0
  151.1964  146.1150  158.8451 H   0  0  0  0  0  0  0  0  0  0  0  0
  150.3716  144.6319  159.2595 H   0  0  0  0  0  0  0  0  0  0  0  0
  152.8905  145.7584  160.5570 H   0  0  0  0  0  0  0  0  0  0  0  0
  151.3339  145.5475  161.3189 H   0  0  0  0  0  0  0  0  0  0  0  0
  153.0309  143.7734  161.9517 H   0  0  0  0  0  0  0  0  0  0  0  0
  151.5663  143.1041  161.2730 H   0  0  0  0  0  0  0  0  0  0  0  0
  154.1335  143.6336  159.7120 H   0  0  0  0  0  0  0  0  0  0  0  0
  154.6053  141.8144  161.1666 H   0  0  0  0  0  0  0  0  0  0  0  0
  154.3460  141.1340  159.5681 H   0  0  0  0  0  0  0  0  0  0  0  0
  153.1024  140.9935  160.8158 H   0  0  0  0  0  0  0  0  0  0  0  0
  1  2  1  0  0  0  0
  1 21  1  0  0  0  0
  1 22  1  0  0  0  0
  1 23  1  0  0  0  0
  2  3  1  0  0  0  0
  2  4  1  0  0  0  0
  2 24  1  0  0  0  0
  3 25  1  0  0  0  0
  3 26  1  0  0  0  0
  3 27  1  0  0  0  0
  4 20  1  0  0  0  0
  4  5  2  0  0  0  0
  5  6  1  0  0  0  0
  6  7  1  0  0  0  0
  7  8  1  0  0  0  0
  7 20  2  0  0  0  0
  8  9  1  0  0  0  0
  8 28  1  0  0  0  0
  8 29  1  0  0  0  0
  9 10  1  0  0  0  0
  9 30  1  0  0  0  0
  9 31  1  0  0  0  0
 10 11  1  0  0  0  0
 10 32  1  0  0  0  0
 11 12  2  0  0  0  0
 11 13  1  0  0  0  0
 13 18  1  0  0  0  0
 13 14  1  0  0  0  0
 14 15  1  0  0  0  0
 14 33  1  0  0  0  0
 14 34  1  0  0  0  0
 15 16  1  0  0  0  0
 15 35  1  0  0  0  0
 15 36  1  0  0  0  0
 16 17  1  0  0  0  0
 16 37  1  0  0  0  0
 16 38  1  0  0  0  0
 17 18  1  0  0  0  0
 17 39  1  0  0  0  0
 17 40  1  0  0  0  0
 18 19  1  0  0  0  0
 18 41  1  0  0  0  0
 19 42  1  0  0  0  0
 19 43  1  0  0  0  0
 19 44  1  0  0  0  0
M  END
> <s_m_source_file>
AV-unprocessed.smi

> <i_m_source_file_index>
776

> <i_lp_mmshare_version>
43012

> <i_f3d_flags>
0

> <s_epik_input>
W0NIM11bQ0hdKFtDSDNdKWMxbm9jKG4xKVtDSDJdW0NIMl1bTkhdQyg9TylOMltDSDJdW0NIMl1bQ0gyXVtDSDJdW0NASF0yW0NIM10=

> <s_epik_cmdline>
J2VwaWtfcHl0aG9uJywgJy1waCcsICc3LjAnLCAnLXRuJywgJzgnLCAnLW1hJywgJzIwMCcsICctbWV0YWxfYmluZGluZycsICctaW1hZScsICc8aW5maWxlLm1hZT4nLCAnLW9tYWUnLCAnPG91dGZpbGUubWFlPic=

> <r_lp_tautomer_probability>
1

> <r_epik_Ionization_Penalty>
6.23032e-05

> <r_epik_Ionization_Penalty_Charging>
0

> <r_epik_Ionization_Penalty_Neutral>
6.23032e-05

> <r_epik_State_Penalty>
-0

> <r_epik_Charging_Adjusted_Penalty>
0

> <i_epik_Tot_Q>
0

> <i_epik_Tot_abs_Q>
0

> <r_epik_Metal_State_Penalty>
-0

> <b_epik_Metal_Only>
0

> <s_lp_Force_Field>
OPLS_2005

> <r_lp_Energy>
26.0958

> <b_lp_Chiralities_Consistent>
1

> <s_lp_Variant>
AV-unprocessed.smi:776-1

> <Gold.Version>
5.8.1

> <Gold.Id.Protein>
6NUR|6NUR_protein|mol2

> <Gold.PLP.Fitness>
43.8989

> <Gold.PLP.PLP>
-44.8707

> <Gold.PLP.part.hbond>
-0.4573

> <Gold.PLP.part.metal>
0.0000

> <Gold.PLP.part.buried>
-1.3672

> <Gold.PLP.part.nonpolar>
-43.2990

> <Gold.PLP.part.repulsive>
1.7121

> <Gold.PLP.ligand.clash>
0.0000

> <Gold.PLP.ligand.torsion>
0.7362

> <Gold.PLP.Chemscore.Hbond>
0.0000

> <Gold.PLP.Chemscore.CHOScore>
0.0000

> <Gold.PLP.Chemscore.Metal>
0.0000

> <Gold.PLP.Chemscore.Internal.Correction>
0.5006

> <Gold.Rescore>
     Score         DG    S(hbond)    S(metal)    S(lipo)     H(rot)  DE(clash)    DE(int)     intcor
     11.41     -13.44       0.00        0.00     104.11       1.65       0.04       2.00       ----

> <Gold.Chemscore.Fitness>
11.4071

> <Gold.Chemscore.DG>
-13.4448

> <Gold.Chemscore.ZeroCoef>
-5.4800

> <Gold.Chemscore.Hbond>
0.0000

> <Gold.Chemscore.Metal>
0.0000

> <Gold.Chemscore.Lipo>
104.1129

> <Gold.Chemscore.Internal_Hbond>
0.0000

> <Gold.Chemscore.DEClash>
0.0357

> <Gold.Chemscore.DEInternal>
2.0020

> <Gold.Chemscore.Rot>
1.6470

> <Gold.Chemscore.Internal.Correction>
   9.000000E+99

> <Gold.Chemscore.Hbond.Weighted>
-0.0000

> <Gold.Chemscore.Metal.Weighted>
-0.0000

> <Gold.Chemscore.Lipo.Weighted>
-12.1812

> <Gold.Chemscore.Internal_Hbond.Weighted>
0.0000

> <Gold.Chemscore.DEClash.Weighted>
0.0357

> <Gold.Chemscore.DEInternal.Weighted>
2.0020

> <Gold.Chemscore.Rot.Weighted>
4.2164

> <Gold.Chemscore.Internal.Correction.Weighted>
   9.000000E+99

> <Gold.Protein.RotatedTorsions>
[ 6907 6896 6895 6894 ] final  -41.67 input  -60.11 | X-H torsion
[ 7974 7965 7964 7962 ] final  -59.56 input  175.53 | X-H torsion
[ 8008 7997 7996 7995 ] final   32.30 input   59.86 | X-H torsion
[ 10167 10162 10161 10158 ] final  129.29 input  -65.29 | X-H torsion
[ 10718 10713 10712 10709 ] final  -55.40 input   66.30 | X-H torsion
[ 10763 10752 10751 10750 ] final   51.43 input  -60.55 | X-H torsion
[ 11005 11000 10999 10996 ] final  106.40 input  -57.11 | X-H torsion

> <Gold.Protein.ActiveResidues>
 VAL166  LYS551  ARG553  GLY616  TRP617  ASP618  TYR619  PRO620  LYS621  CYS622 
 ASP623  PHE694  ASN695  SER759  ASP760  ASP761  ALA762  ILE779  LEU786  VAL792 
 PHE793  MET794  SER795  GLU796  ALA797  LYS798  CYS799  TRP800  GLU811  SER814 

> <Gold.Protein.RotatedAtoms>
  150.9641  134.9024  159.7747 H   0  0  0  0  0  0  0  0  0  0  0  0  # atno 6907 bound_to 6896
  152.5167  134.3632  159.9302 H   0  0  0  0  0  0  0  0  0  0  0  0  # atno 6908 bound_to 6896
  151.3643  133.3837  159.2727 H   0  0  0  0  0  0  0  0  0  0  0  0  # atno 6909 bound_to 6896
  145.8261  140.8510  143.0108 H   0  0  0  0  0  0  0  0  0  0  0  0  # atno 7974 bound_to 7965
  155.1203  140.3247  155.4499 H   0  0  0  0  0  0  0  0  0  0  0  0  # atno 8008 bound_to 7997
  156.2665  140.2028  156.6273 H   0  0  0  0  0  0  0  0  0  0  0  0  # atno 8009 bound_to 7997
  154.6689  140.0539  157.0131 H   0  0  0  0  0  0  0  0  0  0  0  0  # atno 8010 bound_to 7997
  139.5485  144.6793  151.4398 H   0  0  0  0  0  0  0  0  0  0  0  0  # atno 10167 bound_to 10162
  156.1371  130.4156  150.0166 H   0  0  0  0  0  0  0  0  0  0  0  0  # atno 10718 bound_to 10713
  152.9785  135.5846  154.4414 H   0  0  0  0  0  0  0  0  0  0  0  0  # atno 10763 bound_to 10752
  154.4015  135.2769  155.2095 H   0  0  0  0  0  0  0  0  0  0  0  0  # atno 10764 bound_to 10752
  154.3924  135.6122  153.5905 H   0  0  0  0  0  0  0  0  0  0  0  0  # atno 10765 bound_to 10752
  139.8814  134.9368  156.5661 H   0  0  0  0  0  0  0  0  0  0  0  0  # atno 11005 bound_to 11000
  144.6743  140.0603  143.7476 LP  0  0  0  0  0  0  0  0  0  0  0  0  # atno 17320 bound_to 7965
  145.9622  139.2809  143.1148 LP  0  0  0  0  0  0  0  0  0  0  0  0  # atno 17321 bound_to 7965
  140.6741  143.8230  150.7035 LP  0  0  0  0  0  0  0  0  0  0  0  0  # atno 17342 bound_to 10162
  140.1663  143.4233  152.2032 LP  0  0  0  0  0  0  0  0  0  0  0  0  # atno 17343 bound_to 10162
  156.8062  130.9308  151.3645 LP  0  0  0  0  0  0  0  0  0  0  0  0  # atno 17370 bound_to 10713
  157.6542  130.8910  149.9695 LP  0  0  0  0  0  0  0  0  0  0  0  0  # atno 17371 bound_to 10713
  140.8133  133.8411  155.8829 LP  0  0  0  0  0  0  0  0  0  0  0  0  # atno 17394 bound_to 11000
  140.9486  134.1808  157.4745 LP  0  0  0  0  0  0  0  0  0  0  0  0  # atno 17395 bound_to 11000

$$$$
