AV-unprocessed.smi:1774|AV-procd|sdf|7165|dock7
  -GOLD-   22720 8403D 1   1.00000     0.00000
 Structure written by MMmdl.
 45 46  0  0  0  0  0  0  0  0  1 V2000
  145.4025  135.6333  150.8334 C   0  0  0  0  0  0  0  0  0  0  0  0
  145.2448  134.1494  151.1230 C   0  0  0  0  0  0  0  0  0  0  0  0
  144.2622  133.4115  150.4294 C   0  0  0  0  0  0  0  0  0  0  0  0
  144.1178  132.0396  150.6972 C   0  0  0  0  0  0  0  0  0  0  0  0
  144.9683  131.4597  151.6539 C   0  0  0  0  0  0  0  0  0  0  0  0
  145.9096  132.1570  152.3220 N   0  0  0  0  0  0  0  0  0  0  0  0
  146.0617  133.4828  152.0755 C   0  0  0  0  0  0  0  0  0  0  0  0
  147.0365  134.2805  152.7389 N   0  0  0  0  0  0  0  0  0  0  0  0
  147.5012  134.1618  153.9951 C   0  0  0  0  0  0  0  0  0  0  0  0
  147.1147  133.3360  154.8228 O   0  0  0  0  0  0  0  0  0  0  0  0
  148.4595  135.0672  154.2426 N   0  0  0  0  0  0  0  0  0  0  0  0
  149.2177  135.1771  155.4853 C   0  0  0  0  0  0  0  0  0  0  0  0
  150.5798  135.8617  155.2563 C   0  0  0  0  0  0  0  0  0  0  0  0
  150.5949  137.3101  155.4573 N   0  0  0  0  0  0  0  0  0  0  0  0
  149.6502  138.0108  154.5936 C   0  0  0  0  0  0  0  0  0  0  0  0
  149.6475  139.5255  154.8651 C   0  0  2  0  0  0  0  0  0  0  0  0
  148.7215  140.2814  153.9070 C   0  0  0  0  0  0  0  0  0  0  0  0
  150.9692  140.0391  154.7054 O   0  0  0  0  0  0  0  0  0  0  0  0
  151.9741  139.3877  155.4850 C   0  0  1  0  0  0  0  0  0  0  0  0
  151.8837  139.7754  156.9711 C   0  0  0  0  0  0  0  0  0  0  0  0
  151.9270  137.8648  155.2495 C   0  0  0  0  0  0  0  0  0  0  0  0
  144.6969  135.9668  150.0721 H   0  0  0  0  0  0  0  0  0  0  0  0
  146.4092  135.8474  150.4733 H   0  0  0  0  0  0  0  0  0  0  0  0
  145.2247  136.2193  151.7355 H   0  0  0  0  0  0  0  0  0  0  0  0
  143.6248  133.8881  149.6991 H   0  0  0  0  0  0  0  0  0  0  0  0
  143.3754  131.4477  150.1828 H   0  0  0  0  0  0  0  0  0  0  0  0
  144.8921  130.4084  151.8895 H   0  0  0  0  0  0  0  0  0  0  0  0
  147.4429  135.0166  152.1811 H   0  0  0  0  0  0  0  0  0  0  0  0
  148.7086  135.7079  153.5034 H   0  0  0  0  0  0  0  0  0  0  0  0
  148.6284  135.7868  156.1702 H   0  0  0  0  0  0  0  0  0  0  0  0
  149.3253  134.2081  155.9733 H   0  0  0  0  0  0  0  0  0  0  0  0
  151.2981  135.4000  155.9353 H   0  0  0  0  0  0  0  0  0  0  0  0
  150.9339  135.6312  154.2506 H   0  0  0  0  0  0  0  0  0  0  0  0
  149.8992  137.8255  153.5473 H   0  0  0  0  0  0  0  0  0  0  0  0
  148.6412  137.6296  154.7442 H   0  0  0  0  0  0  0  0  0  0  0  0
  149.3078  139.7097  155.8848 H   0  0  0  0  0  0  0  0  0  0  0  0
  147.6929  139.9324  154.0000 H   0  0  0  0  0  0  0  0  0  0  0  0
  149.0298  140.1452  152.8699 H   0  0  0  0  0  0  0  0  0  0  0  0
  148.7301  141.3507  154.1202 H   0  0  0  0  0  0  0  0  0  0  0  0
  152.9326  139.7548  155.1175 H   0  0  0  0  0  0  0  0  0  0  0  0
  152.7212  139.3590  157.5310 H   0  0  0  0  0  0  0  0  0  0  0  0
  150.9686  139.4093  157.4364 H   0  0  0  0  0  0  0  0  0  0  0  0
  151.9107  140.8584  157.0924 H   0  0  0  0  0  0  0  0  0  0  0  0
  152.6442  137.3734  155.9082 H   0  0  0  0  0  0  0  0  0  0  0  0
  152.2525  137.6533  154.2296 H   0  0  0  0  0  0  0  0  0  0  0  0
  1  2  1  0  0  0  0
  1 22  1  0  0  0  0
  1 23  1  0  0  0  0
  1 24  1  0  0  0  0
  2  7  1  0  0  0  0
  2  3  2  0  0  0  0
  3  4  1  0  0  0  0
  3 25  1  0  0  0  0
  4  5  2  0  0  0  0
  4 26  1  0  0  0  0
  5  6  1  0  0  0  0
  5 27  1  0  0  0  0
  6  7  2  0  0  0  0
  7  8  1  0  0  0  0
  8  9  1  0  0  0  0
  8 28  1  0  0  0  0
  9 10  2  0  0  0  0
  9 11  1  0  0  0  0
 11 12  1  0  0  0  0
 11 29  1  0  0  0  0
 12 13  1  0  0  0  0
 12 30  1  0  0  0  0
 12 31  1  0  0  0  0
 13 14  1  0  0  0  0
 13 32  1  0  0  0  0
 13 33  1  0  0  0  0
 14 21  1  0  0  0  0
 14 15  1  0  0  0  0
 15 16  1  0  0  0  0
 15 34  1  0  0  0  0
 15 35  1  0  0  0  0
 16 17  1  0  0  0  0
 16 18  1  0  0  0  0
 16 36  1  0  0  0  0
 17 37  1  0  0  0  0
 17 38  1  0  0  0  0
 17 39  1  0  0  0  0
 18 19  1  0  0  0  0
 19 20  1  0  0  0  0
 19 21  1  0  0  0  0
 19 40  1  0  0  0  0
 20 41  1  0  0  0  0
 20 42  1  0  0  0  0
 20 43  1  0  0  0  0
 21 44  1  0  0  0  0
 21 45  1  0  0  0  0
M  END
> <s_m_source_file>
AV-unprocessed.smi

> <i_m_source_file_index>
1774

> <i_lp_mmshare_version>
43012

> <i_f3d_flags>
0

> <s_epik_input>
W0NIM11jMVtjSF1bY0hdW2NIXW5jMVtOSF1DKD1PKVtOSF1bQ0gyXVtDSDJdTjJbQ0gyXVtDQEBIXShbQ0gzXSlPW0NAQEhdKFtDSDNdKVtDSDJdMg==

> <s_epik_cmdline>
J2VwaWtfcHl0aG9uJywgJy1waCcsICc3LjAnLCAnLXRuJywgJzgnLCAnLW1hJywgJzIwMCcsICctbWV0YWxfYmluZGluZycsICctaW1hZScsICc8aW5maWxlLm1hZT4nLCAnLW9tYWUnLCAnPG91dGZpbGUubWFlPic=

> <r_epik_Ionization_Penalty>
0.266047

> <r_epik_Ionization_Penalty_Charging>
0

> <r_epik_Ionization_Penalty_Neutral>
0.266047

> <r_epik_State_Penalty>
0.257924

> <r_epik_Charging_Adjusted_Penalty>
0.257924

> <i_epik_Tot_Q>
0

> <i_epik_Tot_abs_Q>
0

> <r_epik_Metal_State_Penalty>
0.257922

> <b_epik_Metal_Only>
0

> <s_lp_Force_Field>
OPLS_2005

> <r_lp_Energy>
29.5878

> <b_lp_Chiralities_Consistent>
1

> <s_lp_Variant>
AV-unprocessed.smi:1774-2

> <Gold.Version>
5.8.1

> <Gold.Id.Protein>
6NUR|6NUR_protein|mol2

> <Gold.PLP.Fitness>
43.9227

> <Gold.PLP.PLP>
-36.3801

> <Gold.PLP.part.hbond>
-3.0000

> <Gold.PLP.part.metal>
0.0000

> <Gold.PLP.part.buried>
-5.2270

> <Gold.PLP.part.nonpolar>
-28.9196

> <Gold.PLP.part.repulsive>
0.3192

> <Gold.PLP.ligand.clash>
0.0000

> <Gold.PLP.ligand.torsion>
0.6055

> <Gold.PLP.Chemscore.Hbond>
2.9120

> <Gold.PLP.Chemscore.CHOScore>
0.0000

> <Gold.PLP.Chemscore.Metal>
0.0000

> <Gold.Chemscore.Hbonds>
donor molecule, donor type, donor heavy atom, donor atom, acceptor molecule, acceptor atom, score
      L1  H     8    28       P1  7948  0.98
      L1  H    11    29       P1  7948  1.00
      P1  H  7989  7998       L1    18  1.00

> <Gold.PLP.Chemscore.Internal.Correction>
0.0177

> <Gold.Rescore>
     Score         DG    S(hbond)    S(metal)    S(lipo)     H(rot)  DE(clash)    DE(int)     intcor
     19.81     -20.67       2.75        0.00      83.14       1.46       0.16       0.69       ----

> <Gold.Chemscore.Fitness>
19.8146

> <Gold.Chemscore.DG>
-20.6681

> <Gold.Chemscore.ZeroCoef>
-5.4800

> <Gold.Chemscore.Hbond>
2.7510

> <Gold.Chemscore.Metal>
0.0000

> <Gold.Chemscore.Lipo>
83.1418

> <Gold.Chemscore.Internal_Hbond>
0.0000

> <Gold.Chemscore.DEClash>
0.1624

> <Gold.Chemscore.DEInternal>
0.6911

> <Gold.Chemscore.Rot>
1.4562

> <Gold.Chemscore.Internal.Correction>
   9.000000E+99

> <Gold.Chemscore.Hbonds>
donor molecule, donor type, donor heavy atom, donor atom, acceptor molecule, acceptor atom, score
      L1  H     8    28       P1  7948  0.90
      L1  H    11    29       P1  7948  0.97
      P1  H  7989  7998       L1    18  0.78

> <Gold.Chemscore.Hbond.Weighted>
-9.1884

> <Gold.Chemscore.Metal.Weighted>
-0.0000

> <Gold.Chemscore.Lipo.Weighted>
-9.7276

> <Gold.Chemscore.Internal_Hbond.Weighted>
0.0000

> <Gold.Chemscore.DEClash.Weighted>
0.1624

> <Gold.Chemscore.DEInternal.Weighted>
0.6911

> <Gold.Chemscore.Rot.Weighted>
3.7278

> <Gold.Chemscore.Internal.Correction.Weighted>
   9.000000E+99

> <Gold.Protein.RotatedTorsions>
[ 6907 6896 6895 6894 ] final  -31.59 input  -60.11 | X-H torsion
[ 7974 7965 7964 7962 ] final  -92.60 input  175.53 | X-H torsion
[ 8008 7997 7996 7995 ] final   31.72 input   59.86 | X-H torsion
[ 10167 10162 10161 10158 ] final -165.07 input  -65.29 | X-H torsion
[ 10718 10713 10712 10709 ] final  154.29 input   66.30 | X-H torsion
[ 10763 10752 10751 10750 ] final  125.71 input  -60.55 | X-H torsion
[ 11005 11000 10999 10996 ] final    0.05 input  -57.11 | X-H torsion

> <Gold.Protein.ActiveResidues>
 VAL166  LYS551  ARG553  GLY616  TRP617  ASP618  TYR619  PRO620  LYS621  CYS622 
 ASP623  PHE694  ASN695  SER759  ASP760  ASP761  ALA762  ILE779  LEU786  VAL792 
 PHE793  MET794  SER795  GLU796  ALA797  LYS798  CYS799  TRP800  GLU811  SER814 

> <Gold.Protein.RotatedAtoms>
  151.0901  134.9911  159.8398 H   0  0  0  0  0  0  0  0  0  0  0  0  # atno 6907 bound_to 6896
  152.5428  134.2076  159.8747 H   0  0  0  0  0  0  0  0  0  0  0  0  # atno 6908 bound_to 6896
  151.2112  133.4511  159.2631 H   0  0  0  0  0  0  0  0  0  0  0  0  # atno 6909 bound_to 6896
  145.3976  140.9534  143.2305 H   0  0  0  0  0  0  0  0  0  0  0  0  # atno 7974 bound_to 7965
  155.1110  140.3239  155.4521 H   0  0  0  0  0  0  0  0  0  0  0  0  # atno 8008 bound_to 7997
  156.2690  140.2044  156.6182 H   0  0  0  0  0  0  0  0  0  0  0  0  # atno 8009 bound_to 7997
  154.6756  140.0532  157.0199 H   0  0  0  0  0  0  0  0  0  0  0  0  # atno 8010 bound_to 7997
  139.6207  144.0630  152.1930 H   0  0  0  0  0  0  0  0  0  0  0  0  # atno 10167 bound_to 10162
  157.2335  131.0744  151.1838 H   0  0  0  0  0  0  0  0  0  0  0  0  # atno 10718 bound_to 10713
  153.6817  135.3313  155.3180 H   0  0  0  0  0  0  0  0  0  0  0  0  # atno 10763 bound_to 10752
  154.8464  135.4410  154.1599 H   0  0  0  0  0  0  0  0  0  0  0  0  # atno 10764 bound_to 10752
  153.2617  135.6992  153.7648 H   0  0  0  0  0  0  0  0  0  0  0  0  # atno 10765 bound_to 10752
  140.6309  133.9576  155.8274 H   0  0  0  0  0  0  0  0  0  0  0  0  # atno 11005 bound_to 11000
  144.8396  139.5494  143.6906 LP  0  0  0  0  0  0  0  0  0  0  0  0  # atno 17320 bound_to 7965
  146.2767  139.6771  142.9258 LP  0  0  0  0  0  0  0  0  0  0  0  0  # atno 17321 bound_to 7965
  140.0271  144.6109  150.7518 LP  0  0  0  0  0  0  0  0  0  0  0  0  # atno 17342 bound_to 10162
  140.7380  143.2773  151.3704 LP  0  0  0  0  0  0  0  0  0  0  0  0  # atno 17343 bound_to 10162
  157.3453  130.7054  149.6407 LP  0  0  0  0  0  0  0  0  0  0  0  0  # atno 17370 bound_to 10713
  155.9674  130.4268  150.4715 LP  0  0  0  0  0  0  0  0  0  0  0  0  # atno 17371 bound_to 10713
  141.0676  134.0253  157.3572 LP  0  0  0  0  0  0  0  0  0  0  0  0  # atno 17394 bound_to 11000
  139.9116  135.0191  156.7716 LP  0  0  0  0  0  0  0  0  0  0  0  0  # atno 17395 bound_to 11000

$$$$
