AV-unprocessed.smi:1802|AV-procd|sdf|7274|dock10
  -GOLD-   22720 8533D 1   1.00000     0.00000
 Structure written by MMmdl.
 41 42  0  0  0  0  0  0  0  0  2 V2000
  152.2014  138.9799  158.2640 C   0  0  0  0  0  0  0  0  0  0  0  0
  152.1294  140.2894  159.0620 C   0  0  1  0  0  0  0  0  0  0  0  0
  153.3417  140.4453  159.9956 C   0  0  0  0  0  0  0  0  0  0  0  0
  153.2582  141.7731  160.7585 C   0  0  0  0  0  0  0  0  0  0  0  0
  153.1115  142.9563  159.7887 C   0  0  0  0  0  0  0  0  0  0  0  0
  151.9285  142.7800  158.9074 N   0  3  1  0  0  0  0  0  0  0  0  0
  151.6756  143.9712  158.0581 C   0  0  0  0  0  0  0  0  0  0  0  0
  151.7586  145.2845  158.8544 C   0  0  0  0  0  0  0  0  0  0  0  0
  150.7806  145.3088  160.0409 C   0  0  0  0  0  0  0  0  0  0  0  0
  149.3916  145.2771  159.5964 N   0  0  0  0  0  0  0  0  0  0  0  0
  148.3661  144.8137  160.3260 C   0  0  0  0  0  0  0  0  0  0  0  0
  148.4996  144.3443  161.4566 O   0  0  0  0  0  0  0  0  0  0  0  0
  147.2013  144.9319  159.6645 N   0  0  0  0  0  0  0  0  0  0  0  0
  145.9013  144.5615  160.1008 C   0  0  0  0  0  0  0  0  0  0  0  0
  144.7780  144.8594  159.4290 N   0  0  0  0  0  0  0  0  0  0  0  0
  143.6445  144.3804  160.0731 N   0  0  0  0  0  0  0  0  0  0  0  0
  143.9567  143.7416  161.2042 C   0  0  0  0  0  0  0  0  0  0  0  0
  145.6665  143.6638  161.5936 S   0  0  0  0  0  0  0  0  0  0  0  0
  152.0103  141.5133  158.1315 C   0  0  0  0  0  0  0  0  0  0  0  0
  153.0805  138.9548  157.6192 H   0  0  0  0  0  0  0  0  0  0  0  0
  151.3211  138.8558  157.6325 H   0  0  0  0  0  0  0  0  0  0  0  0
  152.2515  138.1175  158.9293 H   0  0  0  0  0  0  0  0  0  0  0  0
  151.2307  140.2475  159.6793 H   0  0  0  0  0  0  0  0  0  0  0  0
  153.3860  139.6148  160.7007 H   0  0  0  0  0  0  0  0  0  0  0  0
  154.2659  140.4127  159.4168 H   0  0  0  0  0  0  0  0  0  0  0  0
  152.4084  141.7517  161.4422 H   0  0  0  0  0  0  0  0  0  0  0  0
  154.1478  141.9042  161.3753 H   0  0  0  0  0  0  0  0  0  0  0  0
  153.0108  143.8770  160.3648 H   0  0  0  0  0  0  0  0  0  0  0  0
  154.0105  143.0589  159.1786 H   0  0  0  0  0  0  0  0  0  0  0  0
  152.4278  144.0129  157.2689 H   0  0  0  0  0  0  0  0  0  0  0  0
  150.7107  143.8775  157.5573 H   0  0  0  0  0  0  0  0  0  0  0  0
  152.7702  145.4419  159.2281 H   0  0  0  0  0  0  0  0  0  0  0  0
  151.5435  146.1190  158.1854 H   0  0  0  0  0  0  0  0  0  0  0  0
  150.9725  144.4711  160.7136 H   0  0  0  0  0  0  0  0  0  0  0  0
  150.9293  146.2160  160.6269 H   0  0  0  0  0  0  0  0  0  0  0  0
  149.1968  145.6458  158.6768 H   0  0  0  0  0  0  0  0  0  0  0  0
  147.2475  145.3411  158.7430 H   0  0  0  0  0  0  0  0  0  0  0  0
  143.1741  143.3134  161.8130 H   0  0  0  0  0  0  0  0  0  0  0  0
  152.8655  141.5574  157.4544 H   0  0  0  0  0  0  0  0  0  0  0  0
  151.1236  141.3995  157.5087 H   0  0  0  0  0  0  0  0  0  0  0  0
  151.1326  142.6973  159.5241 H   0  0  0  0  0  0  0  0  0  0  0  0
  1  2  1  0  0  0  0
  1 20  1  0  0  0  0
  1 21  1  0  0  0  0
  1 22  1  0  0  0  0
  2 19  1  0  0  0  0
  2  3  1  0  0  0  0
  2 23  1  0  0  0  0
  3  4  1  0  0  0  0
  3 24  1  0  0  0  0
  3 25  1  0  0  0  0
  4  5  1  0  0  0  0
  4 26  1  0  0  0  0
  4 27  1  0  0  0  0
  5  6  1  0  0  0  0
  5 28  1  0  0  0  0
  5 29  1  0  0  0  0
  6  7  1  0  0  0  0
  6 19  1  0  0  0  0
  6 41  1  0  0  0  0
  7  8  1  0  0  0  0
  7 30  1  0  0  0  0
  7 31  1  0  0  0  0
  8  9  1  0  0  0  0
  8 32  1  0  0  0  0
  8 33  1  0  0  0  0
  9 10  1  0  0  0  0
  9 34  1  0  0  0  0
  9 35  1  0  0  0  0
 10 11  1  0  0  0  0
 10 36  1  0  0  0  0
 11 12  2  0  0  0  0
 11 13  1  0  0  0  0
 13 14  1  0  0  0  0
 13 37  1  0  0  0  0
 14 18  1  0  0  0  0
 14 15  2  0  0  0  0
 15 16  1  0  0  0  0
 16 17  2  0  0  0  0
 17 18  1  0  0  0  0
 17 38  1  0  0  0  0
 19 39  1  0  0  0  0
 19 40  1  0  0  0  0
M  CHG  1   6   1
M  END
> <s_m_source_file>
AV-unprocessed.smi

> <i_m_source_file_index>
1802

> <i_lp_mmshare_version>
43012

> <i_f3d_flags>
0

> <s_epik_input>
W0NIM11bQ0BASF0xW0NIMl1bQ0gyXVtDSDJdTihbQ0gyXTEpW0NIMl1bQ0gyXVtDSDJdW05IXUMoPU8pW05IXWMybm5bY0hdczI=

> <s_epik_cmdline>
J2VwaWtfcHl0aG9uJywgJy1waCcsICc3LjAnLCAnLXRuJywgJzgnLCAnLW1hJywgJzIwMCcsICctbWV0YWxfYmluZGluZycsICctaW1hZScsICc8aW5maWxlLm1hZT4nLCAnLW9tYWUnLCAnPG91dGZpbGUubWFlPic=

> <r_lp_tautomer_probability>
1

> <r_epik_Ionization_Penalty>
0.00272894

> <r_epik_Ionization_Penalty_Charging>
0.000288442

> <r_epik_Ionization_Penalty_Neutral>
0.0024405

> <r_epik_State_Penalty>
-0

> <r_epik_Charging_Adjusted_Penalty>
0.000288442

> <i_epik_Tot_Q>
1

> <i_epik_Tot_abs_Q>
1

> <r_epik_Metal_State_Penalty>
0.350525

> <b_epik_Metal_Only>
0

> <s_lp_Force_Field>
OPLS_2005

> <r_lp_Energy>
15.2014

> <b_lp_Chiralities_Consistent>
1

> <s_lp_Variant>
AV-unprocessed.smi:1802-4

> <Gold.Version>
5.8.1

> <Gold.Id.Protein>
6NUR|6NUR_protein|mol2

> <Gold.PLP.Fitness>
50.0344

> <Gold.PLP.PLP>
-42.3555

> <Gold.PLP.part.hbond>
-3.0000

> <Gold.PLP.part.metal>
0.0000

> <Gold.PLP.part.buried>
-8.2367

> <Gold.PLP.part.nonpolar>
-32.6935

> <Gold.PLP.part.repulsive>
1.0621

> <Gold.PLP.ligand.clash>
0.0000

> <Gold.PLP.ligand.torsion>
0.2601

> <Gold.PLP.Chemscore.Hbond>
2.7200

> <Gold.PLP.Chemscore.CHOScore>
0.0000

> <Gold.PLP.Chemscore.Metal>
0.0000

> <Gold.Chemscore.Hbonds>
donor molecule, donor type, donor heavy atom, donor atom, acceptor molecule, acceptor atom, score
      L1  H    10    36       P1  8029  0.98
      L1  H    13    37       P1  8029  1.00
      P1  H  6933  6944       L1    12  0.82

> <Gold.PLP.Chemscore.Internal.Correction>
0.0390

> <Gold.Rescore>
     Score         DG    S(hbond)    S(metal)    S(lipo)     H(rot)  DE(clash)    DE(int)     intcor
     19.52     -21.12       2.84        0.00      95.80       1.98       0.02       1.58       ----

> <Gold.Chemscore.Fitness>
19.5184

> <Gold.Chemscore.DG>
-21.1171

> <Gold.Chemscore.ZeroCoef>
-5.4800

> <Gold.Chemscore.Hbond>
2.8430

> <Gold.Chemscore.Metal>
0.0000

> <Gold.Chemscore.Lipo>
95.7977

> <Gold.Chemscore.Internal_Hbond>
0.0000

> <Gold.Chemscore.DEClash>
0.0224

> <Gold.Chemscore.DEInternal>
1.5763

> <Gold.Chemscore.Rot>
1.9793

> <Gold.Chemscore.Internal.Correction>
   9.000000E+99

> <Gold.Chemscore.Hbonds>
donor molecule, donor type, donor heavy atom, donor atom, acceptor molecule, acceptor atom, score
      L1  H    10    36       P1  8029  0.93
      L1  H    13    37       P1  8029  1.00
      P1  H  6933  6944       L1    12  0.69

> <Gold.Chemscore.Hbond.Weighted>
-9.4957

> <Gold.Chemscore.Metal.Weighted>
-0.0000

> <Gold.Chemscore.Lipo.Weighted>
-11.2083

> <Gold.Chemscore.Internal_Hbond.Weighted>
0.0000

> <Gold.Chemscore.DEClash.Weighted>
0.0224

> <Gold.Chemscore.DEInternal.Weighted>
1.5763

> <Gold.Chemscore.Rot.Weighted>
5.0670

> <Gold.Chemscore.Internal.Correction.Weighted>
   9.000000E+99

> <Gold.Protein.RotatedTorsions>
[ 6907 6896 6895 6894 ] final   51.29 input  -60.11 | X-H torsion
[ 7974 7965 7964 7962 ] final  125.34 input  175.53 | X-H torsion
[ 8008 7997 7996 7995 ] final -105.61 input   59.86 | X-H torsion
[ 10167 10162 10161 10158 ] final  165.00 input  -65.29 | X-H torsion
[ 10718 10713 10712 10709 ] final   16.82 input   66.30 | X-H torsion
[ 10763 10752 10751 10750 ] final  -54.83 input  -60.55 | X-H torsion
[ 11005 11000 10999 10996 ] final  -23.66 input  -57.11 | X-H torsion

> <Gold.Protein.ActiveResidues>
 VAL166  LYS551  ARG553  GLY616  TRP617  ASP618  TYR619  PRO620  LYS621  CYS622 
 ASP623  PHE694  ASN695  SER759  ASP760  ASP761  ALA762  ILE779  LEU786  VAL792 
 PHE793  MET794  SER795  GLU796  ALA797  LYS798  CYS799  TRP800  GLU811  SER814 

> <Gold.Protein.RotatedAtoms>
  152.3111  134.7497  160.0336 H   0  0  0  0  0  0  0  0  0  0  0  0  # atno 6907 bound_to 6896
  151.7977  133.3361  159.3526 H   0  0  0  0  0  0  0  0  0  0  0  0  # atno 6908 bound_to 6896
  150.7320  134.5713  159.5936 H   0  0  0  0  0  0  0  0  0  0  0  0  # atno 6909 bound_to 6896
  145.0741  139.3707  143.4943 H   0  0  0  0  0  0  0  0  0  0  0  0  # atno 7974 bound_to 7965
  154.9024  140.0412  157.1900 H   0  0  0  0  0  0  0  0  0  0  0  0  # atno 8008 bound_to 7997
  154.8431  140.2917  155.5625 H   0  0  0  0  0  0  0  0  0  0  0  0  # atno 8009 bound_to 7997
  156.2993  140.2479  156.3377 H   0  0  0  0  0  0  0  0  0  0  0  0  # atno 8010 bound_to 7997
  139.4898  144.4178  151.9223 H   0  0  0  0  0  0  0  0  0  0  0  0  # atno 10167 bound_to 10162
  157.0733  130.6357  149.5810 H   0  0  0  0  0  0  0  0  0  0  0  0  # atno 10718 bound_to 10713
  154.1811  135.6443  153.5034 H   0  0  0  0  0  0  0  0  0  0  0  0  # atno 10763 bound_to 10752
  153.0059  135.5406  154.6514 H   0  0  0  0  0  0  0  0  0  0  0  0  # atno 10764 bound_to 10752
  154.5878  135.2931  155.0639 H   0  0  0  0  0  0  0  0  0  0  0  0  # atno 10765 bound_to 10752
  140.8772  133.7679  156.0258 H   0  0  0  0  0  0  0  0  0  0  0  0  # atno 11005 bound_to 11000
  146.3529  140.0499  142.8636 LP  0  0  0  0  0  0  0  0  0  0  0  0  # atno 17320 bound_to 7965
  145.1257  140.9489  143.4574 LP  0  0  0  0  0  0  0  0  0  0  0  0  # atno 17321 bound_to 7965
  140.3621  144.2960  150.5932 LP  0  0  0  0  0  0  0  0  0  0  0  0  # atno 17342 bound_to 10162
  140.5394  143.2226  151.8110 LP  0  0  0  0  0  0  0  0  0  0  0  0  # atno 17343 bound_to 10162
  155.9944  130.5008  150.7419 LP  0  0  0  0  0  0  0  0  0  0  0  0  # atno 17370 bound_to 10713
  157.4860  131.0906  151.0482 LP  0  0  0  0  0  0  0  0  0  0  0  0  # atno 17371 bound_to 10713
  140.8504  134.2961  157.5278 LP  0  0  0  0  0  0  0  0  0  0  0  0  # atno 17394 bound_to 11000
  139.8716  134.9464  156.3938 LP  0  0  0  0  0  0  0  0  0  0  0  0  # atno 17395 bound_to 11000

$$$$
