AV-unprocessed.smi:317|AV-procd|sdf|2328|dock9
  -GOLD-   2262022233D 1   1.00000     0.00000
 Structure written by MMmdl.
 40 41  0  0  0  0  0  0  0  0  2 V2000
  152.4833  144.4969  158.5704 C   0  0  0  0  0  0  0  0  0  0  0  0
  150.9625  144.4548  158.3564 C   0  0  2  0  0  0  0  0  0  0  0  0
  150.2031  144.0665  159.6407 C   0  0  0  0  0  0  0  0  0  0  0  0
  148.8257  144.3426  159.5011 O   0  0  0  0  0  0  0  0  0  0  0  0
  150.6587  143.5144  157.2809 N   0  0  0  0  0  0  0  0  0  0  0  0
  151.1486  142.2710  157.1736 C   0  0  0  0  0  0  0  0  0  0  0  0
  151.9415  141.7787  157.9757 O   0  0  0  0  0  0  0  0  0  0  0  0
  150.6774  141.6571  156.0752 N   0  0  0  0  0  0  0  0  0  0  0  0
  150.9670  140.3451  155.6020 C   0  0  0  0  0  0  0  0  0  0  0  0
  152.2196  139.7280  155.8553 C   0  0  0  0  0  0  0  0  0  0  0  0
  152.4830  138.4385  155.3563 C   0  0  0  0  0  0  0  0  0  0  0  0
  151.4881  137.7804  154.6139 C   0  0  0  0  0  0  0  0  0  0  0  0
  150.2997  138.3843  154.4078 N   0  3  0  0  0  0  0  0  0  0  0  0
  149.9799  139.6172  154.8744 C   0  0  0  0  0  0  0  0  0  0  0  0
  148.6866  140.1122  154.5896 N   0  0  0  0  0  0  0  0  0  0  0  0
  148.5155  141.4383  154.0069 C   0  0  0  0  0  0  0  0  0  0  0  0
  147.0655  141.4780  153.5322 C   0  0  0  0  0  0  0  0  0  0  0  0
  146.8314  140.0417  153.0741 C   0  0  0  0  0  0  0  0  0  0  0  0
  147.6821  139.2080  154.0387 C   0  0  0  0  0  0  0  0  0  0  0  0
  152.7545  145.2227  159.3375 H   0  0  0  0  0  0  0  0  0  0  0  0
  153.0015  144.7822  157.6542 H   0  0  0  0  0  0  0  0  0  0  0  0
  152.8683  143.5254  158.8824 H   0  0  0  0  0  0  0  0  0  0  0  0
  150.6390  145.4494  158.0419 H   0  0  0  0  0  0  0  0  0  0  0  0
  150.3060  143.0000  159.8442 H   0  0  0  0  0  0  0  0  0  0  0  0
  150.5978  144.5986  160.5069 H   0  0  0  0  0  0  0  0  0  0  0  0
  148.6662  144.6412  158.6187 H   0  0  0  0  0  0  0  0  0  0  0  0
  150.0174  143.8364  156.5709 H   0  0  0  0  0  0  0  0  0  0  0  0
  150.1140  142.2256  155.4605 H   0  0  0  0  0  0  0  0  0  0  0  0
  152.9861  140.2214  156.4331 H   0  0  0  0  0  0  0  0  0  0  0  0
  153.4356  137.9631  155.5403 H   0  0  0  0  0  0  0  0  0  0  0  0
  151.6006  136.7932  154.1896 H   0  0  0  0  0  0  0  0  0  0  0  0
  148.7252  142.2240  154.7332 H   0  0  0  0  0  0  0  0  0  0  0  0
  149.1827  141.5690  153.1540 H   0  0  0  0  0  0  0  0  0  0  0  0
  146.4047  141.7150  154.3672 H   0  0  0  0  0  0  0  0  0  0  0  0
  146.8953  142.2122  152.7445 H   0  0  0  0  0  0  0  0  0  0  0  0
  145.7789  139.7578  153.0835 H   0  0  0  0  0  0  0  0  0  0  0  0
  147.2030  139.9180  152.0561 H   0  0  0  0  0  0  0  0  0  0  0  0
  148.1315  138.3527  153.5324 H   0  0  0  0  0  0  0  0  0  0  0  0
  147.0615  138.8353  154.8539 H   0  0  0  0  0  0  0  0  0  0  0  0
  149.5941  137.8761  153.8744 H   0  0  0  0  0  0  0  0  0  0  0  0
  1  2  1  0  0  0  0
  1 20  1  0  0  0  0
  1 21  1  0  0  0  0
  1 22  1  0  0  0  0
  2  3  1  0  0  0  0
  2  5  1  0  0  0  0
  2 23  1  0  0  0  0
  3  4  1  0  0  0  0
  3 24  1  0  0  0  0
  3 25  1  0  0  0  0
  4 26  1  0  0  0  0
  5  6  1  0  0  0  0
  5 27  1  0  0  0  0
  6  7  2  0  0  0  0
  6  8  1  0  0  0  0
  8  9  1  0  0  0  0
  8 28  1  0  0  0  0
  9 14  1  0  0  0  0
  9 10  2  0  0  0  0
 10 11  1  0  0  0  0
 10 29  1  0  0  0  0
 11 12  2  0  0  0  0
 11 30  1  0  0  0  0
 12 13  1  0  0  0  0
 12 31  1  0  0  0  0
 13 14  2  0  0  0  0
 13 40  1  0  0  0  0
 14 15  1  0  0  0  0
 15 19  1  0  0  0  0
 15 16  1  0  0  0  0
 16 17  1  0  0  0  0
 16 32  1  0  0  0  0
 16 33  1  0  0  0  0
 17 18  1  0  0  0  0
 17 34  1  0  0  0  0
 17 35  1  0  0  0  0
 18 19  1  0  0  0  0
 18 36  1  0  0  0  0
 18 37  1  0  0  0  0
 19 38  1  0  0  0  0
 19 39  1  0  0  0  0
M  CHG  1  13   1
M  END
> <s_m_source_file>
AV-unprocessed.smi

> <i_m_source_file_index>
317

> <i_lp_mmshare_version>
43012

> <i_f3d_flags>
0

> <s_epik_input>
W09IXVtDSDJdW0NAQEhdKFtDSDNdKVtOSF1DKD1PKVtOSF1jMVtjSF1bY0hdW2NIXW5jMU4yW0NIMl1bQ0gyXVtDSDJdW0NIMl0y

> <s_epik_cmdline>
J2VwaWtfcHl0aG9uJywgJy1waCcsICc3LjAnLCAnLXRuJywgJzgnLCAnLW1hJywgJzIwMCcsICctbWV0YWxfYmluZGluZycsICctaW1hZScsICc8aW5maWxlLm1hZT4nLCAnLW9tYWUnLCAnPG91dGZpbGUubWFlPic=

> <r_lp_tautomer_probability>
0.999994

> <r_epik_Ionization_Penalty>
1.11558

> <r_epik_Ionization_Penalty_Charging>
1.11556

> <r_epik_Ionization_Penalty_Neutral>
2.02999e-05

> <r_epik_State_Penalty>
1.17393

> <r_epik_Charging_Adjusted_Penalty>
2.28949

> <i_epik_Tot_Q>
1

> <i_epik_Tot_abs_Q>
1

> <r_epik_Metal_State_Penalty>
1.25924

> <b_epik_Metal_Only>
0

> <s_lp_Force_Field>
OPLS_2005

> <r_lp_Energy>
37.9657

> <b_lp_Chiralities_Consistent>
1

> <s_lp_Variant>
AV-unprocessed.smi:317-3

> <Gold.Version>
5.8.1

> <Gold.Id.Protein>
6NUR|6NUR_protein|mol2

> <Gold.PLP.Fitness>
43.4188

> <Gold.PLP.PLP>
-38.2838

> <Gold.PLP.part.hbond>
-2.0000

> <Gold.PLP.part.metal>
0.0000

> <Gold.PLP.part.buried>
-3.2686

> <Gold.PLP.part.nonpolar>
-33.3338

> <Gold.PLP.part.repulsive>
0.2999

> <Gold.PLP.ligand.clash>
0.0022

> <Gold.PLP.ligand.torsion>
0.6315

> <Gold.PLP.Chemscore.Hbond>
2.0000

> <Gold.PLP.Chemscore.CHOScore>
0.0000

> <Gold.PLP.Chemscore.Metal>
0.0000

> <Gold.Chemscore.Hbonds>
donor molecule, donor type, donor heavy atom, donor atom, acceptor molecule, acceptor atom, score
      L1  H     4    26       P1  8029  1.00
      L1  H     5    27       P1  8028  1.00

> <Gold.PLP.Chemscore.Internal.Correction>
0.4001

> <Gold.Rescore>
     Score         DG    S(hbond)    S(metal)    S(lipo)     H(rot)  DE(clash)    DE(int)     intcor
     13.28     -16.73       1.87        0.00      88.80       2.11       0.09       3.36       ----

> <Gold.Chemscore.Fitness>
13.2761

> <Gold.Chemscore.DG>
-16.7297

> <Gold.Chemscore.ZeroCoef>
-5.4800

> <Gold.Chemscore.Hbond>
1.8748

> <Gold.Chemscore.Metal>
0.0000

> <Gold.Chemscore.Lipo>
88.7987

> <Gold.Chemscore.Internal_Hbond>
0.0000

> <Gold.Chemscore.DEClash>
0.0934

> <Gold.Chemscore.DEInternal>
3.3602

> <Gold.Chemscore.Rot>
2.1099

> <Gold.Chemscore.Internal.Correction>
   9.000000E+99

> <Gold.Chemscore.Hbonds>
donor molecule, donor type, donor heavy atom, donor atom, acceptor molecule, acceptor atom, score
      L1  H     4    26       P1  8029  0.80
      L1  H     5    27       P1  8028  1.00

> <Gold.Chemscore.Hbond.Weighted>
-6.2617

> <Gold.Chemscore.Metal.Weighted>
-0.0000

> <Gold.Chemscore.Lipo.Weighted>
-10.3894

> <Gold.Chemscore.Internal_Hbond.Weighted>
0.0000

> <Gold.Chemscore.DEClash.Weighted>
0.0934

> <Gold.Chemscore.DEInternal.Weighted>
3.3602

> <Gold.Chemscore.Rot.Weighted>
5.4015

> <Gold.Chemscore.Internal.Correction.Weighted>
   9.000000E+99

> <Gold.Protein.RotatedTorsions>
[ 6907 6896 6895 6894 ] final   75.42 input  -60.11 | X-H torsion
[ 7974 7965 7964 7962 ] final  141.68 input  175.53 | X-H torsion
[ 8008 7997 7996 7995 ] final  108.03 input   59.86 | X-H torsion
[ 10167 10162 10161 10158 ] final -148.80 input  -65.29 | X-H torsion
[ 10718 10713 10712 10709 ] final   21.37 input   66.30 | X-H torsion
[ 10763 10752 10751 10750 ] final   64.52 input  -60.55 | X-H torsion
[ 11005 11000 10999 10996 ] final   11.29 input  -57.11 | X-H torsion

> <Gold.Protein.ActiveResidues>
 VAL166  LYS551  ARG553  GLY616  TRP617  ASP618  TYR619  PRO620  LYS621  CYS622 
 ASP623  PHE694  ASN695  SER759  ASP760  ASP761  ALA762  ILE779  LEU786  VAL792 
 PHE793  MET794  SER795  GLU796  ALA797  LYS798  CYS799  TRP800  GLU811  SER814 

> <Gold.Protein.RotatedAtoms>
  152.5025  134.4123  159.9452 H   0  0  0  0  0  0  0  0  0  0  0  0  # atno 6907 bound_to 6896
  151.4092  133.3726  159.2749 H   0  0  0  0  0  0  0  0  0  0  0  0  # atno 6908 bound_to 6896
  150.9304  134.8741  159.7607 H   0  0  0  0  0  0  0  0  0  0  0  0  # atno 6909 bound_to 6896
  144.9075  139.5338  143.5724 H   0  0  0  0  0  0  0  0  0  0  0  0  # atno 7974 bound_to 7965
  156.1871  140.3084  155.9260 H   0  0  0  0  0  0  0  0  0  0  0  0  # atno 8008 bound_to 7997
  155.3256  140.0458  157.3058 H   0  0  0  0  0  0  0  0  0  0  0  0  # atno 8009 bound_to 7997
  154.5409  140.2261  155.8653 H   0  0  0  0  0  0  0  0  0  0  0  0  # atno 8010 bound_to 7997
  139.7499  143.8534  152.2584 H   0  0  0  0  0  0  0  0  0  0  0  0  # atno 10167 bound_to 10162
  157.1375  130.6618  149.5970 H   0  0  0  0  0  0  0  0  0  0  0  0  # atno 10718 bound_to 10713
  153.0059  135.5390  154.6523 H   0  0  0  0  0  0  0  0  0  0  0  0  # atno 10763 bound_to 10752
  154.5752  135.2845  155.0790 H   0  0  0  0  0  0  0  0  0  0  0  0  # atno 10764 bound_to 10752
  154.1940  135.6495  153.5120 H   0  0  0  0  0  0  0  0  0  0  0  0  # atno 10765 bound_to 10752
  140.5049  134.0709  155.7803 H   0  0  0  0  0  0  0  0  0  0  0  0  # atno 11005 bound_to 11000
  146.3141  139.7854  142.8997 LP  0  0  0  0  0  0  0  0  0  0  0  0  # atno 17320 bound_to 7965
  145.3511  141.0307  143.3338 LP  0  0  0  0  0  0  0  0  0  0  0  0  # atno 17321 bound_to 7965
  139.8509  144.7165  150.9215 LP  0  0  0  0  0  0  0  0  0  0  0  0  # atno 17342 bound_to 10162
  140.7796  143.3900  151.1327 LP  0  0  0  0  0  0  0  0  0  0  0  0  # atno 17343 bound_to 10162
  155.9795  130.4789  150.6720 LP  0  0  0  0  0  0  0  0  0  0  0  0  # atno 17370 bound_to 10713
  157.4337  131.0852  151.1013 LP  0  0  0  0  0  0  0  0  0  0  0  0  # atno 17371 bound_to 10713
  141.1416  133.9128  157.2312 LP  0  0  0  0  0  0  0  0  0  0  0  0  # atno 17394 bound_to 11000
  139.9692  135.0133  156.9468 LP  0  0  0  0  0  0  0  0  0  0  0  0  # atno 17395 bound_to 11000

$$$$
