AV-unprocessed.smi:2874|AV-procd|sdf|11038|dock1
  -GOLD-   2272015503D 1   1.00000     0.00000
 Structure written by MMmdl.
 39 41  0  0  0  0  0  0  0  0  1 V2000
  157.2772  140.2479  159.3448 C   0  0  0  0  0  0  0  0  0  0  0  0
  156.0771  139.5402  159.0900 O   0  0  0  0  0  0  0  0  0  0  0  0
  155.1712  139.5946  160.1804 C   0  0  0  0  0  0  0  0  0  0  0  0
  153.8339  138.9608  159.7729 C   0  0  0  0  0  0  0  0  0  0  0  0
  152.9290  139.9306  159.1727 N   0  0  0  0  0  0  0  0  0  0  0  0
  152.0724  139.7416  158.1383 C   0  0  0  0  0  0  0  0  0  0  0  0
  151.9299  138.1740  157.3330 S   0  0  0  0  0  0  0  0  0  0  0  0
  152.1334  138.6987  155.6043 C   0  0  0  0  0  0  0  0  0  0  0  0
  150.8476  139.3261  155.1038 C   0  0  0  0  0  0  0  0  0  0  0  0
  150.6580  140.6180  155.3934 N   0  0  0  0  0  0  0  0  0  0  0  0
  149.5140  141.1813  154.9486 C   0  0  0  0  0  0  0  0  0  0  0  0
  148.5602  140.4456  154.2168 C   0  0  0  0  0  0  0  0  0  0  0  0
  148.8684  139.0914  153.9760 C   0  0  0  0  0  0  0  0  0  0  0  0
  147.9903  138.2756  153.2676 N   0  0  0  0  0  0  0  0  0  0  0  0
  150.0149  138.5336  154.4201 N   0  0  0  0  0  0  0  0  0  0  0  0
  151.3507  140.8090  157.7908 N   0  0  0  0  0  0  0  0  0  0  0  0
  151.7782  141.7749  158.6796 C   0  0  0  0  0  0  0  0  0  0  0  0
  151.3888  143.1252  158.8255 C   0  0  0  0  0  0  0  0  0  0  0  0
  151.9729  143.9326  159.8237 C   0  0  0  0  0  0  0  0  0  0  0  0
  151.4863  145.5794  159.9889 Cl  0  0  0  0  0  0  0  0  0  0  0  0
  152.9521  143.4010  160.6882 C   0  0  0  0  0  0  0  0  0  0  0  0
  153.3542  142.0577  160.5591 C   0  0  0  0  0  0  0  0  0  0  0  0
  152.7682  141.2571  159.5604 C   0  0  0  0  0  0  0  0  0  0  0  0
  157.9413  140.1633  158.4848 H   0  0  0  0  0  0  0  0  0  0  0  0
  157.7979  139.8428  160.2134 H   0  0  0  0  0  0  0  0  0  0  0  0
  157.0803  141.3069  159.5159 H   0  0  0  0  0  0  0  0  0  0  0  0
  155.5866  139.0599  161.0356 H   0  0  0  0  0  0  0  0  0  0  0  0
  155.0168  140.6303  160.4873 H   0  0  0  0  0  0  0  0  0  0  0  0
  154.0058  138.1553  159.0583 H   0  0  0  0  0  0  0  0  0  0  0  0
  153.3507  138.5013  160.6352 H   0  0  0  0  0  0  0  0  0  0  0  0
  152.9589  139.4078  155.5263 H   0  0  0  0  0  0  0  0  0  0  0  0
  152.3814  137.8361  154.9844 H   0  0  0  0  0  0  0  0  0  0  0  0
  149.3575  142.2243  155.1800 H   0  0  0  0  0  0  0  0  0  0  0  0
  147.6453  140.8987  153.8645 H   0  0  0  0  0  0  0  0  0  0  0  0
  147.1147  138.6276  152.9088 H   0  0  0  0  0  0  0  0  0  0  0  0
  148.1975  137.3015  153.1006 H   0  0  0  0  0  0  0  0  0  0  0  0
  150.6384  143.5397  158.1688 H   0  0  0  0  0  0  0  0  0  0  0  0
  153.3947  144.0236  161.4519 H   0  0  0  0  0  0  0  0  0  0  0  0
  154.1019  141.6469  161.2213 H   0  0  0  0  0  0  0  0  0  0  0  0
  1  2  1  0  0  0  0
  1 24  1  0  0  0  0
  1 25  1  0  0  0  0
  1 26  1  0  0  0  0
  2  3  1  0  0  0  0
  3  4  1  0  0  0  0
  3 27  1  0  0  0  0
  3 28  1  0  0  0  0
  4  5  1  0  0  0  0
  4 29  1  0  0  0  0
  4 30  1  0  0  0  0
  5 23  1  0  0  0  0
  5  6  1  0  0  0  0
  6  7  1  0  0  0  0
  6 16  2  0  0  0  0
  7  8  1  0  0  0  0
  8  9  1  0  0  0  0
  8 31  1  0  0  0  0
  8 32  1  0  0  0  0
  9 15  1  0  0  0  0
  9 10  2  0  0  0  0
 10 11  1  0  0  0  0
 11 12  2  0  0  0  0
 11 33  1  0  0  0  0
 12 13  1  0  0  0  0
 12 34  1  0  0  0  0
 13 14  1  0  0  0  0
 13 15  2  0  0  0  0
 14 35  1  0  0  0  0
 14 36  1  0  0  0  0
 16 17  1  0  0  0  0
 17 23  2  0  0  0  0
 17 18  1  0  0  0  0
 18 19  2  0  0  0  0
 18 37  1  0  0  0  0
 19 20  1  0  0  0  0
 19 21  1  0  0  0  0
 21 22  2  0  0  0  0
 21 38  1  0  0  0  0
 22 23  1  0  0  0  0
 22 39  1  0  0  0  0
M  END
> <s_m_source_file>
AV-unprocessed.smi

> <i_m_source_file_index>
2874

> <i_lp_mmshare_version>
43012

> <i_f3d_flags>
0

> <s_epik_input>
W2NIXTFjKENsKVtjSF1bY0hdYyhjMTIpbihbQ0gyXVtDSDJdT1tDSDNdKWMobjIpU1tDSDJdYzNuW2NIXVtjSF1jKG4zKVtOSDJd

> <s_epik_cmdline>
J2VwaWtfcHl0aG9uJywgJy1waCcsICc3LjAnLCAnLXRuJywgJzgnLCAnLW1hJywgJzIwMCcsICctbWV0YWxfYmluZGluZycsICctaW1hZScsICc8aW5maWxlLm1hZT4nLCAnLW9tYWUnLCAnPG91dGZpbGUubWFlPic=

> <r_lp_tautomer_probability>
1

> <r_epik_Ionization_Penalty>
0.0126717

> <r_epik_Ionization_Penalty_Charging>
0

> <r_epik_Ionization_Penalty_Neutral>
0.0126717

> <r_epik_State_Penalty>
0.00687269

> <r_epik_Charging_Adjusted_Penalty>
0.00687269

> <i_epik_Tot_Q>
0

> <i_epik_Tot_abs_Q>
0

> <r_epik_Metal_State_Penalty>
0.00678378

> <b_epik_Metal_Only>
0

> <s_lp_Force_Field>
OPLS_2005

> <r_lp_Energy>
1.60018

> <b_lp_Chiralities_Consistent>
1

> <s_lp_Variant>
AV-unprocessed.smi:2874-1

> <Gold.Version>
5.8.1

> <Gold.Id.Protein>
6NUR|6NUR_protein|mol2

> <Gold.PLP.Fitness>
55.2565

> <Gold.PLP.PLP>
-47.9890

> <Gold.PLP.part.hbond>
-4.0000

> <Gold.PLP.part.metal>
0.0000

> <Gold.PLP.part.buried>
-2.5887

> <Gold.PLP.part.nonpolar>
-40.7306

> <Gold.PLP.part.repulsive>
0.3562

> <Gold.PLP.ligand.clash>
0.0000

> <Gold.PLP.ligand.torsion>
0.9796

> <Gold.PLP.Chemscore.Hbond>
2.0000

> <Gold.PLP.Chemscore.CHOScore>
1.0000

> <Gold.PLP.Chemscore.Metal>
0.0000

> <Gold.Chemscore.Hbonds>
donor molecule, donor type, donor heavy atom, donor atom, acceptor molecule, acceptor atom, score
      L1  H    14    36       P1  7948  0.80
      P1  H  7989  7998       L1    10  0.06
      P1  H  7997  8009       L1     2  1.00
      L1  C    11    33       P1  8028  0.88

> <Gold.PLP.Chemscore.Internal.Correction>
0.2268

> <Gold.Rescore>
     Score         DG    S(hbond)    S(metal)    S(lipo)     H(rot)  DE(clash)    DE(int)     intcor
     15.70     -19.76       1.90        0.00     121.20       2.44       0.13       3.93       ----

> <Gold.Chemscore.Fitness>
15.6962

> <Gold.Chemscore.DG>
-19.7610

> <Gold.Chemscore.ZeroCoef>
-5.4800

> <Gold.Chemscore.Hbond>
1.9023

> <Gold.Chemscore.Metal>
0.0000

> <Gold.Chemscore.Lipo>
121.1994

> <Gold.Chemscore.Internal_Hbond>
0.0000

> <Gold.Chemscore.DEClash>
0.1335

> <Gold.Chemscore.DEInternal>
3.9312

> <Gold.Chemscore.Rot>
2.4426

> <Gold.Chemscore.Internal.Correction>
   9.000000E+99

> <Gold.Chemscore.Hbonds>
donor molecule, donor type, donor heavy atom, donor atom, acceptor molecule, acceptor atom, score
      L1  H    14    36       P1  7948  0.80
      P1  H  7997  8009       L1     2  0.25

> <Gold.Chemscore.Hbond.Weighted>
-6.3537

> <Gold.Chemscore.Metal.Weighted>
-0.0000

> <Gold.Chemscore.Lipo.Weighted>
-14.1803

> <Gold.Chemscore.Internal_Hbond.Weighted>
0.0000

> <Gold.Chemscore.DEClash.Weighted>
0.1335

> <Gold.Chemscore.DEInternal.Weighted>
3.9312

> <Gold.Chemscore.Rot.Weighted>
6.2531

> <Gold.Chemscore.Internal.Correction.Weighted>
   9.000000E+99

> <Gold.Protein.RotatedTorsions>
[ 6907 6896 6895 6894 ] final   50.03 input  -60.11 | X-H torsion
[ 7974 7965 7964 7962 ] final    3.12 input  175.53 | X-H torsion
[ 8008 7997 7996 7995 ] final   81.28 input   59.86 | X-H torsion
[ 10167 10162 10161 10158 ] final   -3.81 input  -65.29 | X-H torsion
[ 10718 10713 10712 10709 ] final   80.52 input   66.30 | X-H torsion
[ 10763 10752 10751 10750 ] final  142.75 input  -60.55 | X-H torsion
[ 11005 11000 10999 10996 ] final -148.10 input  -57.11 | X-H torsion

> <Gold.Protein.ActiveResidues>
 VAL166  LYS551  ARG553  GLY616  TRP617  ASP618  TYR619  PRO620  LYS621  CYS622 
 ASP623  PHE694  ASN695  SER759  ASP760  ASP761  ALA762  ILE779  LEU786  VAL792 
 PHE793  MET794  SER795  GLU796  ALA797  LYS798  CYS799  TRP800  GLU811  SER814 

> <Gold.Protein.RotatedAtoms>
  152.2973  134.7652  160.0365 H   0  0  0  0  0  0  0  0  0  0  0  0  # atno 6907 bound_to 6896
  151.8178  133.3385  159.3583 H   0  0  0  0  0  0  0  0  0  0  0  0  # atno 6908 bound_to 6896
  150.7257  134.5532  159.5849 H   0  0  0  0  0  0  0  0  0  0  0  0  # atno 6909 bound_to 6896
  146.2445  140.0732  142.8361 H   0  0  0  0  0  0  0  0  0  0  0  0  # atno 7974 bound_to 7965
  155.8950  140.3436  155.5984 H   0  0  0  0  0  0  0  0  0  0  0  0  # atno 8008 bound_to 7997
  155.7567  140.0827  157.2194 H   0  0  0  0  0  0  0  0  0  0  0  0  # atno 8009 bound_to 7997
  154.4037  140.1543  156.2773 H   0  0  0  0  0  0  0  0  0  0  0  0  # atno 8010 bound_to 7997
  140.6904  143.6497  150.8361 H   0  0  0  0  0  0  0  0  0  0  0  0  # atno 10167 bound_to 10162
  157.6808  130.9963  150.2091 H   0  0  0  0  0  0  0  0  0  0  0  0  # atno 10718 bound_to 10713
  153.9609  135.2960  155.3433 H   0  0  0  0  0  0  0  0  0  0  0  0  # atno 10763 bound_to 10752
  154.7375  135.5040  153.9070 H   0  0  0  0  0  0  0  0  0  0  0  0  # atno 10764 bound_to 10752
  153.0947  135.6718  153.9896 H   0  0  0  0  0  0  0  0  0  0  0  0  # atno 10765 bound_to 10752
  140.7647  134.3258  157.5092 H   0  0  0  0  0  0  0  0  0  0  0  0  # atno 11005 bound_to 11000
  145.0797  140.9213  143.4832 LP  0  0  0  0  0  0  0  0  0  0  0  0  # atno 17320 bound_to 7965
  145.0883  139.2909  143.5748 LP  0  0  0  0  0  0  0  0  0  0  0  0  # atno 17321 bound_to 7965
  140.0209  143.5543  152.2801 LP  0  0  0  0  0  0  0  0  0  0  0  0  # atno 17342 bound_to 10162
  139.6301  144.7643  151.2554 LP  0  0  0  0  0  0  0  0  0  0  0  0  # atno 17343 bound_to 10162
  156.2765  130.3728  149.7978 LP  0  0  0  0  0  0  0  0  0  0  0  0  # atno 17370 bound_to 10713
  156.5679  130.8412  151.3348 LP  0  0  0  0  0  0  0  0  0  0  0  0  # atno 17371 bound_to 10713
  139.8765  134.9224  156.3299 LP  0  0  0  0  0  0  0  0  0  0  0  0  # atno 17394 bound_to 11000
  140.9630  133.7376  156.0428 LP  0  0  0  0  0  0  0  0  0  0  0  0  # atno 17395 bound_to 11000

$$$$
