AV-unprocessed.smi:605|AV-procd|sdf|3039|dock3
  -GOLD-   2262023553D 1   1.00000     0.00000
 Structure written by MMmdl.
 35 36  0  0  0  0  0  0  0  0  1 V2000
  141.8807  142.4460  161.0119 C   0  0  0  0  0  0  0  0  0  0  0  0
  142.6648  143.6242  161.6083 C   0  0  0  0  0  0  0  0  0  0  0  0
  142.0183  144.9868  161.3206 C   0  0  0  0  0  0  0  0  0  0  0  0
  144.1111  143.5936  161.2224 C   0  0  0  0  0  0  0  0  0  0  0  0
  144.9338  142.5902  161.5552 N   0  0  0  0  0  0  0  0  0  0  0  0
  146.2224  142.7850  161.0810 N   0  0  0  0  0  0  0  0  0  0  0  0
  146.3420  143.9368  160.4056 C   0  0  0  0  0  0  0  0  0  0  0  0
  147.5440  144.3935  159.7900 N   0  0  0  0  0  0  0  0  0  0  0  0
  148.8032  144.5161  160.2622 C   0  0  0  0  0  0  0  0  0  0  0  0
  149.0773  144.1946  161.4171 O   0  0  0  0  0  0  0  0  0  0  0  0
  149.7174  144.9892  159.3991 N   0  0  0  0  0  0  0  0  0  0  0  0
  151.1361  145.2047  159.6726 C   0  0  0  0  0  0  0  0  0  0  0  0
  151.9513  145.2015  158.3639 C   0  0  0  0  0  0  0  0  0  0  0  0
  153.0752  144.1814  158.5619 C   0  0  0  0  0  0  0  0  0  0  0  0
  152.5152  143.1875  159.5745 C   0  0  0  0  0  0  0  0  0  0  0  0
  151.6959  144.0551  160.5289 C   0  0  0  0  0  0  0  0  0  0  0  0
  144.8635  144.8751  160.2789 S   0  0  0  0  0  0  0  0  0  0  0  0
  142.3158  141.4925  161.3128 H   0  0  0  0  0  0  0  0  0  0  0  0
  141.8776  142.4822  159.9220 H   0  0  0  0  0  0  0  0  0  0  0  0
  140.8429  142.4553  161.3460 H   0  0  0  0  0  0  0  0  0  0  0  0
  142.6334  143.4940  162.6908 H   0  0  0  0  0  0  0  0  0  0  0  0
  142.5513  145.7892  161.8317 H   0  0  0  0  0  0  0  0  0  0  0  0
  140.9828  145.0095  161.6612 H   0  0  0  0  0  0  0  0  0  0  0  0
  142.0220  145.2108  160.2535 H   0  0  0  0  0  0  0  0  0  0  0  0
  147.4368  144.6602  158.8222 H   0  0  0  0  0  0  0  0  0  0  0  0
  149.3994  145.2254  158.4698 H   0  0  0  0  0  0  0  0  0  0  0  0
  151.2942  146.1459  160.2017 H   0  0  0  0  0  0  0  0  0  0  0  0
  151.3306  144.8910  157.5216 H   0  0  0  0  0  0  0  0  0  0  0  0
  152.3430  146.1906  158.1243 H   0  0  0  0  0  0  0  0  0  0  0  0
  153.3786  143.7050  157.6291 H   0  0  0  0  0  0  0  0  0  0  0  0
  153.9510  144.6769  158.9827 H   0  0  0  0  0  0  0  0  0  0  0  0
  151.8604  142.4761  159.0694 H   0  0  0  0  0  0  0  0  0  0  0  0
  153.2948  142.6214  160.0849 H   0  0  0  0  0  0  0  0  0  0  0  0
  152.3565  144.4663  161.2933 H   0  0  0  0  0  0  0  0  0  0  0  0
  150.9243  143.4847  161.0479 H   0  0  0  0  0  0  0  0  0  0  0  0
  1  2  1  0  0  0  0
  1 18  1  0  0  0  0
  1 19  1  0  0  0  0
  1 20  1  0  0  0  0
  2  3  1  0  0  0  0
  2  4  1  0  0  0  0
  2 21  1  0  0  0  0
  3 22  1  0  0  0  0
  3 23  1  0  0  0  0
  3 24  1  0  0  0  0
  4 17  1  0  0  0  0
  4  5  2  0  0  0  0
  5  6  1  0  0  0  0
  6  7  2  0  0  0  0
  7  8  1  0  0  0  0
  7 17  1  0  0  0  0
  8  9  1  0  0  0  0
  8 25  1  0  0  0  0
  9 10  2  0  0  0  0
  9 11  1  0  0  0  0
 11 12  1  0  0  0  0
 11 26  1  0  0  0  0
 12 16  1  0  0  0  0
 12 13  1  0  0  0  0
 12 27  1  0  0  0  0
 13 14  1  0  0  0  0
 13 28  1  0  0  0  0
 13 29  1  0  0  0  0
 14 15  1  0  0  0  0
 14 30  1  0  0  0  0
 14 31  1  0  0  0  0
 15 16  1  0  0  0  0
 15 32  1  0  0  0  0
 15 33  1  0  0  0  0
 16 34  1  0  0  0  0
 16 35  1  0  0  0  0
M  END
> <s_m_source_file>
AV-unprocessed.smi

> <i_m_source_file_index>
605

> <i_lp_mmshare_version>
43012

> <i_f3d_flags>
0

> <s_epik_input>
W0NIM11bQ0hdKFtDSDNdKWMxbm5jKHMxKVtOSF1DKD1PKVtOSF1bQ0hdMltDSDJdW0NIMl1bQ0gyXVtDSDJdMg==

> <s_epik_cmdline>
J2VwaWtfcHl0aG9uJywgJy1waCcsICc3LjAnLCAnLXRuJywgJzgnLCAnLW1hJywgJzIwMCcsICctbWV0YWxfYmluZGluZycsICctaW1hZScsICc8aW5maWxlLm1hZT4nLCAnLW9tYWUnLCAnPG91dGZpbGUubWFlPic=

> <r_lp_tautomer_probability>
1

> <r_epik_Ionization_Penalty>
0.000375049

> <r_epik_Ionization_Penalty_Charging>
0

> <r_epik_Ionization_Penalty_Neutral>
0.000375049

> <r_epik_State_Penalty>
-0

> <r_epik_Charging_Adjusted_Penalty>
0

> <i_epik_Tot_Q>
0

> <i_epik_Tot_abs_Q>
0

> <r_epik_Metal_State_Penalty>
0.186879

> <b_epik_Metal_Only>
0

> <s_lp_Force_Field>
OPLS_2005

> <r_lp_Energy>
14.8416

> <b_lp_Chiralities_Consistent>
1

> <s_lp_Variant>
AV-unprocessed.smi:605-1

> <Gold.Version>
5.8.1

> <Gold.Id.Protein>
6NUR|6NUR_protein|mol2

> <Gold.PLP.Fitness>
42.8657

> <Gold.PLP.PLP>
-34.3313

> <Gold.PLP.part.hbond>
-4.5675

> <Gold.PLP.part.metal>
0.0000

> <Gold.PLP.part.buried>
-7.1829

> <Gold.PLP.part.nonpolar>
-24.3001

> <Gold.PLP.part.repulsive>
0.5661

> <Gold.PLP.ligand.clash>
0.0000

> <Gold.PLP.ligand.torsion>
0.8406

> <Gold.PLP.Chemscore.Hbond>
3.3776

> <Gold.PLP.Chemscore.CHOScore>
0.0000

> <Gold.PLP.Chemscore.Metal>
0.0000

> <Gold.Chemscore.Hbonds>
donor molecule, donor type, donor heavy atom, donor atom, acceptor molecule, acceptor atom, score
      L1  H     8    25       P1  8029  0.93
      L1  H    11    26       P1  8029  0.95
      P1  H  6933  6944       L1    10  0.53
      P1  H  6934  6946       L1     6  0.86

> <Gold.PLP.Chemscore.Internal.Correction>
0.0827

> <Gold.Rescore>
     Score         DG    S(hbond)    S(metal)    S(lipo)     H(rot)  DE(clash)    DE(int)     intcor
     19.74     -22.52       2.97        0.00      87.09       1.20       0.15       2.63       ----

> <Gold.Chemscore.Fitness>
19.7380

> <Gold.Chemscore.DG>
-22.5183

> <Gold.Chemscore.ZeroCoef>
-5.4800

> <Gold.Chemscore.Hbond>
2.9682

> <Gold.Chemscore.Metal>
0.0000

> <Gold.Chemscore.Lipo>
87.0876

> <Gold.Chemscore.Internal_Hbond>
0.0000

> <Gold.Chemscore.DEClash>
0.1478

> <Gold.Chemscore.DEInternal>
2.6325

> <Gold.Chemscore.Rot>
1.1971

> <Gold.Chemscore.Internal.Correction>
   9.000000E+99

> <Gold.Chemscore.Hbonds>
donor molecule, donor type, donor heavy atom, donor atom, acceptor molecule, acceptor atom, score
      L1  H     8    25       P1  8029  0.85
      L1  H    11    26       P1  8029  0.67
      P1  H  6933  6944       L1    10  0.21
      P1  H  6934  6946       L1     6  0.37

> <Gold.Chemscore.Hbond.Weighted>
-9.9138

> <Gold.Chemscore.Metal.Weighted>
-0.0000

> <Gold.Chemscore.Lipo.Weighted>
-10.1892

> <Gold.Chemscore.Internal_Hbond.Weighted>
0.0000

> <Gold.Chemscore.DEClash.Weighted>
0.1478

> <Gold.Chemscore.DEInternal.Weighted>
2.6325

> <Gold.Chemscore.Rot.Weighted>
3.0647

> <Gold.Chemscore.Internal.Correction.Weighted>
   9.000000E+99

> <Gold.Protein.RotatedTorsions>
[ 6907 6896 6895 6894 ] final  106.92 input  -60.11 | X-H torsion
[ 7974 7965 7964 7962 ] final -143.95 input  175.53 | X-H torsion
[ 8008 7997 7996 7995 ] final   49.47 input   59.86 | X-H torsion
[ 10167 10162 10161 10158 ] final  167.65 input  -65.29 | X-H torsion
[ 10718 10713 10712 10709 ] final   73.07 input   66.30 | X-H torsion
[ 10763 10752 10751 10750 ] final -175.32 input  -60.55 | X-H torsion
[ 11005 11000 10999 10996 ] final  150.28 input  -57.11 | X-H torsion

> <Gold.Protein.ActiveResidues>
 VAL166  LYS551  ARG553  GLY616  TRP617  ASP618  TYR619  PRO620  LYS621  CYS622 
 ASP623  PHE694  ASN695  SER759  ASP760  ASP761  ALA762  ILE779  LEU786  VAL792 
 PHE793  MET794  SER795  GLU796  ALA797  LYS798  CYS799  TRP800  GLU811  SER814 

> <Gold.Protein.RotatedAtoms>
  152.5175  133.9311  159.7580 H   0  0  0  0  0  0  0  0  0  0  0  0  # atno 6907 bound_to 6896
  150.9661  133.6385  159.2753 H   0  0  0  0  0  0  0  0  0  0  0  0  # atno 6908 bound_to 6896
  151.3613  135.0910  159.9488 H   0  0  0  0  0  0  0  0  0  0  0  0  # atno 6909 bound_to 6896
  144.8332  140.5771  143.5501 H   0  0  0  0  0  0  0  0  0  0  0  0  # atno 7974 bound_to 7965
  155.4028  140.3438  155.4258 H   0  0  0  0  0  0  0  0  0  0  0  0  # atno 8008 bound_to 7997
  156.1494  140.1566  156.8827 H   0  0  0  0  0  0  0  0  0  0  0  0  # atno 8009 bound_to 7997
  154.5039  140.0807  156.7835 H   0  0  0  0  0  0  0  0  0  0  0  0  # atno 8010 bound_to 7997
  139.4950  144.3899  151.9529 H   0  0  0  0  0  0  0  0  0  0  0  0  # atno 10167 bound_to 10162
  157.6531  130.9610  150.1018 H   0  0  0  0  0  0  0  0  0  0  0  0  # atno 10718 bound_to 10713
  154.5858  135.2840  155.0686 H   0  0  0  0  0  0  0  0  0  0  0  0  # atno 10763 bound_to 10752
  154.2005  135.6425  153.5089 H   0  0  0  0  0  0  0  0  0  0  0  0  # atno 10764 bound_to 10752
  153.0104  135.5468  154.6528 H   0  0  0  0  0  0  0  0  0  0  0  0  # atno 10765 bound_to 10752
  140.1117  134.8920  157.1946 H   0  0  0  0  0  0  0  0  0  0  0  0  # atno 11005 bound_to 11000
  145.4850  139.1492  143.3741 LP  0  0  0  0  0  0  0  0  0  0  0  0  # atno 17320 bound_to 7965
  146.2633  140.4987  142.8844 LP  0  0  0  0  0  0  0  0  0  0  0  0  # atno 17321 bound_to 7965
  140.3336  144.3287  150.5982 LP  0  0  0  0  0  0  0  0  0  0  0  0  # atno 17342 bound_to 10162
  140.5624  143.2190  151.7742 LP  0  0  0  0  0  0  0  0  0  0  0  0  # atno 17343 bound_to 10162
  156.1938  130.3656  149.8875 LP  0  0  0  0  0  0  0  0  0  0  0  0  # atno 17370 bound_to 10713
  156.6796  130.8853  151.3574 LP  0  0  0  0  0  0  0  0  0  0  0  0  # atno 17371 bound_to 10713
  140.3082  134.3054  155.7273 LP  0  0  0  0  0  0  0  0  0  0  0  0  # atno 17394 bound_to 11000
  141.2132  133.7634  156.9738 LP  0  0  0  0  0  0  0  0  0  0  0  0  # atno 17395 bound_to 11000

$$$$
