AV-unprocessed.smi:1174|AV-procd|sdf|4946|dock5
  -GOLD-   22720 3533D 1   1.00000     0.00000
 Structure written by MMmdl.
 41 42  0  0  0  0  0  0  0  0  1 V2000
  147.1179  140.2857  153.3211 C   0  0  0  0  0  0  0  0  0  0  0  0
  147.5672  138.9365  153.9002 C   0  0  2  0  0  0  0  0  0  0  0  0
  149.0932  138.8792  154.1098 C   0  0  0  0  0  0  0  0  0  0  0  0
  149.5631  139.9240  155.0047 N   0  0  0  0  0  0  0  0  0  0  0  0
  148.8181  140.8164  155.7463 C   0  0  0  0  0  0  0  0  0  0  0  0
  149.6947  141.5881  156.4542 C   0  0  0  0  0  0  0  0  0  0  0  0
  150.9708  141.0847  156.0755 C   0  0  0  0  0  0  0  0  0  0  0  0
  150.8890  140.0918  155.2048 N   0  0  0  0  0  0  0  0  0  0  0  0
  147.1511  137.8504  153.0172 N   0  0  0  0  0  0  0  0  0  0  0  0
  145.9875  137.1880  153.0865 C   0  0  0  0  0  0  0  0  0  0  0  0
  145.0669  137.5092  153.8385 O   0  0  0  0  0  0  0  0  0  0  0  0
  145.8636  135.9513  152.1892 C   0  0  2  0  0  0  0  0  0  0  0  0
  144.6338  136.0356  151.2567 C   0  0  0  0  0  0  0  0  0  0  0  0
  144.4428  134.7328  150.4559 C   0  0  0  0  0  0  0  0  0  0  0  0
  144.4579  133.5042  151.3847 C   0  0  0  0  0  0  0  0  0  0  0  0
  145.7132  133.5046  152.1558 N   0  0  0  0  0  0  0  0  0  0  0  0
  146.7776  132.6864  151.9591 C   0  0  0  0  0  0  0  0  0  0  0  0
  146.6302  131.7839  150.9842 N   0  0  0  0  0  0  0  0  0  0  0  0
  147.8034  132.7227  152.6371 O   0  0  0  0  0  0  0  0  0  0  0  0
  145.7892  134.6687  153.0464 C   0  0  0  0  0  0  0  0  0  0  0  0
  147.4082  141.1079  153.9758 H   0  0  0  0  0  0  0  0  0  0  0  0
  146.0339  140.3244  153.2081 H   0  0  0  0  0  0  0  0  0  0  0  0
  147.5622  140.4660  152.3416 H   0  0  0  0  0  0  0  0  0  0  0  0
  147.0932  138.8126  154.8759 H   0  0  0  0  0  0  0  0  0  0  0  0
  149.3915  137.9073  154.5072 H   0  0  0  0  0  0  0  0  0  0  0  0
  149.6076  138.9965  153.1553 H   0  0  0  0  0  0  0  0  0  0  0  0
  147.7387  140.8237  155.7129 H   0  0  0  0  0  0  0  0  0  0  0  0
  149.4606  142.3879  157.1410 H   0  0  0  0  0  0  0  0  0  0  0  0
  151.9470  141.4091  156.4046 H   0  0  0  0  0  0  0  0  0  0  0  0
  147.8440  137.5102  152.3660 H   0  0  0  0  0  0  0  0  0  0  0  0
  146.7576  135.8905  151.5649 H   0  0  0  0  0  0  0  0  0  0  0  0
  143.7329  136.2199  151.8438 H   0  0  0  0  0  0  0  0  0  0  0  0
  144.7341  136.8791  150.5723 H   0  0  0  0  0  0  0  0  0  0  0  0
  143.5064  134.7717  149.8988 H   0  0  0  0  0  0  0  0  0  0  0  0
  145.2394  134.6388  149.7167 H   0  0  0  0  0  0  0  0  0  0  0  0
  143.6150  133.5519  152.0756 H   0  0  0  0  0  0  0  0  0  0  0  0
  144.2995  132.5991  150.7989 H   0  0  0  0  0  0  0  0  0  0  0  0
  147.3796  131.1407  150.7759 H   0  0  0  0  0  0  0  0  0  0  0  0
  145.7686  131.7526  150.4590 H   0  0  0  0  0  0  0  0  0  0  0  0
  146.6415  134.6153  153.7266 H   0  0  0  0  0  0  0  0  0  0  0  0
  144.9057  134.6855  153.6868 H   0  0  0  0  0  0  0  0  0  0  0  0
  1  2  1  0  0  0  0
  1 21  1  0  0  0  0
  1 22  1  0  0  0  0
  1 23  1  0  0  0  0
  2  3  1  0  0  0  0
  2  9  1  0  0  0  0
  2 24  1  0  0  0  0
  3  4  1  0  0  0  0
  3 25  1  0  0  0  0
  3 26  1  0  0  0  0
  4  8  1  0  0  0  0
  4  5  1  0  0  0  0
  5  6  2  0  0  0  0
  5 27  1  0  0  0  0
  6  7  1  0  0  0  0
  6 28  1  0  0  0  0
  7  8  2  0  0  0  0
  7 29  1  0  0  0  0
  9 10  1  0  0  0  0
  9 30  1  0  0  0  0
 10 11  2  0  0  0  0
 10 12  1  0  0  0  0
 12 20  1  0  0  0  0
 12 13  1  0  0  0  0
 12 31  1  0  0  0  0
 13 14  1  0  0  0  0
 13 32  1  0  0  0  0
 13 33  1  0  0  0  0
 14 15  1  0  0  0  0
 14 34  1  0  0  0  0
 14 35  1  0  0  0  0
 15 16  1  0  0  0  0
 15 36  1  0  0  0  0
 15 37  1  0  0  0  0
 16 17  1  0  0  0  0
 16 20  1  0  0  0  0
 17 18  1  0  0  0  0
 17 19  2  0  0  0  0
 18 38  1  0  0  0  0
 18 39  1  0  0  0  0
 20 40  1  0  0  0  0
 20 41  1  0  0  0  0
M  END
> <s_m_source_file>
AV-unprocessed.smi

> <i_m_source_file_index>
1174

> <i_lp_mmshare_version>
43012

> <i_f3d_flags>
0

> <s_epik_input>
bjFbY0hdW2NIXVtjSF1uMVtDSDJdW0NAQEhdKFtDSDNdKVtOSF1DKD1PKVtDQEBIXTJbQ0gyXVtDSDJdW0NIMl1OKFtDSDJdMilDKD1PKVtOSDJd

> <s_epik_cmdline>
J2VwaWtfcHl0aG9uJywgJy1waCcsICc3LjAnLCAnLXRuJywgJzgnLCAnLW1hJywgJzIwMCcsICctbWV0YWxfYmluZGluZycsICctaW1hZScsICc8aW5maWxlLm1hZT4nLCAnLW9tYWUnLCAnPG91dGZpbGUubWFlPic=

> <r_lp_tautomer_probability>
1

> <r_epik_Ionization_Penalty>
0.000372452

> <r_epik_Ionization_Penalty_Charging>
0

> <r_epik_Ionization_Penalty_Neutral>
0.000372452

> <r_epik_State_Penalty>
-0

> <r_epik_Charging_Adjusted_Penalty>
0

> <i_epik_Tot_Q>
0

> <i_epik_Tot_abs_Q>
0

> <r_epik_Metal_State_Penalty>
-0

> <b_epik_Metal_Only>
0

> <s_lp_Force_Field>
OPLS_2005

> <r_lp_Energy>
26.8287

> <b_lp_Chiralities_Consistent>
1

> <s_lp_Variant>
AV-unprocessed.smi:1174-1

> <Gold.Version>
5.8.1

> <Gold.Id.Protein>
6NUR|6NUR_protein|mol2

> <Gold.PLP.Fitness>
38.8720

> <Gold.PLP.PLP>
-30.8290

> <Gold.PLP.part.hbond>
-3.0000

> <Gold.PLP.part.metal>
0.0000

> <Gold.PLP.part.buried>
-1.6347

> <Gold.PLP.part.nonpolar>
-25.7451

> <Gold.PLP.part.repulsive>
0.4439

> <Gold.PLP.ligand.clash>
0.0000

> <Gold.PLP.ligand.torsion>
0.4864

> <Gold.PLP.Chemscore.Hbond>
2.9760

> <Gold.PLP.Chemscore.CHOScore>
0.0000

> <Gold.PLP.Chemscore.Metal>
0.0000

> <Gold.Chemscore.Hbonds>
donor molecule, donor type, donor heavy atom, donor atom, acceptor molecule, acceptor atom, score
      L1  H     9    30       P1  7948  1.00
      L1  H    18    38       P1 10747  1.00
      P1  H  7989  7998       L1     8  1.00

> <Gold.PLP.Chemscore.Internal.Correction>
0.0877

> <Gold.Rescore>
     Score         DG    S(hbond)    S(metal)    S(lipo)     H(rot)  DE(clash)    DE(int)     intcor
     15.83     -17.20       2.76        0.00      61.20       1.82       0.69       0.68       ----

> <Gold.Chemscore.Fitness>
15.8317

> <Gold.Chemscore.DG>
-17.2043

> <Gold.Chemscore.ZeroCoef>
-5.4800

> <Gold.Chemscore.Hbond>
2.7617

> <Gold.Chemscore.Metal>
0.0000

> <Gold.Chemscore.Lipo>
61.2043

> <Gold.Chemscore.Internal_Hbond>
0.0000

> <Gold.Chemscore.DEClash>
0.6882

> <Gold.Chemscore.DEInternal>
0.6844

> <Gold.Chemscore.Rot>
1.8206

> <Gold.Chemscore.Internal.Correction>
   9.000000E+99

> <Gold.Chemscore.Hbonds>
donor molecule, donor type, donor heavy atom, donor atom, acceptor molecule, acceptor atom, score
      L1  H     9    30       P1  7948  0.95
      L1  H    18    38       P1 10747  0.94
      P1  H  7989  7998       L1     8  0.25

> <Gold.Chemscore.Hbond.Weighted>
-9.2241

> <Gold.Chemscore.Metal.Weighted>
-0.0000

> <Gold.Chemscore.Lipo.Weighted>
-7.1609

> <Gold.Chemscore.Internal_Hbond.Weighted>
0.0000

> <Gold.Chemscore.DEClash.Weighted>
0.6882

> <Gold.Chemscore.DEInternal.Weighted>
0.6844

> <Gold.Chemscore.Rot.Weighted>
4.6607

> <Gold.Chemscore.Internal.Correction.Weighted>
   9.000000E+99

> <Gold.Protein.RotatedTorsions>
[ 6907 6896 6895 6894 ] final  116.47 input  -60.11 | X-H torsion
[ 7974 7965 7964 7962 ] final   61.54 input  175.53 | X-H torsion
[ 8008 7997 7996 7995 ] final  135.48 input   59.86 | X-H torsion
[ 10167 10162 10161 10158 ] final   11.74 input  -65.29 | X-H torsion
[ 10718 10713 10712 10709 ] final  -86.76 input   66.30 | X-H torsion
[ 10763 10752 10751 10750 ] final -149.69 input  -60.55 | X-H torsion
[ 11005 11000 10999 10996 ] final  111.61 input  -57.11 | X-H torsion

> <Gold.Protein.ActiveResidues>
 VAL166  LYS551  ARG553  GLY616  TRP617  ASP618  TYR619  PRO620  LYS621  CYS622 
 ASP623  PHE694  ASN695  SER759  ASP760  ASP761  ALA762  ILE779  LEU786  VAL792 
 PHE793  MET794  SER795  GLU796  ALA797  LYS798  CYS799  TRP800  GLU811  SER814 

> <Gold.Protein.RotatedAtoms>
  152.4675  133.7956  159.6925 H   0  0  0  0  0  0  0  0  0  0  0  0  # atno 6907 bound_to 6896
  150.8647  133.7582  159.2987 H   0  0  0  0  0  0  0  0  0  0  0  0  # atno 6908 bound_to 6896
  151.5136  135.1069  159.9912 H   0  0  0  0  0  0  0  0  0  0  0  0  # atno 6909 bound_to 6896
  145.8836  139.3460  143.0691 H   0  0  0  0  0  0  0  0  0  0  0  0  # atno 7974 bound_to 7965
  156.3003  140.2469  156.3588 H   0  0  0  0  0  0  0  0  0  0  0  0  # atno 8008 bound_to 7997
  154.8896  140.0409  157.1850 H   0  0  0  0  0  0  0  0  0  0  0  0  # atno 8009 bound_to 7997
  154.8611  140.2920  155.5542 H   0  0  0  0  0  0  0  0  0  0  0  0  # atno 8010 bound_to 7997
  140.6112  143.8403  150.7068 H   0  0  0  0  0  0  0  0  0  0  0  0  # atno 10167 bound_to 10162
  155.9988  130.4776  150.4764 H   0  0  0  0  0  0  0  0  0  0  0  0  # atno 10718 bound_to 10713
  154.8162  135.3303  154.7168 H   0  0  0  0  0  0  0  0  0  0  0  0  # atno 10763 bound_to 10752
  153.7808  135.6918  153.4893 H   0  0  0  0  0  0  0  0  0  0  0  0  # atno 10764 bound_to 10752
  153.1981  135.4526  155.0181 H   0  0  0  0  0  0  0  0  0  0  0  0  # atno 10765 bound_to 10752
  139.8907  134.9511  156.6458 H   0  0  0  0  0  0  0  0  0  0  0  0  # atno 11005 bound_to 11000
  145.8994  140.9253  143.0511 LP  0  0  0  0  0  0  0  0  0  0  0  0  # atno 17320 bound_to 7965
  144.6728  140.1012  143.7460 LP  0  0  0  0  0  0  0  0  0  0  0  0  # atno 17321 bound_to 7965
  140.1972  143.3989  152.1819 LP  0  0  0  0  0  0  0  0  0  0  0  0  # atno 17342 bound_to 10162
  139.5363  144.7212  151.4882 LP  0  0  0  0  0  0  0  0  0  0  0  0  # atno 17343 bound_to 10162
  157.2774  131.0600  151.2220 LP  0  0  0  0  0  0  0  0  0  0  0  0  # atno 17370 bound_to 10713
  157.3279  130.6970  149.6307 LP  0  0  0  0  0  0  0  0  0  0  0  0  # atno 17371 bound_to 10713
  140.7559  133.8858  155.8381 LP  0  0  0  0  0  0  0  0  0  0  0  0  # atno 17394 bound_to 11000
  140.9962  134.1211  157.4361 LP  0  0  0  0  0  0  0  0  0  0  0  0  # atno 17395 bound_to 11000

$$$$
