#       Name:                AV-unprocessed.smi:1754
#       Creating user name   scv26
#       Creation time:       Fri Mar 27 08:28:34 2020


#       File generated by GOLD software.
#

@<TRIPOS>MOLECULE
AV-unprocessed.smi:1754
    47    48     1
SMALL
NO_CHARGES


@<TRIPOS>ATOM
      1 ****        -4.8009  -2.5505   0.7253 C.3            1 S1                 0.0000
      2 ****        -4.7653  -1.5006  -0.3947 C.3            1 S1                 0.0000
      3 ****        -4.2148  -0.2202   0.0534 N.pl3          1 S1                 0.0000
      4 ****        -5.0838   0.6318   0.8668 C.3            1 S1                 0.0000
      5 ****        -4.9385   2.1263   0.5389 C.3            1 S1                 0.0000
      6 ****        -2.8104  -0.1640   0.2243 C.ar           1 S1                 0.0000
      7 ****        -2.2079   0.4454   1.3536 C.ar           1 S1                 0.0000
      8 ****        -0.8041   0.4660   1.4623 C.ar           1 S1                 0.0000
      9 ****        -0.0289  -0.1314   0.4423 C.ar           1 S1                 0.0000
     10 ****         1.3908  -0.1583   0.4176 N.am           1 S1                 0.0000
     11 ****         2.2626   0.0474   1.4240 C.2            1 S1                 0.0000
     12 ****         1.9490   0.2138   2.6004 O.2            1 S1                 0.0000
     13 ****         3.5537   0.0224   1.0453 N.am           1 S1                 0.0000
     14 ****         4.7430   0.2080   1.8791 C.3            1 S1                 0.0000
     15 ****         5.0515  -1.0323   2.7450 C.3            1 S1                 0.0000
     16 ****         6.4802  -0.9136   3.2899 C.3            1 S1                 0.0000
     17 ****         7.4196   0.0626   2.0548 S.o2           1 S1                 0.0000
     18 ****         7.9252   1.2829   2.7015 O.2            1 S1                 0.0000
     19 ****         8.3188  -0.8243   1.3017 O.2            1 S1                 0.0000
     20 ****         5.9760   0.4837   1.0092 C.3            1 S1                 0.0000
     21 ****        -0.7149  -0.7050  -0.6452 C.ar           1 S1                 0.0000
     22 ****        -2.0589  -0.7268  -0.7525 N.ar           1 S1                 0.0000
     23 ****        -5.2326  -3.4837   0.3638 H              1 S1                 0.0000
     24 ****        -5.4028  -2.2121   1.5691 H              1 S1                 0.0000
     25 ****        -3.7988  -2.7712   1.0942 H              1 S1                 0.0000
     26 ****        -4.2127  -1.8869  -1.2511 H              1 S1                 0.0000
     27 ****        -5.7785  -1.3326  -0.7608 H              1 S1                 0.0000
     28 ****        -6.1213   0.3434   0.6949 H              1 S1                 0.0000
     29 ****        -4.9021   0.4494   1.9259 H              1 S1                 0.0000
     30 ****        -5.6364   2.7175   1.1319 H              1 S1                 0.0000
     31 ****        -5.1553   2.3178  -0.5124 H              1 S1                 0.0000
     32 ****        -3.9367   2.5017   0.7449 H              1 S1                 0.0000
     33 ****        -2.7915   0.8962   2.1410 H              1 S1                 0.0000
     34 ****        -0.3568   0.9496   2.3165 H              1 S1                 0.0000
     35 ****         1.7992  -0.3807  -0.4783 H              1 S1                 0.0000
     36 ****         3.7285  -0.1830   0.0720 H              1 S1                 0.0000
     37 ****         4.6069   1.0698   2.5351 H              1 S1                 0.0000
     38 ****         4.3306  -1.1598   3.5530 H              1 S1                 0.0000
     39 ****         4.9892  -1.9263   2.1228 H              1 S1                 0.0000
     40 ****         6.4916  -0.3645   4.2316 H              1 S1                 0.0000
     41 ****         6.9553  -1.8823   3.4458 H              1 S1                 0.0000
     42 ****         5.9989  -0.1690   0.1358 H              1 S1                 0.0000
     43 ****         6.0429   1.5187   0.6734 H              1 S1                 0.0000
     44 ****        -0.1697  -1.1642  -1.4569 H              1 S1                 0.0000
     45 ****         0.9854   0.2020   2.8675 LP             1 S1                 0.0000
     46 ****         2.6574   0.3610   3.2907 LP             1 S1                 0.0000
     47 ****        -2.4961  -1.1536  -1.5442 LP             1 S1                 0.0000
@<TRIPOS>BOND
    1    1    2 1     
    2    1   23 1     
    3    1   24 1     
    4    1   25 1     
    5    2    3 1     
    6    2   26 1     
    7    2   27 1     
    8    3    4 1     
    9    3    6 1     
   10    4    5 1     
   11    4   28 1     
   12    4   29 1     
   13    5   30 1     
   14    5   31 1     
   15    5   32 1     
   16    6   22 ar    
   17    6    7 ar    
   18    7    8 ar    
   19    7   33 1     
   20    8    9 ar    
   21    8   34 1     
   22    9   10 1     
   23    9   21 ar    
   24   10   11 am    
   25   10   35 1     
   26   11   12 2     
   27   11   13 am    
   28   13   14 1     
   29   13   36 1     
   30   14   20 1     
   31   14   15 1     
   32   14   37 1     
   33   15   16 1     
   34   15   38 1     
   35   15   39 1     
   36   16   17 1     
   37   16   40 1     
   38   16   41 1     
   39   17   18 2     
   40   17   19 2     
   41   17   20 1     
   42   20   42 1     
   43   20   43 1     
   44   21   22 ar    
   45   21   44 1     
   46   12   45 1     
   47   12   46 1     
   48   22   47 1     
@<TRIPOS>SUBSTRUCTURE
      1 S1             1
@<TRIPOS>SET
LONE_PAIRS      STATIC     ATOMS    <user>   **** ""
5 45 46 18 19 47
DONOR_HYDROGENS      STATIC     ATOMS    <user>   **** ""
2 35 36
ATOM$BLUE        STATIC     ATOMS    COLORGROUP SYSTEM
5 45 46 18 19 47
ATOM$RED        STATIC     ATOMS    COLORGROUP SYSTEM
2 35 36
