#       Name:                AV-unprocessed.smi:266
#       Creating user name   scv26
#       Creation time:       Thu Mar 26 21:24:28 2020


#       File generated by GOLD software.
#

@<TRIPOS>MOLECULE
AV-unprocessed.smi:266
    59    62     1
SMALL
NO_CHARGES


@<TRIPOS>ATOM
      1 ****        -6.2551   1.1834  -0.3344 C.3            1 S1                 0.0000
      2 ****        -5.4276   2.4331   0.0050 C.3            1 S1                 0.0000
      3 ****        -5.6485   2.7340   1.3806 O.3            1 S1                 0.0000
      4 ****        -4.4804   3.3329   1.9135 C.3            1 S1                 0.0000
      5 ****        -3.3710   2.5219   1.2620 C.3            1 S1                 0.0000
      6 ****        -3.8851   2.3190  -0.1607 C.3            1 S1                 0.0000
      7 ****        -3.4551   3.4245  -0.9383 O.3            1 S1                 0.0000
      8 ****        -3.3563   1.0258  -0.8355 C.3            1 S1                 0.0000
      9 ****        -1.9035   0.9522  -0.8913 N.pl3          1 S1                 0.0000
     10 ****        -1.0881   1.5036  -1.8509 C.2            1 S1                 0.0000
     11 ****         0.1875   1.2963  -1.6784 N.2            1 S1                 0.0000
     12 ****         0.2692   0.5360  -0.5150 C.ar           1 S1                 0.0000
     13 ****         1.3393  -0.0377   0.2433 C.ar           1 S1                 0.0000
     14 ****         2.6669   0.0614  -0.0668 N.pl3          1 S1                 0.0000
     15 ****         3.0830   0.6848  -1.3176 C.3            1 S1                 0.0000
     16 ****         3.6723  -0.6657   0.7142 C.3            1 S1                 0.0000
     17 ****         3.7851  -2.1536   0.3222 C.3            1 S1                 0.0000
     18 ****         4.6906  -2.9365   1.2924 C.3            1 S1                 0.0000
     19 ****         4.9662  -4.3208   0.6974 C.3            1 S1                 0.0000
     20 ****         5.0411  -4.0694  -1.1144 S.o2           1 S1                 0.0000
     21 ****         6.4464  -3.9890  -1.5410 O.2            1 S1                 0.0000
     22 ****         4.1037  -4.9963  -1.7661 O.2            1 S1                 0.0000
     23 ****         4.3267  -2.3812  -1.0997 C.3            1 S1                 0.0000
     24 ****         0.9869  -0.7294   1.3614 N.ar           1 S1                 0.0000
     25 ****        -0.2926  -0.8644   1.7163 C.ar           1 S1                 0.0000
     26 ****        -1.3785  -0.3920   1.1070 N.ar           1 S1                 0.0000
     27 ****        -1.0475   0.3112  -0.0123 C.ar           1 S1                 0.0000
     28 ****        -6.1402   0.9000  -1.3808 H              1 S1                 0.0000
     29 ****        -7.3157   1.3676  -0.1622 H              1 S1                 0.0000
     30 ****        -5.9683   0.3331   0.2849 H              1 S1                 0.0000
     31 ****        -5.8125   3.2694  -0.5818 H              1 S1                 0.0000
     32 ****        -4.4315   4.3812   1.6150 H              1 S1                 0.0000
     33 ****        -4.4604   3.2791   3.0020 H              1 S1                 0.0000
     34 ****        -2.3943   3.0051   1.3155 H              1 S1                 0.0000
     35 ****        -3.2959   1.5623   1.7747 H              1 S1                 0.0000
     36 ****        -3.8596   3.3669  -1.7903 H              1 S1                 0.0000
     37 ****        -3.7112   0.1440  -0.3019 H              1 S1                 0.0000
     38 ****        -3.7386   0.9442  -1.8538 H              1 S1                 0.0000
     39 ****        -1.4709   2.0723  -2.6857 H              1 S1                 0.0000
     40 ****         2.8084   1.7396  -1.3314 H              1 S1                 0.0000
     41 ****         2.6223   0.1863  -2.1708 H              1 S1                 0.0000
     42 ****         4.1638   0.6277  -1.4468 H              1 S1                 0.0000
     43 ****         4.6408  -0.1809   0.5856 H              1 S1                 0.0000
     44 ****         3.4532  -0.5734   1.7786 H              1 S1                 0.0000
     45 ****         2.7966  -2.6120   0.3761 H              1 S1                 0.0000
     46 ****         5.6374  -2.4069   1.4067 H              1 S1                 0.0000
     47 ****         4.2467  -3.0133   2.2854 H              1 S1                 0.0000
     48 ****         5.8935  -4.7660   1.0578 H              1 S1                 0.0000
     49 ****         4.1430  -5.0034   0.9094 H              1 S1                 0.0000
     50 ****         3.5568  -2.2936  -1.8665 H              1 S1                 0.0000
     51 ****         5.1298  -1.6815  -1.3320 H              1 S1                 0.0000
     52 ****        -0.4709  -1.4318   2.6179 H              1 S1                 0.0000
     53 ****        -5.8514   1.8917   1.8800 LP             1 S1                 0.0000
     54 ****        -6.4186   3.3661   1.4664 LP             1 S1                 0.0000
     55 ****        -2.4600   3.4023  -1.0350 LP             1 S1                 0.0000
     56 ****        -3.7276   4.2770  -0.4923 LP             1 S1                 0.0000
     57 ****         0.9409   1.6134  -2.2545 LP             1 S1                 0.0000
     58 ****         1.6997  -1.1440   1.9272 LP             1 S1                 0.0000
     59 ****        -2.3144  -0.5347   1.4289 LP             1 S1                 0.0000
@<TRIPOS>BOND
    1    1    2 1     
    2    1   28 1     
    3    1   29 1     
    4    1   30 1     
    5    2    6 1     
    6    2    3 1     
    7    2   31 1     
    8    3    4 1     
    9    4    5 1     
   10    4   32 1     
   11    4   33 1     
   12    5    6 1     
   13    5   34 1     
   14    5   35 1     
   15    6    7 1     
   16    6    8 1     
   17    7   36 1     
   18    8    9 1     
   19    8   37 1     
   20    8   38 1     
   21    9   27 1     
   22    9   10 1     
   23   10   11 2     
   24   10   39 1     
   25   11   12 1     
   26   12   27 ar    
   27   12   13 ar    
   28   13   14 1     
   29   13   24 ar    
   30   14   15 1     
   31   14   16 1     
   32   15   40 1     
   33   15   41 1     
   34   15   42 1     
   35   16   17 1     
   36   16   43 1     
   37   16   44 1     
   38   17   23 1     
   39   17   18 1     
   40   17   45 1     
   41   18   19 1     
   42   18   46 1     
   43   18   47 1     
   44   19   20 1     
   45   19   48 1     
   46   19   49 1     
   47   20   21 2     
   48   20   22 2     
   49   20   23 1     
   50   23   50 1     
   51   23   51 1     
   52   24   25 ar    
   53   25   26 ar    
   54   25   52 1     
   55   26   27 ar    
   56    3   53 1     
   57    3   54 1     
   58    7   55 1     
   59    7   56 1     
   60   11   57 1     
   61   24   58 1     
   62   26   59 1     
@<TRIPOS>SUBSTRUCTURE
      1 S1             1
@<TRIPOS>SET
LONE_PAIRS      STATIC     ATOMS    <user>   **** ""
9 53 54 55 56 57 21 22 58 59
DONOR_HYDROGENS      STATIC     ATOMS    <user>   **** ""
1 36
ATOM$BLUE        STATIC     ATOMS    COLORGROUP SYSTEM
9 53 54 55 56 57 21 22 58 59
ATOM$RED        STATIC     ATOMS    COLORGROUP SYSTEM
1 36
