AV-unprocessed.smi:1830|AV-procd|sdf|7452|dock9
  -GOLD-   22720 9143D 1   1.00000     0.00000
 Structure written by MMmdl.
 53 56  0  0  0  0  0  0  0  0  2 V2000
  150.2602  140.3480  154.4098 O   0  0  0  0  0  0  0  0  0  0  0  0
  150.1694  139.4560  155.2528 C   0  0  0  0  0  0  0  0  0  0  0  0
  150.9490  139.3829  156.3403 N   0  0  0  0  0  0  0  0  0  0  0  0
  151.9810  140.3511  156.6960 C   0  0  0  0  0  0  0  0  0  0  0  0
  152.0768  140.5511  158.2185 C   0  0  2  0  0  0  0  0  0  0  0  0
  151.8041  142.0162  158.6279 C   0  0  0  0  0  0  0  0  0  0  0  0
  152.0131  142.1733  160.0542 N   0  0  0  0  0  0  0  0  0  0  0  0
  151.8716  143.5050  160.5947 C   0  0  0  0  0  0  0  0  0  0  0  0
  152.5400  143.4254  161.9786 C   0  0  0  0  0  0  0  0  0  0  0  0
  153.4556  142.1837  161.8939 C   0  0  0  0  0  0  0  0  0  0  0  0
  153.3486  141.7860  160.4208 C   0  0  1  0  0  0  0  0  0  0  0  0
  153.6084  140.3168  160.0574 C   0  0  0  0  0  0  0  0  0  0  0  0
  153.3875  140.1645  158.6527 O   0  0  0  0  0  0  0  0  0  0  0  0
  149.2791  138.4504  155.2253 N   0  0  0  0  0  0  0  0  0  0  0  0
  148.2247  138.2288  154.2935 C   0  0  0  0  0  0  0  0  0  0  0  0
  147.7550  139.2662  153.4466 C   0  0  0  0  0  0  0  0  0  0  0  0
  146.6905  139.0228  152.5587 C   0  0  0  0  0  0  0  0  0  0  0  0
  146.1126  137.7427  152.5253 C   0  0  0  0  0  0  0  0  0  0  0  0
  146.5963  136.7706  153.3254 N   0  3  0  0  0  0  0  0  0  0  0  0
  147.6284  136.9375  154.1900 C   0  0  0  0  0  0  0  0  0  0  0  0
  148.0339  135.8176  154.9526 N   0  0  0  0  0  0  0  0  0  0  0  0
  147.2129  134.6125  154.9871 C   0  0  0  0  0  0  0  0  0  0  0  0
  148.1124  133.5363  155.5883 C   0  0  0  0  0  0  0  0  0  0  0  0
  149.4850  133.9124  155.0394 C   0  0  0  0  0  0  0  0  0  0  0  0
  149.4445  135.4428  154.9752 C   0  0  0  0  0  0  0  0  0  0  0  0
  150.8045  138.6194  156.9846 H   0  0  0  0  0  0  0  0  0  0  0  0
  152.9349  139.9956  156.3054 H   0  0  0  0  0  0  0  0  0  0  0  0
  151.7777  141.3017  156.2001 H   0  0  0  0  0  0  0  0  0  0  0  0
  151.3464  139.9100  158.7151 H   0  0  0  0  0  0  0  0  0  0  0  0
  152.4678  142.6851  158.0777 H   0  0  0  0  0  0  0  0  0  0  0  0
  150.7828  142.2965  158.3688 H   0  0  0  0  0  0  0  0  0  0  0  0
  152.4015  144.2242  159.9679 H   0  0  0  0  0  0  0  0  0  0  0  0
  150.8258  143.8089  160.6492 H   0  0  0  0  0  0  0  0  0  0  0  0
  153.1016  144.3344  162.1952 H   0  0  0  0  0  0  0  0  0  0  0  0
  151.7960  143.2953  162.7654 H   0  0  0  0  0  0  0  0  0  0  0  0
  154.4831  142.3964  162.1897 H   0  0  0  0  0  0  0  0  0  0  0  0
  153.0732  141.3902  162.5373 H   0  0  0  0  0  0  0  0  0  0  0  0
  154.0587  142.3992  159.8615 H   0  0  0  0  0  0  0  0  0  0  0  0
  154.6342  140.0354  160.2953 H   0  0  0  0  0  0  0  0  0  0  0  0
  152.9478  139.6495  160.6133 H   0  0  0  0  0  0  0  0  0  0  0  0
  149.2795  137.8432  156.0315 H   0  0  0  0  0  0  0  0  0  0  0  0
  148.1978  140.2504  153.4584 H   0  0  0  0  0  0  0  0  0  0  0  0
  146.3222  139.8088  151.9156 H   0  0  0  0  0  0  0  0  0  0  0  0
  145.2905  137.4647  151.8816 H   0  0  0  0  0  0  0  0  0  0  0  0
  146.3089  134.7615  155.5782 H   0  0  0  0  0  0  0  0  0  0  0  0
  146.9209  134.3213  153.9773 H   0  0  0  0  0  0  0  0  0  0  0  0
  148.1124  133.6131  156.6766 H   0  0  0  0  0  0  0  0  0  0  0  0
  147.8051  132.5256  155.3186 H   0  0  0  0  0  0  0  0  0  0  0  0
  150.3059  133.5356  155.6500 H   0  0  0  0  0  0  0  0  0  0  0  0
  149.6004  133.5058  154.0339 H   0  0  0  0  0  0  0  0  0  0  0  0
  149.9851  135.8167  154.1044 H   0  0  0  0  0  0  0  0  0  0  0  0
  149.9047  135.8641  155.8696 H   0  0  0  0  0  0  0  0  0  0  0  0
  146.1627  135.8489  153.2702 H   0  0  0  0  0  0  0  0  0  0  0  0
  1  2  2  0  0  0  0
  2  3  1  0  0  0  0
  2 14  1  0  0  0  0
  3  4  1  0  0  0  0
  3 26  1  0  0  0  0
  4  5  1  0  0  0  0
  4 27  1  0  0  0  0
  4 28  1  0  0  0  0
  5 13  1  0  0  0  0
  5  6  1  0  0  0  0
  5 29  1  0  0  0  0
  6  7  1  0  0  0  0
  6 30  1  0  0  0  0
  6 31  1  0  0  0  0
  7 11  1  0  0  0  0
  7  8  1  0  0  0  0
  8  9  1  0  0  0  0
  8 32  1  0  0  0  0
  8 33  1  0  0  0  0
  9 10  1  0  0  0  0
  9 34  1  0  0  0  0
  9 35  1  0  0  0  0
 10 11  1  0  0  0  0
 10 36  1  0  0  0  0
 10 37  1  0  0  0  0
 11 12  1  0  0  0  0
 11 38  1  0  0  0  0
 12 13  1  0  0  0  0
 12 39  1  0  0  0  0
 12 40  1  0  0  0  0
 14 15  1  0  0  0  0
 14 41  1  0  0  0  0
 15 20  1  0  0  0  0
 15 16  2  0  0  0  0
 16 17  1  0  0  0  0
 16 42  1  0  0  0  0
 17 18  2  0  0  0  0
 17 43  1  0  0  0  0
 18 19  1  0  0  0  0
 18 44  1  0  0  0  0
 19 20  2  0  0  0  0
 19 53  1  0  0  0  0
 20 21  1  0  0  0  0
 21 25  1  0  0  0  0
 21 22  1  0  0  0  0
 22 23  1  0  0  0  0
 22 45  1  0  0  0  0
 22 46  1  0  0  0  0
 23 24  1  0  0  0  0
 23 47  1  0  0  0  0
 23 48  1  0  0  0  0
 24 25  1  0  0  0  0
 24 49  1  0  0  0  0
 24 50  1  0  0  0  0
 25 51  1  0  0  0  0
 25 52  1  0  0  0  0
M  CHG  1  19   1
M  END
> <s_m_source_file>
AV-unprocessed.smi

> <i_m_source_file_index>
1830

> <i_lp_mmshare_version>
43012

> <i_f3d_flags>
0

> <s_epik_input>
W0NIMl0xW0NIMl1bQ0gyXVtDQEhdKE4xMilbQ0gyXU9bQ0BASF0oW0NIMl0yKVtDSDJdW05IXUMoPU8pW05IXWMzW2NIXVtjSF1bY0hdbmMzTjRbQ0gyXVtDSDJdW0NIMl1bQ0gyXTQ=

> <s_epik_cmdline>
J2VwaWtfcHl0aG9uJywgJy1waCcsICc3LjAnLCAnLXRuJywgJzgnLCAnLW1hJywgJzIwMCcsICctbWV0YWxfYmluZGluZycsICctaW1hZScsICc8aW5maWxlLm1hZT4nLCAnLW9tYWUnLCAnPG91dGZpbGUubWFlPic=

> <r_epik_Ionization_Penalty>
2.19264

> <r_epik_Ionization_Penalty_Charging>
1.12452

> <r_epik_Ionization_Penalty_Neutral>
1.06812

> <r_epik_State_Penalty>
2.334

> <r_epik_Charging_Adjusted_Penalty>
3.45852

> <i_epik_Tot_Q>
1

> <i_epik_Tot_abs_Q>
1

> <r_epik_Metal_State_Penalty>
2.41144

> <b_epik_Metal_Only>
0

> <s_lp_Force_Field>
OPLS_2005

> <r_lp_Energy>
81.6261

> <b_lp_Chiralities_Consistent>
1

> <s_lp_Variant>
AV-unprocessed.smi:1830-21

> <Gold.Version>
5.8.1

> <Gold.Id.Protein>
6NUR|6NUR_protein|mol2

> <Gold.PLP.Fitness>
41.9843

> <Gold.PLP.PLP>
-38.0330

> <Gold.PLP.part.hbond>
-3.0000

> <Gold.PLP.part.metal>
0.0000

> <Gold.PLP.part.buried>
-0.4237

> <Gold.PLP.part.nonpolar>
-34.1512

> <Gold.PLP.part.repulsive>
0.2931

> <Gold.PLP.ligand.clash>
0.0000

> <Gold.PLP.ligand.torsion>
1.1843

> <Gold.PLP.Chemscore.Hbond>
1.9760

> <Gold.PLP.Chemscore.CHOScore>
0.0000

> <Gold.PLP.Chemscore.Metal>
0.0000

> <Gold.Chemscore.Hbonds>
donor molecule, donor type, donor heavy atom, donor atom, acceptor molecule, acceptor atom, score
      P1  H  7989  7998       L1     1  0.99
      P1  H  7997  8010       L1    13  0.98

> <Gold.PLP.Chemscore.Internal.Correction>
0.3920

> <Gold.Rescore>
     Score         DG    S(hbond)    S(metal)    S(lipo)     H(rot)  DE(clash)    DE(int)     intcor
     17.66     -20.87       1.79        0.00     110.84       1.40       0.10       3.11       ----

> <Gold.Chemscore.Fitness>
17.6580

> <Gold.Chemscore.DG>
-20.8661

> <Gold.Chemscore.ZeroCoef>
-5.4800

> <Gold.Chemscore.Hbond>
1.7937

> <Gold.Chemscore.Metal>
0.0000

> <Gold.Chemscore.Lipo>
110.8434

> <Gold.Chemscore.Internal_Hbond>
0.0000

> <Gold.Chemscore.DEClash>
0.0977

> <Gold.Chemscore.DEInternal>
3.1104

> <Gold.Chemscore.Rot>
1.3959

> <Gold.Chemscore.Internal.Correction>
   9.000000E+99

> <Gold.Chemscore.Hbonds>
donor molecule, donor type, donor heavy atom, donor atom, acceptor molecule, acceptor atom, score
      P1  H  7989  7998       L1     1  0.94
      P1  H  7997  8010       L1    13  0.69

> <Gold.Chemscore.Hbond.Weighted>
-5.9910

> <Gold.Chemscore.Metal.Weighted>
-0.0000

> <Gold.Chemscore.Lipo.Weighted>
-12.9687

> <Gold.Chemscore.Internal_Hbond.Weighted>
0.0000

> <Gold.Chemscore.DEClash.Weighted>
0.0977

> <Gold.Chemscore.DEInternal.Weighted>
3.1104

> <Gold.Chemscore.Rot.Weighted>
3.5736

> <Gold.Chemscore.Internal.Correction.Weighted>
   9.000000E+99

> <Gold.Protein.RotatedTorsions>
[ 6907 6896 6895 6894 ] final    6.99 input  -60.11 | X-H torsion
[ 7974 7965 7964 7962 ] final -114.55 input  175.53 | X-H torsion
[ 8008 7997 7996 7995 ] final   28.43 input   59.86 | X-H torsion
[ 10167 10162 10161 10158 ] final   29.77 input  -65.29 | X-H torsion
[ 10718 10713 10712 10709 ] final   95.95 input   66.30 | X-H torsion
[ 10763 10752 10751 10750 ] final   94.83 input  -60.55 | X-H torsion
[ 11005 11000 10999 10996 ] final  142.00 input  -57.11 | X-H torsion

> <Gold.Protein.ActiveResidues>
 VAL166  LYS551  ARG553  GLY616  TRP617  ASP618  TYR619  PRO620  LYS621  CYS622 
 ASP623  PHE694  ASN695  SER759  ASP760  ASP761  ALA762  ILE779  LEU786  VAL792 
 PHE793  MET794  SER795  GLU796  ALA797  LYS798  CYS799  TRP800  GLU811  SER814 

> <Gold.Protein.RotatedAtoms>
  151.6826  135.0959  160.0218 H   0  0  0  0  0  0  0  0  0  0  0  0  # atno 6907 bound_to 6896
  152.3826  133.6563  159.6182 H   0  0  0  0  0  0  0  0  0  0  0  0  # atno 6908 bound_to 6896
  150.7759  133.9005  159.3381 H   0  0  0  0  0  0  0  0  0  0  0  0  # atno 6909 bound_to 6896
  145.1188  140.8656  143.3826 H   0  0  0  0  0  0  0  0  0  0  0  0  # atno 7974 bound_to 7965
  155.0585  140.3187  155.4668 H   0  0  0  0  0  0  0  0  0  0  0  0  # atno 8008 bound_to 7997
  156.2818  140.2133  156.5656 H   0  0  0  0  0  0  0  0  0  0  0  0  # atno 8009 bound_to 7997
  154.7151  140.0494  157.0575 H   0  0  0  0  0  0  0  0  0  0  0  0  # atno 8010 bound_to 7997
  140.4736  144.0724  150.6244 H   0  0  0  0  0  0  0  0  0  0  0  0  # atno 10167 bound_to 10162
  157.6933  131.0562  150.4417 H   0  0  0  0  0  0  0  0  0  0  0  0  # atno 10718 bound_to 10713
  153.2461  135.4275  155.0749 H   0  0  0  0  0  0  0  0  0  0  0  0  # atno 10763 bound_to 10752
  154.8362  135.3414  154.6579 H   0  0  0  0  0  0  0  0  0  0  0  0  # atno 10764 bound_to 10752
  153.7001  135.7029  153.5122 H   0  0  0  0  0  0  0  0  0  0  0  0  # atno 10765 bound_to 10752
  140.0444  134.9288  157.0902 H   0  0  0  0  0  0  0  0  0  0  0  0  # atno 11005 bound_to 11000
  145.0763  139.2993  143.5806 LP  0  0  0  0  0  0  0  0  0  0  0  0  # atno 17320 bound_to 7965
  146.3522  140.0255  142.8655 LP  0  0  0  0  0  0  0  0  0  0  0  0  # atno 17321 bound_to 7965
  140.3946  143.2735  152.0020 LP  0  0  0  0  0  0  0  0  0  0  0  0  # atno 17342 bound_to 10162
  139.4822  144.6049  151.7539 LP  0  0  0  0  0  0  0  0  0  0  0  0  # atno 17343 bound_to 10162
  156.4775  130.4066  149.6481 LP  0  0  0  0  0  0  0  0  0  0  0  0  # atno 17370 bound_to 10713
  156.3539  130.7446  151.2410 LP  0  0  0  0  0  0  0  0  0  0  0  0  # atno 17371 bound_to 10713
  140.4017  134.2075  155.7163 LP  0  0  0  0  0  0  0  0  0  0  0  0  # atno 17394 bound_to 11000
  141.1899  133.8228  157.0938 LP  0  0  0  0  0  0  0  0  0  0  0  0  # atno 17395 bound_to 11000

$$$$
