#       Name:                AV-unprocessed.smi:1073
#       Creating user name   scv26
#       Creation time:       Fri Mar 27 03:20:49 2020


#       File generated by GOLD software.
#

@<TRIPOS>MOLECULE
AV-unprocessed.smi:1073
    50    50     1
SMALL
NO_CHARGES


@<TRIPOS>ATOM
      1 ****        -3.3097  -4.6072   1.0721 C.3            1 S1                 0.0000
      2 ****        -2.1869  -3.7689   0.6815 N.am           1 S1                 0.0000
      3 ****        -1.7780  -2.6888   1.3629 C.2            1 S1                 0.0000
      4 ****        -2.3154  -2.3094   2.4048 O.2            1 S1                 0.0000
      5 ****        -0.5652  -1.9404   0.7934 C.3            1 S1                 0.0000
      6 ****         0.7658  -2.4610   1.3873 C.3            1 S1                 0.0000
      7 ****         2.0593  -1.9124   0.7421 C.3            1 S1                 0.0000
      8 ****         2.2371  -2.3828  -0.7114 C.3            1 S1                 0.0000
      9 ****         3.2864  -2.3030   1.5799 C.3            1 S1                 0.0000
     10 ****        -0.7104  -0.5023   1.0254 N.am           1 S1                 0.0000
     11 ****        -0.5039   0.4723   0.1262 C.2            1 S1                 0.0000
     12 ****        -0.1408   0.2602  -1.0315 O.2            1 S1                 0.0000
     13 ****        -0.7286   1.9038   0.6335 C.3            1 S1                 0.0000
     14 ****        -0.8028   2.9029  -0.4454 N.am           1 S1                 0.0000
     15 ****         0.3829   3.5964  -0.7578 C.2            1 S1                 0.0000
     16 ****         0.4493   4.5396  -1.7167 C.2            1 S1                 0.0000
     17 ****         1.7590   5.2262  -2.0719 C.3            1 S1                 0.0000
     18 ****         1.7591   5.6356  -3.3406 F              1 S1                 0.0000
     19 ****         1.9377   6.2913  -1.2917 F              1 S1                 0.0000
     20 ****         2.7952   4.4052  -1.8964 F              1 S1                 0.0000
     21 ****        -0.7722   4.7970  -2.4541 C.2            1 S1                 0.0000
     22 ****        -1.9112   4.1323  -2.1777 C.2            1 S1                 0.0000
     23 ****        -1.9712   3.1207  -1.1200 C.2            1 S1                 0.0000
     24 ****        -3.0058   2.5067  -0.8582 O.2            1 S1                 0.0000
     25 ****        -3.4380  -5.4160   0.3527 H              1 S1                 0.0000
     26 ****        -4.2336  -4.0285   1.1031 H              1 S1                 0.0000
     27 ****        -3.1418  -5.0486   2.0553 H              1 S1                 0.0000
     28 ****        -1.6916  -4.0215  -0.1614 H              1 S1                 0.0000
     29 ****        -0.5700  -2.1325  -0.2804 H              1 S1                 0.0000
     30 ****         0.7775  -2.2279   2.4534 H              1 S1                 0.0000
     31 ****         0.7869  -3.5506   1.3282 H              1 S1                 0.0000
     32 ****         2.0172  -0.8234   0.7405 H              1 S1                 0.0000
     33 ****         2.2632  -3.4710  -0.7756 H              1 S1                 0.0000
     34 ****         3.1684  -2.0036  -1.1331 H              1 S1                 0.0000
     35 ****         1.4312  -2.0300  -1.3538 H              1 S1                 0.0000
     36 ****         3.4039  -3.3860   1.6302 H              1 S1                 0.0000
     37 ****         3.2026  -1.9294   2.6010 H              1 S1                 0.0000
     38 ****         4.2012  -1.8884   1.1553 H              1 S1                 0.0000
     39 ****        -1.0114  -0.2303   1.9504 H              1 S1                 0.0000
     40 ****        -1.6380   1.9319   1.2367 H              1 S1                 0.0000
     41 ****         0.0784   2.1502   1.3249 H              1 S1                 0.0000
     42 ****         1.2423   3.3025  -0.1726 H              1 S1                 0.0000
     43 ****        -0.7753   5.5371  -3.2408 H              1 S1                 0.0000
     44 ****        -2.8024   4.3501  -2.7478 H              1 S1                 0.0000
     45 ****        -3.0937  -2.8140   2.7784 LP             1 S1                 0.0000
     46 ****        -1.9733  -1.4968   2.8767 LP             1 S1                 0.0000
     47 ****         0.0152  -0.6772  -1.3428 LP             1 S1                 0.0000
     48 ****        -0.0020   1.0255  -1.6602 LP             1 S1                 0.0000
     49 ****        -3.0098   1.8214  -0.1300 LP             1 S1                 0.0000
     50 ****        -3.8421   2.6934  -1.3738 LP             1 S1                 0.0000
@<TRIPOS>BOND
    1    1    2 1     
    2    1   25 1     
    3    1   26 1     
    4    1   27 1     
    5    2    3 am    
    6    2   28 1     
    7    3    4 2     
    8    3    5 1     
    9    5    6 1     
   10    5   10 1     
   11    5   29 1     
   12    6    7 1     
   13    6   30 1     
   14    6   31 1     
   15    7    8 1     
   16    7    9 1     
   17    7   32 1     
   18    8   33 1     
   19    8   34 1     
   20    8   35 1     
   21    9   36 1     
   22    9   37 1     
   23    9   38 1     
   24   10   11 am    
   25   10   39 1     
   26   11   12 2     
   27   11   13 1     
   28   13   14 1     
   29   13   40 1     
   30   13   41 1     
   31   14   23 am    
   32   14   15 1     
   33   15   16 2     
   34   15   42 1     
   35   16   17 1     
   36   16   21 1     
   37   17   18 1     
   38   17   19 1     
   39   17   20 1     
   40   21   22 2     
   41   21   43 1     
   42   22   23 1     
   43   22   44 1     
   44   23   24 2     
   45    4   45 1     
   46    4   46 1     
   47   12   47 1     
   48   12   48 1     
   49   24   49 1     
   50   24   50 1     
@<TRIPOS>SUBSTRUCTURE
      1 S1             1
@<TRIPOS>SET
LONE_PAIRS      STATIC     ATOMS    <user>   **** ""
6 45 46 47 48 49 50
DONOR_HYDROGENS      STATIC     ATOMS    <user>   **** ""
2 28 39
ATOM$BLUE        STATIC     ATOMS    COLORGROUP SYSTEM
6 45 46 47 48 49 50
ATOM$RED        STATIC     ATOMS    COLORGROUP SYSTEM
2 28 39
