AV-unprocessed.smi:2912|AV-procd|sdf|11181|dock5
  -GOLD-   2272016 73D 1   1.00000     0.00000
 Structure written by MMmdl.
 31 32  0  0  0  0  0  0  0  0  1 V2000
  146.7061  138.9781  152.6977 C   0  0  0  0  0  0  0  0  0  0  0  0
  147.4000  139.9741  153.4851 N   0  0  0  0  0  0  0  0  0  0  0  0
  148.6589  139.9078  154.0407 C   0  0  0  0  0  0  0  0  0  0  0  0
  148.8878  141.0928  154.6819 C   0  0  0  0  0  0  0  0  0  0  0  0
  150.1265  141.5425  155.4132 C   0  0  0  0  0  0  0  0  0  0  0  0
  149.8869  141.7768  156.9183 C   0  0  0  0  0  0  0  0  0  0  0  0
  151.0175  142.4533  157.5505 N   0  0  0  0  0  0  0  0  0  0  0  0
  151.7474  141.9674  158.5691 C   0  0  0  0  0  0  0  0  0  0  0  0
  151.6112  140.8208  158.9986 O   0  0  0  0  0  0  0  0  0  0  0  0
  152.7627  142.9311  159.2053 C   0  0  0  0  0  0  0  0  0  0  0  0
  153.7884  142.1353  160.4665 S   0  0  0  0  0  0  0  0  0  0  0  0
  152.6131  142.5436  161.7791 C   0  0  0  0  0  0  0  0  0  0  0  0
  152.2037  144.0136  161.6220 C   0  0  0  0  0  0  0  0  0  0  0  0
  151.9475  144.4130  159.8662 S   0  0  0  0  0  0  0  0  0  0  0  0
  147.6833  141.8220  154.4663 C   0  0  0  0  0  0  0  0  0  0  0  0
  146.7973  141.1515  153.7478 N   0  0  0  0  0  0  0  0  0  0  0  0
  147.3070  138.0712  152.6284 H   0  0  0  0  0  0  0  0  0  0  0  0
  146.5265  139.3623  151.6933 H   0  0  0  0  0  0  0  0  0  0  0  0
  145.7512  138.7362  153.1653 H   0  0  0  0  0  0  0  0  0  0  0  0
  149.2883  139.0381  153.9229 H   0  0  0  0  0  0  0  0  0  0  0  0
  150.9268  140.8117  155.2932 H   0  0  0  0  0  0  0  0  0  0  0  0
  150.5080  142.4647  154.9737 H   0  0  0  0  0  0  0  0  0  0  0  0
  148.9669  142.3455  157.0620 H   0  0  0  0  0  0  0  0  0  0  0  0
  149.7313  140.8211  157.4192 H   0  0  0  0  0  0  0  0  0  0  0  0
  151.2023  143.4004  157.2526 H   0  0  0  0  0  0  0  0  0  0  0  0
  153.4296  143.2510  158.4046 H   0  0  0  0  0  0  0  0  0  0  0  0
  151.7399  141.8988  161.6741 H   0  0  0  0  0  0  0  0  0  0  0  0
  153.0484  142.3488  162.7591 H   0  0  0  0  0  0  0  0  0  0  0  0
  151.3078  144.2449  162.1977 H   0  0  0  0  0  0  0  0  0  0  0  0
  153.0023  144.6547  161.9955 H   0  0  0  0  0  0  0  0  0  0  0  0
  147.4351  142.8198  154.7965 H   0  0  0  0  0  0  0  0  0  0  0  0
  1  2  1  0  0  0  0
  1 17  1  0  0  0  0
  1 18  1  0  0  0  0
  1 19  1  0  0  0  0
  2 16  1  0  0  0  0
  2  3  1  0  0  0  0
  3  4  2  0  0  0  0
  3 20  1  0  0  0  0
  4  5  1  0  0  0  0
  4 15  1  0  0  0  0
  5  6  1  0  0  0  0
  5 21  1  0  0  0  0
  5 22  1  0  0  0  0
  6  7  1  0  0  0  0
  6 23  1  0  0  0  0
  6 24  1  0  0  0  0
  7  8  1  0  0  0  0
  7 25  1  0  0  0  0
  8  9  2  0  0  0  0
  8 10  1  0  0  0  0
 10 14  1  0  0  0  0
 10 11  1  0  0  0  0
 10 26  1  0  0  0  0
 11 12  1  0  0  0  0
 12 13  1  0  0  0  0
 12 27  1  0  0  0  0
 12 28  1  0  0  0  0
 13 14  1  0  0  0  0
 13 29  1  0  0  0  0
 13 30  1  0  0  0  0
 15 16  2  0  0  0  0
 15 31  1  0  0  0  0
M  END
> <s_m_source_file>
AV-unprocessed.smi

> <i_m_source_file_index>
2912

> <i_lp_mmshare_version>
43012

> <i_f3d_flags>
0

> <s_epik_input>
W0NIM11uMVtjSF1jKFtjSF1uMSlbQ0gyXVtDSDJdW05IXUMoPU8pW0NIXTJTW0NIMl1bQ0gyXVMy

> <s_epik_cmdline>
J2VwaWtfcHl0aG9uJywgJy1waCcsICc3LjAnLCAnLXRuJywgJzgnLCAnLW1hJywgJzIwMCcsICctbWV0YWxfYmluZGluZycsICctaW1hZScsICc8aW5maWxlLm1hZT4nLCAnLW9tYWUnLCAnPG91dGZpbGUubWFlPic=

> <r_lp_tautomer_probability>
1

> <r_epik_Ionization_Penalty>
0.000416309

> <r_epik_Ionization_Penalty_Charging>
0

> <r_epik_Ionization_Penalty_Neutral>
0.000416309

> <r_epik_State_Penalty>
-0

> <r_epik_Charging_Adjusted_Penalty>
0

> <i_epik_Tot_Q>
0

> <i_epik_Tot_abs_Q>
0

> <r_epik_Metal_State_Penalty>
-0

> <b_epik_Metal_Only>
0

> <s_epik_Chemistry_Notes>
This compound contains an acetal/aminal-like group ( X-CH(R)-Y where X, Y are N, S, or O) that may be acid/base labile, releasing an aldehyde.

> <s_lp_Force_Field>
OPLS_2005

> <r_lp_Energy>
6.65343

> <b_lp_Chiralities_Consistent>
1

> <s_lp_Variant>
AV-unprocessed.smi:2912-1

> <Gold.Version>
5.8.1

> <Gold.Id.Protein>
6NUR|6NUR_protein|mol2

> <Gold.PLP.Fitness>
42.3530

> <Gold.PLP.PLP>
-39.4789

> <Gold.PLP.part.hbond>
0.0000

> <Gold.PLP.part.metal>
0.0000

> <Gold.PLP.part.buried>
-3.6455

> <Gold.PLP.part.nonpolar>
-35.8703

> <Gold.PLP.part.repulsive>
0.2041

> <Gold.PLP.ligand.clash>
0.0000

> <Gold.PLP.ligand.torsion>
0.0834

> <Gold.PLP.Chemscore.Hbond>
0.0000

> <Gold.PLP.Chemscore.CHOScore>
1.0000

> <Gold.PLP.Chemscore.Metal>
0.0000

> <Gold.Chemscore.Hbonds>
donor molecule, donor type, donor heavy atom, donor atom, acceptor molecule, acceptor atom, score
      L1  C    15    31       P1  8028  1.00

> <Gold.PLP.Chemscore.Internal.Correction>
0.0409

> <Gold.Rescore>
     Score         DG    S(hbond)    S(metal)    S(lipo)     H(rot)  DE(clash)    DE(int)     intcor
     13.40     -13.52       0.00        0.00     102.52       1.54       0.06       0.06       ----

> <Gold.Chemscore.Fitness>
13.4025

> <Gold.Chemscore.DG>
-13.5239

> <Gold.Chemscore.ZeroCoef>
-5.4800

> <Gold.Chemscore.Hbond>
0.0000

> <Gold.Chemscore.Metal>
0.0000

> <Gold.Chemscore.Lipo>
102.5215

> <Gold.Chemscore.Internal_Hbond>
0.0000

> <Gold.Chemscore.DEClash>
0.0611

> <Gold.Chemscore.DEInternal>
0.0603

> <Gold.Chemscore.Rot>
1.5434

> <Gold.Chemscore.Internal.Correction>
   9.000000E+99

> <Gold.Chemscore.Hbond.Weighted>
-0.0000

> <Gold.Chemscore.Metal.Weighted>
-0.0000

> <Gold.Chemscore.Lipo.Weighted>
-11.9950

> <Gold.Chemscore.Internal_Hbond.Weighted>
0.0000

> <Gold.Chemscore.DEClash.Weighted>
0.0611

> <Gold.Chemscore.DEInternal.Weighted>
0.0603

> <Gold.Chemscore.Rot.Weighted>
3.9511

> <Gold.Chemscore.Internal.Correction.Weighted>
   9.000000E+99

> <Gold.Protein.RotatedTorsions>
[ 6907 6896 6895 6894 ] final  163.42 input  -60.11 | X-H torsion
[ 7974 7965 7964 7962 ] final  -74.84 input  175.53 | X-H torsion
[ 8008 7997 7996 7995 ] final -114.64 input   59.86 | X-H torsion
[ 10167 10162 10161 10158 ] final  -36.38 input  -65.29 | X-H torsion
[ 10718 10713 10712 10709 ] final -112.14 input   66.30 | X-H torsion
[ 10763 10752 10751 10750 ] final   16.38 input  -60.55 | X-H torsion
[ 11005 11000 10999 10996 ] final  -94.72 input  -57.11 | X-H torsion

> <Gold.Protein.ActiveResidues>
 VAL166  LYS551  ARG553  GLY616  TRP617  ASP618  TYR619  PRO620  LYS621  CYS622 
 ASP623  PHE694  ASN695  SER759  ASP760  ASP761  ALA762  ILE779  LEU786  VAL792 
 PHE793  MET794  SER795  GLU796  ALA797  LYS798  CYS799  TRP800  GLU811  SER814 

> <Gold.Protein.RotatedAtoms>
  151.9255  133.3597  159.3911 H   0  0  0  0  0  0  0  0  0  0  0  0  # atno 6907 bound_to 6896
  150.7028  134.4591  159.5381 H   0  0  0  0  0  0  0  0  0  0  0  0  # atno 6908 bound_to 6896
  152.2222  134.8402  160.0535 H   0  0  0  0  0  0  0  0  0  0  0  0  # atno 6909 bound_to 6896
  145.6338  140.9330  143.1072 H   0  0  0  0  0  0  0  0  0  0  0  0  # atno 7974 bound_to 7965
  155.0396  140.0392  157.2504 H   0  0  0  0  0  0  0  0  0  0  0  0  # atno 8008 bound_to 7997
  154.7228  140.2715  155.6502 H   0  0  0  0  0  0  0  0  0  0  0  0  # atno 8009 bound_to 7997
  156.2821  140.2699  156.1904 H   0  0  0  0  0  0  0  0  0  0  0  0  # atno 8010 bound_to 7997
  140.7144  143.3413  151.2352 H   0  0  0  0  0  0  0  0  0  0  0  0  # atno 10167 bound_to 10162
  156.0688  130.5904  150.8468 H   0  0  0  0  0  0  0  0  0  0  0  0  # atno 10718 bound_to 10713
  153.1436  135.6765  153.8989 H   0  0  0  0  0  0  0  0  0  0  0  0  # atno 10763 bound_to 10752
  153.8438  135.3102  155.3429 H   0  0  0  0  0  0  0  0  0  0  0  0  # atno 10764 bound_to 10752
  154.7807  135.4890  153.9923 H   0  0  0  0  0  0  0  0  0  0  0  0  # atno 10765 bound_to 10752
  141.1462  133.7976  157.0337 H   0  0  0  0  0  0  0  0  0  0  0  0  # atno 11005 bound_to 11000
  144.7183  139.8118  143.7391 LP  0  0  0  0  0  0  0  0  0  0  0  0  # atno 17320 bound_to 7965
  146.1335  139.4376  143.0153 LP  0  0  0  0  0  0  0  0  0  0  0  0  # atno 17321 bound_to 7965
  139.6921  143.9674  152.2864 LP  0  0  0  0  0  0  0  0  0  0  0  0  # atno 17342 bound_to 10162
  139.9339  144.6724  150.8334 LP  0  0  0  0  0  0  0  0  0  0  0  0  # atno 17343 bound_to 10162
  157.5746  131.0946  150.9365 LP  0  0  0  0  0  0  0  0  0  0  0  0  # atno 17370 bound_to 10713
  156.9574  130.5442  149.5284 LP  0  0  0  0  0  0  0  0  0  0  0  0  # atno 17371 bound_to 10713
  140.0738  134.9687  157.1511 LP  0  0  0  0  0  0  0  0  0  0  0  0  # atno 17394 bound_to 11000
  140.3673  134.2428  155.7181 LP  0  0  0  0  0  0  0  0  0  0  0  0  # atno 17395 bound_to 11000

$$$$
