AV-unprocessed.smi:2114|AV-procd|sdf|8618|dock1
  -GOLD-   2272011363D 1   1.00000     0.00000
 Structure written by MMmdl.
 47 48  0  0  0  0  0  0  0  0  1 V2000
  156.1009  131.8365  161.3058 C   0  0  0  0  0  0  0  0  0  0  0  0
  156.5781  133.0389  161.8830 O   0  0  0  0  0  0  0  0  0  0  0  0
  155.9323  134.1884  161.3589 C   0  0  0  0  0  0  0  0  0  0  0  0
  156.5870  135.4508  161.9403 C   0  0  1  0  0  0  0  0  0  0  0  0
  158.0802  135.5266  161.5825 C   0  0  0  0  0  0  0  0  0  0  0  0
  155.8869  136.6324  161.4445 N   0  0  0  0  0  0  0  0  0  0  0  0
  156.1173  137.8963  161.8355 C   0  0  0  0  0  0  0  0  0  0  0  0
  156.9957  138.2126  162.6383 O   0  0  0  0  0  0  0  0  0  0  0  0
  155.2682  138.9415  161.1730 C   0  0  0  0  0  0  0  0  0  0  0  0
  154.9237  140.1267  161.8553 C   0  0  0  0  0  0  0  0  0  0  0  0
  154.1083  141.0768  161.2112 C   0  0  0  0  0  0  0  0  0  0  0  0
  153.6473  140.8155  159.8993 C   0  0  0  0  0  0  0  0  0  0  0  0
  152.8319  141.7564  159.2349 N   0  0  0  0  0  0  0  0  0  0  0  0
  152.1708  142.7798  160.0412 C   0  0  0  0  0  0  0  0  0  0  0  0
  151.5755  143.8752  159.1375 C   0  0  2  0  0  0  0  0  0  0  0  0
  150.7708  144.9056  159.9364 C   0  0  0  0  0  0  0  0  0  0  0  0
  150.7076  143.2715  158.1823 O   0  0  0  0  0  0  0  0  0  0  0  0
  151.3896  142.3563  157.3291 C   0  0  2  0  0  0  0  0  0  0  0  0
  150.3940  141.8403  156.2855 C   0  0  0  0  0  0  0  0  0  0  0  0
  151.9807  141.2157  158.1789 C   0  0  0  0  0  0  0  0  0  0  0  0
  153.9632  139.6667  159.2524 N   0  0  0  0  0  0  0  0  0  0  0  0
  154.7465  138.7596  159.8730 C   0  0  0  0  0  0  0  0  0  0  0  0
  156.6255  130.9871  161.7434 H   0  0  0  0  0  0  0  0  0  0  0  0
  156.2733  131.8202  160.2290 H   0  0  0  0  0  0  0  0  0  0  0  0
  155.0342  131.7056  161.4922 H   0  0  0  0  0  0  0  0  0  0  0  0
  156.0236  134.1901  160.2713 H   0  0  0  0  0  0  0  0  0  0  0  0
  154.8671  134.1671  161.5968 H   0  0  0  0  0  0  0  0  0  0  0  0
  156.4939  135.4092  163.0272 H   0  0  0  0  0  0  0  0  0  0  0  0
  158.6157  134.6519  161.9526 H   0  0  0  0  0  0  0  0  0  0  0  0
  158.5497  136.4065  162.0233 H   0  0  0  0  0  0  0  0  0  0  0  0
  158.2283  135.5752  160.5032 H   0  0  0  0  0  0  0  0  0  0  0  0
  155.1586  136.4735  160.7632 H   0  0  0  0  0  0  0  0  0  0  0  0
  155.2777  140.3140  162.8588 H   0  0  0  0  0  0  0  0  0  0  0  0
  153.8346  141.9816  161.7333 H   0  0  0  0  0  0  0  0  0  0  0  0
  151.3844  142.3148  160.6377 H   0  0  0  0  0  0  0  0  0  0  0  0
  152.8838  143.2296  160.7334 H   0  0  0  0  0  0  0  0  0  0  0  0
  152.3787  144.3948  158.6121 H   0  0  0  0  0  0  0  0  0  0  0  0
  151.3970  145.4032  160.6774 H   0  0  0  0  0  0  0  0  0  0  0  0
  149.9391  144.4354  160.4618 H   0  0  0  0  0  0  0  0  0  0  0  0
  150.3597  145.6728  159.2802 H   0  0  0  0  0  0  0  0  0  0  0  0
  152.1934  142.8818  156.8100 H   0  0  0  0  0  0  0  0  0  0  0  0
  150.8732  141.1449  155.5959 H   0  0  0  0  0  0  0  0  0  0  0  0
  149.9857  142.6628  155.6979 H   0  0  0  0  0  0  0  0  0  0  0  0
  149.5593  141.3222  156.7585 H   0  0  0  0  0  0  0  0  0  0  0  0
  152.5295  140.5347  157.5301 H   0  0  0  0  0  0  0  0  0  0  0  0
  151.1791  140.6368  158.6395 H   0  0  0  0  0  0  0  0  0  0  0  0
  154.9535  137.8626  159.3079 H   0  0  0  0  0  0  0  0  0  0  0  0
  1  2  1  0  0  0  0
  1 23  1  0  0  0  0
  1 24  1  0  0  0  0
  1 25  1  0  0  0  0
  2  3  1  0  0  0  0
  3  4  1  0  0  0  0
  3 26  1  0  0  0  0
  3 27  1  0  0  0  0
  4  5  1  0  0  0  0
  4  6  1  0  0  0  0
  4 28  1  0  0  0  0
  5 29  1  0  0  0  0
  5 30  1  0  0  0  0
  5 31  1  0  0  0  0
  6  7  1  0  0  0  0
  6 32  1  0  0  0  0
  7  8  2  0  0  0  0
  7  9  1  0  0  0  0
  9 22  1  0  0  0  0
  9 10  2  0  0  0  0
 10 11  1  0  0  0  0
 10 33  1  0  0  0  0
 11 12  2  0  0  0  0
 11 34  1  0  0  0  0
 12 13  1  0  0  0  0
 12 21  1  0  0  0  0
 13 20  1  0  0  0  0
 13 14  1  0  0  0  0
 14 15  1  0  0  0  0
 14 35  1  0  0  0  0
 14 36  1  0  0  0  0
 15 16  1  0  0  0  0
 15 17  1  0  0  0  0
 15 37  1  0  0  0  0
 16 38  1  0  0  0  0
 16 39  1  0  0  0  0
 16 40  1  0  0  0  0
 17 18  1  0  0  0  0
 18 19  1  0  0  0  0
 18 20  1  0  0  0  0
 18 41  1  0  0  0  0
 19 42  1  0  0  0  0
 19 43  1  0  0  0  0
 19 44  1  0  0  0  0
 20 45  1  0  0  0  0
 20 46  1  0  0  0  0
 21 22  2  0  0  0  0
 22 47  1  0  0  0  0
M  END
> <s_m_source_file>
AV-unprocessed.smi

> <i_m_source_file_index>
2114

> <i_lp_mmshare_version>
43012

> <i_f3d_flags>
0

> <s_epik_input>
W0NIM11PW0NIMl1bQ0BIXShbQ0gzXSlbTkhdQyg9TyljMVtjSF1bY0hdYyhuW2NIXTEpTjJbQ0gyXVtDQEBIXShbQ0gzXSlPW0NAQEhdKFtDSDNdKVtDSDJdMg==

> <s_epik_cmdline>
J2VwaWtfcHl0aG9uJywgJy1waCcsICc3LjAnLCAnLXRuJywgJzgnLCAnLW1hJywgJzIwMCcsICctbWV0YWxfYmluZGluZycsICctaW1hZScsICc8aW5maWxlLm1hZT4nLCAnLW9tYWUnLCAnPG91dGZpbGUubWFlPic=

> <r_lp_tautomer_probability>
1

> <r_epik_Ionization_Penalty>
1.92915e-05

> <r_epik_Ionization_Penalty_Charging>
0

> <r_epik_Ionization_Penalty_Neutral>
1.92915e-05

> <r_epik_State_Penalty>
-0

> <r_epik_Charging_Adjusted_Penalty>
0

> <i_epik_Tot_Q>
0

> <i_epik_Tot_abs_Q>
0

> <r_epik_Metal_State_Penalty>
-0

> <b_epik_Metal_Only>
0

> <s_lp_Force_Field>
OPLS_2005

> <r_lp_Energy>
18.3403

> <b_lp_Chiralities_Consistent>
1

> <s_lp_Variant>
AV-unprocessed.smi:2114-2

> <Gold.Version>
5.8.1

> <Gold.Id.Protein>
6NUR|6NUR_protein|mol2

> <Gold.PLP.Fitness>
39.0459

> <Gold.PLP.PLP>
-40.6865

> <Gold.PLP.part.hbond>
0.0000

> <Gold.PLP.part.metal>
0.0000

> <Gold.PLP.part.buried>
-4.9198

> <Gold.PLP.part.nonpolar>
-35.5504

> <Gold.PLP.part.repulsive>
0.2204

> <Gold.PLP.ligand.clash>
0.0000

> <Gold.PLP.ligand.torsion>
0.9948

> <Gold.PLP.Chemscore.Hbond>
0.0000

> <Gold.PLP.Chemscore.CHOScore>
0.0000

> <Gold.PLP.Chemscore.Metal>
0.0000

> <Gold.Chemscore.Hbonds>
donor molecule, donor type, donor heavy atom, donor atom, acceptor molecule, acceptor atom, score
      P1  H  7997  8010       L1    21  0.41

> <Gold.PLP.Chemscore.Internal.Correction>
0.3491

> <Gold.Rescore>
     Score         DG    S(hbond)    S(metal)    S(lipo)     H(rot)  DE(clash)    DE(int)     intcor
     14.16     -15.25       0.00        0.00     116.82       1.52       0.13       0.96       ----

> <Gold.Chemscore.Fitness>
14.1605

> <Gold.Chemscore.DG>
-15.2502

> <Gold.Chemscore.ZeroCoef>
-5.4800

> <Gold.Chemscore.Hbond>
0.0000

> <Gold.Chemscore.Metal>
0.0000

> <Gold.Chemscore.Lipo>
116.8221

> <Gold.Chemscore.Internal_Hbond>
0.0000

> <Gold.Chemscore.DEClash>
0.1282

> <Gold.Chemscore.DEInternal>
0.9615

> <Gold.Chemscore.Rot>
1.5226

> <Gold.Chemscore.Internal.Correction>
   9.000000E+99

> <Gold.Chemscore.Hbonds>
donor molecule, donor type, donor heavy atom, donor atom, acceptor molecule, acceptor atom, score
      P1  H  7997  8010       L1    21  0.25

> <Gold.Chemscore.Hbond.Weighted>
-0.0000

> <Gold.Chemscore.Metal.Weighted>
-0.0000

> <Gold.Chemscore.Lipo.Weighted>
-13.6682

> <Gold.Chemscore.Internal_Hbond.Weighted>
0.0000

> <Gold.Chemscore.DEClash.Weighted>
0.1282

> <Gold.Chemscore.DEInternal.Weighted>
0.9615

> <Gold.Chemscore.Rot.Weighted>
3.8980

> <Gold.Chemscore.Internal.Correction.Weighted>
   9.000000E+99

> <Gold.Protein.RotatedTorsions>
[ 6907 6896 6895 6894 ] final -150.03 input  -60.11 | X-H torsion
[ 7974 7965 7964 7962 ] final -126.60 input  175.53 | X-H torsion
[ 8008 7997 7996 7995 ] final   25.86 input   59.86 | X-H torsion
[ 10167 10162 10161 10158 ] final  -28.48 input  -65.29 | X-H torsion
[ 10718 10713 10712 10709 ] final  -51.38 input   66.30 | X-H torsion
[ 10763 10752 10751 10750 ] final  -51.60 input  -60.55 | X-H torsion
[ 11005 11000 10999 10996 ] final  156.41 input  -57.11 | X-H torsion

> <Gold.Protein.ActiveResidues>
 VAL166  LYS551  ARG553  GLY616  TRP617  ASP618  TYR619  PRO620  LYS621  CYS622 
 ASP623  PHE694  ASN695  SER759  ASP760  ASP761  ALA762  ILE779  LEU786  VAL792 
 PHE793  MET794  SER795  GLU796  ALA797  LYS798  CYS799  TRP800  GLU811  SER814 

> <Gold.Protein.RotatedAtoms>
  151.1926  133.4658  159.2594 H   0  0  0  0  0  0  0  0  0  0  0  0  # atno 6907 bound_to 6896
  151.1148  135.0047  159.8521 H   0  0  0  0  0  0  0  0  0  0  0  0  # atno 6908 bound_to 6896
  152.5452  134.1842  159.8701 H   0  0  0  0  0  0  0  0  0  0  0  0  # atno 6909 bound_to 6896
  144.9856  140.7683  143.4585 H   0  0  0  0  0  0  0  0  0  0  0  0  # atno 7974 bound_to 7965
  155.0183  140.3144  155.4803 H   0  0  0  0  0  0  0  0  0  0  0  0  # atno 8008 bound_to 7997
  156.2897  140.2202  156.5242 H   0  0  0  0  0  0  0  0  0  0  0  0  # atno 8009 bound_to 7997
  154.7474  140.0469  157.0852 H   0  0  0  0  0  0  0  0  0  0  0  0  # atno 8010 bound_to 7997
  140.7269  143.4007  151.1270 H   0  0  0  0  0  0  0  0  0  0  0  0  # atno 10167 bound_to 10162
  156.1715  130.4149  149.9640 H   0  0  0  0  0  0  0  0  0  0  0  0  # atno 10718 bound_to 10713
  154.1291  135.6523  153.4918 H   0  0  0  0  0  0  0  0  0  0  0  0  # atno 10763 bound_to 10752
  153.0201  135.5288  154.7019 H   0  0  0  0  0  0  0  0  0  0  0  0  # atno 10764 bound_to 10752
  154.6249  135.2969  155.0254 H   0  0  0  0  0  0  0  0  0  0  0  0  # atno 10765 bound_to 10752
  140.1673  134.8568  157.2647 H   0  0  0  0  0  0  0  0  0  0  0  0  # atno 11005 bound_to 11000
  145.2358  139.2094  143.5019 LP  0  0  0  0  0  0  0  0  0  0  0  0  # atno 17320 bound_to 7965
  146.3419  140.2244  142.8592 LP  0  0  0  0  0  0  0  0  0  0  0  0  # atno 17321 bound_to 7965
  139.7626  143.8613  152.3103 LP  0  0  0  0  0  0  0  0  0  0  0  0  # atno 17342 bound_to 10162
  139.8504  144.7167  150.9221 LP  0  0  0  0  0  0  0  0  0  0  0  0  # atno 17343 bound_to 10162
  156.7438  130.9089  151.3633 LP  0  0  0  0  0  0  0  0  0  0  0  0  # atno 17370 bound_to 10713
  157.6806  130.9136  150.0258 LP  0  0  0  0  0  0  0  0  0  0  0  0  # atno 17371 bound_to 10713
  140.2419  134.3785  155.7477 LP  0  0  0  0  0  0  0  0  0  0  0  0  # atno 17394 bound_to 11000
  141.2214  133.7270  156.8802 LP  0  0  0  0  0  0  0  0  0  0  0  0  # atno 17395 bound_to 11000

$$$$
