AV-unprocessed.smi:40|AV-procd|sdf|375|dock7
  -GOLD-   2262016223D 1   1.00000     0.00000
 Structure written by MMmdl.
 47 48  0  0  0  0  0  0  0  0  1 V2000
  152.8949  142.2961  161.0131 C   0  0  0  0  0  0  0  0  0  0  0  0
  152.7727  142.5938  159.5146 C   0  0  0  0  0  0  0  0  0  0  0  0
  151.3598  143.0424  159.1155 C   0  0  0  0  0  0  0  0  0  0  0  0
  151.2770  143.4988  157.6507 C   0  0  0  0  0  0  0  0  0  0  0  0
  151.1811  142.3240  156.6631 C   0  0  0  0  0  0  0  0  0  0  0  0
  149.9792  141.5894  156.8541 O   0  0  0  0  0  0  0  0  0  0  0  0
  149.5839  140.6575  155.9587 C   0  0  0  0  0  0  0  0  0  0  0  0
  150.2132  140.3562  154.9449 O   0  0  0  0  0  0  0  0  0  0  0  0
  148.3004  140.0972  156.3293 N   0  0  0  0  0  0  0  0  0  0  0  0
  147.6164  139.1455  155.6585 C   0  0  0  0  0  0  0  0  0  0  0  0
  146.3178  139.3251  155.5008 N   0  0  0  0  0  0  0  0  0  0  0  0
  145.5013  138.4391  154.8492 C   0  0  0  0  0  0  0  0  0  0  0  0
  144.2981  138.6652  154.7302 O   0  0  0  0  0  0  0  0  0  0  0  0
  146.1017  137.2732  154.3178 N   0  0  0  0  0  0  0  0  0  0  0  0
  145.2499  136.2445  153.6075 C   0  0  2  0  0  0  0  0  0  0  0  0
  145.9259  135.0263  153.6566 O   0  0  0  0  0  0  0  0  0  0  0  0
  145.7371  134.3428  152.4285 C   0  0  2  0  0  0  0  0  0  0  0  0
  146.8610  133.3225  152.2164 C   0  0  0  0  0  0  0  0  0  0  0  0
  145.7027  135.4641  151.3877 C   0  0  1  0  0  0  0  0  0  0  0  0
  144.9749  135.0528  150.2478 O   0  0  0  0  0  0  0  0  0  0  0  0
  144.9804  136.5881  152.1228 C   0  0  2  0  0  0  0  0  0  0  0  0
  145.4639  137.8549  151.7126 O   0  0  0  0  0  0  0  0  0  0  0  0
  147.4674  137.0772  154.4556 C   0  0  0  0  0  0  0  0  0  0  0  0
  148.2523  137.9640  155.1034 C   0  0  0  0  0  0  0  0  0  0  0  0
  149.5762  137.7533  155.2054 F   0  0  0  0  0  0  0  0  0  0  0  0
  144.3279  136.1352  154.1795 H   0  0  0  0  0  0  0  0  0  0  0  0
  144.7705  133.8372  152.4741 H   0  0  0  0  0  0  0  0  0  0  0  0
  146.7169  135.7617  151.1153 H   0  0  0  0  0  0  0  0  0  0  0  0
  143.9024  136.5371  151.9619 H   0  0  0  0  0  0  0  0  0  0  0  0
  153.9066  141.9767  161.2643 H   0  0  0  0  0  0  0  0  0  0  0  0
  152.2110  141.5022  161.3140 H   0  0  0  0  0  0  0  0  0  0  0  0
  152.6672  143.1797  161.6102 H   0  0  0  0  0  0  0  0  0  0  0  0
  153.4927  143.3666  159.2428 H   0  0  0  0  0  0  0  0  0  0  0  0
  153.0473  141.7028  158.9487 H   0  0  0  0  0  0  0  0  0  0  0  0
  150.6587  142.2233  159.2797 H   0  0  0  0  0  0  0  0  0  0  0  0
  151.0426  143.8553  159.7700 H   0  0  0  0  0  0  0  0  0  0  0  0
  150.4257  144.1674  157.5170 H   0  0  0  0  0  0  0  0  0  0  0  0
  152.1639  144.0854  157.4092 H   0  0  0  0  0  0  0  0  0  0  0  0
  151.2539  142.6815  155.6349 H   0  0  0  0  0  0  0  0  0  0  0  0
  152.0233  141.6483  156.8135 H   0  0  0  0  0  0  0  0  0  0  0  0
  147.9387  140.4115  157.2177 H   0  0  0  0  0  0  0  0  0  0  0  0
  146.7390  132.7983  151.2682 H   0  0  0  0  0  0  0  0  0  0  0  0
  146.8646  132.5768  153.0117 H   0  0  0  0  0  0  0  0  0  0  0  0
  147.8382  133.8060  152.2090 H   0  0  0  0  0  0  0  0  0  0  0  0
  145.5494  135.0789  149.4979 H   0  0  0  0  0  0  0  0  0  0  0  0
  144.8505  138.2234  151.0957 H   0  0  0  0  0  0  0  0  0  0  0  0
  147.9268  136.1972  154.0286 H   0  0  0  0  0  0  0  0  0  0  0  0
  1  2  1  0  0  0  0
  1 30  1  0  0  0  0
  1 31  1  0  0  0  0
  1 32  1  0  0  0  0
  2  3  1  0  0  0  0
  2 33  1  0  0  0  0
  2 34  1  0  0  0  0
  3  4  1  0  0  0  0
  3 35  1  0  0  0  0
  3 36  1  0  0  0  0
  4  5  1  0  0  0  0
  4 37  1  0  0  0  0
  4 38  1  0  0  0  0
  5  6  1  0  0  0  0
  5 39  1  0  0  0  0
  5 40  1  0  0  0  0
  6  7  1  0  0  0  0
  7  8  2  0  0  0  0
  7  9  1  0  0  0  0
  9 10  1  0  0  0  0
  9 41  1  0  0  0  0
 10 24  1  0  0  0  0
 10 11  2  0  0  0  0
 11 12  1  0  0  0  0
 12 13  2  0  0  0  0
 12 14  1  0  0  0  0
 14 15  1  0  0  0  0
 14 23  1  0  0  0  0
 15 26  1  0  0  0  0
 15 21  1  0  0  0  0
 15 16  1  0  0  0  0
 16 17  1  0  0  0  0
 17 27  1  0  0  0  0
 17 18  1  0  0  0  0
 17 19  1  0  0  0  0
 18 42  1  0  0  0  0
 18 43  1  0  0  0  0
 18 44  1  0  0  0  0
 19 28  1  0  0  0  0
 19 20  1  0  0  0  0
 19 21  1  0  0  0  0
 20 45  1  0  0  0  0
 21 29  1  0  0  0  0
 21 22  1  0  0  0  0
 22 46  1  0  0  0  0
 23 24  2  0  0  0  0
 23 47  1  0  0  0  0
 24 25  1  0  0  0  0
M  END
> <s_m_source_file>
AV-unprocessed.smi

> <i_m_source_file_index>
40

> <i_lp_mmshare_version>
43012

> <i_f3d_flags>
0

> <s_epik_input>
W0NIM11bQ0gyXVtDSDJdW0NIMl1bQ0gyXU9DKD1PKVtOSF1jMW5jKD1PKW4oW2NIXWMxRilbQ0BASF0yT1tDQEhdKFtDSDNdKVtDQEBIXShbT0hdKVtDQEhdMltPSF0=

> <s_epik_cmdline>
J2VwaWtfcHl0aG9uJywgJy1waCcsICc3LjAnLCAnLXRuJywgJzgnLCAnLW1hJywgJzIwMCcsICctbWV0YWxfYmluZGluZycsICctaW1hZScsICc8aW5maWxlLm1hZT4nLCAnLW9tYWUnLCAnPG91dGZpbGUubWFlPic=

> <r_lp_tautomer_probability>
1

> <r_epik_Ionization_Penalty>
2.29506e-06

> <r_epik_Ionization_Penalty_Charging>
8.26867e-09

> <r_epik_Ionization_Penalty_Neutral>
2.2868e-06

> <r_epik_State_Penalty>
-0

> <r_epik_Charging_Adjusted_Penalty>
8.26867e-09

> <i_epik_Tot_Q>
0

> <i_epik_Tot_abs_Q>
0

> <r_epik_Metal_State_Penalty>
-0

> <b_epik_Metal_Only>
0

> <s_epik_Chemistry_Notes>
This compound has an ester and may undergo hydrolysis at high or low pH. This compound contains an acetal/aminal-like group ( X-CH(R)-Y where X, Y are N, S, or O) that may be acid/base labile, releasing an aldehyde.

> <s_lp_Force_Field>
OPLS_2005

> <r_lp_Energy>
38.1616

> <b_lp_Chiralities_Consistent>
1

> <s_lp_Variant>
AV-unprocessed.smi:40-9

> <Gold.Version>
5.8.1

> <Gold.Id.Protein>
6NUR|6NUR_protein|mol2

> <Gold.PLP.Fitness>
41.1827

> <Gold.PLP.PLP>
-31.5074

> <Gold.PLP.part.hbond>
-4.0000

> <Gold.PLP.part.metal>
0.0000

> <Gold.PLP.part.buried>
-4.4390

> <Gold.PLP.part.nonpolar>
-24.5618

> <Gold.PLP.part.repulsive>
0.4088

> <Gold.PLP.ligand.clash>
0.0000

> <Gold.PLP.ligand.torsion>
1.1526

> <Gold.PLP.Chemscore.Hbond>
2.9120

> <Gold.PLP.Chemscore.CHOScore>
1.0000

> <Gold.PLP.Chemscore.Metal>
0.0000

> <Gold.Chemscore.Hbonds>
donor molecule, donor type, donor heavy atom, donor atom, acceptor molecule, acceptor atom, score
      L1  H    20    45       P1  7921  1.00
      L1  H    22    46       P1 10171  1.00
      P1  H  7989  7998       L1     8  0.86
      L1  C    23    47       P1  7948  0.85

> <Gold.PLP.Chemscore.Internal.Correction>
0.2445

> <Gold.Rescore>
     Score         DG    S(hbond)    S(metal)    S(lipo)     H(rot)  DE(clash)    DE(int)     intcor
     11.31     -13.07       2.47        0.00      75.20       3.70       0.31       1.44       ----

> <Gold.Chemscore.Fitness>
11.3146

> <Gold.Chemscore.DG>
-13.0699

> <Gold.Chemscore.ZeroCoef>
-5.4800

> <Gold.Chemscore.Hbond>
2.4709

> <Gold.Chemscore.Metal>
0.0000

> <Gold.Chemscore.Lipo>
75.1959

> <Gold.Chemscore.Internal_Hbond>
0.0000

> <Gold.Chemscore.DEClash>
0.3139

> <Gold.Chemscore.DEInternal>
1.4413

> <Gold.Chemscore.Rot>
3.6957

> <Gold.Chemscore.Internal.Correction>
   9.000000E+99

> <Gold.Chemscore.Hbonds>
donor molecule, donor type, donor heavy atom, donor atom, acceptor molecule, acceptor atom, score
      L1  H    20    45       P1  7921  0.97
      L1  H    22    46       P1 10171  1.00
      P1  H  7989  7998       L1     8  0.81

> <Gold.Chemscore.Hbond.Weighted>
-8.2529

> <Gold.Chemscore.Metal.Weighted>
-0.0000

> <Gold.Chemscore.Lipo.Weighted>
-8.7979

> <Gold.Chemscore.Internal_Hbond.Weighted>
0.0000

> <Gold.Chemscore.DEClash.Weighted>
0.3139

> <Gold.Chemscore.DEInternal.Weighted>
1.4413

> <Gold.Chemscore.Rot.Weighted>
9.4610

> <Gold.Chemscore.Internal.Correction.Weighted>
   9.000000E+99

> <Gold.Protein.RotatedTorsions>
[ 6907 6896 6895 6894 ] final   56.26 input  -60.11 | X-H torsion
[ 7974 7965 7964 7962 ] final  119.84 input  175.53 | X-H torsion
[ 8008 7997 7996 7995 ] final   62.76 input   59.86 | X-H torsion
[ 10167 10162 10161 10158 ] final  -94.49 input  -65.29 | X-H torsion
[ 10718 10713 10712 10709 ] final  123.78 input   66.30 | X-H torsion
[ 10763 10752 10751 10750 ] final  105.70 input  -60.55 | X-H torsion
[ 11005 11000 10999 10996 ] final    2.71 input  -57.11 | X-H torsion

> <Gold.Protein.ActiveResidues>
 VAL166  LYS551  ARG553  GLY616  TRP617  ASP618  TYR619  PRO620  LYS621  CYS622 
 ASP623  PHE694  ASN695  SER759  ASP760  ASP761  ALA762  ILE779  LEU786  VAL792 
 PHE793  MET794  SER795  GLU796  ALA797  LYS798  CYS799  TRP800  GLU811  SER814 

> <Gold.Protein.RotatedAtoms>
  152.3619  134.6860  160.0204 H   0  0  0  0  0  0  0  0  0  0  0  0  # atno 6907 bound_to 6896
  151.7180  133.3308  159.3316 H   0  0  0  0  0  0  0  0  0  0  0  0  # atno 6908 bound_to 6896
  150.7611  134.6407  159.6280 H   0  0  0  0  0  0  0  0  0  0  0  0  # atno 6909 bound_to 6896
  145.1384  139.3283  143.4629 H   0  0  0  0  0  0  0  0  0  0  0  0  # atno 7974 bound_to 7965
  155.6195  140.3495  155.4647 H   0  0  0  0  0  0  0  0  0  0  0  0  # atno 8008 bound_to 7997
  156.0090  140.1229  157.0496 H   0  0  0  0  0  0  0  0  0  0  0  0  # atno 8009 bound_to 7997
  154.4274  140.1085  156.5789 H   0  0  0  0  0  0  0  0  0  0  0  0  # atno 8010 bound_to 7997
  140.3139  143.3088  152.0119 H   0  0  0  0  0  0  0  0  0  0  0  0  # atno 10167 bound_to 10162
  157.5637  131.1088  150.8492 H   0  0  0  0  0  0  0  0  0  0  0  0  # atno 10718 bound_to 10713
  153.3830  135.3901  155.1870 H   0  0  0  0  0  0  0  0  0  0  0  0  # atno 10763 bound_to 10752
  154.8710  135.3730  154.4833 H   0  0  0  0  0  0  0  0  0  0  0  0  # atno 10764 bound_to 10752
  153.5312  135.7086  153.5743 H   0  0  0  0  0  0  0  0  0  0  0  0  # atno 10765 bound_to 10752
  140.6012  133.9834  155.8133 H   0  0  0  0  0  0  0  0  0  0  0  0  # atno 11005 bound_to 11000
  146.3507  140.1411  142.8594 LP  0  0  0  0  0  0  0  0  0  0  0  0  # atno 17320 bound_to 7965
  145.0559  140.9052  143.4967 LP  0  0  0  0  0  0  0  0  0  0  0  0  # atno 17321 bound_to 7965
  139.4888  144.6363  151.6969 LP  0  0  0  0  0  0  0  0  0  0  0  0  # atno 17342 bound_to 10162
  140.5543  144.0373  150.6141 LP  0  0  0  0  0  0  0  0  0  0  0  0  # atno 17343 bound_to 10162
  156.8983  130.5237  149.5283 LP  0  0  0  0  0  0  0  0  0  0  0  0  # atno 17370 bound_to 10713
  156.0687  130.5725  150.9341 LP  0  0  0  0  0  0  0  0  0  0  0  0  # atno 17371 bound_to 10713
  141.0870  133.9974  157.3297 LP  0  0  0  0  0  0  0  0  0  0  0  0  # atno 17394 bound_to 11000
  139.9231  135.0201  156.8138 LP  0  0  0  0  0  0  0  0  0  0  0  0  # atno 17395 bound_to 11000

$$$$
