#       Name:                AV-unprocessed.smi:157
#       Creating user name   scv26
#       Creation time:       Thu Mar 26 18:59:13 2020


#       File generated by GOLD software.
#

@<TRIPOS>MOLECULE
AV-unprocessed.smi:157
    45    47     1
SMALL
NO_CHARGES


@<TRIPOS>ATOM
      1 ****        -4.8641   1.8384   0.3807 O.3            1 S1                 0.0000
      2 ****        -3.6790   1.0850   0.5352 C.3            1 S1                 0.0000
      3 ****        -2.5316   1.9701   1.0649 C.3            1 S1                 0.0000
      4 ****        -1.5328   1.0951   1.5940 O.3            1 S1                 0.0000
      5 ****        -0.3722   1.1425   0.8169 C.3            1 S1                 0.0000
      6 ****         0.0834  -0.2551   0.5365 N.pl3          1 S1                 0.0000
      7 ****        -0.6802  -1.3559   0.5211 C.2            1 S1                 0.0000
      8 ****        -0.0292  -2.4720   0.2392 N.2            1 S1                 0.0000
      9 ****         1.2856  -2.0533   0.0412 C.2            1 S1                 0.0000
     10 ****         1.3749  -0.6791   0.2124 C.2            1 S1                 0.0000
     11 ****         2.3769   0.2702   0.1454 N.2            1 S1                 0.0000
     12 ****         3.4647  -0.0381  -0.4874 C.2            1 S1                 0.0000
     13 ****         3.8576  -1.2399  -1.0588 N.pl3          1 S1                 0.0000
     14 ****         3.7735  -2.5154  -0.3678 C.3            1 S1                 0.0000
     15 ****         2.3462  -3.0688  -0.2741 C.3            1 S1                 0.0000
     16 ****         1.9966  -3.6640  -1.5071 O.3            1 S1                 0.0000
     17 ****        -0.7331   1.8508  -0.4838 C.3            1 S1                 0.0000
     18 ****        -1.7881   2.8129   0.0122 C.3            1 S1                 0.0000
     19 ****        -2.5943   3.2911  -1.0455 O.3            1 S1                 0.0000
     20 ****        -2.9024   2.6023   1.8729 H              1 S1                 0.0000
     21 ****         0.4329   1.6221   1.3749 H              1 S1                 0.0000
     22 ****         2.3323  -3.8621   0.4739 H              1 S1                 0.0000
     23 ****        -1.3043   3.6594   0.5014 H              1 S1                 0.0000
     24 ****        -5.5500   1.2619   0.0797 H              1 S1                 0.0000
     25 ****        -3.8918   0.2898   1.2502 H              1 S1                 0.0000
     26 ****        -3.4141   0.6024  -0.4058 H              1 S1                 0.0000
     27 ****        -1.7410  -1.3413   0.7236 H              1 S1                 0.0000
     28 ****         4.2278   0.7316  -0.6115 H              1 S1                 0.0000
     29 ****         4.6221  -1.2312  -1.7185 H              1 S1                 0.0000
     30 ****         4.4404  -3.2381  -0.8389 H              1 S1                 0.0000
     31 ****         4.1569  -2.3610   0.6418 H              1 S1                 0.0000
     32 ****         1.1353  -4.0431  -1.4175 H              1 S1                 0.0000
     33 ****         0.1374   2.3328  -0.9295 H              1 S1                 0.0000
     34 ****        -1.1522   1.1343  -1.1926 H              1 S1                 0.0000
     35 ****        -3.2834   3.8245  -0.6793 H              1 S1                 0.0000
     36 ****        -4.7164   2.5654  -0.2899 LP             1 S1                 0.0000
     37 ****        -5.1238   2.2420   1.2580 LP             1 S1                 0.0000
     38 ****        -1.8859   0.1595   1.5999 LP             1 S1                 0.0000
     39 ****        -1.3135   1.3745   2.5288 LP             1 S1                 0.0000
     40 ****        -0.3952  -3.4008   0.1815 LP             1 S1                 0.0000
     41 ****         2.2658   1.1677   0.5723 LP             1 S1                 0.0000
     42 ****         2.6582  -4.3772  -1.7386 LP             1 S1                 0.0000
     43 ****         1.9882  -2.9706  -2.2276 LP             1 S1                 0.0000
     44 ****        -2.9924   2.5196  -1.5418 LP             1 S1                 0.0000
     45 ****        -2.0396   3.8395  -1.6713 LP             1 S1                 0.0000
@<TRIPOS>BOND
    1    1    2 1     
    2    1   24 1     
    3    2    3 1     
    4    2   25 1     
    5    2   26 1     
    6    3   20 1     
    7    3   18 1     
    8    3    4 1     
    9    4    5 1     
   10    5   21 1     
   11    5    6 1     
   12    5   17 1     
   13    6   10 1     
   14    6    7 1     
   15    7    8 2     
   16    7   27 1     
   17    8    9 1     
   18    9   15 1     
   19    9   10 2     
   20   10   11 1     
   21   11   12 2     
   22   12   13 1     
   23   12   28 1     
   24   13   14 1     
   25   13   29 1     
   26   14   15 1     
   27   14   30 1     
   28   14   31 1     
   29   15   22 1     
   30   15   16 1     
   31   16   32 1     
   32   17   18 1     
   33   17   33 1     
   34   17   34 1     
   35   18   23 1     
   36   18   19 1     
   37   19   35 1     
   38    1   36 1     
   39    1   37 1     
   40    4   38 1     
   41    4   39 1     
   42    8   40 1     
   43   11   41 1     
   44   16   42 1     
   45   16   43 1     
   46   19   44 1     
   47   19   45 1     
@<TRIPOS>SUBSTRUCTURE
      1 S1             1
@<TRIPOS>SET
LONE_PAIRS      STATIC     ATOMS    <user>   **** ""
10 36 37 38 39 40 41 42 43 44 45
DONOR_HYDROGENS      STATIC     ATOMS    <user>   **** ""
4 24 29 32 35
ATOM$BLUE        STATIC     ATOMS    COLORGROUP SYSTEM
10 36 37 38 39 40 41 42 43 44 45
ATOM$RED        STATIC     ATOMS    COLORGROUP SYSTEM
4 24 29 32 35
