AV-unprocessed.smi:160|AV-procd|sdf|1343|dock9
  -GOLD-   2262019 43D 1   1.00000     0.00000
 Structure written by MMmdl.
 29 30  0  0  0  0  0  0  0  0  1 V2000
  154.6284  140.2854  160.3607 N   0  0  0  0  0  0  0  0  0  0  0  0
  154.8848  139.8829  159.1118 C   0  0  0  0  0  0  0  0  0  0  0  0
  156.0304  139.7247  158.6936 O   0  0  0  0  0  0  0  0  0  0  0  0
  153.6887  139.6316  158.2357 C   0  0  0  0  0  0  0  0  0  0  0  0
  152.4185  139.7894  158.7131 N   0  0  0  0  0  0  0  0  0  0  0  0
  151.7423  139.4630  157.6191 C   0  0  0  0  0  0  0  0  0  0  0  0
  152.5129  139.1508  156.5724 N   0  0  0  0  0  0  0  0  0  0  0  0
  152.1310  138.7036  155.1991 C   0  0  2  0  0  0  0  0  0  0  0  0
  151.3198  139.7009  154.6518 O   0  0  0  0  0  0  0  0  0  0  0  0
  150.0812  139.1578  154.2007 C   0  0  2  0  0  0  0  0  0  0  0  0
  148.9718  140.2094  154.3550 C   0  0  0  0  0  0  0  0  0  0  0  0
  149.2641  141.3429  153.5664 O   0  0  0  0  0  0  0  0  0  0  0  0
  149.8874  137.9309  155.0933 C   0  0  1  0  0  0  0  0  0  0  0  0
  149.0036  136.9702  154.5457 O   0  0  0  0  0  0  0  0  0  0  0  0
  151.3092  137.4067  155.2529 C   0  0  1  0  0  0  0  0  0  0  0  0
  151.6879  136.5293  154.2083 O   0  0  0  0  0  0  0  0  0  0  0  0
  153.8083  139.2436  156.9648 N   0  0  0  0  0  0  0  0  0  0  0  0
  153.0783  138.6096  154.6658 H   0  0  0  0  0  0  0  0  0  0  0  0
  150.1892  138.8401  153.1616 H   0  0  0  0  0  0  0  0  0  0  0  0
  149.5063  138.2423  156.0667 H   0  0  0  0  0  0  0  0  0  0  0  0
  151.4506  136.8861  156.2013 H   0  0  0  0  0  0  0  0  0  0  0  0
  155.3905  140.4700  160.9961 H   0  0  0  0  0  0  0  0  0  0  0  0
  153.6711  140.4019  160.6597 H   0  0  0  0  0  0  0  0  0  0  0  0
  150.6629  139.4500  157.5807 H   0  0  0  0  0  0  0  0  0  0  0  0
  148.0203  139.8070  154.0069 H   0  0  0  0  0  0  0  0  0  0  0  0
  148.8402  140.4951  155.3993 H   0  0  0  0  0  0  0  0  0  0  0  0
  149.2975  141.0785  152.6599 H   0  0  0  0  0  0  0  0  0  0  0  0
  149.2596  136.8010  153.6519 H   0  0  0  0  0  0  0  0  0  0  0  0
  151.1865  136.7523  153.4386 H   0  0  0  0  0  0  0  0  0  0  0  0
  1  2  1  0  0  0  0
  1 22  1  0  0  0  0
  1 23  1  0  0  0  0
  2  3  2  0  0  0  0
  2  4  1  0  0  0  0
  4 17  2  0  0  0  0
  4  5  1  0  0  0  0
  5  6  2  0  0  0  0
  6  7  1  0  0  0  0
  6 24  1  0  0  0  0
  7  8  1  0  0  0  0
  7 17  1  0  0  0  0
  8 18  1  0  0  0  0
  8 15  1  0  0  0  0
  8  9  1  0  0  0  0
  9 10  1  0  0  0  0
 10 19  1  0  0  0  0
 10 11  1  0  0  0  0
 10 13  1  0  0  0  0
 11 12  1  0  0  0  0
 11 25  1  0  0  0  0
 11 26  1  0  0  0  0
 12 27  1  0  0  0  0
 13 20  1  0  0  0  0
 13 14  1  0  0  0  0
 13 15  1  0  0  0  0
 14 28  1  0  0  0  0
 15 21  1  0  0  0  0
 15 16  1  0  0  0  0
 16 29  1  0  0  0  0
M  END
> <s_m_source_file>
AV-unprocessed.smi

> <i_m_source_file_index>
160

> <i_lp_mmshare_version>
43012

> <i_f3d_flags>
0

> <s_epik_input>
W05IMl1DKD1PKWMxbltjSF1uKG4xKVtDQEBIXTJPW0NASF0oW0NIMl1bT0hdKVtDQEBIXShbT0hdKVtDQEhdMltPSF0=

> <s_epik_cmdline>
J2VwaWtfcHl0aG9uJywgJy1waCcsICc3LjAnLCAnLXRuJywgJzgnLCAnLW1hJywgJzIwMCcsICctbWV0YWxfYmluZGluZycsICctaW1hZScsICc8aW5maWxlLm1hZT4nLCAnLW9tYWUnLCAnPG91dGZpbGUubWFlPic=

> <r_lp_tautomer_probability>
1

> <r_epik_Ionization_Penalty>
1.06932e-05

> <r_epik_Ionization_Penalty_Charging>
0

> <r_epik_Ionization_Penalty_Neutral>
1.06932e-05

> <r_epik_State_Penalty>
-0

> <r_epik_Charging_Adjusted_Penalty>
0

> <i_epik_Tot_Q>
0

> <i_epik_Tot_abs_Q>
0

> <r_epik_Metal_State_Penalty>
0.0142097

> <b_epik_Metal_Only>
0

> <s_epik_Chemistry_Notes>
This compound contains an acetal/aminal-like group ( X-CH(R)-Y where X, Y are N, S, or O) that may be acid/base labile, releasing an aldehyde.

> <s_lp_Force_Field>
OPLS_2005

> <r_lp_Energy>
39.0499

> <b_lp_Chiralities_Consistent>
1

> <s_lp_Variant>
AV-unprocessed.smi:160-1

> <Gold.Version>
5.8.1

> <Gold.Id.Protein>
6NUR|6NUR_protein|mol2

> <Gold.PLP.Fitness>
45.2228

> <Gold.PLP.PLP>
-26.7554

> <Gold.PLP.part.hbond>
-8.6177

> <Gold.PLP.part.metal>
0.0000

> <Gold.PLP.part.buried>
-1.7921

> <Gold.PLP.part.nonpolar>
-15.5847

> <Gold.PLP.part.repulsive>
0.1102

> <Gold.PLP.ligand.clash>
0.0000

> <Gold.PLP.ligand.torsion>
0.0197

> <Gold.PLP.Chemscore.Hbond>
6.1604

> <Gold.PLP.Chemscore.CHOScore>
0.0000

> <Gold.PLP.Chemscore.Metal>
0.0000

> <Gold.Chemscore.Hbonds>
donor molecule, donor type, donor heavy atom, donor atom, acceptor molecule, acceptor atom, score
      L1  H    12    27       P1  7957  1.00
      L1  H    14    28       P1  7948  1.00
      L1  H    16    29       P1  7949  0.54
      P1  H  7989  7998       L1     9  1.00
      P1  H  7997  8008       L1    17  0.12
      P1  H  7997  8010       L1     3  0.73
      P1  H 10752 10765       L1    16  1.00

> <Gold.PLP.Chemscore.Internal.Correction>
0.0256

> <Gold.Rescore>
     Score         DG    S(hbond)    S(metal)    S(lipo)     H(rot)  DE(clash)    DE(int)     intcor
     15.47     -15.63       5.33        0.00      23.29       4.06       0.13       0.03       ----

> <Gold.Chemscore.Fitness>
15.4713

> <Gold.Chemscore.DG>
-15.6291

> <Gold.Chemscore.ZeroCoef>
-5.4800

> <Gold.Chemscore.Hbond>
5.3347

> <Gold.Chemscore.Metal>
0.0000

> <Gold.Chemscore.Lipo>
23.2885

> <Gold.Chemscore.Internal_Hbond>
0.0000

> <Gold.Chemscore.DEClash>
0.1293

> <Gold.Chemscore.DEInternal>
0.0285

> <Gold.Chemscore.Rot>
4.0600

> <Gold.Chemscore.Internal.Correction>
   9.000000E+99

> <Gold.Chemscore.Hbonds>
donor molecule, donor type, donor heavy atom, donor atom, acceptor molecule, acceptor atom, score
      L1  H    12    27       P1  7957  1.00
      L1  H    14    28       P1  7948  0.96
      L1  H    16    29       P1  7949  0.26
      P1  H  7989  7998       L1     9  0.40
      P1  H  7997  8008       L1    17  0.06
      P1  H  7997  8010       L1     3  0.12
      P1  H 10752 10765       L1    16  0.88

> <Gold.Chemscore.Hbond.Weighted>
-17.8180

> <Gold.Chemscore.Metal.Weighted>
-0.0000

> <Gold.Chemscore.Lipo.Weighted>
-2.7248

> <Gold.Chemscore.Internal_Hbond.Weighted>
0.0000

> <Gold.Chemscore.DEClash.Weighted>
0.1293

> <Gold.Chemscore.DEInternal.Weighted>
0.0285

> <Gold.Chemscore.Rot.Weighted>
10.3936

> <Gold.Chemscore.Internal.Correction.Weighted>
   9.000000E+99

> <Gold.Protein.RotatedTorsions>
[ 6907 6896 6895 6894 ] final  172.38 input  -60.11 | X-H torsion
[ 7974 7965 7964 7962 ] final  -80.74 input  175.53 | X-H torsion
[ 8008 7997 7996 7995 ] final  -38.56 input   59.86 | X-H torsion
[ 10167 10162 10161 10158 ] final  -35.75 input  -65.29 | X-H torsion
[ 10718 10713 10712 10709 ] final   77.66 input   66.30 | X-H torsion
[ 10763 10752 10751 10750 ] final  174.47 input  -60.55 | X-H torsion
[ 11005 11000 10999 10996 ] final  -34.63 input  -57.11 | X-H torsion

> <Gold.Protein.ActiveResidues>
 VAL166  LYS551  ARG553  GLY616  TRP617  ASP618  TYR619  PRO620  LYS621  CYS622 
 ASP623  PHE694  ASN695  SER759  ASP760  ASP761  ALA762  ILE779  LEU786  VAL792 
 PHE793  MET794  SER795  GLU796  ALA797  LYS798  CYS799  TRP800  GLU811  SER814 

> <Gold.Protein.RotatedAtoms>
  151.7852  133.3353  159.3482 H   0  0  0  0  0  0  0  0  0  0  0  0  # atno 6907 bound_to 6896
  150.7412  134.5894  159.5989 H   0  0  0  0  0  0  0  0  0  0  0  0  # atno 6908 bound_to 6896
  152.3248  134.7336  160.0356 H   0  0  0  0  0  0  0  0  0  0  0  0  # atno 6909 bound_to 6896
  145.5559  140.9489  143.1474 H   0  0  0  0  0  0  0  0  0  0  0  0  # atno 7974 bound_to 7965
  154.4035  140.1574  156.2720 H   0  0  0  0  0  0  0  0  0  0  0  0  # atno 8008 bound_to 7997
  155.8945  140.3437  155.5958 H   0  0  0  0  0  0  0  0  0  0  0  0  # atno 8009 bound_to 7997
  155.7520  140.0806  157.2187 H   0  0  0  0  0  0  0  0  0  0  0  0  # atno 8010 bound_to 7997
  140.7158  143.3455  151.2265 H   0  0  0  0  0  0  0  0  0  0  0  0  # atno 10167 bound_to 10162
  157.6718  130.9832  150.1673 H   0  0  0  0  0  0  0  0  0  0  0  0  # atno 10718 bound_to 10713
  154.4543  135.2765  155.1759 H   0  0  0  0  0  0  0  0  0  0  0  0  # atno 10763 bound_to 10752
  154.3573  135.6137  153.5676 H   0  0  0  0  0  0  0  0  0  0  0  0  # atno 10764 bound_to 10752
  152.9849  135.5826  154.4893 H   0  0  0  0  0  0  0  0  0  0  0  0  # atno 10765 bound_to 10752
  140.9732  133.7098  156.1558 H   0  0  0  0  0  0  0  0  0  0  0  0  # atno 11005 bound_to 11000
  144.7506  139.7203  143.7274 LP  0  0  0  0  0  0  0  0  0  0  0  0  # atno 17320 bound_to 7965
  146.1885  139.5112  142.9821 LP  0  0  0  0  0  0  0  0  0  0  0  0  # atno 17321 bound_to 7965
  139.6974  143.9590  152.2889 LP  0  0  0  0  0  0  0  0  0  0  0  0  # atno 17342 bound_to 10162
  139.9272  144.6764  150.8400 LP  0  0  0  0  0  0  0  0  0  0  0  0  # atno 17343 bound_to 10162
  156.2435  130.3693  149.8310 LP  0  0  0  0  0  0  0  0  0  0  0  0  # atno 17370 bound_to 10713
  156.6103  130.8584  151.3453 LP  0  0  0  0  0  0  0  0  0  0  0  0  # atno 17371 bound_to 10713
  140.7298  134.4267  157.5567 LP  0  0  0  0  0  0  0  0  0  0  0  0  # atno 17394 bound_to 11000
  139.8920  134.8765  156.2292 LP  0  0  0  0  0  0  0  0  0  0  0  0  # atno 17395 bound_to 11000

$$$$
