#       Name:                AV-unprocessed.smi:1875
#       Creating user name   scv26
#       Creation time:       Fri Mar 27 09:34:04 2020


#       File generated by GOLD software.
#

@<TRIPOS>MOLECULE
AV-unprocessed.smi:1875
    53    55     1
SMALL
NO_CHARGES


@<TRIPOS>ATOM
      1 ****        -4.5783  -1.3301  -0.1883 C.3            1 S1                 0.0000
      2 ****        -4.0512   0.0750   0.0150 C.ar           1 S1                 0.0000
      3 ****        -4.1892   0.6040   1.2344 N.ar           1 S1                 0.0000
      4 ****        -3.7202   1.8578   1.4151 C.ar           1 S1                 0.0000
      5 ****        -3.1028   2.5754   0.3704 C.ar           1 S1                 0.0000
      6 ****        -3.0120   1.9135  -0.8719 C.ar           1 S1                 0.0000
      7 ****        -2.3514   2.5718  -2.0691 C.3            1 S1                 0.0000
      8 ****        -0.8812   2.4217  -2.0368 N.4            1 S1                 1.0000
      9 ****        -0.3923   1.0446  -2.2648 C.3            1 S1                 0.0000
     10 ****         1.1451   0.9755  -2.2184 C.3            1 S1                 0.0000
     11 ****         1.6724   1.6970  -3.3124 O.3            1 S1                 0.0000
     12 ****         1.7006  -0.4623  -2.2908 C.3            1 S1                 0.0000
     13 ****         1.2097  -1.3293  -1.2110 N.pl3          1 S1                 0.0000
     14 ****         0.2392  -2.2845  -1.2238 C.2            1 S1                 0.0000
     15 ****         0.1590  -2.8046   0.0322 N.pl3          1 S1                 1.0000
     16 ****         1.0991  -2.1814   0.8558 C.ar           1 S1                 0.0000
     17 ****         1.3994  -2.3687   2.1997 C.ar           1 S1                 0.0000
     18 ****         2.4286  -1.5702   2.7479 C.ar           1 S1                 0.0000
     19 ****         2.7831  -1.7522   4.2139 C.3            1 S1                 0.0000
     20 ****         3.1191  -0.6201   1.9514 C.ar           1 S1                 0.0000
     21 ****         4.2268   0.2298   2.5509 C.3            1 S1                 0.0000
     22 ****         2.7961  -0.4420   0.5868 C.ar           1 S1                 0.0000
     23 ****         1.7798  -1.2371   0.0631 C.ar           1 S1                 0.0000
     24 ****        -3.4884   0.6602  -1.0466 N.ar           1 S1                 0.0000
     25 ****        -4.8934  -1.7794   0.7546 H              1 S1                 0.0000
     26 ****        -3.8079  -1.9660  -0.6253 H              1 S1                 0.0000
     27 ****        -5.4358  -1.3162  -0.8616 H              1 S1                 0.0000
     28 ****        -3.8332   2.2888   2.3987 H              1 S1                 0.0000
     29 ****        -2.7242   3.5761   0.5191 H              1 S1                 0.0000
     30 ****        -2.7493   2.1654  -3.0003 H              1 S1                 0.0000
     31 ****        -2.5918   3.6352  -2.0630 H              1 S1                 0.0000
     32 ****        -0.4884   3.0110  -2.7569 H              1 S1                 0.0000
     33 ****        -0.8059   0.4033  -1.4878 H              1 S1                 0.0000
     34 ****        -0.7652   0.6710  -3.2195 H              1 S1                 0.0000
     35 ****         1.4977   1.4502  -1.3020 H              1 S1                 0.0000
     36 ****         1.4473   1.2463  -4.1125 H              1 S1                 0.0000
     37 ****         1.4160  -0.9301  -3.2345 H              1 S1                 0.0000
     38 ****         2.7913  -0.4634  -2.2614 H              1 S1                 0.0000
     39 ****        -0.3624  -2.5746  -2.0735 H              1 S1                 0.0000
     40 ****         0.8712  -3.0951   2.8003 H              1 S1                 0.0000
     41 ****         3.8218  -2.0659   4.3205 H              1 S1                 0.0000
     42 ****         2.1560  -2.5101   4.6843 H              1 S1                 0.0000
     43 ****         2.6440  -0.8191   4.7607 H              1 S1                 0.0000
     44 ****         4.6690   0.8930   1.8069 H              1 S1                 0.0000
     45 ****         5.0227  -0.4012   2.9472 H              1 S1                 0.0000
     46 ****         3.8388   0.8481   3.3607 H              1 S1                 0.0000
     47 ****         3.3223   0.2804  -0.0199 H              1 S1                 0.0000
     48 ****        -0.5455   2.7438  -1.1404 H              1 S1                 0.0000
     49 ****        -0.4850  -3.5370   0.3034 H              1 S1                 0.0000
     50 ****        -4.6202   0.0948   1.9793 LP             1 S1                 0.0000
     51 ****         2.6671   1.7554  -3.2282 LP             1 S1                 0.0000
     52 ****         1.2843   2.6186  -3.3254 LP             1 S1                 0.0000
     53 ****        -3.4228   0.1933  -1.9284 LP             1 S1                 0.0000
@<TRIPOS>BOND
    1    1    2 1     
    2    1   25 1     
    3    1   26 1     
    4    1   27 1     
    5    2   24 ar    
    6    2    3 ar    
    7    3    4 ar    
    8    4    5 ar    
    9    4   28 1     
   10    5    6 ar    
   11    5   29 1     
   12    6    7 1     
   13    6   24 ar    
   14    7    8 1     
   15    7   30 1     
   16    7   31 1     
   17    8    9 1     
   18    8   32 1     
   19    8   48 1     
   20    9   10 1     
   21    9   33 1     
   22    9   34 1     
   23   10   11 1     
   24   10   12 1     
   25   10   35 1     
   26   11   36 1     
   27   12   13 1     
   28   12   37 1     
   29   12   38 1     
   30   13   23 1     
   31   13   14 1     
   32   14   15 2     
   33   14   39 1     
   34   15   16 1     
   35   15   49 1     
   36   16   23 ar    
   37   16   17 ar    
   38   17   18 ar    
   39   17   40 1     
   40   18   19 1     
   41   18   20 ar    
   42   19   41 1     
   43   19   42 1     
   44   19   43 1     
   45   20   21 1     
   46   20   22 ar    
   47   21   44 1     
   48   21   45 1     
   49   21   46 1     
   50   22   23 ar    
   51   22   47 1     
   52    3   50 1     
   53   11   51 1     
   54   11   52 1     
   55   24   53 1     
@<TRIPOS>SUBSTRUCTURE
      1 S1             1
@<TRIPOS>SET
LONE_PAIRS      STATIC     ATOMS    <user>   **** ""
4 50 51 52 53
DONOR_HYDROGENS      STATIC     ATOMS    <user>   **** ""
4 32 48 36 49
ATOM$BLUE        STATIC     ATOMS    COLORGROUP SYSTEM
4 50 51 52 53
ATOM$RED        STATIC     ATOMS    COLORGROUP SYSTEM
4 32 48 36 49
