AV-unprocessed.smi:2667|AV-procd|sdf|10336|dock5
  -GOLD-   2272014353D 1   1.00000     0.00000
 Structure written by MMmdl.
 45 47  0  0  0  0  0  0  0  0  2 V2000
  152.4999  141.6511  158.9229 C   0  0  0  0  0  0  0  0  0  0  0  0
  151.2100  141.2505  158.1896 C   0  0  0  0  0  0  0  0  0  0  0  0
  151.4357  140.2990  157.0043 C   0  0  0  0  0  0  0  0  0  0  0  0
  152.5772  139.9291  156.7256 O   0  0  0  0  0  0  0  0  0  0  0  0
  150.2332  139.8623  156.2369 C   0  0  0  0  0  0  0  0  0  0  0  0
  148.9767  139.6714  156.8582 C   0  0  0  0  0  0  0  0  0  0  0  0
  147.8628  139.2567  156.1036 C   0  0  0  0  0  0  0  0  0  0  0  0
  147.9729  139.0214  154.7195 C   0  0  0  0  0  0  0  0  0  0  0  0
  146.8330  138.6121  154.0639 O   0  0  0  0  0  0  0  0  0  0  0  0
  146.8223  138.6316  152.6430 C   0  0  0  0  0  0  0  0  0  0  0  0
  145.7994  137.6235  152.0838 C   0  0  2  0  0  0  0  0  0  0  0  0
  144.5044  137.9964  152.5071 O   0  0  0  0  0  0  0  0  0  0  0  0
  146.0958  136.1248  152.3408 C   0  0  0  0  0  0  0  0  0  0  0  0
  145.2294  135.1765  151.6220 N   0  0  0  0  0  0  0  0  0  0  0  0
  144.1159  135.4115  150.8744 C   0  0  0  0  0  0  0  0  0  0  0  0
  143.6650  134.2118  150.4154 N   0  3  0  0  0  0  0  0  0  0  0  0
  144.4900  133.1912  150.8918 C   0  0  0  0  0  0  0  0  0  0  0  0
  144.4342  131.8134  150.7042 C   0  0  0  0  0  0  0  0  0  0  0  0
  145.4324  131.0469  151.3405 C   0  0  0  0  0  0  0  0  0  0  0  0
  146.4327  131.6526  152.1281 C   0  0  0  0  0  0  0  0  0  0  0  0
  146.4791  133.0503  152.3117 C   0  0  0  0  0  0  0  0  0  0  0  0
  145.4928  133.8026  151.6748 C   0  0  0  0  0  0  0  0  0  0  0  0
  149.2284  139.2150  154.0941 C   0  0  0  0  0  0  0  0  0  0  0  0
  150.3435  139.6300  154.8473 C   0  0  0  0  0  0  0  0  0  0  0  0
  152.2755  142.3193  159.7544 H   0  0  0  0  0  0  0  0  0  0  0  0
  153.1900  142.1728  158.2588 H   0  0  0  0  0  0  0  0  0  0  0  0
  153.0140  140.7799  159.3306 H   0  0  0  0  0  0  0  0  0  0  0  0
  150.5309  140.7716  158.8952 H   0  0  0  0  0  0  0  0  0  0  0  0
  150.7112  142.1487  157.8248 H   0  0  0  0  0  0  0  0  0  0  0  0
  148.8406  139.8370  157.9163 H   0  0  0  0  0  0  0  0  0  0  0  0
  146.9106  139.1158  156.5941 H   0  0  0  0  0  0  0  0  0  0  0  0
  146.5909  139.6351  152.2822 H   0  0  0  0  0  0  0  0  0  0  0  0
  147.8117  138.3654  152.2678 H   0  0  0  0  0  0  0  0  0  0  0  0
  145.7926  137.7571  151.0016 H   0  0  0  0  0  0  0  0  0  0  0  0
  144.4643  138.9390  152.5565 H   0  0  0  0  0  0  0  0  0  0  0  0
  147.1344  135.8913  152.1042 H   0  0  0  0  0  0  0  0  0  0  0  0
  145.9784  135.9139  153.4045 H   0  0  0  0  0  0  0  0  0  0  0  0
  143.6795  136.3784  150.6680 H   0  0  0  0  0  0  0  0  0  0  0  0
  143.6673  131.3463  150.1041 H   0  0  0  0  0  0  0  0  0  0  0  0
  145.4300  129.9726  151.2232 H   0  0  0  0  0  0  0  0  0  0  0  0
  147.1804  131.0327  152.6009 H   0  0  0  0  0  0  0  0  0  0  0  0
  147.2498  133.5032  152.9168 H   0  0  0  0  0  0  0  0  0  0  0  0
  149.3636  139.0526  153.0358 H   0  0  0  0  0  0  0  0  0  0  0  0
  151.2878  139.7678  154.3404 H   0  0  0  0  0  0  0  0  0  0  0  0
  142.8517  134.1009  149.8236 H   0  0  0  0  0  0  0  0  0  0  0  0
  1  2  1  0  0  0  0
  1 25  1  0  0  0  0
  1 26  1  0  0  0  0
  1 27  1  0  0  0  0
  2  3  1  0  0  0  0
  2 28  1  0  0  0  0
  2 29  1  0  0  0  0
  3  4  2  0  0  0  0
  3  5  1  0  0  0  0
  5 24  1  0  0  0  0
  5  6  2  0  0  0  0
  6  7  1  0  0  0  0
  6 30  1  0  0  0  0
  7  8  2  0  0  0  0
  7 31  1  0  0  0  0
  8  9  1  0  0  0  0
  8 23  1  0  0  0  0
  9 10  1  0  0  0  0
 10 11  1  0  0  0  0
 10 32  1  0  0  0  0
 10 33  1  0  0  0  0
 11 12  1  0  0  0  0
 11 13  1  0  0  0  0
 11 34  1  0  0  0  0
 12 35  1  0  0  0  0
 13 14  1  0  0  0  0
 13 36  1  0  0  0  0
 13 37  1  0  0  0  0
 14 22  1  0  0  0  0
 14 15  1  0  0  0  0
 15 16  2  0  0  0  0
 15 38  1  0  0  0  0
 16 17  1  0  0  0  0
 16 45  1  0  0  0  0
 17 22  2  0  0  0  0
 17 18  1  0  0  0  0
 18 19  2  0  0  0  0
 18 39  1  0  0  0  0
 19 20  1  0  0  0  0
 19 40  1  0  0  0  0
 20 21  2  0  0  0  0
 20 41  1  0  0  0  0
 21 22  1  0  0  0  0
 21 42  1  0  0  0  0
 23 24  2  0  0  0  0
 23 43  1  0  0  0  0
 24 44  1  0  0  0  0
M  CHG  1  16   1
M  END
> <s_m_source_file>
AV-unprocessed.smi

> <i_m_source_file_index>
2667

> <i_lp_mmshare_version>
43012

> <i_f3d_flags>
0

> <s_epik_input>
W0NIM11bQ0gyXUMoPU8pYzFbY0hdW2NIXWMoW2NIXVtjSF0xKU9bQ0gyXVtDQEhdKFtPSF0pW0NIMl1uKFtjSF1uMiljKGMyMylbY0hdW2NIXVtjSF1bY0hdMw==

> <s_epik_cmdline>
J2VwaWtfcHl0aG9uJywgJy1waCcsICc3LjAnLCAnLXRuJywgJzgnLCAnLW1hJywgJzIwMCcsICctbWV0YWxfYmluZGluZycsICctaW1hZScsICc8aW5maWxlLm1hZT4nLCAnLW9tYWUnLCAnPG91dGZpbGUubWFlPic=

> <r_lp_tautomer_probability>
0.9999

> <r_epik_Ionization_Penalty>
1.40272

> <r_epik_Ionization_Penalty_Charging>
1.40272

> <r_epik_Ionization_Penalty_Neutral>
2.3993e-06

> <r_epik_State_Penalty>
1.48501

> <r_epik_Charging_Adjusted_Penalty>
2.88772

> <i_epik_Tot_Q>
1

> <i_epik_Tot_abs_Q>
1

> <r_epik_Metal_State_Penalty>
5.5274

> <b_epik_Metal_Only>
0

> <s_lp_Force_Field>
OPLS_2005

> <r_lp_Energy>
30.2491

> <b_lp_Chiralities_Consistent>
1

> <s_lp_Variant>
AV-unprocessed.smi:2667-3

> <Gold.Version>
5.8.1

> <Gold.Id.Protein>
6NUR|6NUR_protein|mol2

> <Gold.PLP.Fitness>
52.7524

> <Gold.PLP.PLP>
-39.2758

> <Gold.PLP.part.hbond>
-4.0000

> <Gold.PLP.part.metal>
0.0000

> <Gold.PLP.part.buried>
-1.8200

> <Gold.PLP.part.nonpolar>
-33.8357

> <Gold.PLP.part.repulsive>
0.1647

> <Gold.PLP.ligand.clash>
0.0000

> <Gold.PLP.ligand.torsion>
0.8192

> <Gold.PLP.Chemscore.Hbond>
3.9840

> <Gold.PLP.Chemscore.CHOScore>
1.0000

> <Gold.PLP.Chemscore.Metal>
0.0000

> <Gold.Chemscore.Hbonds>
donor molecule, donor type, donor heavy atom, donor atom, acceptor molecule, acceptor atom, score
      L1  H    12    35       P1 10175  1.00
      L1  H    16    45       P1 10186  1.92
      P1  H  7997  8008       L1     4  1.00
      L1  C    15    38       P1 10171  1.00

> <Gold.PLP.Chemscore.Internal.Correction>
0.1630

> <Gold.Rescore>
     Score         DG    S(hbond)    S(metal)    S(lipo)     H(rot)  DE(clash)    DE(int)     intcor
     18.69     -20.32       2.94        0.00      99.49       2.59       0.84       0.79       ----

> <Gold.Chemscore.Fitness>
18.6942

> <Gold.Chemscore.DG>
-20.3163

> <Gold.Chemscore.ZeroCoef>
-5.4800

> <Gold.Chemscore.Hbond>
2.9400

> <Gold.Chemscore.Metal>
0.0000

> <Gold.Chemscore.Lipo>
99.4883

> <Gold.Chemscore.Internal_Hbond>
0.0000

> <Gold.Chemscore.DEClash>
0.8350

> <Gold.Chemscore.DEInternal>
0.7871

> <Gold.Chemscore.Rot>
2.5873

> <Gold.Chemscore.Internal.Correction>
   9.000000E+99

> <Gold.Chemscore.Hbonds>
donor molecule, donor type, donor heavy atom, donor atom, acceptor molecule, acceptor atom, score
      L1  H    12    35       P1 10175  0.97
      L1  H    16    45       P1 10186  0.92
      P1  H  7997  8008       L1     4  0.97

> <Gold.Chemscore.Hbond.Weighted>
-9.8197

> <Gold.Chemscore.Metal.Weighted>
-0.0000

> <Gold.Chemscore.Lipo.Weighted>
-11.6401

> <Gold.Chemscore.Internal_Hbond.Weighted>
0.0000

> <Gold.Chemscore.DEClash.Weighted>
0.8350

> <Gold.Chemscore.DEInternal.Weighted>
0.7871

> <Gold.Chemscore.Rot.Weighted>
6.6235

> <Gold.Chemscore.Internal.Correction.Weighted>
   9.000000E+99

> <Gold.Protein.RotatedTorsions>
[ 6907 6896 6895 6894 ] final  -74.14 input  -60.11 | X-H torsion
[ 7974 7965 7964 7962 ] final   54.31 input  175.53 | X-H torsion
[ 8008 7997 7996 7995 ] final  -66.13 input   59.86 | X-H torsion
[ 10167 10162 10161 10158 ] final -135.81 input  -65.29 | X-H torsion
[ 10718 10713 10712 10709 ] final   12.27 input   66.30 | X-H torsion
[ 10763 10752 10751 10750 ] final  -91.87 input  -60.55 | X-H torsion
[ 11005 11000 10999 10996 ] final  -13.35 input  -57.11 | X-H torsion

> <Gold.Protein.ActiveResidues>
 VAL166  LYS551  ARG553  GLY616  TRP617  ASP618  TYR619  PRO620  LYS621  CYS622 
 ASP623  PHE694  ASN695  SER759  ASP760  ASP761  ALA762  ILE779  LEU786  VAL792 
 PHE793  MET794  SER795  GLU796  ALA797  LYS798  CYS799  TRP800  GLU811  SER814 

> <Gold.Protein.RotatedAtoms>
  150.7104  134.4914  159.5517 H   0  0  0  0  0  0  0  0  0  0  0  0  # atno 6907 bound_to 6896
  152.2530  134.8110  160.0452 H   0  0  0  0  0  0  0  0  0  0  0  0  # atno 6908 bound_to 6896
  151.8850  133.3468  159.3816 H   0  0  0  0  0  0  0  0  0  0  0  0  # atno 6909 bound_to 6896
  145.9621  139.4069  143.0241 H   0  0  0  0  0  0  0  0  0  0  0  0  # atno 7974 bound_to 7965
  154.4715  140.0919  156.7156 H   0  0  0  0  0  0  0  0  0  0  0  0  # atno 8008 bound_to 7997
  155.4712  140.3464  155.4307 H   0  0  0  0  0  0  0  0  0  0  0  0  # atno 8009 bound_to 7997
  156.1046  140.1431  156.9409 H   0  0  0  0  0  0  0  0  0  0  0  0  # atno 8010 bound_to 7997
  139.8741  143.6920  152.2636 H   0  0  0  0  0  0  0  0  0  0  0  0  # atno 10167 bound_to 10162
  157.0077  130.6104  149.5704 H   0  0  0  0  0  0  0  0  0  0  0  0  # atno 10718 bound_to 10713
  154.6804  135.5252  153.8256 H   0  0  0  0  0  0  0  0  0  0  0  0  # atno 10763 bound_to 10752
  153.0561  135.6551  154.0584 H   0  0  0  0  0  0  0  0  0  0  0  0  # atno 10764 bound_to 10752
  154.0472  135.2972  155.3326 H   0  0  0  0  0  0  0  0  0  0  0  0  # atno 10765 bound_to 10752
  140.7752  133.8407  155.9242 H   0  0  0  0  0  0  0  0  0  0  0  0  # atno 11005 bound_to 11000
  145.8024  140.9764  143.0991 LP  0  0  0  0  0  0  0  0  0  0  0  0  # atno 17320 bound_to 7965
  144.6817  139.9819  143.7483 LP  0  0  0  0  0  0  0  0  0  0  0  0  # atno 17321 bound_to 7965
  139.7256  144.7593  151.0884 LP  0  0  0  0  0  0  0  0  0  0  0  0  # atno 17342 bound_to 10162
  140.7756  143.5152  150.9604 LP  0  0  0  0  0  0  0  0  0  0  0  0  # atno 17343 bound_to 10162
  156.0147  130.5241  150.8099 LP  0  0  0  0  0  0  0  0  0  0  0  0  # atno 17370 bound_to 10713
  157.5343  131.0938  150.9913 LP  0  0  0  0  0  0  0  0  0  0  0  0  # atno 17371 bound_to 10713
  140.9536  134.1747  157.4709 LP  0  0  0  0  0  0  0  0  0  0  0  0  # atno 17394 bound_to 11000
  139.8750  134.9918  156.5567 LP  0  0  0  0  0  0  0  0  0  0  0  0  # atno 17395 bound_to 11000

$$$$
