AV-unprocessed.smi:826|AV-procd|sdf|3854|dock5
  -GOLD-   22720 1303D 1   1.00000     0.00000
 Structure written by MMmdl.
 38 39  0  0  0  0  0  0  0  0  2 V2000
  147.4476  134.8758  161.4107 C   0  0  0  0  0  0  0  0  0  0  0  0
  147.7442  135.9236  160.3935 C   0  0  0  0  0  0  0  0  0  0  0  0
  148.2723  137.1092  160.7076 N   0  0  0  0  0  0  0  0  0  0  0  0
  148.4520  137.9134  159.5914 N   0  0  0  0  0  0  0  0  0  0  0  0
  148.0471  137.3319  158.4534 C   0  0  0  0  0  0  0  0  0  0  0  0
  148.1356  137.9431  157.2605 N   0  5  0  0  0  0  0  0  0  0  0  0
  148.5286  139.2354  157.1915 C   0  0  0  0  0  0  0  0  0  0  0  0
  148.9261  139.9289  158.1310 O   0  0  0  0  0  0  0  0  0  0  0  0
  148.4545  139.7588  155.9582 N   0  0  0  0  0  0  0  0  0  0  0  0
  148.8140  141.1257  155.5821 C   0  0  2  0  0  0  0  0  0  0  0  0
  148.7439  141.2330  154.0495 C   0  0  0  0  0  0  0  0  0  0  0  0
  150.2510  141.4427  156.0248 C   0  0  0  0  0  0  0  0  0  0  0  0
  151.2059  140.8267  155.5480 O   0  0  0  0  0  0  0  0  0  0  0  0
  150.3874  142.4187  156.9348 N   0  0  0  0  0  0  0  0  0  0  0  0
  151.6567  142.8630  157.5026 C   0  0  0  0  0  0  0  0  0  0  0  0
  151.7324  142.5845  159.0186 C   0  0  0  0  0  0  0  0  0  0  0  0
  152.2001  143.8893  159.6653 C   0  0  0  0  0  0  0  0  0  0  0  0
  151.6631  144.9774  158.7413 C   0  0  0  0  0  0  0  0  0  0  0  0
  151.8200  144.3856  157.3401 C   0  0  0  0  0  0  0  0  0  0  0  0
  147.4200  135.6998  158.6829 S   0  0  0  0  0  0  0  0  0  0  0  0
  146.4320  135.0003  161.7860 H   0  0  0  0  0  0  0  0  0  0  0  0
  148.1433  134.9485  162.2473 H   0  0  0  0  0  0  0  0  0  0  0  0
  147.5393  133.8843  160.9670 H   0  0  0  0  0  0  0  0  0  0  0  0
  148.1321  139.1535  155.2178 H   0  0  0  0  0  0  0  0  0  0  0  0
  148.1111  141.8325  156.0279 H   0  0  0  0  0  0  0  0  0  0  0  0
  149.0085  142.2353  153.7101 H   0  0  0  0  0  0  0  0  0  0  0  0
  147.7347  141.0255  153.6919 H   0  0  0  0  0  0  0  0  0  0  0  0
  149.4165  140.5266  153.5602 H   0  0  0  0  0  0  0  0  0  0  0  0
  149.5502  142.8687  157.2752 H   0  0  0  0  0  0  0  0  0  0  0  0
  152.4779  142.3638  156.9853 H   0  0  0  0  0  0  0  0  0  0  0  0
  150.7469  142.3289  159.4122 H   0  0  0  0  0  0  0  0  0  0  0  0
  152.3960  141.7510  159.2512 H   0  0  0  0  0  0  0  0  0  0  0  0
  151.8500  143.9974  160.6922 H   0  0  0  0  0  0  0  0  0  0  0  0
  153.2902  143.9242  159.6783 H   0  0  0  0  0  0  0  0  0  0  0  0
  150.6067  145.1495  158.9524 H   0  0  0  0  0  0  0  0  0  0  0  0
  152.1870  145.9265  158.8582 H   0  0  0  0  0  0  0  0  0  0  0  0
  152.8242  144.6006  156.9723 H   0  0  0  0  0  0  0  0  0  0  0  0
  151.1193  144.8249  156.6288 H   0  0  0  0  0  0  0  0  0  0  0  0
  1  2  1  0  0  0  0
  1 21  1  0  0  0  0
  1 22  1  0  0  0  0
  1 23  1  0  0  0  0
  2 20  1  0  0  0  0
  2  3  2  0  0  0  0
  3  4  1  0  0  0  0
  4  5  2  0  0  0  0
  5  6  1  0  0  0  0
  5 20  1  0  0  0  0
  6  7  1  0  0  0  0
  7  8  2  0  0  0  0
  7  9  1  0  0  0  0
  9 10  1  0  0  0  0
  9 24  1  0  0  0  0
 10 11  1  0  0  0  0
 10 12  1  0  0  0  0
 10 25  1  0  0  0  0
 11 26  1  0  0  0  0
 11 27  1  0  0  0  0
 11 28  1  0  0  0  0
 12 13  2  0  0  0  0
 12 14  1  0  0  0  0
 14 15  1  0  0  0  0
 14 29  1  0  0  0  0
 15 19  1  0  0  0  0
 15 16  1  0  0  0  0
 15 30  1  0  0  0  0
 16 17  1  0  0  0  0
 16 31  1  0  0  0  0
 16 32  1  0  0  0  0
 17 18  1  0  0  0  0
 17 33  1  0  0  0  0
 17 34  1  0  0  0  0
 18 19  1  0  0  0  0
 18 35  1  0  0  0  0
 18 36  1  0  0  0  0
 19 37  1  0  0  0  0
 19 38  1  0  0  0  0
M  CHG  1   6  -1
M  END
> <s_m_source_file>
AV-unprocessed.smi

> <i_m_source_file_index>
826

> <i_lp_mmshare_version>
43012

> <i_f3d_flags>
0

> <s_epik_input>
W0NIM11jMW5uYyhzMSlbTkhdQyg9TylbTkhdW0NASF0oW0NIM10pQyg9TylbTkhdW0NIXTJbQ0gyXVtDSDJdW0NIMl1bQ0gyXTI=

> <s_epik_cmdline>
J2VwaWtfcHl0aG9uJywgJy1waCcsICc3LjAnLCAnLXRuJywgJzgnLCAnLW1hJywgJzIwMCcsICctbWV0YWxfYmluZGluZycsICctaW1hZScsICc8aW5maWxlLm1hZT4nLCAnLW9tYWUnLCAnPG91dGZpbGUubWFlPic=

> <r_lp_tautomer_probability>
1

> <r_epik_Ionization_Penalty>
3.15008

> <r_epik_Ionization_Penalty_Charging>
3.01509

> <r_epik_Ionization_Penalty_Neutral>
0.134987

> <r_epik_State_Penalty>
3.01143

> <r_epik_Charging_Adjusted_Penalty>
6.02652

> <i_epik_Tot_Q>
-1

> <i_epik_Tot_abs_Q>
1

> <r_epik_Metal_State_Penalty>
0.454645

> <b_epik_Metal_Only>
1

> <s_lp_Force_Field>
OPLS_2005

> <r_lp_Energy>
15.3268

> <b_lp_Chiralities_Consistent>
1

> <s_lp_Variant>
AV-unprocessed.smi:826-3

> <Gold.Version>
5.8.1

> <Gold.Id.Protein>
6NUR|6NUR_protein|mol2

> <Gold.PLP.Fitness>
38.9373

> <Gold.PLP.PLP>
-35.3542

> <Gold.PLP.part.hbond>
-5.9653

> <Gold.PLP.part.metal>
0.0000

> <Gold.PLP.part.buried>
-3.5082

> <Gold.PLP.part.nonpolar>
-25.7068

> <Gold.PLP.part.repulsive>
0.0566

> <Gold.PLP.ligand.clash>
0.0000

> <Gold.PLP.ligand.torsion>
0.1281

> <Gold.PLP.Chemscore.Hbond>
1.2603

> <Gold.PLP.Chemscore.CHOScore>
0.0000

> <Gold.PLP.Chemscore.Metal>
0.0000

> <Gold.Chemscore.Hbonds>
donor molecule, donor type, donor heavy atom, donor atom, acceptor molecule, acceptor atom, score
      P1  H  6931  6943       L1     3  0.69
      P1  H  7989  7998       L1    13  0.65

> <Gold.PLP.Chemscore.Internal.Correction>
0.0582

> <Gold.Rescore>
     Score         DG    S(hbond)    S(metal)    S(lipo)     H(rot)  DE(clash)    DE(int)     intcor
     11.96     -13.89       0.82        0.00      83.92       1.62       0.08       1.85       ----

> <Gold.Chemscore.Fitness>
11.9626

> <Gold.Chemscore.DG>
-13.8942

> <Gold.Chemscore.ZeroCoef>
-5.4800

> <Gold.Chemscore.Hbond>
0.8212

> <Gold.Chemscore.Metal>
0.0000

> <Gold.Chemscore.Lipo>
83.9229

> <Gold.Chemscore.Internal_Hbond>
0.0000

> <Gold.Chemscore.DEClash>
0.0837

> <Gold.Chemscore.DEInternal>
1.8480

> <Gold.Chemscore.Rot>
1.6201

> <Gold.Chemscore.Internal.Correction>
   9.000000E+99

> <Gold.Chemscore.Hbonds>
donor molecule, donor type, donor heavy atom, donor atom, acceptor molecule, acceptor atom, score
      P1  H  6931  6943       L1     3  0.10
      P1  H  7989  7998       L1    13  0.63

> <Gold.Chemscore.Hbond.Weighted>
-2.7427

> <Gold.Chemscore.Metal.Weighted>
-0.0000

> <Gold.Chemscore.Lipo.Weighted>
-9.8190

> <Gold.Chemscore.Internal_Hbond.Weighted>
0.0000

> <Gold.Chemscore.DEClash.Weighted>
0.0837

> <Gold.Chemscore.DEInternal.Weighted>
1.8480

> <Gold.Chemscore.Rot.Weighted>
4.1475

> <Gold.Chemscore.Internal.Correction.Weighted>
   9.000000E+99

> <Gold.Protein.RotatedTorsions>
[ 6907 6896 6895 6894 ] final  139.05 input  -60.11 | X-H torsion
[ 7974 7965 7964 7962 ] final  114.82 input  175.53 | X-H torsion
[ 8008 7997 7996 7995 ] final  -46.96 input   59.86 | X-H torsion
[ 10167 10162 10161 10158 ] final   14.32 input  -65.29 | X-H torsion
[ 10718 10713 10712 10709 ] final -119.89 input   66.30 | X-H torsion
[ 10763 10752 10751 10750 ] final  -41.35 input  -60.55 | X-H torsion
[ 11005 11000 10999 10996 ] final  152.93 input  -57.11 | X-H torsion

> <Gold.Protein.ActiveResidues>
 VAL166  LYS551  ARG553  GLY616  TRP617  ASP618  TYR619  PRO620  LYS621  CYS622 
 ASP623  PHE694  ASN695  SER759  ASP760  ASP761  ALA762  ILE779  LEU786  VAL792 
 PHE793  MET794  SER795  GLU796  ALA797  LYS798  CYS799  TRP800  GLU811  SER814 

> <Gold.Protein.RotatedAtoms>
  152.2594  133.5284  159.5372 H   0  0  0  0  0  0  0  0  0  0  0  0  # atno 6907 bound_to 6896
  150.7120  134.0850  159.3920 H   0  0  0  0  0  0  0  0  0  0  0  0  # atno 6908 bound_to 6896
  151.8768  135.0469  160.0535 H   0  0  0  0  0  0  0  0  0  0  0  0  # atno 6909 bound_to 6896
  145.1997  139.2958  143.4325 H   0  0  0  0  0  0  0  0  0  0  0  0  # atno 7974 bound_to 7965
  154.4012  140.1358  156.4096 H   0  0  0  0  0  0  0  0  0  0  0  0  # atno 8008 bound_to 7997
  155.7746  140.3483  155.5244 H   0  0  0  0  0  0  0  0  0  0  0  0  # atno 8009 bound_to 7997
  155.8733  140.0975  157.1525 H   0  0  0  0  0  0  0  0  0  0  0  0  # atno 8010 bound_to 7997
  140.5943  143.8732  150.6903 H   0  0  0  0  0  0  0  0  0  0  0  0  # atno 10167 bound_to 10162
  156.1216  130.6327  150.9472 H   0  0  0  0  0  0  0  0  0  0  0  0  # atno 10718 bound_to 10713
  153.9611  135.6739  153.4745 H   0  0  0  0  0  0  0  0  0  0  0  0  # atno 10763 bound_to 10752
  153.0838  135.4909  154.8552 H   0  0  0  0  0  0  0  0  0  0  0  0  # atno 10764 bound_to 10752
  154.7272  135.3130  154.8911 H   0  0  0  0  0  0  0  0  0  0  0  0  # atno 10765 bound_to 10752
  140.1352  134.8775  157.2258 H   0  0  0  0  0  0  0  0  0  0  0  0  # atno 11005 bound_to 11000
  146.3420  140.2237  142.8592 LP  0  0  0  0  0  0  0  0  0  0  0  0  # atno 17320 bound_to 7965
  144.9960  140.8589  143.5310 LP  0  0  0  0  0  0  0  0  0  0  0  0  # atno 17321 bound_to 7965
  140.2262  143.3770  152.1602 LP  0  0  0  0  0  0  0  0  0  0  0  0  # atno 17342 bound_to 10162
  139.5248  144.7088  151.5271 LP  0  0  0  0  0  0  0  0  0  0  0  0  # atno 17343 bound_to 10162
  157.6399  131.0911  150.8273 LP  0  0  0  0  0  0  0  0  0  0  0  0  # atno 17370 bound_to 10713
  156.8369  130.5034  149.5325 LP  0  0  0  0  0  0  0  0  0  0  0  0  # atno 17371 bound_to 10713
  140.2791  134.3370  155.7349 LP  0  0  0  0  0  0  0  0  0  0  0  0  # atno 17394 bound_to 11000
  141.2177  133.7468  156.9337 LP  0  0  0  0  0  0  0  0  0  0  0  0  # atno 17395 bound_to 11000

$$$$
