AV-unprocessed.smi:1209|AV-procd|sdf|5076|dock7
  -GOLD-   22720 4123D 1   1.00000     0.00000
 Structure written by MMmdl.
 49 51  0  0  0  0  0  0  0  0  2 V2000
  143.6938  145.2694  158.3296 C   0  0  0  0  0  0  0  0  0  0  0  0
  144.6693  144.2534  157.8427 C   0  0  0  0  0  0  0  0  0  0  0  0
  144.7377  143.4947  156.7089 C   0  0  0  0  0  0  0  0  0  0  0  0
  145.9255  142.7331  156.8859 C   0  0  0  0  0  0  0  0  0  0  0  0
  146.5348  141.7176  155.9585 C   0  0  0  0  0  0  0  0  0  0  0  0
  147.1383  142.3520  154.7583 N   0  3  2  0  0  0  0  0  0  0  0  0
  146.1323  143.0345  153.9061 C   0  0  0  0  0  0  0  0  0  0  0  0
  147.9900  141.4048  153.9930 C   0  0  0  0  0  0  0  0  0  0  0  0
  149.0899  140.7546  154.8622 C   0  0  1  0  0  0  0  0  0  0  0  0
  149.7331  139.7487  154.1062 O   0  0  0  0  0  0  0  0  0  0  0  0
  150.1702  141.7470  155.3357 C   0  0  0  0  0  0  0  0  0  0  0  0
  150.9830  141.2119  156.4124 N   0  0  0  0  0  0  0  0  0  0  0  0
  151.5899  140.0100  156.4490 C   0  0  0  0  0  0  0  0  0  0  0  0
  152.2785  139.7098  157.5462 N   0  0  0  0  0  0  0  0  0  0  0  0
  152.1038  140.8523  158.3083 C   0  0  0  0  0  0  0  0  0  0  0  0
  152.5788  141.1776  159.5975 C   0  0  0  0  0  0  0  0  0  0  0  0
  152.2645  142.4198  160.1938 C   0  0  0  0  0  0  0  0  0  0  0  0
  152.7977  142.7289  161.5818 C   0  0  0  0  0  0  0  0  0  0  0  0
  151.4626  143.3594  159.4978 C   0  0  0  0  0  0  0  0  0  0  0  0
  151.1075  144.6983  160.1198 C   0  0  0  0  0  0  0  0  0  0  0  0
  150.9826  143.0519  158.2081 C   0  0  0  0  0  0  0  0  0  0  0  0
  151.3011  141.8124  157.6259 C   0  0  0  0  0  0  0  0  0  0  0  0
  146.5246  143.0165  158.0307 N   0  0  0  0  0  0  0  0  0  0  0  0
  145.7280  143.9862  158.6496 O   0  0  0  0  0  0  0  0  0  0  0  0
  142.8850  145.4091  157.6120 H   0  0  0  0  0  0  0  0  0  0  0  0
  144.1814  146.2325  158.4812 H   0  0  0  0  0  0  0  0  0  0  0  0
  143.2539  144.9593  159.2775 H   0  0  0  0  0  0  0  0  0  0  0  0
  144.0442  143.4857  155.8812 H   0  0  0  0  0  0  0  0  0  0  0  0
  147.2985  141.1625  156.5053 H   0  0  0  0  0  0  0  0  0  0  0  0
  145.7895  140.9841  155.6476 H   0  0  0  0  0  0  0  0  0  0  0  0
  145.4087  142.3206  153.5101 H   0  0  0  0  0  0  0  0  0  0  0  0
  146.5987  143.5433  153.0640 H   0  0  0  0  0  0  0  0  0  0  0  0
  145.5864  143.7932  154.4666 H   0  0  0  0  0  0  0  0  0  0  0  0
  147.3806  140.6064  153.5674 H   0  0  0  0  0  0  0  0  0  0  0  0
  148.4193  141.9398  153.1455 H   0  0  0  0  0  0  0  0  0  0  0  0
  148.6513  140.2839  155.7414 H   0  0  0  0  0  0  0  0  0  0  0  0
  149.3156  139.6894  153.2600 H   0  0  0  0  0  0  0  0  0  0  0  0
  150.8307  142.0107  154.5084 H   0  0  0  0  0  0  0  0  0  0  0  0
  149.7137  142.6773  155.6764 H   0  0  0  0  0  0  0  0  0  0  0  0
  151.5162  139.3137  155.6262 H   0  0  0  0  0  0  0  0  0  0  0  0
  153.1891  140.4615  160.1280 H   0  0  0  0  0  0  0  0  0  0  0  0
  153.4597  143.5945  161.5509 H   0  0  0  0  0  0  0  0  0  0  0  0
  153.3629  141.8896  161.9882 H   0  0  0  0  0  0  0  0  0  0  0  0
  151.9787  142.9431  162.2686 H   0  0  0  0  0  0  0  0  0  0  0  0
  150.4901  145.2970  159.4494 H   0  0  0  0  0  0  0  0  0  0  0  0
  152.0099  145.2681  160.3420 H   0  0  0  0  0  0  0  0  0  0  0  0
  150.5511  144.5536  161.0459 H   0  0  0  0  0  0  0  0  0  0  0  0
  150.3712  143.7593  157.6680 H   0  0  0  0  0  0  0  0  0  0  0  0
  147.7625  143.0647  155.1100 H   0  0  0  0  0  0  0  0  0  0  0  0
  1  2  1  0  0  0  0
  1 25  1  0  0  0  0
  1 26  1  0  0  0  0
  1 27  1  0  0  0  0
  2 24  1  0  0  0  0
  2  3  2  0  0  0  0
  3  4  1  0  0  0  0
  3 28  1  0  0  0  0
  4  5  1  0  0  0  0
  4 23  2  0  0  0  0
  5  6  1  0  0  0  0
  5 29  1  0  0  0  0
  5 30  1  0  0  0  0
  6  7  1  0  0  0  0
  6  8  1  0  0  0  0
  6 49  1  0  0  0  0
  7 31  1  0  0  0  0
  7 32  1  0  0  0  0
  7 33  1  0  0  0  0
  8  9  1  0  0  0  0
  8 34  1  0  0  0  0
  8 35  1  0  0  0  0
  9 10  1  0  0  0  0
  9 11  1  0  0  0  0
  9 36  1  0  0  0  0
 10 37  1  0  0  0  0
 11 12  1  0  0  0  0
 11 38  1  0  0  0  0
 11 39  1  0  0  0  0
 12 22  1  0  0  0  0
 12 13  1  0  0  0  0
 13 14  2  0  0  0  0
 13 40  1  0  0  0  0
 14 15  1  0  0  0  0
 15 22  2  0  0  0  0
 15 16  1  0  0  0  0
 16 17  2  0  0  0  0
 16 41  1  0  0  0  0
 17 18  1  0  0  0  0
 17 19  1  0  0  0  0
 18 42  1  0  0  0  0
 18 43  1  0  0  0  0
 18 44  1  0  0  0  0
 19 20  1  0  0  0  0
 19 21  2  0  0  0  0
 20 45  1  0  0  0  0
 20 46  1  0  0  0  0
 20 47  1  0  0  0  0
 21 22  1  0  0  0  0
 21 48  1  0  0  0  0
 23 24  1  0  0  0  0
M  CHG  1   6   1
M  END
> <s_m_source_file>
AV-unprocessed.smi

> <i_m_source_file_index>
1209

> <i_lp_mmshare_version>
43012

> <i_f3d_flags>
0

> <s_epik_input>
W0NIM11jMVtjSF1jKG5vMSlbQ0gyXU4oW0NIM10pW0NIMl1bQ0BIXShbT0hdKVtDSDJdbihbY0hdbjIpYyhjMjMpW2NIXWMoW0NIM10pYyhbY0hdMylbQ0gzXQ==

> <s_epik_cmdline>
J2VwaWtfcHl0aG9uJywgJy1waCcsICc3LjAnLCAnLXRuJywgJzgnLCAnLW1hJywgJzIwMCcsICctbWV0YWxfYmluZGluZycsICctaW1hZScsICc8aW5maWxlLm1hZT4nLCAnLW9tYWUnLCAnPG91dGZpbGUubWFlPic=

> <r_epik_Ionization_Penalty>
2.05249

> <r_epik_Ionization_Penalty_Charging>
1.96618

> <r_epik_Ionization_Penalty_Neutral>
0.0863156

> <r_epik_State_Penalty>
2.19215

> <r_epik_Charging_Adjusted_Penalty>
4.15833

> <i_epik_Tot_Q>
1

> <i_epik_Tot_abs_Q>
1

> <r_epik_Metal_State_Penalty>
2.17654

> <b_epik_Metal_Only>
0

> <s_lp_Force_Field>
OPLS_2005

> <r_lp_Energy>
8.03996

> <b_lp_Chiralities_Consistent>
1

> <s_lp_Variant>
AV-unprocessed.smi:1209-8

> <Gold.Version>
5.8.1

> <Gold.Id.Protein>
6NUR|6NUR_protein|mol2

> <Gold.PLP.Fitness>
60.0320

> <Gold.PLP.PLP>
-46.2310

> <Gold.PLP.part.hbond>
-4.0000

> <Gold.PLP.part.metal>
0.0000

> <Gold.PLP.part.buried>
-5.1213

> <Gold.PLP.part.nonpolar>
-36.2582

> <Gold.PLP.part.repulsive>
0.5238

> <Gold.PLP.ligand.clash>
0.0000

> <Gold.PLP.ligand.torsion>
0.4288

> <Gold.PLP.Chemscore.Hbond>
4.8560

> <Gold.PLP.Chemscore.CHOScore>
0.0000

> <Gold.PLP.Chemscore.Metal>
0.0000

> <Gold.Chemscore.Hbonds>
donor molecule, donor type, donor heavy atom, donor atom, acceptor molecule, acceptor atom, score
      L1  H     6    49       P1  8028  1.95
      L1  H    10    37       P1  7957  0.60
      P1  H  7989  7998       L1    10  0.33
      P1  H  7997  8008       L1    14  0.23

> <Gold.PLP.Chemscore.Internal.Correction>
0.0906

> <Gold.Rescore>
     Score         DG    S(hbond)    S(metal)    S(lipo)     H(rot)  DE(clash)    DE(int)     intcor
     16.12     -19.82       2.02        0.00     120.42       2.53       3.18       0.52       ----

> <Gold.Chemscore.Fitness>
16.1214

> <Gold.Chemscore.DG>
-19.8208

> <Gold.Chemscore.ZeroCoef>
-5.4800

> <Gold.Chemscore.Hbond>
2.0169

> <Gold.Chemscore.Metal>
0.0000

> <Gold.Chemscore.Lipo>
120.4218

> <Gold.Chemscore.Internal_Hbond>
0.0000

> <Gold.Chemscore.DEClash>
3.1793

> <Gold.Chemscore.DEInternal>
0.5201

> <Gold.Chemscore.Rot>
2.5332

> <Gold.Chemscore.Internal.Correction>
   9.000000E+99

> <Gold.Chemscore.Hbonds>
donor molecule, donor type, donor heavy atom, donor atom, acceptor molecule, acceptor atom, score
      L1  H     6    49       P1  8028  0.60
      L1  H    10    37       P1  7957  0.60
      P1  H  7989  7998       L1    10  0.02
      P1  H  7997  8008       L1    14  0.01

> <Gold.Chemscore.Hbond.Weighted>
-6.7366

> <Gold.Chemscore.Metal.Weighted>
-0.0000

> <Gold.Chemscore.Lipo.Weighted>
-14.0894

> <Gold.Chemscore.Internal_Hbond.Weighted>
0.0000

> <Gold.Chemscore.DEClash.Weighted>
3.1793

> <Gold.Chemscore.DEInternal.Weighted>
0.5201

> <Gold.Chemscore.Rot.Weighted>
6.4851

> <Gold.Chemscore.Internal.Correction.Weighted>
   9.000000E+99

> <Gold.Protein.RotatedTorsions>
[ 6907 6896 6895 6894 ] final -171.03 input  -60.11 | X-H torsion
[ 7974 7965 7964 7962 ] final  160.56 input  175.53 | X-H torsion
[ 8008 7997 7996 7995 ] final  -58.52 input   59.86 | X-H torsion
[ 10167 10162 10161 10158 ] final  -89.48 input  -65.29 | X-H torsion
[ 10718 10713 10712 10709 ] final   40.39 input   66.30 | X-H torsion
[ 10763 10752 10751 10750 ] final  148.06 input  -60.55 | X-H torsion
[ 11005 11000 10999 10996 ] final  157.31 input  -57.11 | X-H torsion

> <Gold.Protein.ActiveResidues>
 VAL166  LYS551  ARG553  GLY616  TRP617  ASP618  TYR619  PRO620  LYS621  CYS622 
 ASP623  PHE694  ASN695  SER759  ASP760  ASP761  ALA762  ILE779  LEU786  VAL792 
 PHE793  MET794  SER795  GLU796  ALA797  LYS798  CYS799  TRP800  GLU811  SER814 

> <Gold.Protein.RotatedAtoms>
  151.5173  133.3473  159.2895 H   0  0  0  0  0  0  0  0  0  0  0  0  # atno 6907 bound_to 6896
  150.8674  134.8043  159.7140 H   0  0  0  0  0  0  0  0  0  0  0  0  # atno 6908 bound_to 6896
  152.4674  134.5052  159.9789 H   0  0  0  0  0  0  0  0  0  0  0  0  # atno 6909 bound_to 6896
  144.7730  139.7775  143.6289 H   0  0  0  0  0  0  0  0  0  0  0  0  # atno 7974 bound_to 7965
  154.4312  140.1082  156.5970 H   0  0  0  0  0  0  0  0  0  0  0  0  # atno 8008 bound_to 7997
  155.5952  140.3492  155.4559 H   0  0  0  0  0  0  0  0  0  0  0  0  # atno 8009 bound_to 7997
  156.0216  140.1241  157.0341 H   0  0  0  0  0  0  0  0  0  0  0  0  # atno 8010 bound_to 7997
  140.3644  143.2826  151.9576 H   0  0  0  0  0  0  0  0  0  0  0  0  # atno 10167 bound_to 10162
  157.3815  130.7756  149.7197 H   0  0  0  0  0  0  0  0  0  0  0  0  # atno 10718 bound_to 10713
  154.0486  135.2883  155.3344 H   0  0  0  0  0  0  0  0  0  0  0  0  # atno 10763 bound_to 10752
  154.6883  135.5236  153.8361 H   0  0  0  0  0  0  0  0  0  0  0  0  # atno 10764 bound_to 10752
  153.0570  135.6599  154.0684 H   0  0  0  0  0  0  0  0  0  0  0  0  # atno 10765 bound_to 10752
  140.1757  134.8511  157.2744 H   0  0  0  0  0  0  0  0  0  0  0  0  # atno 11005 bound_to 11000
  146.1891  139.5121  142.9817 LP  0  0  0  0  0  0  0  0  0  0  0  0  # atno 17320 bound_to 7965
  145.6267  141.0312  143.1885 LP  0  0  0  0  0  0  0  0  0  0  0  0  # atno 17321 bound_to 7965
  139.4810  144.5964  151.7683 LP  0  0  0  0  0  0  0  0  0  0  0  0  # atno 17342 bound_to 10162
  140.5095  144.1046  150.5991 LP  0  0  0  0  0  0  0  0  0  0  0  0  # atno 17343 bound_to 10162
  155.9777  130.4060  150.3696 LP  0  0  0  0  0  0  0  0  0  0  0  0  # atno 17370 bound_to 10713
  157.1800  131.0390  151.2753 LP  0  0  0  0  0  0  0  0  0  0  0  0  # atno 17371 bound_to 10713
  140.2325  134.3892  155.7515 LP  0  0  0  0  0  0  0  0  0  0  0  0  # atno 17394 bound_to 11000
  141.2220  133.7222  156.8663 LP  0  0  0  0  0  0  0  0  0  0  0  0  # atno 17395 bound_to 11000

$$$$
