AV-unprocessed.smi:2445|AV-procd|sdf|9637|dock3
  -GOLD-   2272013273D 1   1.00000     0.00000
 Structure written by MMmdl.
 40 41  0  0  0  0  0  0  0  0  1 V2000
  144.5354  132.6567  149.3560 C   0  0  0  0  0  0  0  0  0  0  0  0
  144.2441  133.4891  150.5581 C   0  0  0  0  0  0  0  0  0  0  0  0
  143.4539  133.1656  151.6330 C   0  0  0  0  0  0  0  0  0  0  0  0
  143.3804  134.1686  152.6021 N   0  0  0  0  0  0  0  0  0  0  0  0
  144.1002  135.2466  152.2804 C   0  0  0  0  0  0  0  0  0  0  0  0
  144.1899  136.4660  153.1450 C   0  0  2  0  0  0  0  0  0  0  0  0
  142.7928  137.0052  153.4978 C   0  0  0  0  0  0  0  0  0  0  0  0
  145.1236  137.5269  152.5223 C   0  0  0  0  0  0  0  0  0  0  0  0
  146.5255  137.3282  152.8772 N   0  0  0  0  0  0  0  0  0  0  0  0
  147.1664  137.9658  153.8662 C   0  0  0  0  0  0  0  0  0  0  0  0
  146.6438  138.8064  154.5982 O   0  0  0  0  0  0  0  0  0  0  0  0
  148.4437  137.5715  153.9646 N   0  0  0  0  0  0  0  0  0  0  0  0
  149.4124  138.0753  154.9389 C   0  0  2  0  0  0  0  0  0  0  0  0
  150.3366  139.1063  154.2916 C   0  0  0  0  0  0  0  0  0  0  0  0
  151.7397  138.6397  154.6658 C   0  0  0  0  0  0  0  0  0  0  0  0
  151.5975  137.2349  154.7760 O   0  0  0  0  0  0  0  0  0  0  0  0
  150.3821  136.9929  155.4690 C   0  0  2  0  0  0  0  0  0  0  0  0
  149.9677  135.5210  155.3096 C   0  0  0  0  0  0  0  0  0  0  0  0
  144.9307  135.0825  150.7346 S   0  0  0  0  0  0  0  0  0  0  0  0
  143.9669  131.7264  149.3753 H   0  0  0  0  0  0  0  0  0  0  0  0
  145.5945  132.4033  149.3088 H   0  0  0  0  0  0  0  0  0  0  0  0
  144.2742  133.1916  148.4428 H   0  0  0  0  0  0  0  0  0  0  0  0
  142.9070  132.2473  151.7891 H   0  0  0  0  0  0  0  0  0  0  0  0
  144.6452  136.1460  154.0837 H   0  0  0  0  0  0  0  0  0  0  0  0
  142.1819  136.2297  153.9611 H   0  0  0  0  0  0  0  0  0  0  0  0
  142.2665  137.3570  152.6102 H   0  0  0  0  0  0  0  0  0  0  0  0
  142.8489  137.8357  154.2016 H   0  0  0  0  0  0  0  0  0  0  0  0
  145.0217  137.5277  151.4355 H   0  0  0  0  0  0  0  0  0  0  0  0
  144.8340  138.5231  152.8575 H   0  0  0  0  0  0  0  0  0  0  0  0
  147.0417  136.6524  152.3331 H   0  0  0  0  0  0  0  0  0  0  0  0
  148.7747  136.8683  153.3204 H   0  0  0  0  0  0  0  0  0  0  0  0
  148.8911  138.5342  155.7812 H   0  0  0  0  0  0  0  0  0  0  0  0
  150.2334  139.0976  153.2054 H   0  0  0  0  0  0  0  0  0  0  0  0
  150.1381  140.1225  154.6327 H   0  0  0  0  0  0  0  0  0  0  0  0
  152.4883  138.9136  153.9223 H   0  0  0  0  0  0  0  0  0  0  0  0
  152.0440  139.0527  155.6290 H   0  0  0  0  0  0  0  0  0  0  0  0
  150.5689  137.1868  156.5268 H   0  0  0  0  0  0  0  0  0  0  0  0
  149.0323  135.3175  155.8314 H   0  0  0  0  0  0  0  0  0  0  0  0
  150.7274  134.8603  155.7269 H   0  0  0  0  0  0  0  0  0  0  0  0
  149.8385  135.2493  154.2618 H   0  0  0  0  0  0  0  0  0  0  0  0
  1  2  1  0  0  0  0
  1 20  1  0  0  0  0
  1 21  1  0  0  0  0
  1 22  1  0  0  0  0
  2 19  1  0  0  0  0
  2  3  2  0  0  0  0
  3  4  1  0  0  0  0
  3 23  1  0  0  0  0
  4  5  2  0  0  0  0
  5  6  1  0  0  0  0
  5 19  1  0  0  0  0
  6  7  1  0  0  0  0
  6  8  1  0  0  0  0
  6 24  1  0  0  0  0
  7 25  1  0  0  0  0
  7 26  1  0  0  0  0
  7 27  1  0  0  0  0
  8  9  1  0  0  0  0
  8 28  1  0  0  0  0
  8 29  1  0  0  0  0
  9 10  1  0  0  0  0
  9 30  1  0  0  0  0
 10 11  2  0  0  0  0
 10 12  1  0  0  0  0
 12 13  1  0  0  0  0
 12 31  1  0  0  0  0
 13 17  1  0  0  0  0
 13 14  1  0  0  0  0
 13 32  1  0  0  0  0
 14 15  1  0  0  0  0
 14 33  1  0  0  0  0
 14 34  1  0  0  0  0
 15 16  1  0  0  0  0
 15 35  1  0  0  0  0
 15 36  1  0  0  0  0
 16 17  1  0  0  0  0
 17 18  1  0  0  0  0
 17 37  1  0  0  0  0
 18 38  1  0  0  0  0
 18 39  1  0  0  0  0
 18 40  1  0  0  0  0
M  END
> <s_m_source_file>
AV-unprocessed.smi

> <i_m_source_file_index>
2445

> <i_lp_mmshare_version>
43012

> <i_f3d_flags>
0

> <s_epik_input>
W0NIM11jMVtjSF1uYyhzMSlbQ0BIXShbQ0gzXSlbQ0gyXVtOSF1DKD1PKVtOSF1bQ0BASF0yW0NIMl1bQ0gyXU9bQ0BIXTJbQ0gzXQ==

> <s_epik_cmdline>
J2VwaWtfcHl0aG9uJywgJy1waCcsICc3LjAnLCAnLXRuJywgJzgnLCAnLW1hJywgJzIwMCcsICctbWV0YWxfYmluZGluZycsICctaW1hZScsICc8aW5maWxlLm1hZT4nLCAnLW9tYWUnLCAnPG91dGZpbGUubWFlPic=

> <r_epik_Ionization_Penalty>
0.000649483

> <r_epik_Ionization_Penalty_Charging>
0

> <r_epik_Ionization_Penalty_Neutral>
0.000649483

> <r_epik_State_Penalty>
0.000379895

> <r_epik_Charging_Adjusted_Penalty>
0.000379895

> <i_epik_Tot_Q>
0

> <i_epik_Tot_abs_Q>
0

> <r_epik_Metal_State_Penalty>
-0

> <b_epik_Metal_Only>
0

> <s_lp_Force_Field>
OPLS_2005

> <r_lp_Energy>
6.28074

> <b_lp_Chiralities_Consistent>
1

> <s_lp_Variant>
AV-unprocessed.smi:2445-5

> <Gold.Version>
5.8.1

> <Gold.Id.Protein>
6NUR|6NUR_protein|mol2

> <Gold.PLP.Fitness>
38.2826

> <Gold.PLP.PLP>
-31.6739

> <Gold.PLP.part.hbond>
-2.8404

> <Gold.PLP.part.metal>
0.0000

> <Gold.PLP.part.buried>
-4.2352

> <Gold.PLP.part.nonpolar>
-25.3365

> <Gold.PLP.part.repulsive>
0.4313

> <Gold.PLP.ligand.clash>
0.0000

> <Gold.PLP.ligand.torsion>
0.8671

> <Gold.PLP.Chemscore.Hbond>
2.7520

> <Gold.PLP.Chemscore.CHOScore>
0.0000

> <Gold.PLP.Chemscore.Metal>
0.0000

> <Gold.Chemscore.Hbonds>
donor molecule, donor type, donor heavy atom, donor atom, acceptor molecule, acceptor atom, score
      L1  H     9    30       P1  7948  0.78
      L1  H    12    31       P1  7948  1.00
      P1  H 10752 10763       L1    16  0.78

> <Gold.PLP.Chemscore.Internal.Correction>
0.0869

> <Gold.Rescore>
     Score         DG    S(hbond)    S(metal)    S(lipo)     H(rot)  DE(clash)    DE(int)     intcor
     18.62     -19.36       2.64        0.00      76.69       1.53       0.06       0.68       ----

> <Gold.Chemscore.Fitness>
18.6185

> <Gold.Chemscore.DG>
-19.3554

> <Gold.Chemscore.ZeroCoef>
-5.4800

> <Gold.Chemscore.Hbond>
2.6426

> <Gold.Chemscore.Metal>
0.0000

> <Gold.Chemscore.Lipo>
76.6868

> <Gold.Chemscore.Internal_Hbond>
0.0000

> <Gold.Chemscore.DEClash>
0.0562

> <Gold.Chemscore.DEInternal>
0.6807

> <Gold.Chemscore.Rot>
1.5325

> <Gold.Chemscore.Internal.Correction>
   9.000000E+99

> <Gold.Chemscore.Hbonds>
donor molecule, donor type, donor heavy atom, donor atom, acceptor molecule, acceptor atom, score
      L1  H     9    30       P1  7948  0.75
      L1  H    12    31       P1  7948  0.96
      P1  H 10752 10763       L1    16  0.70

> <Gold.Chemscore.Hbond.Weighted>
-8.8264

> <Gold.Chemscore.Metal.Weighted>
-0.0000

> <Gold.Chemscore.Lipo.Weighted>
-8.9724

> <Gold.Chemscore.Internal_Hbond.Weighted>
0.0000

> <Gold.Chemscore.DEClash.Weighted>
0.0562

> <Gold.Chemscore.DEInternal.Weighted>
0.6807

> <Gold.Chemscore.Rot.Weighted>
3.9233

> <Gold.Chemscore.Internal.Correction.Weighted>
   9.000000E+99

> <Gold.Protein.RotatedTorsions>
[ 6907 6896 6895 6894 ] final  -34.68 input  -60.11 | X-H torsion
[ 7974 7965 7964 7962 ] final   83.61 input  175.53 | X-H torsion
[ 8008 7997 7996 7995 ] final -156.36 input   59.86 | X-H torsion
[ 10167 10162 10161 10158 ] final   82.60 input  -65.29 | X-H torsion
[ 10718 10713 10712 10709 ] final  177.77 input   66.30 | X-H torsion
[ 10763 10752 10751 10750 ] final   59.64 input  -60.55 | X-H torsion
[ 11005 11000 10999 10996 ] final -109.94 input  -57.11 | X-H torsion

> <Gold.Protein.ActiveResidues>
 VAL166  LYS551  ARG553  GLY616  TRP617  ASP618  TYR619  PRO620  LYS621  CYS622 
 ASP623  PHE694  ASN695  SER759  ASP760  ASP761  ALA762  ILE779  LEU786  VAL792 
 PHE793  MET794  SER795  GLU796  ALA797  LYS798  CYS799  TRP800  GLU811  SER814 

> <Gold.Protein.RotatedAtoms>
  151.0495  134.9663  159.8203 H   0  0  0  0  0  0  0  0  0  0  0  0  # atno 6907 bound_to 6896
  152.5378  134.2555  159.8925 H   0  0  0  0  0  0  0  0  0  0  0  0  # atno 6908 bound_to 6896
  151.2570  133.4278  159.2648 H   0  0  0  0  0  0  0  0  0  0  0  0  # atno 6909 bound_to 6896
  145.6097  139.2366  143.2199 H   0  0  0  0  0  0  0  0  0  0  0  0  # atno 7974 bound_to 7965
  155.7160  140.0784  157.2351 H   0  0  0  0  0  0  0  0  0  0  0  0  # atno 8008 bound_to 7997
  154.4052  140.1621  156.2403 H   0  0  0  0  0  0  0  0  0  0  0  0  # atno 8009 bound_to 7997
  155.9240  140.3396  155.6198 H   0  0  0  0  0  0  0  0  0  0  0  0  # atno 8010 bound_to 7997
  139.9271  144.6176  150.8382 H   0  0  0  0  0  0  0  0  0  0  0  0  # atno 10167 bound_to 10162
  156.9004  130.9877  151.3036 H   0  0  0  0  0  0  0  0  0  0  0  0  # atno 10718 bound_to 10713
  152.9899  135.5564  154.5745 H   0  0  0  0  0  0  0  0  0  0  0  0  # atno 10763 bound_to 10752
  154.5139  135.2804  155.1322 H   0  0  0  0  0  0  0  0  0  0  0  0  # atno 10764 bound_to 10752
  154.2702  135.6364  153.5360 H   0  0  0  0  0  0  0  0  0  0  0  0  # atno 10765 bound_to 10752
  141.0819  133.9204  157.2269 H   0  0  0  0  0  0  0  0  0  0  0  0  # atno 11005 bound_to 11000
  146.1514  140.6920  142.9320 LP  0  0  0  0  0  0  0  0  0  0  0  0  # atno 17320 bound_to 7965
  144.7275  140.4570  143.6962 LP  0  0  0  0  0  0  0  0  0  0  0  0  # atno 17321 bound_to 7965
  140.7647  143.3256  151.2523 LP  0  0  0  0  0  0  0  0  0  0  0  0  # atno 17342 bound_to 10162
  139.6813  143.9849  152.2810 LP  0  0  0  0  0  0  0  0  0  0  0  0  # atno 17343 bound_to 10162
  157.6029  130.8526  149.8830 LP  0  0  0  0  0  0  0  0  0  0  0  0  # atno 17370 bound_to 10713
  156.0584  130.3704  150.1037 LP  0  0  0  0  0  0  0  0  0  0  0  0  # atno 17371 bound_to 10713
  139.9634  135.0148  156.9322 LP  0  0  0  0  0  0  0  0  0  0  0  0  # atno 17394 bound_to 11000
  140.5448  134.0684  155.7352 LP  0  0  0  0  0  0  0  0  0  0  0  0  # atno 17395 bound_to 11000

$$$$
