AV-unprocessed.smi:1056|AV-procd|sdf|4648|dock10
  -GOLD-   22720 3153D 1   1.00000     0.00000
 Structure written by MMmdl.
 45 47  0  0  0  0  0  0  0  0  4 V2000
  153.6659  142.1739  161.1678 C   0  0  0  0  0  0  0  0  0  0  0  0
  152.8043  141.9402  159.9384 C   0  0  0  0  0  0  0  0  0  0  0  0
  152.7454  140.6376  159.3937 C   0  0  0  0  0  0  0  0  0  0  0  0
  151.9495  140.4556  158.2689 C   0  0  0  0  0  0  0  0  0  0  0  0
  151.6889  139.3136  157.5090 N   0  3  0  0  0  0  0  0  0  0  0  0
  150.8396  139.6280  156.4921 C   0  0  0  0  0  0  0  0  0  0  0  0
  150.5528  140.9547  156.5909 N   0  0  0  0  0  0  0  0  0  0  0  0
  149.6838  141.7923  155.7502 C   0  0  0  0  0  0  0  0  0  0  0  0
  148.9313  140.9900  154.6694 C   0  0  2  0  0  0  0  0  0  0  0  0
  149.7239  140.9171  153.4993 O   0  0  0  0  0  0  0  0  0  0  0  0
  147.5811  141.6487  154.3188 C   0  0  0  0  0  0  0  0  0  0  0  0
  146.9655  142.3512  155.4728 N   0  3  1  0  0  0  0  0  0  0  0  0
  145.6806  143.0239  155.1466 C   0  0  0  0  0  0  0  0  0  0  0  0
  145.2727  143.9749  156.2881 C   0  0  0  0  0  0  0  0  0  0  0  0
  145.3954  143.2979  157.5847 N   0  5  0  0  0  0  0  0  0  0  0  0
  146.1771  142.2083  157.8643 C   0  0  0  0  0  0  0  0  0  0  0  0
  146.3694  141.7368  158.9829 O   0  0  0  0  0  0  0  0  0  0  0  0
  146.8381  141.4718  156.6680 C   0  0  0  0  0  0  0  0  0  0  0  0
  151.2241  141.5132  157.6861 C   0  0  0  0  0  0  0  0  0  0  0  0
  151.2718  142.8028  158.2111 C   0  0  0  0  0  0  0  0  0  0  0  0
  152.0768  143.0090  159.3542 C   0  0  0  0  0  0  0  0  0  0  0  0
  152.1484  144.4059  159.9474 C   0  0  0  0  0  0  0  0  0  0  0  0
  154.1833  141.2634  161.4715 H   0  0  0  0  0  0  0  0  0  0  0  0
  153.0526  142.5043  162.0065 H   0  0  0  0  0  0  0  0  0  0  0  0
  154.4210  142.9347  160.9693 H   0  0  0  0  0  0  0  0  0  0  0  0
  153.2966  139.8191  159.8333 H   0  0  0  0  0  0  0  0  0  0  0  0
  150.4604  138.9461  155.7445 H   0  0  0  0  0  0  0  0  0  0  0  0
  148.9673  142.2742  156.4167 H   0  0  0  0  0  0  0  0  0  0  0  0
  150.2751  142.5958  155.3099 H   0  0  0  0  0  0  0  0  0  0  0  0
  148.7797  139.9761  155.0388 H   0  0  0  0  0  0  0  0  0  0  0  0
  149.3406  140.2881  152.9071 H   0  0  0  0  0  0  0  0  0  0  0  0
  147.7005  142.3574  153.4979 H   0  0  0  0  0  0  0  0  0  0  0  0
  146.9035  140.8750  153.9535 H   0  0  0  0  0  0  0  0  0  0  0  0
  145.7587  143.5947  154.2222 H   0  0  0  0  0  0  0  0  0  0  0  0
  144.9077  142.2707  154.9840 H   0  0  0  0  0  0  0  0  0  0  0  0
  145.9152  144.8549  156.2505 H   0  0  0  0  0  0  0  0  0  0  0  0
  144.2605  144.3377  156.1111 H   0  0  0  0  0  0  0  0  0  0  0  0
  146.2387  140.5940  156.4219 H   0  0  0  0  0  0  0  0  0  0  0  0
  147.8253  141.1189  156.9694 H   0  0  0  0  0  0  0  0  0  0  0  0
  150.7235  143.6190  157.7647 H   0  0  0  0  0  0  0  0  0  0  0  0
  151.5189  145.1060  159.3975 H   0  0  0  0  0  0  0  0  0  0  0  0
  153.1710  144.7826  159.9169 H   0  0  0  0  0  0  0  0  0  0  0  0
  151.8114  144.3994  160.9842 H   0  0  0  0  0  0  0  0  0  0  0  0
  147.6051  143.0831  155.7453 H   0  0  0  0  0  0  0  0  0  0  0  0
  152.0606  138.3863  157.6720 H   0  0  0  0  0  0  0  0  0  0  0  0
  1  2  1  0  0  0  0
  1 23  1  0  0  0  0
  1 24  1  0  0  0  0
  1 25  1  0  0  0  0
  2 21  1  0  0  0  0
  2  3  2  0  0  0  0
  3  4  1  0  0  0  0
  3 26  1  0  0  0  0
  4 19  2  0  0  0  0
  4  5  1  0  0  0  0
  5  6  2  0  0  0  0
  5 45  1  0  0  0  0
  6  7  1  0  0  0  0
  6 27  1  0  0  0  0
  7  8  1  0  0  0  0
  7 19  1  0  0  0  0
  8  9  1  0  0  0  0
  8 28  1  0  0  0  0
  8 29  1  0  0  0  0
  9 10  1  0  0  0  0
  9 11  1  0  0  0  0
  9 30  1  0  0  0  0
 10 31  1  0  0  0  0
 11 12  1  0  0  0  0
 11 32  1  0  0  0  0
 11 33  1  0  0  0  0
 12 18  1  0  0  0  0
 12 13  1  0  0  0  0
 12 44  1  0  0  0  0
 13 14  1  0  0  0  0
 13 34  1  0  0  0  0
 13 35  1  0  0  0  0
 14 15  1  0  0  0  0
 14 36  1  0  0  0  0
 14 37  1  0  0  0  0
 15 16  1  0  0  0  0
 16 17  2  0  0  0  0
 16 18  1  0  0  0  0
 18 38  1  0  0  0  0
 18 39  1  0  0  0  0
 19 20  1  0  0  0  0
 20 21  2  0  0  0  0
 20 40  1  0  0  0  0
 21 22  1  0  0  0  0
 22 41  1  0  0  0  0
 22 42  1  0  0  0  0
 22 43  1  0  0  0  0
M  CHG  1   5   1
M  CHG  1  12   1
M  CHG  1  15  -1
M  END
> <s_m_source_file>
AV-unprocessed.smi

> <i_m_source_file_index>
1056

> <i_lp_mmshare_version>
43012

> <i_f3d_flags>
0

> <s_epik_input>
W0NIM11jKFtjSF0xKWMoW0NIM10pW2NIXWMoYzEyKW4oW2NIXW4yKVtDSDJdW0NASF0oW09IXSlbQ0gyXU4zW0NIMl1bQ0gyXVtOSF1DKD1PKVtDSDJdMw==

> <s_epik_cmdline>
J2VwaWtfcHl0aG9uJywgJy1waCcsICc3LjAnLCAnLXRuJywgJzgnLCAnLW1hJywgJzIwMCcsICctbWV0YWxfYmluZGluZycsICctaW1hZScsICc8aW5maWxlLm1hZT4nLCAnLW9tYWUnLCAnPG91dGZpbGUubWFlPic=

> <r_epik_Ionization_Penalty>
6.22415

> <r_epik_Ionization_Penalty_Charging>
6.22415

> <r_epik_Ionization_Penalty_Neutral>
4.02797e-07

> <r_epik_State_Penalty>
6.37716

> <r_epik_Charging_Adjusted_Penalty>
12.6013

> <i_epik_Tot_Q>
1

> <i_epik_Tot_abs_Q>
3

> <r_epik_Metal_State_Penalty>
2.53509

> <b_epik_Metal_Only>
1

> <s_lp_Force_Field>
OPLS_2005

> <r_lp_Energy>
27.8537

> <b_lp_Chiralities_Consistent>
1

> <s_lp_Variant>
AV-unprocessed.smi:1056-19

> <Gold.Version>
5.8.1

> <Gold.Id.Protein>
6NUR|6NUR_protein|mol2

> <Gold.PLP.Fitness>
55.2541

> <Gold.PLP.PLP>
-42.5407

> <Gold.PLP.part.hbond>
-4.6649

> <Gold.PLP.part.metal>
0.0000

> <Gold.PLP.part.buried>
-4.5276

> <Gold.PLP.part.nonpolar>
-32.7635

> <Gold.PLP.part.repulsive>
0.2412

> <Gold.PLP.ligand.clash>
0.0000

> <Gold.PLP.ligand.torsion>
0.7230

> <Gold.PLP.Chemscore.Hbond>
4.7120

> <Gold.PLP.Chemscore.CHOScore>
0.0000

> <Gold.PLP.Chemscore.Metal>
0.0000

> <Gold.Chemscore.Hbonds>
donor molecule, donor type, donor heavy atom, donor atom, acceptor molecule, acceptor atom, score
      L1  H    10    31       P1  7957  0.59
      L1  H    12    44       P1  8028  1.92
      P1  H  6934  6946       L1    17  0.82
      P1  H  7989  7998       L1    10  0.30
      P1  H  8011  8017       L1    10  0.95

> <Gold.PLP.Chemscore.Internal.Correction>
0.0234

> <Gold.Rescore>
     Score         DG    S(hbond)    S(metal)    S(lipo)     H(rot)  DE(clash)    DE(int)     intcor
     17.97     -18.67       2.11        0.00     104.48       2.37       0.02       0.68       ----

> <Gold.Chemscore.Fitness>
17.9679

> <Gold.Chemscore.DG>
-18.6670

> <Gold.Chemscore.ZeroCoef>
-5.4800

> <Gold.Chemscore.Hbond>
2.1068

> <Gold.Chemscore.Metal>
0.0000

> <Gold.Chemscore.Lipo>
104.4762

> <Gold.Chemscore.Internal_Hbond>
0.0000

> <Gold.Chemscore.DEClash>
0.0237

> <Gold.Chemscore.DEInternal>
0.6754

> <Gold.Chemscore.Rot>
2.3724

> <Gold.Chemscore.Internal.Correction>
   9.000000E+99

> <Gold.Chemscore.Hbonds>
donor molecule, donor type, donor heavy atom, donor atom, acceptor molecule, acceptor atom, score
      L1  H    10    31       P1  7957  0.60
      L1  H    12    44       P1  8028  0.23
      P1  H  6934  6946       L1    17  0.76
      P1  H  7989  7998       L1    10  0.26
      P1  H  8011  8017       L1    10  0.21

> <Gold.Chemscore.Hbond.Weighted>
-7.0367

> <Gold.Chemscore.Metal.Weighted>
-0.0000

> <Gold.Chemscore.Lipo.Weighted>
-12.2237

> <Gold.Chemscore.Internal_Hbond.Weighted>
0.0000

> <Gold.Chemscore.DEClash.Weighted>
0.0237

> <Gold.Chemscore.DEInternal.Weighted>
0.6754

> <Gold.Chemscore.Rot.Weighted>
6.0734

> <Gold.Chemscore.Internal.Correction.Weighted>
   9.000000E+99

> <Gold.Protein.RotatedTorsions>
[ 6907 6896 6895 6894 ] final -169.90 input  -60.11 | X-H torsion
[ 7974 7965 7964 7962 ] final  -15.61 input  175.53 | X-H torsion
[ 8008 7997 7996 7995 ] final   75.50 input   59.86 | X-H torsion
[ 10167 10162 10161 10158 ] final -106.60 input  -65.29 | X-H torsion
[ 10718 10713 10712 10709 ] final   -0.00 input   66.30 | X-H torsion
[ 10763 10752 10751 10750 ] final  -38.08 input  -60.55 | X-H torsion
[ 11005 11000 10999 10996 ] final  -87.14 input  -57.11 | X-H torsion

> <Gold.Protein.ActiveResidues>
 VAL166  LYS551  ARG553  GLY616  TRP617  ASP618  TYR619  PRO620  LYS621  CYS622 
 ASP623  PHE694  ASN695  SER759  ASP760  ASP761  ALA762  ILE779  LEU786  VAL792 
 PHE793  MET794  SER795  GLU796  ALA797  LYS798  CYS799  TRP800  GLU811  SER814 

> <Gold.Protein.RotatedAtoms>
  151.4990  133.3508  159.2865 H   0  0  0  0  0  0  0  0  0  0  0  0  # atno 6907 bound_to 6896
  150.8785  134.8174  159.7218 H   0  0  0  0  0  0  0  0  0  0  0  0  # atno 6908 bound_to 6896
  152.4747  134.4884  159.9739 H   0  0  0  0  0  0  0  0  0  0  0  0  # atno 6909 bound_to 6896
  146.2024  140.3517  142.8418 H   0  0  0  0  0  0  0  0  0  0  0  0  # atno 7974 bound_to 7965
  155.8138  140.3472  155.5473 H   0  0  0  0  0  0  0  0  0  0  0  0  # atno 8008 bound_to 7997
  155.8413  140.0942  157.1752 H   0  0  0  0  0  0  0  0  0  0  0  0  # atno 8009 bound_to 7997
  154.4005  140.1394  156.3720 H   0  0  0  0  0  0  0  0  0  0  0  0  # atno 8010 bound_to 7997
  140.1860  143.3929  152.1244 H   0  0  0  0  0  0  0  0  0  0  0  0  # atno 10167 bound_to 10162
  156.8268  130.5475  149.5691 H   0  0  0  0  0  0  0  0  0  0  0  0  # atno 10718 bound_to 10713
  153.9070  135.6796  153.4752 H   0  0  0  0  0  0  0  0  0  0  0  0  # atno 10763 bound_to 10752
  153.1099  135.4788  154.9014 H   0  0  0  0  0  0  0  0  0  0  0  0  # atno 10764 bound_to 10752
  154.7546  135.3194  154.8448 H   0  0  0  0  0  0  0  0  0  0  0  0  # atno 10765 bound_to 10752
  141.1621  133.7494  156.9264 H   0  0  0  0  0  0  0  0  0  0  0  0  # atno 11005 bound_to 11000
  144.8714  140.7278  143.6044 LP  0  0  0  0  0  0  0  0  0  0  0  0  # atno 17320 bound_to 7965
  145.3436  139.1725  143.4472 LP  0  0  0  0  0  0  0  0  0  0  0  0  # atno 17321 bound_to 7965
  139.5276  144.7121  151.5173 LP  0  0  0  0  0  0  0  0  0  0  0  0  # atno 17342 bound_to 10162
  140.6488  143.8739  150.6764 LP  0  0  0  0  0  0  0  0  0  0  0  0  # atno 17343 bound_to 10162
  156.0957  130.5930  150.9809 LP  0  0  0  0  0  0  0  0  0  0  0  0  # atno 17370 bound_to 10713
  157.6427  131.0908  150.8217 LP  0  0  0  0  0  0  0  0  0  0  0  0  # atno 17371 bound_to 10713
  140.1416  134.9289  157.2475 LP  0  0  0  0  0  0  0  0  0  0  0  0  # atno 17394 bound_to 11000
  140.2829  134.3329  155.7337 LP  0  0  0  0  0  0  0  0  0  0  0  0  # atno 17395 bound_to 11000

$$$$
