#       Name:                AV-unprocessed.smi:148
#       Creating user name   scv26
#       Creation time:       Thu Mar 26 18:40:42 2020


#       File generated by GOLD software.
#

@<TRIPOS>MOLECULE
AV-unprocessed.smi:148
    73    77     1
SMALL
NO_CHARGES


@<TRIPOS>ATOM
      1 ****        -2.2150  -0.0218  -1.7589 O.3            1 S1                 0.0000
      2 ****        -2.0438   1.3713  -1.9295 C.3            1 S1                 0.0000
      3 ****        -1.3112   1.7208  -3.2536 C.3            1 S1                 0.0000
      4 ****         0.2318   1.4811  -3.2429 C.3            1 S1                 0.0000
      5 ****         0.7519   0.7497  -2.0996 N.pl3          1 S1                 0.0000
      6 ****         0.8964  -0.6153  -1.9938 C.2            1 S1                 0.0000
      7 ****         1.3742  -1.0367  -0.8547 N.2            1 S1                 0.0000
      8 ****         1.5802   0.1271  -0.1232 C.ar           1 S1                 0.0000
      9 ****         2.0538   0.4088   1.1896 C.ar           1 S1                 0.0000
     10 ****         2.4221  -0.5252   2.0956 N.3            1 S1                 0.0000
     11 ****         3.7767  -0.9951   1.8081 C.3            1 S1                 0.0000
     12 ****         4.3217  -1.8593   2.9518 C.3            1 S1                 0.0000
     13 ****         3.3665  -3.0220   3.2389 C.3            1 S1                 0.0000
     14 ****         1.9618  -2.4844   3.5439 C.3            1 S1                 0.0000
     15 ****         1.4310  -1.5730   2.4055 C.3            1 S1                 0.0000
     16 ****         0.0064  -0.9971   2.6874 C.3            1 S1                 0.0000
     17 ****        -0.1096  -0.0207   3.8750 C.3            1 S1                 0.0000
     18 ****        -1.5277  -0.1941   4.4432 C.3            1 S1                 0.0000
     19 ****        -2.2383  -1.1914   3.5236 C.3            1 S1                 0.0000
     20 ****        -1.1064  -2.0278   2.9286 C.3            1 S1                 0.0000
     21 ****        -1.5111  -2.6646   1.7342 O.3            1 S1                 0.0000
     22 ****         2.1408   1.7069   1.5707 N.ar           1 S1                 0.0000
     23 ****         1.7658   2.6759   0.7302 C.ar           1 S1                 0.0000
     24 ****         1.2859   2.5662  -0.5107 N.ar           1 S1                 0.0000
     25 ****         1.2114   1.2608  -0.8994 C.ar           1 S1                 0.0000
     26 ****        -1.9718   1.0963  -4.5195 C.3            1 S1                 0.0000
     27 ****        -3.4760   1.3035  -4.6529 C.3            1 S1                 0.0000
     28 ****        -3.5857   2.7011  -5.2556 C.3            1 S1                 0.0000
     29 ****        -2.3829   2.8980  -5.9911 O.3            1 S1                 0.0000
     30 ****        -1.5246   1.7749  -5.8222 C.3            1 S1                 0.0000
     31 ****        -2.6467  -0.1728  -0.9316 H              1 S1                 0.0000
     32 ****        -3.0256   1.8420  -1.9000 H              1 S1                 0.0000
     33 ****        -1.5131   1.7769  -1.0687 H              1 S1                 0.0000
     34 ****        -1.4280   2.8013  -3.3501 H              1 S1                 0.0000
     35 ****         0.5530   0.9466  -4.1370 H              1 S1                 0.0000
     36 ****         0.7456   2.4425  -3.2824 H              1 S1                 0.0000
     37 ****         0.6183  -1.2926  -2.7884 H              1 S1                 0.0000
     38 ****         3.7703  -1.5712   0.8815 H              1 S1                 0.0000
     39 ****         4.4414  -0.1445   1.6480 H              1 S1                 0.0000
     40 ****         5.3111  -2.2390   2.6957 H              1 S1                 0.0000
     41 ****         4.4426  -1.2499   3.8485 H              1 S1                 0.0000
     42 ****         3.3275  -3.6905   2.3779 H              1 S1                 0.0000
     43 ****         3.7340  -3.6124   4.0786 H              1 S1                 0.0000
     44 ****         1.3005  -3.3350   3.7003 H              1 S1                 0.0000
     45 ****         1.9959  -1.9414   4.4877 H              1 S1                 0.0000
     46 ****         1.3521  -2.2042   1.5202 H              1 S1                 0.0000
     47 ****        -0.3183  -0.4379   1.8087 H              1 S1                 0.0000
     48 ****         0.6223  -0.2268   4.6542 H              1 S1                 0.0000
     49 ****         0.0618   1.0051   3.5472 H              1 S1                 0.0000
     50 ****        -1.4688  -0.6006   5.4538 H              1 S1                 0.0000
     51 ****        -2.0652   0.7527   4.5034 H              1 S1                 0.0000
     52 ****        -2.9781  -1.7960   4.0495 H              1 S1                 0.0000
     53 ****        -2.7571  -0.6460   2.7333 H              1 S1                 0.0000
     54 ****        -0.8085  -2.7789   3.6586 H              1 S1                 0.0000
     55 ****        -0.7790  -3.1550   1.3925 H              1 S1                 0.0000
     56 ****         1.8583   3.6832   1.1081 H              1 S1                 0.0000
     57 ****        -1.7383   0.0309  -4.5438 H              1 S1                 0.0000
     58 ****        -3.8721   0.5771  -5.3642 H              1 S1                 0.0000
     59 ****        -4.0488   1.1840  -3.7352 H              1 S1                 0.0000
     60 ****        -4.4636   2.8062  -5.8933 H              1 S1                 0.0000
     61 ****        -3.6434   3.4559  -4.4707 H              1 S1                 0.0000
     62 ****        -0.4786   2.0793  -5.8347 H              1 S1                 0.0000
     63 ****        -1.6774   1.0998  -6.6655 H              1 S1                 0.0000
     64 ****        -1.3230  -0.4738  -1.7611 LP             1 S1                 0.0000
     65 ****        -2.7751  -0.3862  -2.5029 LP             1 S1                 0.0000
     66 ****         1.5513  -1.9798  -0.5731 LP             1 S1                 0.0000
     67 ****         2.4463  -0.0645   2.9828 LP             1 S1                 0.0000
     68 ****        -1.7981  -1.9779   1.0664 LP             1 S1                 0.0000
     69 ****        -2.2729  -3.2841   1.9237 LP             1 S1                 0.0000
     70 ****         2.4854   1.9392   2.4802 LP             1 S1                 0.0000
     71 ****         1.0158   3.3413  -1.0818 LP             1 S1                 0.0000
     72 ****        -1.9218   3.7209  -5.6592 LP             1 S1                 0.0000
     73 ****        -2.6009   3.0062  -6.9610 LP             1 S1                 0.0000
@<TRIPOS>BOND
    1    1    2 1     
    2    1   31 1     
    3    2    3 1     
    4    2   32 1     
    5    2   33 1     
    6    3    4 1     
    7    3   26 1     
    8    3   34 1     
    9    4    5 1     
   10    4   35 1     
   11    4   36 1     
   12    5   25 1     
   13    5    6 1     
   14    6    7 2     
   15    6   37 1     
   16    7    8 1     
   17    8   25 ar    
   18    8    9 ar    
   19    9   10 1     
   20    9   22 ar    
   21   10   15 1     
   22   10   11 1     
   23   11   12 1     
   24   11   38 1     
   25   11   39 1     
   26   12   13 1     
   27   12   40 1     
   28   12   41 1     
   29   13   14 1     
   30   13   42 1     
   31   13   43 1     
   32   14   15 1     
   33   14   44 1     
   34   14   45 1     
   35   15   16 1     
   36   15   46 1     
   37   16   20 1     
   38   16   17 1     
   39   16   47 1     
   40   17   18 1     
   41   17   48 1     
   42   17   49 1     
   43   18   19 1     
   44   18   50 1     
   45   18   51 1     
   46   19   20 1     
   47   19   52 1     
   48   19   53 1     
   49   20   21 1     
   50   20   54 1     
   51   21   55 1     
   52   22   23 ar    
   53   23   24 ar    
   54   23   56 1     
   55   24   25 ar    
   56   26   30 1     
   57   26   27 1     
   58   26   57 1     
   59   27   28 1     
   60   27   58 1     
   61   27   59 1     
   62   28   29 1     
   63   28   60 1     
   64   28   61 1     
   65   29   30 1     
   66   30   62 1     
   67   30   63 1     
   68    1   64 1     
   69    1   65 1     
   70    7   66 1     
   71   10   67 1     
   72   21   68 1     
   73   21   69 1     
   74   22   70 1     
   75   24   71 1     
   76   29   72 1     
   77   29   73 1     
@<TRIPOS>SUBSTRUCTURE
      1 S1             1
@<TRIPOS>SET
LONE_PAIRS      STATIC     ATOMS    <user>   **** ""
10 64 65 66 67 68 69 70 71 72 73
DONOR_HYDROGENS      STATIC     ATOMS    <user>   **** ""
2 31 55
ATOM$BLUE        STATIC     ATOMS    COLORGROUP SYSTEM
10 64 65 66 67 68 69 70 71 72 73
ATOM$RED        STATIC     ATOMS    COLORGROUP SYSTEM
2 31 55
