AV-unprocessed.smi:1954|AV-procd|sdf|7894|dock2
  -GOLD-   2272010 53D 1   1.00000     0.00000
 Structure written by MMmdl.
 44 46  0  0  0  0  0  0  0  0  1 V2000
  145.5014  134.5810  154.2259 O   0  0  0  0  0  0  0  0  0  0  0  0
  146.4724  134.9102  153.5440 C   0  0  0  0  0  0  0  0  0  0  0  0
  147.4848  135.6501  154.0134 N   0  0  0  0  0  0  0  0  0  0  0  0
  147.5825  136.1540  155.3800 C   0  0  0  0  0  0  0  0  0  0  0  0
  149.0675  136.3134  155.8399 C   0  0  1  0  0  0  0  0  0  0  0  0
  149.7255  137.4280  155.0908 N   0  0  0  0  0  0  0  0  0  0  0  0
  149.1255  138.7605  155.2536 C   0  0  0  0  0  0  0  0  0  0  0  0
  149.8172  139.8256  154.3853 C   0  0  0  0  0  0  0  0  0  0  0  0
  151.2054  139.8655  154.6857 O   0  0  0  0  0  0  0  0  0  0  0  0
  151.8376  138.6126  154.4633 C   0  0  0  0  0  0  0  0  0  0  0  0
  151.1707  137.5351  155.3340 C   0  0  0  0  0  0  0  0  0  0  0  0
  149.0596  136.5246  157.3821 C   0  0  0  0  0  0  0  0  0  0  0  0
  148.6792  135.2095  158.0717 C   0  0  0  0  0  0  0  0  0  0  0  0
  149.3105  133.8596  157.0475 S   0  0  0  0  0  0  0  0  0  0  0  0
  149.7791  134.9465  155.6726 C   0  0  0  0  0  0  0  0  0  0  0  0
  146.6671  134.5822  152.2544 N   0  0  0  0  0  0  0  0  0  0  0  0
  145.8186  133.8248  151.4037 C   0  0  0  0  0  0  0  0  0  0  0  0
  146.4867  132.9710  150.4969 C   0  0  0  0  0  0  0  0  0  0  0  0
  145.7343  132.1790  149.6081 C   0  0  0  0  0  0  0  0  0  0  0  0
  144.3310  132.2621  149.6476 C   0  0  0  0  0  0  0  0  0  0  0  0
  143.7452  133.1376  150.5803 C   0  0  0  0  0  0  0  0  0  0  0  0
  144.4643  133.8969  151.4337 N   0  0  0  0  0  0  0  0  0  0  0  0
  148.2479  135.8750  153.3918 H   0  0  0  0  0  0  0  0  0  0  0  0
  147.0425  137.0986  155.4422 H   0  0  0  0  0  0  0  0  0  0  0  0
  147.0290  135.4871  156.0405 H   0  0  0  0  0  0  0  0  0  0  0  0
  148.0785  138.7577  154.9608 H   0  0  0  0  0  0  0  0  0  0  0  0
  149.1683  139.0774  156.2949 H   0  0  0  0  0  0  0  0  0  0  0  0
  149.6732  139.6133  153.3249 H   0  0  0  0  0  0  0  0  0  0  0  0
  149.3845  140.8077  154.5756 H   0  0  0  0  0  0  0  0  0  0  0  0
  151.7782  138.3468  153.4066 H   0  0  0  0  0  0  0  0  0  0  0  0
  152.8949  138.6992  154.7128 H   0  0  0  0  0  0  0  0  0  0  0  0
  151.3560  137.7632  156.3843 H   0  0  0  0  0  0  0  0  0  0  0  0
  151.6755  136.5950  155.1233 H   0  0  0  0  0  0  0  0  0  0  0  0
  150.0536  136.7618  157.7541 H   0  0  0  0  0  0  0  0  0  0  0  0
  148.4111  137.3438  157.6938 H   0  0  0  0  0  0  0  0  0  0  0  0
  149.0868  135.1495  159.0810 H   0  0  0  0  0  0  0  0  0  0  0  0
  147.5965  135.1130  158.1546 H   0  0  0  0  0  0  0  0  0  0  0  0
  149.5506  134.4688  154.7194 H   0  0  0  0  0  0  0  0  0  0  0  0
  150.8616  135.0499  155.7222 H   0  0  0  0  0  0  0  0  0  0  0  0
  147.5213  134.9139  151.8316 H   0  0  0  0  0  0  0  0  0  0  0  0
  147.5658  132.9197  150.4795 H   0  0  0  0  0  0  0  0  0  0  0  0
  146.2264  131.5193  148.9085 H   0  0  0  0  0  0  0  0  0  0  0  0
  143.7199  131.6712  148.9816 H   0  0  0  0  0  0  0  0  0  0  0  0
  142.6712  133.2315  150.6436 H   0  0  0  0  0  0  0  0  0  0  0  0
  1  2  2  0  0  0  0
  2  3  1  0  0  0  0
  2 16  1  0  0  0  0
  3  4  1  0  0  0  0
  3 23  1  0  0  0  0
  4  5  1  0  0  0  0
  4 24  1  0  0  0  0
  4 25  1  0  0  0  0
  5 15  1  0  0  0  0
  5  6  1  0  0  0  0
  5 12  1  0  0  0  0
  6 11  1  0  0  0  0
  6  7  1  0  0  0  0
  7  8  1  0  0  0  0
  7 26  1  0  0  0  0
  7 27  1  0  0  0  0
  8  9  1  0  0  0  0
  8 28  1  0  0  0  0
  8 29  1  0  0  0  0
  9 10  1  0  0  0  0
 10 11  1  0  0  0  0
 10 30  1  0  0  0  0
 10 31  1  0  0  0  0
 11 32  1  0  0  0  0
 11 33  1  0  0  0  0
 12 13  1  0  0  0  0
 12 34  1  0  0  0  0
 12 35  1  0  0  0  0
 13 14  1  0  0  0  0
 13 36  1  0  0  0  0
 13 37  1  0  0  0  0
 14 15  1  0  0  0  0
 15 38  1  0  0  0  0
 15 39  1  0  0  0  0
 16 17  1  0  0  0  0
 16 40  1  0  0  0  0
 17 22  1  0  0  0  0
 17 18  2  0  0  0  0
 18 19  1  0  0  0  0
 18 41  1  0  0  0  0
 19 20  2  0  0  0  0
 19 42  1  0  0  0  0
 20 21  1  0  0  0  0
 20 43  1  0  0  0  0
 21 22  2  0  0  0  0
 21 44  1  0  0  0  0
M  END
> <s_m_source_file>
AV-unprocessed.smi

> <i_m_source_file_index>
1954

> <i_lp_mmshare_version>
43012

> <i_f3d_flags>
0

> <s_epik_input>
bjFbY0hdW2NIXVtjSF1bY0hdYzFbTkhdQyg9TylbTkhdW0NIMl1bQ0BdMihbQ0gyXVtDSDJdU1tDSDJdMilOM1tDSDJdW0NIMl1PW0NIMl1bQ0gyXTM=

> <s_epik_cmdline>
J2VwaWtfcHl0aG9uJywgJy1waCcsICc3LjAnLCAnLXRuJywgJzgnLCAnLW1hJywgJzIwMCcsICctbWV0YWxfYmluZGluZycsICctaW1hZScsICc8aW5maWxlLm1hZT4nLCAnLW9tYWUnLCAnPG91dGZpbGUubWFlPic=

> <r_epik_Ionization_Penalty>
0.0195535

> <r_epik_Ionization_Penalty_Charging>
0

> <r_epik_Ionization_Penalty_Neutral>
0.0195535

> <r_epik_State_Penalty>
0.0155843

> <r_epik_Charging_Adjusted_Penalty>
0.0155843

> <i_epik_Tot_Q>
0

> <i_epik_Tot_abs_Q>
0

> <r_epik_Metal_State_Penalty>
0.0155842

> <b_epik_Metal_Only>
0

> <s_lp_Force_Field>
OPLS_2005

> <r_lp_Energy>
55.5144

> <b_lp_Chiralities_Consistent>
1

> <s_lp_Variant>
AV-unprocessed.smi:1954-1

> <Gold.Version>
5.8.1

> <Gold.Id.Protein>
6NUR|6NUR_protein|mol2

> <Gold.PLP.Fitness>
43.2664

> <Gold.PLP.PLP>
-32.4190

> <Gold.PLP.part.hbond>
-3.0000

> <Gold.PLP.part.metal>
0.0000

> <Gold.PLP.part.buried>
-4.3123

> <Gold.PLP.part.nonpolar>
-25.0778

> <Gold.PLP.part.repulsive>
0.4261

> <Gold.PLP.ligand.clash>
0.0000

> <Gold.PLP.ligand.torsion>
0.5742

> <Gold.PLP.Chemscore.Hbond>
2.9760

> <Gold.PLP.Chemscore.CHOScore>
1.0000

> <Gold.PLP.Chemscore.Metal>
0.0000

> <Gold.Chemscore.Hbonds>
donor molecule, donor type, donor heavy atom, donor atom, acceptor molecule, acceptor atom, score
      L1  H     3    23       P1  7948  1.00
      L1  H    16    40       P1  7948  0.98
      P1  H  7989  7998       L1     9  0.85
      L1  C    21    44       P1 10186  1.00

> <Gold.PLP.Chemscore.Internal.Correction>
0.0678

> <Gold.Rescore>
     Score         DG    S(hbond)    S(metal)    S(lipo)     H(rot)  DE(clash)    DE(int)     intcor
     16.27     -17.75       1.91        0.00      83.11       1.49       0.09       1.38       ----

> <Gold.Chemscore.Fitness>
16.2722

> <Gold.Chemscore.DG>
-17.7451

> <Gold.Chemscore.ZeroCoef>
-5.4800

> <Gold.Chemscore.Hbond>
1.9060

> <Gold.Chemscore.Metal>
0.0000

> <Gold.Chemscore.Lipo>
83.1080

> <Gold.Chemscore.Internal_Hbond>
0.0000

> <Gold.Chemscore.DEClash>
0.0939

> <Gold.Chemscore.DEInternal>
1.3791

> <Gold.Chemscore.Rot>
1.4940

> <Gold.Chemscore.Internal.Correction>
   9.000000E+99

> <Gold.Chemscore.Hbonds>
donor molecule, donor type, donor heavy atom, donor atom, acceptor molecule, acceptor atom, score
      L1  H     3    23       P1  7948  0.98
      L1  H    16    40       P1  7948  0.69
      P1  H  7989  7998       L1     9  0.09

> <Gold.Chemscore.Hbond.Weighted>
-6.3661

> <Gold.Chemscore.Metal.Weighted>
-0.0000

> <Gold.Chemscore.Lipo.Weighted>
-9.7236

> <Gold.Chemscore.Internal_Hbond.Weighted>
0.0000

> <Gold.Chemscore.DEClash.Weighted>
0.0939

> <Gold.Chemscore.DEInternal.Weighted>
1.3791

> <Gold.Chemscore.Rot.Weighted>
3.8246

> <Gold.Chemscore.Internal.Correction.Weighted>
   9.000000E+99

> <Gold.Protein.RotatedTorsions>
[ 6907 6896 6895 6894 ] final   53.90 input  -60.11 | X-H torsion
[ 7974 7965 7964 7962 ] final   81.99 input  175.53 | X-H torsion
[ 8008 7997 7996 7995 ] final -104.25 input   59.86 | X-H torsion
[ 10167 10162 10161 10158 ] final   87.03 input  -65.29 | X-H torsion
[ 10718 10713 10712 10709 ] final  -82.76 input   66.30 | X-H torsion
[ 10763 10752 10751 10750 ] final  141.88 input  -60.55 | X-H torsion
[ 11005 11000 10999 10996 ] final  146.36 input  -57.11 | X-H torsion

> <Gold.Protein.ActiveResidues>
 VAL166  LYS551  ARG553  GLY616  TRP617  ASP618  TYR619  PRO620  LYS621  CYS622 
 ASP623  PHE694  ASN695  SER759  ASP760  ASP761  ALA762  ILE779  LEU786  VAL792 
 PHE793  MET794  SER795  GLU796  ALA797  LYS798  CYS799  TRP800  GLU811  SER814 

> <Gold.Protein.RotatedAtoms>
  152.3384  134.7167  160.0270 H   0  0  0  0  0  0  0  0  0  0  0  0  # atno 6907 bound_to 6896
  151.7560  133.3325  159.3412 H   0  0  0  0  0  0  0  0  0  0  0  0  # atno 6908 bound_to 6896
  150.7465  134.6081  159.6116 H   0  0  0  0  0  0  0  0  0  0  0  0  # atno 6909 bound_to 6896
  145.6309  139.2404  143.2085 H   0  0  0  0  0  0  0  0  0  0  0  0  # atno 7974 bound_to 7965
  154.8826  140.0418  157.1791 H   0  0  0  0  0  0  0  0  0  0  0  0  # atno 8008 bound_to 7997
  154.8623  140.2946  155.5510 H   0  0  0  0  0  0  0  0  0  0  0  0  # atno 8009 bound_to 7997
  156.2998  140.2444  156.3599 H   0  0  0  0  0  0  0  0  0  0  0  0  # atno 8010 bound_to 7997
  139.8815  144.6437  150.8838 H   0  0  0  0  0  0  0  0  0  0  0  0  # atno 10167 bound_to 10162
  156.0028  130.4644  150.4154 H   0  0  0  0  0  0  0  0  0  0  0  0  # atno 10718 bound_to 10713
  153.9465  135.2974  155.3440 H   0  0  0  0  0  0  0  0  0  0  0  0  # atno 10763 bound_to 10752
  154.7449  135.5007  153.9189 H   0  0  0  0  0  0  0  0  0  0  0  0  # atno 10764 bound_to 10752
  153.1015  135.6735  153.9771 H   0  0  0  0  0  0  0  0  0  0  0  0  # atno 10765 bound_to 10752
  140.0787  134.9110  157.1465 H   0  0  0  0  0  0  0  0  0  0  0  0  # atno 11005 bound_to 11000
  146.1357  140.7125  142.9391 LP  0  0  0  0  0  0  0  0  0  0  0  0  # atno 17320 bound_to 7965
  144.7194  140.4322  143.7019 LP  0  0  0  0  0  0  0  0  0  0  0  0  # atno 17321 bound_to 7965
  140.7743  143.3582  151.1880 LP  0  0  0  0  0  0  0  0  0  0  0  0  # atno 17342 bound_to 10162
  139.7191  143.9252  152.2978 LP  0  0  0  0  0  0  0  0  0  0  0  0  # atno 17343 bound_to 10162
  157.2214  131.0483  151.2544 LP  0  0  0  0  0  0  0  0  0  0  0  0  # atno 17370 bound_to 10713
  157.3797  130.7225  149.6621 LP  0  0  0  0  0  0  0  0  0  0  0  0  # atno 17371 bound_to 10713
  140.3520  134.2589  155.7197 LP  0  0  0  0  0  0  0  0  0  0  0  0  # atno 17394 bound_to 11000
  141.2039  133.7901  157.0316 LP  0  0  0  0  0  0  0  0  0  0  0  0  # atno 17395 bound_to 11000

$$$$
