AV-unprocessed.smi:827|AV-procd|sdf|3857|dock4
  -GOLD-   22720 1303D 1   1.00000     0.00000
 Structure written by MMmdl.
 47 48  0  0  0  0  0  0  0  0  2 V2000
  144.6681  136.2758  150.1259 C   0  0  0  0  0  0  0  0  0  0  0  0
  145.5304  135.4281  150.8771 O   0  0  0  0  0  0  0  0  0  0  0  0
  145.2315  134.0808  150.9500 C   0  0  0  0  0  0  0  0  0  0  0  0
  144.1304  133.6282  150.2992 N   0  0  0  0  0  0  0  0  0  0  0  0
  143.8363  132.3140  150.3708 C   0  0  0  0  0  0  0  0  0  0  0  0
  144.6124  131.3895  151.0935 C   0  0  0  0  0  0  0  0  0  0  0  0
  145.7544  131.8562  151.7700 C   0  0  0  0  0  0  0  0  0  0  0  0
  146.0854  133.2312  151.6923 C   0  0  0  0  0  0  0  0  0  0  0  0
  147.2057  133.8146  152.3473 N   0  0  0  0  0  0  0  0  0  0  0  0
  147.7953  133.4449  153.4968 C   0  0  0  0  0  0  0  0  0  0  0  0
  147.4493  132.5014  154.2076 O   0  0  0  0  0  0  0  0  0  0  0  0
  148.8440  134.2310  153.7787 N   0  0  0  0  0  0  0  0  0  0  0  0
  149.6927  134.0967  154.9574 C   0  0  0  0  0  0  0  0  0  0  0  0
  150.7627  135.2047  155.0167 C   0  0  0  0  0  0  0  0  0  0  0  0
  150.2672  136.5035  154.4954 N   0  3  0  0  0  0  0  0  0  0  0  0
  149.0733  137.0149  155.2254 C   0  0  0  0  0  0  0  0  0  0  0  0
  148.6014  138.3666  154.6589 C   0  0  0  0  0  0  0  0  0  0  0  0
  149.7193  139.3141  154.6889 N   0  0  0  0  0  0  0  0  0  0  0  0
  149.8014  140.4106  155.4802 C   0  0  0  0  0  0  0  0  0  0  0  0
  151.0767  141.2562  155.4592 C   0  0  0  0  0  0  0  0  0  0  0  0
  148.8854  140.7634  156.2227 O   0  0  0  0  0  0  0  0  0  0  0  0
  150.8277  138.8566  153.8468 C   0  0  0  0  0  0  0  0  0  0  0  0
  151.3528  137.5161  154.3926 C   0  0  0  0  0  0  0  0  0  0  0  0
  145.0450  137.2976  150.1630 H   0  0  0  0  0  0  0  0  0  0  0  0
  143.6571  136.2808  150.5361 H   0  0  0  0  0  0  0  0  0  0  0  0
  144.6284  135.9766  149.0775 H   0  0  0  0  0  0  0  0  0  0  0  0
  142.9531  131.9907  149.8402 H   0  0  0  0  0  0  0  0  0  0  0  0
  144.3347  130.3465  151.1319 H   0  0  0  0  0  0  0  0  0  0  0  0
  146.3408  131.1546  152.3422 H   0  0  0  0  0  0  0  0  0  0  0  0
  147.6527  134.5649  151.8406 H   0  0  0  0  0  0  0  0  0  0  0  0
  149.0616  134.9820  153.1397 H   0  0  0  0  0  0  0  0  0  0  0  0
  149.0556  134.1483  155.8407 H   0  0  0  0  0  0  0  0  0  0  0  0
  150.1424  133.1035  154.9565 H   0  0  0  0  0  0  0  0  0  0  0  0
  151.1349  135.3406  156.0332 H   0  0  0  0  0  0  0  0  0  0  0  0
  151.6162  134.8811  154.4187 H   0  0  0  0  0  0  0  0  0  0  0  0
  148.2544  136.2996  155.1615 H   0  0  0  0  0  0  0  0  0  0  0  0
  149.3155  137.1255  156.2839 H   0  0  0  0  0  0  0  0  0  0  0  0
  148.2703  138.2414  153.6267 H   0  0  0  0  0  0  0  0  0  0  0  0
  147.7230  138.7069  155.2053 H   0  0  0  0  0  0  0  0  0  0  0  0
  151.2661  141.6480  154.4594 H   0  0  0  0  0  0  0  0  0  0  0  0
  151.9365  140.6670  155.7794 H   0  0  0  0  0  0  0  0  0  0  0  0
  150.9855  142.1061  156.1369 H   0  0  0  0  0  0  0  0  0  0  0  0
  150.4722  138.7323  152.8228 H   0  0  0  0  0  0  0  0  0  0  0  0
  151.6448  139.5771  153.7914 H   0  0  0  0  0  0  0  0  0  0  0  0
  151.7986  137.6682  155.3772 H   0  0  0  0  0  0  0  0  0  0  0  0
  152.1428  137.1424  153.7400 H   0  0  0  0  0  0  0  0  0  0  0  0
  149.9680  136.3328  153.5460 H   0  0  0  0  0  0  0  0  0  0  0  0
  1  2  1  0  0  0  0
  1 24  1  0  0  0  0
  1 25  1  0  0  0  0
  1 26  1  0  0  0  0
  2  3  1  0  0  0  0
  3  8  1  0  0  0  0
  3  4  2  0  0  0  0
  4  5  1  0  0  0  0
  5  6  2  0  0  0  0
  5 27  1  0  0  0  0
  6  7  1  0  0  0  0
  6 28  1  0  0  0  0
  7  8  2  0  0  0  0
  7 29  1  0  0  0  0
  8  9  1  0  0  0  0
  9 10  1  0  0  0  0
  9 30  1  0  0  0  0
 10 11  2  0  0  0  0
 10 12  1  0  0  0  0
 12 13  1  0  0  0  0
 12 31  1  0  0  0  0
 13 14  1  0  0  0  0
 13 32  1  0  0  0  0
 13 33  1  0  0  0  0
 14 15  1  0  0  0  0
 14 34  1  0  0  0  0
 14 35  1  0  0  0  0
 15 23  1  0  0  0  0
 15 16  1  0  0  0  0
 15 47  1  0  0  0  0
 16 17  1  0  0  0  0
 16 36  1  0  0  0  0
 16 37  1  0  0  0  0
 17 18  1  0  0  0  0
 17 38  1  0  0  0  0
 17 39  1  0  0  0  0
 18 19  1  0  0  0  0
 18 22  1  0  0  0  0
 19 20  1  0  0  0  0
 19 21  2  0  0  0  0
 20 40  1  0  0  0  0
 20 41  1  0  0  0  0
 20 42  1  0  0  0  0
 22 23  1  0  0  0  0
 22 43  1  0  0  0  0
 22 44  1  0  0  0  0
 23 45  1  0  0  0  0
 23 46  1  0  0  0  0
M  CHG  1  15   1
M  END
> <s_m_source_file>
AV-unprocessed.smi

> <i_m_source_file_index>
827

> <i_lp_mmshare_version>
43012

> <i_f3d_flags>
0

> <s_epik_input>
W0NIM11PYzFuW2NIXVtjSF1bY0hdYzFbTkhdQyg9TylbTkhdW0NIMl1bQ0gyXU4yW0NIMl1bQ0gyXU4oQyg9TylbQ0gzXSlbQ0gyXVtDSDJdMg==

> <s_epik_cmdline>
J2VwaWtfcHl0aG9uJywgJy1waCcsICc3LjAnLCAnLXRuJywgJzgnLCAnLW1hJywgJzIwMCcsICctbWV0YWxfYmluZGluZycsICctaW1hZScsICc8aW5maWxlLm1hZT4nLCAnLW9tYWUnLCAnPG91dGZpbGUubWFlPic=

> <r_lp_tautomer_probability>
1

> <r_epik_Ionization_Penalty>
0.63011

> <r_epik_Ionization_Penalty_Charging>
0.630034

> <r_epik_Ionization_Penalty_Neutral>
7.67152e-05

> <r_epik_State_Penalty>
0.646805

> <r_epik_Charging_Adjusted_Penalty>
1.27684

> <i_epik_Tot_Q>
1

> <i_epik_Tot_abs_Q>
1

> <r_epik_Metal_State_Penalty>
0.64681

> <b_epik_Metal_Only>
0

> <s_lp_Force_Field>
OPLS_2005

> <r_lp_Energy>
42.7203

> <b_lp_Chiralities_Consistent>
1

> <s_lp_Variant>
AV-unprocessed.smi:827-2

> <Gold.Version>
5.8.1

> <Gold.Id.Protein>
6NUR|6NUR_protein|mol2

> <Gold.PLP.Fitness>
46.9416

> <Gold.PLP.PLP>
-34.6718

> <Gold.PLP.part.hbond>
-3.0000

> <Gold.PLP.part.metal>
0.0000

> <Gold.PLP.part.buried>
-1.3138

> <Gold.PLP.part.nonpolar>
-30.2258

> <Gold.PLP.part.repulsive>
0.5706

> <Gold.PLP.ligand.clash>
0.0000

> <Gold.PLP.ligand.torsion>
0.3594

> <Gold.PLP.Chemscore.Hbond>
3.8425

> <Gold.PLP.Chemscore.CHOScore>
0.4683

> <Gold.PLP.Chemscore.Metal>
0.0000

> <Gold.Chemscore.Hbonds>
donor molecule, donor type, donor heavy atom, donor atom, acceptor molecule, acceptor atom, score
      L1  H     9    30       P1  7948  0.92
      L1  H    12    31       P1  7948  0.80
      L1  H    15    47       P1  7948  1.50
      L1  C     5    27       P1 10952  0.57

> <Gold.PLP.Chemscore.Internal.Correction>
0.0562

> <Gold.Rescore>
     Score         DG    S(hbond)    S(metal)    S(lipo)     H(rot)  DE(clash)    DE(int)     intcor
     13.37     -14.07       1.40        0.00      74.38       1.87       0.25       0.44       ----

> <Gold.Chemscore.Fitness>
13.3736

> <Gold.Chemscore.DG>
-14.0702

> <Gold.Chemscore.ZeroCoef>
-5.4800

> <Gold.Chemscore.Hbond>
1.4021

> <Gold.Chemscore.Metal>
0.0000

> <Gold.Chemscore.Lipo>
74.3822

> <Gold.Chemscore.Internal_Hbond>
0.0000

> <Gold.Chemscore.DEClash>
0.2525

> <Gold.Chemscore.DEInternal>
0.4441

> <Gold.Chemscore.Rot>
1.8732

> <Gold.Chemscore.Internal.Correction>
   9.000000E+99

> <Gold.Chemscore.Hbonds>
donor molecule, donor type, donor heavy atom, donor atom, acceptor molecule, acceptor atom, score
      L1  H     9    30       P1  7948  0.29
      L1  H    12    31       P1  7948  0.12
      L1  H    15    47       P1  7948  0.09

> <Gold.Chemscore.Hbond.Weighted>
-4.6830

> <Gold.Chemscore.Metal.Weighted>
-0.0000

> <Gold.Chemscore.Lipo.Weighted>
-8.7027

> <Gold.Chemscore.Internal_Hbond.Weighted>
0.0000

> <Gold.Chemscore.DEClash.Weighted>
0.2525

> <Gold.Chemscore.DEInternal.Weighted>
0.4441

> <Gold.Chemscore.Rot.Weighted>
4.7955

> <Gold.Chemscore.Internal.Correction.Weighted>
   9.000000E+99

> <Gold.Protein.RotatedTorsions>
[ 6907 6896 6895 6894 ] final  160.91 input  -60.11 | X-H torsion
[ 7974 7965 7964 7962 ] final  -30.41 input  175.53 | X-H torsion
[ 8008 7997 7996 7995 ] final   63.67 input   59.86 | X-H torsion
[ 10167 10162 10161 10158 ] final -111.32 input  -65.29 | X-H torsion
[ 10718 10713 10712 10709 ] final  -61.49 input   66.30 | X-H torsion
[ 10763 10752 10751 10750 ] final   70.24 input  -60.55 | X-H torsion
[ 11005 11000 10999 10996 ] final  111.68 input  -57.11 | X-H torsion

> <Gold.Protein.ActiveResidues>
 VAL166  LYS551  ARG553  GLY616  TRP617  ASP618  TYR619  PRO620  LYS621  CYS622 
 ASP623  PHE694  ASN695  SER759  ASP760  ASP761  ALA762  ILE779  LEU786  VAL792 
 PHE793  MET794  SER795  GLU796  ALA797  LYS798  CYS799  TRP800  GLU811  SER814 

> <Gold.Protein.RotatedAtoms>
  151.9635  133.3703  159.4043 H   0  0  0  0  0  0  0  0  0  0  0  0  # atno 6907 bound_to 6896
  150.6960  134.4215  159.5216 H   0  0  0  0  0  0  0  0  0  0  0  0  # atno 6908 bound_to 6896
  152.1908  134.8673  160.0568 H   0  0  0  0  0  0  0  0  0  0  0  0  # atno 6909 bound_to 6896
  146.1145  140.5536  142.8763 H   0  0  0  0  0  0  0  0  0  0  0  0  # atno 7974 bound_to 7965
  155.6339  140.3496  155.4692 H   0  0  0  0  0  0  0  0  0  0  0  0  # atno 8008 bound_to 7997
  155.9981  140.1207  157.0598 H   0  0  0  0  0  0  0  0  0  0  0  0  # atno 8009 bound_to 7997
  154.4240  140.1106  156.5644 H   0  0  0  0  0  0  0  0  0  0  0  0  # atno 8010 bound_to 7997
  140.1348  143.4329  152.1602 H   0  0  0  0  0  0  0  0  0  0  0  0  # atno 10167 bound_to 10162
  156.0918  130.4199  150.1002 H   0  0  0  0  0  0  0  0  0  0  0  0  # atno 10718 bound_to 10713
  153.0331  135.5181  154.7411 H   0  0  0  0  0  0  0  0  0  0  0  0  # atno 10763 bound_to 10752
  154.6410  135.2912  155.0105 H   0  0  0  0  0  0  0  0  0  0  0  0  # atno 10764 bound_to 10752
  154.1023  135.6634  153.4923 H   0  0  0  0  0  0  0  0  0  0  0  0  # atno 10765 bound_to 10752
  139.8909  134.9513  156.6469 H   0  0  0  0  0  0  0  0  0  0  0  0  # atno 11005 bound_to 11000
  144.7541  140.5263  143.6781 LP  0  0  0  0  0  0  0  0  0  0  0  0  # atno 17320 bound_to 7965
  145.5595  139.1479  143.3349 LP  0  0  0  0  0  0  0  0  0  0  0  0  # atno 17321 bound_to 7965
  139.5501  144.7331  151.4461 LP  0  0  0  0  0  0  0  0  0  0  0  0  # atno 17342 bound_to 10162
  140.6795  143.8113  150.7103 LP  0  0  0  0  0  0  0  0  0  0  0  0  # atno 17343 bound_to 10162
  156.9010  130.9620  151.3576 LP  0  0  0  0  0  0  0  0  0  0  0  0  # atno 17370 bound_to 10713
  157.6069  130.8554  149.8889 LP  0  0  0  0  0  0  0  0  0  0  0  0  # atno 17371 bound_to 10713
  140.7550  133.8865  155.8375 LP  0  0  0  0  0  0  0  0  0  0  0  0  # atno 17394 bound_to 11000
  140.9969  134.1203  157.4355 LP  0  0  0  0  0  0  0  0  0  0  0  0  # atno 17395 bound_to 11000

$$$$
