AV-unprocessed.smi:2317|AV-procd|sdf|9272|dock4
  -GOLD-   2272012493D 1   1.00000     0.00000
 Structure written by MMmdl.
 37 38  0  0  0  0  0  0  0  0  1 V2000
  144.9328  137.3470  152.2921 O   0  0  0  0  0  0  0  0  0  0  0  0
  146.1050  137.0088  152.1315 C   0  0  0  0  0  0  0  0  0  0  0  0
  147.1445  137.8359  152.3163 N   0  0  0  0  0  0  0  0  0  0  0  0
  147.0569  139.2272  152.7530 C   0  0  0  0  0  0  0  0  0  0  0  0
  147.7475  139.4649  154.1155 C   0  0  1  0  0  0  0  0  0  0  0  0
  148.8393  138.4201  154.4443 C   0  0  0  0  0  0  0  0  0  0  0  0
  149.4725  138.6735  155.8223 C   0  0  0  0  0  0  0  0  0  0  0  0
  150.0392  140.0965  155.9277 C   0  0  0  0  0  0  0  0  0  0  0  0
  148.9643  141.1491  155.6070 C   0  0  0  0  0  0  0  0  0  0  0  0
  148.3056  140.9051  154.2353 C   0  0  1  0  0  0  0  0  0  0  0  0
  149.2483  141.1768  153.2147 O   0  0  0  0  0  0  0  0  0  0  0  0
  146.5203  135.7925  151.7373 N   0  0  0  0  0  0  0  0  0  0  0  0
  145.7549  134.6284  151.4483 C   0  0  0  0  0  0  0  0  0  0  0  0
  144.4517  134.6414  150.8933 C   0  0  0  0  0  0  0  0  0  0  0  0
  143.7990  133.4118  150.6724 C   0  0  0  0  0  0  0  0  0  0  0  0
  144.3467  132.2143  150.9681 N   0  0  0  0  0  0  0  0  0  0  0  0
  145.5842  132.2055  151.5068 C   0  0  0  0  0  0  0  0  0  0  0  0
  146.3231  133.3768  151.7679 C   0  0  0  0  0  0  0  0  0  0  0  0
  147.5600  133.2959  152.3154 F   0  0  0  0  0  0  0  0  0  0  0  0
  148.0720  137.4730  152.1516 H   0  0  0  0  0  0  0  0  0  0  0  0
  147.4617  139.8985  151.9940 H   0  0  0  0  0  0  0  0  0  0  0  0
  145.9974  139.4709  152.8351 H   0  0  0  0  0  0  0  0  0  0  0  0
  146.9749  139.3665  154.8800 H   0  0  0  0  0  0  0  0  0  0  0  0
  148.4201  137.4143  154.4342 H   0  0  0  0  0  0  0  0  0  0  0  0
  149.6127  138.4365  153.6754 H   0  0  0  0  0  0  0  0  0  0  0  0
  148.7243  138.5208  156.6010 H   0  0  0  0  0  0  0  0  0  0  0  0
  150.2629  137.9455  156.0067 H   0  0  0  0  0  0  0  0  0  0  0  0
  150.4358  140.2647  156.9294 H   0  0  0  0  0  0  0  0  0  0  0  0
  150.8802  140.2066  155.2421 H   0  0  0  0  0  0  0  0  0  0  0  0
  148.1971  141.1198  156.3817 H   0  0  0  0  0  0  0  0  0  0  0  0
  149.3968  142.1497  155.6467 H   0  0  0  0  0  0  0  0  0  0  0  0
  147.4884  141.6166  154.1107 H   0  0  0  0  0  0  0  0  0  0  0  0
  149.1997  140.4888  152.5687 H   0  0  0  0  0  0  0  0  0  0  0  0
  147.5139  135.6947  151.5879 H   0  0  0  0  0  0  0  0  0  0  0  0
  143.9361  135.5552  150.6439 H   0  0  0  0  0  0  0  0  0  0  0  0
  142.8048  133.3907  150.2513 H   0  0  0  0  0  0  0  0  0  0  0  0
  145.9975  131.2353  151.7394 H   0  0  0  0  0  0  0  0  0  0  0  0
  1  2  2  0  0  0  0
  2  3  1  0  0  0  0
  2 12  1  0  0  0  0
  3  4  1  0  0  0  0
  3 20  1  0  0  0  0
  4  5  1  0  0  0  0
  4 21  1  0  0  0  0
  4 22  1  0  0  0  0
  5 10  1  0  0  0  0
  5  6  1  0  0  0  0
  5 23  1  0  0  0  0
  6  7  1  0  0  0  0
  6 24  1  0  0  0  0
  6 25  1  0  0  0  0
  7  8  1  0  0  0  0
  7 26  1  0  0  0  0
  7 27  1  0  0  0  0
  8  9  1  0  0  0  0
  8 28  1  0  0  0  0
  8 29  1  0  0  0  0
  9 10  1  0  0  0  0
  9 30  1  0  0  0  0
  9 31  1  0  0  0  0
 10 11  1  0  0  0  0
 10 32  1  0  0  0  0
 11 33  1  0  0  0  0
 12 13  1  0  0  0  0
 12 34  1  0  0  0  0
 13 18  1  0  0  0  0
 13 14  2  0  0  0  0
 14 15  1  0  0  0  0
 14 35  1  0  0  0  0
 15 16  2  0  0  0  0
 15 36  1  0  0  0  0
 16 17  1  0  0  0  0
 17 18  2  0  0  0  0
 17 37  1  0  0  0  0
 18 19  1  0  0  0  0
M  END
> <s_m_source_file>
AV-unprocessed.smi

> <i_m_source_file_index>
2317

> <i_lp_mmshare_version>
43012

> <i_f3d_flags>
0

> <s_epik_input>
RmMxW2NIXW5bY0hdW2NIXWMxW05IXUMoPU8pW05IXVtDSDJdW0NAQEhdMltDSDJdW0NIMl1bQ0gyXVtDSDJdW0NASF0yW09IXQ==

> <s_epik_cmdline>
J2VwaWtfcHl0aG9uJywgJy1waCcsICc3LjAnLCAnLXRuJywgJzgnLCAnLW1hJywgJzIwMCcsICctbWV0YWxfYmluZGluZycsICctaW1hZScsICc8aW5maWxlLm1hZT4nLCAnLW9tYWUnLCAnPG91dGZpbGUubWFlPic=

> <r_epik_Ionization_Penalty>
0.00317647

> <r_epik_Ionization_Penalty_Charging>
0

> <r_epik_Ionization_Penalty_Neutral>
0.00317647

> <r_epik_State_Penalty>
0.0022093

> <r_epik_Charging_Adjusted_Penalty>
0.0022093

> <i_epik_Tot_Q>
0

> <i_epik_Tot_abs_Q>
0

> <r_epik_Metal_State_Penalty>
-0

> <b_epik_Metal_Only>
0

> <s_lp_Force_Field>
OPLS_2005

> <r_lp_Energy>
21.0871

> <b_lp_Chiralities_Consistent>
1

> <s_lp_Variant>
AV-unprocessed.smi:2317-2

> <Gold.Version>
5.8.1

> <Gold.Id.Protein>
6NUR|6NUR_protein|mol2

> <Gold.PLP.Fitness>
44.1762

> <Gold.PLP.PLP>
-30.9263

> <Gold.PLP.part.hbond>
-3.9954

> <Gold.PLP.part.metal>
0.0000

> <Gold.PLP.part.buried>
-3.3867

> <Gold.PLP.part.nonpolar>
-24.2047

> <Gold.PLP.part.repulsive>
0.8051

> <Gold.PLP.ligand.clash>
0.0000

> <Gold.PLP.ligand.torsion>
0.6657

> <Gold.PLP.Chemscore.Hbond>
3.8560

> <Gold.PLP.Chemscore.CHOScore>
1.0000

> <Gold.PLP.Chemscore.Metal>
0.0000

> <Gold.Chemscore.Hbonds>
donor molecule, donor type, donor heavy atom, donor atom, acceptor molecule, acceptor atom, score
      L1  H     3    20       P1  7948  0.95
      L1  H    11    33       P1  7957  0.90
      L1  H    12    34       P1  7948  0.96
      P1  H  7989  7998       L1    11  0.01
      P1  H  8011  8017       L1    11  1.00
      L1  C    15    36       P1 10186  1.00

> <Gold.PLP.Chemscore.Internal.Correction>
0.0133

> <Gold.Rescore>
     Score         DG    S(hbond)    S(metal)    S(lipo)     H(rot)  DE(clash)    DE(int)     intcor
     18.51     -19.39       3.19        0.00      67.02       1.79       0.05       0.83       ----

> <Gold.Chemscore.Fitness>
18.5093

> <Gold.Chemscore.DG>
-19.3903

> <Gold.Chemscore.ZeroCoef>
-5.4800

> <Gold.Chemscore.Hbond>
3.1855

> <Gold.Chemscore.Metal>
0.0000

> <Gold.Chemscore.Lipo>
67.0168

> <Gold.Chemscore.Internal_Hbond>
0.0000

> <Gold.Chemscore.DEClash>
0.0544

> <Gold.Chemscore.DEInternal>
0.8265

> <Gold.Chemscore.Rot>
1.7853

> <Gold.Chemscore.Internal.Correction>
   9.000000E+99

> <Gold.Chemscore.Hbonds>
donor molecule, donor type, donor heavy atom, donor atom, acceptor molecule, acceptor atom, score
      L1  H     3    20       P1  7948  0.85
      L1  H    11    33       P1  7957  0.82
      L1  H    12    34       P1  7948  0.85
      P1  H  8011  8017       L1    11  0.29

> <Gold.Chemscore.Hbond.Weighted>
-10.6397

> <Gold.Chemscore.Metal.Weighted>
-0.0000

> <Gold.Chemscore.Lipo.Weighted>
-7.8410

> <Gold.Chemscore.Internal_Hbond.Weighted>
0.0000

> <Gold.Chemscore.DEClash.Weighted>
0.0544

> <Gold.Chemscore.DEInternal.Weighted>
0.8265

> <Gold.Chemscore.Rot.Weighted>
4.5704

> <Gold.Chemscore.Internal.Correction.Weighted>
   9.000000E+99

> <Gold.Protein.RotatedTorsions>
[ 6907 6896 6895 6894 ] final   77.51 input  -60.11 | X-H torsion
[ 7974 7965 7964 7962 ] final  178.30 input  175.53 | X-H torsion
[ 8008 7997 7996 7995 ] final  169.98 input   59.86 | X-H torsion
[ 10167 10162 10161 10158 ] final   60.67 input  -65.29 | X-H torsion
[ 10718 10713 10712 10709 ] final -133.58 input   66.30 | X-H torsion
[ 10763 10752 10751 10750 ] final   20.28 input  -60.55 | X-H torsion
[ 11005 11000 10999 10996 ] final   39.53 input  -57.11 | X-H torsion

> <Gold.Protein.ActiveResidues>
 VAL166  LYS551  ARG553  GLY616  TRP617  ASP618  TYR619  PRO620  LYS621  CYS622 
 ASP623  PHE694  ASN695  SER759  ASP760  ASP761  ALA762  ILE779  LEU786  VAL792 
 PHE793  MET794  SER795  GLU796  ALA797  LYS798  CYS799  TRP800  GLU811  SER814 

> <Gold.Protein.RotatedAtoms>
  152.5121  134.3806  159.9349 H   0  0  0  0  0  0  0  0  0  0  0  0  # atno 6907 bound_to 6896
  151.3762  133.3831  159.2713 H   0  0  0  0  0  0  0  0  0  0  0  0  # atno 6908 bound_to 6896
  150.9539  134.8956  159.7748 H   0  0  0  0  0  0  0  0  0  0  0  0  # atno 6909 bound_to 6896
  144.7158  140.0376  143.6438 H   0  0  0  0  0  0  0  0  0  0  0  0  # atno 7974 bound_to 7965
  156.1408  140.1550  156.8923 H   0  0  0  0  0  0  0  0  0  0  0  0  # atno 8008 bound_to 7997
  154.4986  140.0831  156.7788 H   0  0  0  0  0  0  0  0  0  0  0  0  # atno 8009 bound_to 7997
  155.4082  140.3417  155.4264 H   0  0  0  0  0  0  0  0  0  0  0  0  # atno 8010 bound_to 7997
  140.1631  144.4351  150.6699 H   0  0  0  0  0  0  0  0  0  0  0  0  # atno 10167 bound_to 10162
  156.2464  130.7127  151.1008 H   0  0  0  0  0  0  0  0  0  0  0  0  # atno 10718 bound_to 10713
  153.1091  135.6692  153.9533 H   0  0  0  0  0  0  0  0  0  0  0  0  # atno 10763 bound_to 10752
  153.9081  135.3028  155.3450 H   0  0  0  0  0  0  0  0  0  0  0  0  # atno 10764 bound_to 10752
  154.7511  135.5034  153.9368 H   0  0  0  0  0  0  0  0  0  0  0  0  # atno 10765 bound_to 10752
  140.2019  134.3860  155.8092 H   0  0  0  0  0  0  0  0  0  0  0  0  # atno 11005 bound_to 11000
  146.0050  139.3122  143.0905 LP  0  0  0  0  0  0  0  0  0  0  0  0  # atno 17320 bound_to 7965
  145.8749  140.9398  143.0631 LP  0  0  0  0  0  0  0  0  0  0  0  0  # atno 17321 bound_to 7965
  140.6630  143.2258  151.5810 LP  0  0  0  0  0  0  0  0  0  0  0  0  # atno 17342 bound_to 10162
  139.5372  144.2748  152.1276 LP  0  0  0  0  0  0  0  0  0  0  0  0  # atno 17343 bound_to 10162
  157.7196  131.0689  150.6188 LP  0  0  0  0  0  0  0  0  0  0  0  0  # atno 17370 bound_to 10713
  156.6264  130.4420  149.5803 LP  0  0  0  0  0  0  0  0  0  0  0  0  # atno 17371 bound_to 10713
  141.2227  133.7098  156.8272 LP  0  0  0  0  0  0  0  0  0  0  0  0  # atno 17394 bound_to 11000
  140.2045  134.8873  157.3206 LP  0  0  0  0  0  0  0  0  0  0  0  0  # atno 17395 bound_to 11000

$$$$
