AV-unprocessed.smi:490|AV-procd|sdf|2706|dock6
  -GOLD-   2262023143D 1   1.00000     0.00000
 Structure written by MMmdl.
 50 52  0  0  0  0  0  0  0  0  2 V2000
  152.0304  144.3280  160.2606 C   0  0  0  0  0  0  0  0  0  0  0  0
  152.1766  142.8588  159.9028 C   0  0  0  0  0  0  0  0  0  0  0  0
  153.1641  142.0924  160.5547 C   0  0  0  0  0  0  0  0  0  0  0  0
  153.3301  140.7317  160.2433 C   0  0  0  0  0  0  0  0  0  0  0  0
  152.5046  140.1192  159.2807 C   0  0  0  0  0  0  0  0  0  0  0  0
  152.7057  138.6511  158.9528 C   0  0  0  0  0  0  0  0  0  0  0  0
  151.5001  140.8756  158.6327 C   0  0  0  0  0  0  0  0  0  0  0  0
  150.6952  140.2748  157.6991 O   0  0  0  0  0  0  0  0  0  0  0  0
  151.1262  140.4759  156.3609 C   0  0  0  0  0  0  0  0  0  0  0  0
  149.8944  140.7232  155.4777 C   0  0  1  0  0  0  0  0  0  0  0  0
  150.1932  140.2991  154.1626 O   0  0  0  0  0  0  0  0  0  0  0  0
  148.6579  139.9580  155.9886 C   0  0  0  0  0  0  0  0  0  0  0  0
  147.3911  140.5322  155.5050 N   0  0  0  0  0  0  0  0  0  0  0  0
  146.7064  140.2964  154.3480 C   0  0  0  0  0  0  0  0  0  0  0  0
  147.0864  139.3553  153.2522 C   0  0  0  0  0  0  0  0  0  0  0  0
  147.0203  139.9594  151.9795 O   0  0  0  0  0  0  0  0  0  0  0  0
  145.5882  141.0751  154.3745 N   0  3  0  0  0  0  0  0  0  0  0  0
  145.5538  141.8135  155.5578 C   0  0  0  0  0  0  0  0  0  0  0  0
  144.6210  142.7319  156.0300 C   0  0  0  0  0  0  0  0  0  0  0  0
  144.8820  143.3080  157.2904 C   0  0  0  0  0  0  0  0  0  0  0  0
  146.0322  142.9644  158.0301 C   0  0  0  0  0  0  0  0  0  0  0  0
  146.9712  142.0326  157.5402 C   0  0  0  0  0  0  0  0  0  0  0  0
  146.7078  141.4689  156.2913 C   0  0  0  0  0  0  0  0  0  0  0  0
  151.3435  142.2529  158.9293 C   0  0  0  0  0  0  0  0  0  0  0  0
  150.2838  143.0766  158.2092 C   0  0  0  0  0  0  0  0  0  0  0  0
  152.6478  144.5902  161.1205 H   0  0  0  0  0  0  0  0  0  0  0  0
  150.9958  144.5643  160.5109 H   0  0  0  0  0  0  0  0  0  0  0  0
  152.3375  144.9553  159.4235 H   0  0  0  0  0  0  0  0  0  0  0  0
  153.8048  142.5473  161.2961 H   0  0  0  0  0  0  0  0  0  0  0  0
  154.0954  140.1598  160.7473 H   0  0  0  0  0  0  0  0  0  0  0  0
  152.5516  138.4622  157.8900 H   0  0  0  0  0  0  0  0  0  0  0  0
  152.0027  138.0385  159.5173 H   0  0  0  0  0  0  0  0  0  0  0  0
  153.7166  138.3292  159.2043 H   0  0  0  0  0  0  0  0  0  0  0  0
  151.8397  141.2982  156.2862 H   0  0  0  0  0  0  0  0  0  0  0  0
  151.6422  139.5755  156.0229 H   0  0  0  0  0  0  0  0  0  0  0  0
  149.6699  141.7903  155.4617 H   0  0  0  0  0  0  0  0  0  0  0  0
  149.5367  139.6731  153.8963 H   0  0  0  0  0  0  0  0  0  0  0  0
  148.7062  138.9024  155.7205 H   0  0  0  0  0  0  0  0  0  0  0  0
  148.6280  139.9862  157.0780 H   0  0  0  0  0  0  0  0  0  0  0  0
  148.1012  138.9943  153.4209 H   0  0  0  0  0  0  0  0  0  0  0  0
  146.4321  138.4838  153.2693 H   0  0  0  0  0  0  0  0  0  0  0  0
  147.9006  140.1257  151.6784 H   0  0  0  0  0  0  0  0  0  0  0  0
  143.7374  142.9940  155.4666 H   0  0  0  0  0  0  0  0  0  0  0  0
  144.1851  144.0252  157.6996 H   0  0  0  0  0  0  0  0  0  0  0  0
  146.1973  143.4229  158.9943 H   0  0  0  0  0  0  0  0  0  0  0  0
  147.8439  141.7722  158.1202 H   0  0  0  0  0  0  0  0  0  0  0  0
  149.8790  142.5624  157.3379 H   0  0  0  0  0  0  0  0  0  0  0  0
  150.7004  144.0202  157.8567 H   0  0  0  0  0  0  0  0  0  0  0  0
  149.4566  143.2964  158.8846 H   0  0  0  0  0  0  0  0  0  0  0  0
  144.8965  141.0926  153.6364 H   0  0  0  0  0  0  0  0  0  0  0  0
  1  2  1  0  0  0  0
  1 26  1  0  0  0  0
  1 27  1  0  0  0  0
  1 28  1  0  0  0  0
  2 24  1  0  0  0  0
  2  3  2  0  0  0  0
  3  4  1  0  0  0  0
  3 29  1  0  0  0  0
  4  5  2  0  0  0  0
  4 30  1  0  0  0  0
  5  6  1  0  0  0  0
  5  7  1  0  0  0  0
  6 31  1  0  0  0  0
  6 32  1  0  0  0  0
  6 33  1  0  0  0  0
  7  8  1  0  0  0  0
  7 24  2  0  0  0  0
  8  9  1  0  0  0  0
  9 10  1  0  0  0  0
  9 34  1  0  0  0  0
  9 35  1  0  0  0  0
 10 11  1  0  0  0  0
 10 12  1  0  0  0  0
 10 36  1  0  0  0  0
 11 37  1  0  0  0  0
 12 13  1  0  0  0  0
 12 38  1  0  0  0  0
 12 39  1  0  0  0  0
 13 23  1  0  0  0  0
 13 14  1  0  0  0  0
 14 15  1  0  0  0  0
 14 17  2  0  0  0  0
 15 16  1  0  0  0  0
 15 40  1  0  0  0  0
 15 41  1  0  0  0  0
 16 42  1  0  0  0  0
 17 18  1  0  0  0  0
 17 50  1  0  0  0  0
 18 23  2  0  0  0  0
 18 19  1  0  0  0  0
 19 20  2  0  0  0  0
 19 43  1  0  0  0  0
 20 21  1  0  0  0  0
 20 44  1  0  0  0  0
 21 22  2  0  0  0  0
 21 45  1  0  0  0  0
 22 23  1  0  0  0  0
 22 46  1  0  0  0  0
 24 25  1  0  0  0  0
 25 47  1  0  0  0  0
 25 48  1  0  0  0  0
 25 49  1  0  0  0  0
M  CHG  1  17   1
M  END
> <s_m_source_file>
AV-unprocessed.smi

> <i_m_source_file_index>
490

> <i_lp_mmshare_version>
43012

> <i_f3d_flags>
0

> <s_epik_input>
W0NIM11jMVtjSF1bY0hdYyhbQ0gzXSljKGMxW0NIM10pT1tDSDJdW0NASF0oW09IXSlbQ0gyXW4oYyhuMilbQ0gyXVtPSF0pYyhjMjMpW2NIXVtjSF1bY0hdW2NIXTM=

> <s_epik_cmdline>
J2VwaWtfcHl0aG9uJywgJy1waCcsICc3LjAnLCAnLXRuJywgJzgnLCAnLW1hJywgJzIwMCcsICctbWV0YWxfYmluZGluZycsICctaW1hZScsICc8aW5maWxlLm1hZT4nLCAnLW9tYWUnLCAnPG91dGZpbGUubWFlPic=

> <r_lp_tautomer_probability>
1

> <r_epik_Ionization_Penalty>
1.43125

> <r_epik_Ionization_Penalty_Charging>
1.43039

> <r_epik_Ionization_Penalty_Neutral>
0.000858184

> <r_epik_State_Penalty>
1.51493

> <r_epik_Charging_Adjusted_Penalty>
2.94531

> <i_epik_Tot_Q>
1

> <i_epik_Tot_abs_Q>
1

> <r_epik_Metal_State_Penalty>
5.5599

> <b_epik_Metal_Only>
0

> <s_lp_Force_Field>
OPLS_2005

> <r_lp_Energy>
24.5509

> <b_lp_Chiralities_Consistent>
1

> <s_lp_Variant>
AV-unprocessed.smi:490-4

> <Gold.Version>
5.8.1

> <Gold.Id.Protein>
6NUR|6NUR_protein|mol2

> <Gold.PLP.Fitness>
54.2471

> <Gold.PLP.PLP>
-45.3256

> <Gold.PLP.part.hbond>
-3.5938

> <Gold.PLP.part.metal>
0.0000

> <Gold.PLP.part.buried>
-6.1216

> <Gold.PLP.part.nonpolar>
-35.4570

> <Gold.PLP.part.repulsive>
0.0000

> <Gold.PLP.ligand.clash>
0.0000

> <Gold.PLP.ligand.torsion>
1.6165

> <Gold.PLP.Chemscore.Hbond>
4.0000

> <Gold.PLP.Chemscore.CHOScore>
0.0000

> <Gold.PLP.Chemscore.Metal>
0.0000

> <Gold.Chemscore.Hbonds>
donor molecule, donor type, donor heavy atom, donor atom, acceptor molecule, acceptor atom, score
      L1  H    16    42       P1  7957  1.00
      L1  H    17    50       P1 10175  2.00
      P1  H  7989  7998       L1    11  0.93

> <Gold.PLP.Chemscore.Internal.Correction>
0.1545

> <Gold.Rescore>
     Score         DG    S(hbond)    S(metal)    S(lipo)     H(rot)  DE(clash)    DE(int)     intcor
     20.12     -21.66       2.91        0.00     121.38       3.02       0.17       1.37       ----

> <Gold.Chemscore.Fitness>
20.1241

> <Gold.Chemscore.DG>
-21.6622

> <Gold.Chemscore.ZeroCoef>
-5.4800

> <Gold.Chemscore.Hbond>
2.9061

> <Gold.Chemscore.Metal>
0.0000

> <Gold.Chemscore.Lipo>
121.3822

> <Gold.Chemscore.Internal_Hbond>
0.0000

> <Gold.Chemscore.DEClash>
0.1668

> <Gold.Chemscore.DEInternal>
1.3714

> <Gold.Chemscore.Rot>
3.0180

> <Gold.Chemscore.Internal.Correction>
   9.000000E+99

> <Gold.Chemscore.Hbonds>
donor molecule, donor type, donor heavy atom, donor atom, acceptor molecule, acceptor atom, score
      L1  H    16    42       P1  7957  1.00
      L1  H    17    50       P1 10175  0.60
      P1  H  7989  7998       L1    11  0.84

> <Gold.Chemscore.Hbond.Weighted>
-9.7065

> <Gold.Chemscore.Metal.Weighted>
-0.0000

> <Gold.Chemscore.Lipo.Weighted>
-14.2017

> <Gold.Chemscore.Internal_Hbond.Weighted>
0.0000

> <Gold.Chemscore.DEClash.Weighted>
0.1668

> <Gold.Chemscore.DEInternal.Weighted>
1.3714

> <Gold.Chemscore.Rot.Weighted>
7.7260

> <Gold.Chemscore.Internal.Correction.Weighted>
   9.000000E+99

> <Gold.Protein.RotatedTorsions>
[ 6907 6896 6895 6894 ] final  -91.01 input  -60.11 | X-H torsion
[ 7974 7965 7964 7962 ] final  -30.96 input  175.53 | X-H torsion
[ 8008 7997 7996 7995 ] final  151.99 input   59.86 | X-H torsion
[ 10167 10162 10161 10158 ] final   65.82 input  -65.29 | X-H torsion
[ 10718 10713 10712 10709 ] final  -72.70 input   66.30 | X-H torsion
[ 10763 10752 10751 10750 ] final   -9.90 input  -60.55 | X-H torsion
[ 11005 11000 10999 10996 ] final  163.97 input  -57.11 | X-H torsion

> <Gold.Protein.ActiveResidues>
 VAL166  LYS551  ARG553  GLY616  TRP617  ASP618  TYR619  PRO620  LYS621  CYS622 
 ASP623  PHE694  ASN695  SER759  ASP760  ASP761  ALA762  ILE779  LEU786  VAL792 
 PHE793  MET794  SER795  GLU796  ALA797  LYS798  CYS799  TRP800  GLU811  SER814 

> <Gold.Protein.RotatedAtoms>
  150.6888  134.2343  159.4446 H   0  0  0  0  0  0  0  0  0  0  0  0  # atno 6907 bound_to 6896
  152.0292  134.9775  160.0581 H   0  0  0  0  0  0  0  0  0  0  0  0  # atno 6908 bound_to 6896
  152.1322  133.4379  159.4763 H   0  0  0  0  0  0  0  0  0  0  0  0  # atno 6909 bound_to 6896
  146.1104  140.5606  142.8781 H   0  0  0  0  0  0  0  0  0  0  0  0  # atno 7974 bound_to 7965
  156.2649  140.2033  156.6262 H   0  0  0  0  0  0  0  0  0  0  0  0  # atno 8008 bound_to 7997
  154.6718  140.0549  157.0198 H   0  0  0  0  0  0  0  0  0  0  0  0  # atno 8009 bound_to 7997
  155.1126  140.3217  155.4520 H   0  0  0  0  0  0  0  0  0  0  0  0  # atno 8010 bound_to 7997
  140.1071  144.4851  150.7001 H   0  0  0  0  0  0  0  0  0  0  0  0  # atno 10167 bound_to 10162
  156.0310  130.4378  150.2632 H   0  0  0  0  0  0  0  0  0  0  0  0  # atno 10718 bound_to 10713
  153.4615  135.7016  153.6048 H   0  0  0  0  0  0  0  0  0  0  0  0  # atno 10763 bound_to 10752
  153.4340  135.3796  155.2188 H   0  0  0  0  0  0  0  0  0  0  0  0  # atno 10764 bound_to 10752
  154.8727  135.3958  154.4041 H   0  0  0  0  0  0  0  0  0  0  0  0  # atno 10765 bound_to 10752
  140.2412  134.8049  157.3413 H   0  0  0  0  0  0  0  0  0  0  0  0  # atno 11005 bound_to 11000
  144.7506  140.5181  143.6804 LP  0  0  0  0  0  0  0  0  0  0  0  0  # atno 17320 bound_to 7965
  145.5676  139.1482  143.3306 LP  0  0  0  0  0  0  0  0  0  0  0  0  # atno 17321 bound_to 7965
  140.6946  143.2396  151.5037 LP  0  0  0  0  0  0  0  0  0  0  0  0  # atno 17342 bound_to 10162
  139.5639  144.2089  152.1735 LP  0  0  0  0  0  0  0  0  0  0  0  0  # atno 17343 bound_to 10162
  157.0734  131.0123  151.3182 LP  0  0  0  0  0  0  0  0  0  0  0  0  # atno 17370 bound_to 10713
  157.4982  130.7864  149.7577 LP  0  0  0  0  0  0  0  0  0  0  0  0  # atno 17371 bound_to 10713
  140.1651  134.4679  155.7868 LP  0  0  0  0  0  0  0  0  0  0  0  0  # atno 17394 bound_to 11000
  141.2210  133.6918  156.7611 LP  0  0  0  0  0  0  0  0  0  0  0  0  # atno 17395 bound_to 11000

$$$$
