AV-unprocessed.smi:2416|AV-procd|sdf|9547|dock4
  -GOLD-   2272013183D 1   1.00000     0.00000
 Structure written by MMmdl.
 40 41  0  0  0  0  0  0  0  0  1 V2000
  149.9056  141.4001  155.6964 C   0  0  0  0  0  0  0  0  0  0  0  0
  150.6205  140.5780  154.7827 O   0  0  0  0  0  0  0  0  0  0  0  0
  151.2098  139.3947  155.3242 C   0  0  2  0  0  0  0  0  0  0  0  0
  152.2476  139.7671  156.3948 C   0  0  0  0  0  0  0  0  0  0  0  0
  151.6314  138.4031  154.2245 C   0  0  0  0  0  0  0  0  0  0  0  0
  151.0251  137.3088  155.1001 C   0  0  2  0  0  0  0  0  0  0  0  0
  150.3670  136.2662  154.3199 N   0  0  0  0  0  0  0  0  0  0  0  0
  150.3943  134.9616  154.6251 C   0  0  0  0  0  0  0  0  0  0  0  0
  150.9877  134.5075  155.6038 O   0  0  0  0  0  0  0  0  0  0  0  0
  149.6962  134.2379  153.7322 N   0  0  0  0  0  0  0  0  0  0  0  0
  149.4721  132.8351  153.7211 C   0  0  0  0  0  0  0  0  0  0  0  0
  148.4349  132.4019  152.8642 C   0  0  0  0  0  0  0  0  0  0  0  0
  148.1304  131.0288  152.7829 C   0  0  0  0  0  0  0  0  0  0  0  0
  148.8724  130.1250  153.5636 C   0  0  0  0  0  0  0  0  0  0  0  0
  148.6149  128.7963  153.5205 F   0  0  0  0  0  0  0  0  0  0  0  0
  149.8892  130.6372  154.3904 C   0  0  0  0  0  0  0  0  0  0  0  0
  150.1822  131.9529  154.4687 N   0  0  0  0  0  0  0  0  0  0  0  0
  150.0752  138.3826  155.6904 C   0  0  0  0  0  0  0  0  0  0  0  0
  149.7397  138.2312  157.1776 C   0  0  0  0  0  0  0  0  0  0  0  0
  148.7254  138.5870  154.9731 C   0  0  0  0  0  0  0  0  0  0  0  0
  149.6058  142.3174  155.1901 H   0  0  0  0  0  0  0  0  0  0  0  0
  150.5137  141.6820  156.5561 H   0  0  0  0  0  0  0  0  0  0  0  0
  148.9970  140.9157  156.0529 H   0  0  0  0  0  0  0  0  0  0  0  0
  152.6149  138.8901  156.9270 H   0  0  0  0  0  0  0  0  0  0  0  0
  151.8253  140.4458  157.1360 H   0  0  0  0  0  0  0  0  0  0  0  0
  153.1227  140.2508  155.9622 H   0  0  0  0  0  0  0  0  0  0  0  0
  151.1069  138.5492  153.2781 H   0  0  0  0  0  0  0  0  0  0  0  0
  152.7079  138.3173  154.0744 H   0  0  0  0  0  0  0  0  0  0  0  0
  151.7454  136.9277  155.8278 H   0  0  0  0  0  0  0  0  0  0  0  0
  149.8566  136.5603  153.5001 H   0  0  0  0  0  0  0  0  0  0  0  0
  149.2695  134.7516  152.9754 H   0  0  0  0  0  0  0  0  0  0  0  0
  147.8750  133.1115  152.2724 H   0  0  0  0  0  0  0  0  0  0  0  0
  147.3416  130.6773  152.1342 H   0  0  0  0  0  0  0  0  0  0  0  0
  150.4820  129.9759  155.0050 H   0  0  0  0  0  0  0  0  0  0  0  0
  148.9903  137.4567  157.3435 H   0  0  0  0  0  0  0  0  0  0  0  0
  149.3508  139.1608  157.5946 H   0  0  0  0  0  0  0  0  0  0  0  0
  150.6120  137.9502  157.7675 H   0  0  0  0  0  0  0  0  0  0  0  0
  148.0530  137.7432  155.1309 H   0  0  0  0  0  0  0  0  0  0  0  0
  148.8423  138.7039  153.8956 H   0  0  0  0  0  0  0  0  0  0  0  0
  148.2129  139.4783  155.3362 H   0  0  0  0  0  0  0  0  0  0  0  0
  1  2  1  0  0  0  0
  1 21  1  0  0  0  0
  1 22  1  0  0  0  0
  1 23  1  0  0  0  0
  2  3  1  0  0  0  0
  3 18  1  0  0  0  0
  3  4  1  0  0  0  0
  3  5  1  0  0  0  0
  4 24  1  0  0  0  0
  4 25  1  0  0  0  0
  4 26  1  0  0  0  0
  5  6  1  0  0  0  0
  5 27  1  0  0  0  0
  5 28  1  0  0  0  0
  6  7  1  0  0  0  0
  6 18  1  0  0  0  0
  6 29  1  0  0  0  0
  7  8  1  0  0  0  0
  7 30  1  0  0  0  0
  8  9  2  0  0  0  0
  8 10  1  0  0  0  0
 10 11  1  0  0  0  0
 10 31  1  0  0  0  0
 11 17  1  0  0  0  0
 11 12  2  0  0  0  0
 12 13  1  0  0  0  0
 12 32  1  0  0  0  0
 13 14  2  0  0  0  0
 13 33  1  0  0  0  0
 14 15  1  0  0  0  0
 14 16  1  0  0  0  0
 16 17  2  0  0  0  0
 16 34  1  0  0  0  0
 18 19  1  0  0  0  0
 18 20  1  0  0  0  0
 19 35  1  0  0  0  0
 19 36  1  0  0  0  0
 19 37  1  0  0  0  0
 20 38  1  0  0  0  0
 20 39  1  0  0  0  0
 20 40  1  0  0  0  0
M  END
> <s_m_source_file>
AV-unprocessed.smi

> <i_m_source_file_index>
2416

> <i_lp_mmshare_version>
43012

> <i_f3d_flags>
0

> <s_epik_input>
W0NIM11PW0NAQF0xKFtDSDNdKVtDSDJdW0NASF0oQzEoW0NIM10pW0NIM10pW05IXUMoPU8pW05IXWMyW2NIXVtjSF1jKEYpW2NIXW4y

> <s_epik_cmdline>
J2VwaWtfcHl0aG9uJywgJy1waCcsICc3LjAnLCAnLXRuJywgJzgnLCAnLW1hJywgJzIwMCcsICctbWV0YWxfYmluZGluZycsICctaW1hZScsICc8aW5maWxlLm1hZT4nLCAnLW9tYWUnLCAnPG91dGZpbGUubWFlPic=

> <r_lp_tautomer_probability>
1

> <r_epik_Ionization_Penalty>
3.67756e-05

> <r_epik_Ionization_Penalty_Charging>
0

> <r_epik_Ionization_Penalty_Neutral>
3.67756e-05

> <r_epik_State_Penalty>
-0

> <r_epik_Charging_Adjusted_Penalty>
0

> <i_epik_Tot_Q>
0

> <i_epik_Tot_abs_Q>
0

> <r_epik_Metal_State_Penalty>
-0

> <b_epik_Metal_Only>
0

> <s_lp_Force_Field>
OPLS_2005

> <r_lp_Energy>
27.0586

> <b_lp_Chiralities_Consistent>
1

> <s_lp_Variant>
AV-unprocessed.smi:2416-4

> <Gold.Version>
5.8.1

> <Gold.Id.Protein>
6NUR|6NUR_protein|mol2

> <Gold.PLP.Fitness>
38.7253

> <Gold.PLP.PLP>
-30.5662

> <Gold.PLP.part.hbond>
-4.3065

> <Gold.PLP.part.metal>
0.0000

> <Gold.PLP.part.buried>
0.7385

> <Gold.PLP.part.nonpolar>
-25.4665

> <Gold.PLP.part.repulsive>
0.2534

> <Gold.PLP.ligand.clash>
0.0000

> <Gold.PLP.ligand.torsion>
0.2936

> <Gold.PLP.Chemscore.Hbond>
2.7926

> <Gold.PLP.Chemscore.CHOScore>
0.0000

> <Gold.PLP.Chemscore.Metal>
0.0000

> <Gold.Chemscore.Hbonds>
donor molecule, donor type, donor heavy atom, donor atom, acceptor molecule, acceptor atom, score
      L1  H     7    30       P1  7948  1.00
      L1  H    10    31       P1  7948  0.30
      P1  H  7989  7998       L1     2  0.99
      P1  H 10752 10764       L1     9  0.06

> <Gold.PLP.Chemscore.Internal.Correction>
0.3685

> <Gold.Rescore>
     Score         DG    S(hbond)    S(metal)    S(lipo)     H(rot)  DE(clash)    DE(int)     intcor
     12.54     -16.50       2.03        0.00      63.91       1.27       1.69       2.27       ----

> <Gold.Chemscore.Fitness>
12.5400

> <Gold.Chemscore.DG>
-16.5039

> <Gold.Chemscore.ZeroCoef>
-5.4800

> <Gold.Chemscore.Hbond>
2.0318

> <Gold.Chemscore.Metal>
0.0000

> <Gold.Chemscore.Lipo>
63.9055

> <Gold.Chemscore.Internal_Hbond>
0.0000

> <Gold.Chemscore.DEClash>
1.6930

> <Gold.Chemscore.DEInternal>
2.2709

> <Gold.Chemscore.Rot>
1.2653

> <Gold.Chemscore.Internal.Correction>
   9.000000E+99

> <Gold.Chemscore.Hbonds>
donor molecule, donor type, donor heavy atom, donor atom, acceptor molecule, acceptor atom, score
      L1  H     7    30       P1  7948  0.25
      P1  H  7989  7998       L1     2  0.32

> <Gold.Chemscore.Hbond.Weighted>
-6.7862

> <Gold.Chemscore.Metal.Weighted>
-0.0000

> <Gold.Chemscore.Lipo.Weighted>
-7.4769

> <Gold.Chemscore.Internal_Hbond.Weighted>
0.0000

> <Gold.Chemscore.DEClash.Weighted>
1.6930

> <Gold.Chemscore.DEInternal.Weighted>
2.2709

> <Gold.Chemscore.Rot.Weighted>
3.2392

> <Gold.Chemscore.Internal.Correction.Weighted>
   9.000000E+99

> <Gold.Protein.RotatedTorsions>
[ 6907 6896 6895 6894 ] final  -51.56 input  -60.11 | X-H torsion
[ 7974 7965 7964 7962 ] final  -82.03 input  175.53 | X-H torsion
[ 8008 7997 7996 7995 ] final  -95.35 input   59.86 | X-H torsion
[ 10167 10162 10161 10158 ] final   93.15 input  -65.29 | X-H torsion
[ 10718 10713 10712 10709 ] final -109.31 input   66.30 | X-H torsion
[ 10763 10752 10751 10750 ] final  -40.68 input  -60.55 | X-H torsion
[ 11005 11000 10999 10996 ] final   54.39 input  -57.11 | X-H torsion

> <Gold.Protein.ActiveResidues>
 VAL166  LYS551  ARG553  GLY616  TRP617  ASP618  TYR619  PRO620  LYS621  CYS622 
 ASP623  PHE694  ASN695  SER759  ASP760  ASP761  ALA762  ILE779  LEU786  VAL792 
 PHE793  MET794  SER795  GLU796  ALA797  LYS798  CYS799  TRP800  GLU811  SER814 

> <Gold.Protein.RotatedAtoms>
  150.8600  134.7949  159.7074 H   0  0  0  0  0  0  0  0  0  0  0  0  # atno 6907 bound_to 6896
  152.4640  134.5116  159.9765 H   0  0  0  0  0  0  0  0  0  0  0  0  # atno 6908 bound_to 6896
  151.5222  133.3426  159.2939 H   0  0  0  0  0  0  0  0  0  0  0  0  # atno 6909 bound_to 6896
  145.5388  140.9512  143.1562 H   0  0  0  0  0  0  0  0  0  0  0  0  # atno 7974 bound_to 7965
  154.7602  140.0481  157.0967 H   0  0  0  0  0  0  0  0  0  0  0  0  # atno 8008 bound_to 7997
  154.9948  140.3117  155.4872 H   0  0  0  0  0  0  0  0  0  0  0  0  # atno 8009 bound_to 7997
  156.2902  140.2212  156.5054 H   0  0  0  0  0  0  0  0  0  0  0  0  # atno 8010 bound_to 7997
  139.8207  144.6732  150.9522 H   0  0  0  0  0  0  0  0  0  0  0  0  # atno 10167 bound_to 10162
  156.0530  130.5757  150.8081 H   0  0  0  0  0  0  0  0  0  0  0  0  # atno 10718 bound_to 10713
  153.9500  135.6751  153.4744 H   0  0  0  0  0  0  0  0  0  0  0  0  # atno 10763 bound_to 10752
  153.0889  135.4885  154.8648 H   0  0  0  0  0  0  0  0  0  0  0  0  # atno 10764 bound_to 10752
  154.7330  135.3142  154.8818 H   0  0  0  0  0  0  0  0  0  0  0  0  # atno 10765 bound_to 10752
  140.0691  134.5495  155.9067 H   0  0  0  0  0  0  0  0  0  0  0  0  # atno 11005 bound_to 11000
  144.7588  139.7009  143.7243 LP  0  0  0  0  0  0  0  0  0  0  0  0  # atno 17320 bound_to 7965
  146.1995  139.5281  142.9752 LP  0  0  0  0  0  0  0  0  0  0  0  0  # atno 17321 bound_to 7965
  140.7813  143.4094  151.1017 LP  0  0  0  0  0  0  0  0  0  0  0  0  # atno 17342 bound_to 10162
  139.7755  143.8432  152.3128 LP  0  0  0  0  0  0  0  0  0  0  0  0  # atno 17343 bound_to 10162
  157.5474  131.0943  150.9743 LP  0  0  0  0  0  0  0  0  0  0  0  0  # atno 17370 bound_to 10713
  157.0011  130.5600  149.5311 LP  0  0  0  0  0  0  0  0  0  0  0  0  # atno 17371 bound_to 10713
  141.2004  133.6612  156.5897 LP  0  0  0  0  0  0  0  0  0  0  0  0  # atno 17394 bound_to 11000
  140.3655  134.7651  157.4563 LP  0  0  0  0  0  0  0  0  0  0  0  0  # atno 17395 bound_to 11000

$$$$
