AV-unprocessed.smi:2966|AV-procd|sdf|11324|dock5
  -GOLD-   2272016233D 1   1.00000     0.00000
 Structure written by MMmdl.
 40 42  0  0  0  0  0  0  0  0  1 V2000
  149.0415  141.1416  154.4423 C   0  0  0  0  0  0  0  0  0  0  0  0
  150.3045  140.6273  154.8245 O   0  0  0  0  0  0  0  0  0  0  0  0
  150.8762  141.3366  155.9111 C   0  0  0  0  0  0  0  0  0  0  0  0
  150.7412  140.5139  157.2001 C   0  0  0  0  0  0  0  0  0  0  0  0
  151.5343  141.0671  158.2883 N   0  0  0  0  0  0  0  0  0  0  0  0
  152.4802  140.4488  159.0381 C   0  0  0  0  0  0  0  0  0  0  0  0
  152.9274  138.7646  158.7899 S   0  0  0  0  0  0  0  0  0  0  0  0
  154.1279  138.6364  160.1477 C   0  0  0  0  0  0  0  0  0  0  0  0
  154.1467  137.2744  160.8450 C   0  0  0  0  0  0  0  0  0  0  0  0
  153.6852  136.2733  160.2955 O   0  0  0  0  0  0  0  0  0  0  0  0
  154.6873  137.2563  162.0722 N   0  0  0  0  0  0  0  0  0  0  0  0
  154.8063  136.1053  162.9082 C   0  0  0  0  0  0  0  0  0  0  0  0
  154.0842  136.1239  164.2382 C   0  0  0  0  0  0  0  0  0  0  0  0
  155.5821  136.2501  164.1997 C   0  0  0  0  0  0  0  0  0  0  0  0
  153.0555  141.1983  159.9779 N   0  0  0  0  0  0  0  0  0  0  0  0
  152.4311  142.4198  159.8178 C   0  0  0  0  0  0  0  0  0  0  0  0
  152.6041  143.6386  160.5125 C   0  0  0  0  0  0  0  0  0  0  0  0
  151.8424  144.7733  160.1638 C   0  0  0  0  0  0  0  0  0  0  0  0
  150.8980  144.7056  159.1189 C   0  0  0  0  0  0  0  0  0  0  0  0
  150.7089  143.5008  158.4150 C   0  0  0  0  0  0  0  0  0  0  0  0
  151.4723  142.3715  158.7667 C   0  0  0  0  0  0  0  0  0  0  0  0
  148.6510  140.5653  153.6037 H   0  0  0  0  0  0  0  0  0  0  0  0
  149.1185  142.1833  154.1285 H   0  0  0  0  0  0  0  0  0  0  0  0
  148.3239  141.0736  155.2609 H   0  0  0  0  0  0  0  0  0  0  0  0
  151.9289  141.5414  155.7092 H   0  0  0  0  0  0  0  0  0  0  0  0
  150.3752  142.2977  156.0345 H   0  0  0  0  0  0  0  0  0  0  0  0
  149.6972  140.4851  157.5138 H   0  0  0  0  0  0  0  0  0  0  0  0
  151.0325  139.4788  157.0234 H   0  0  0  0  0  0  0  0  0  0  0  0
  155.1222  138.8516  159.7552 H   0  0  0  0  0  0  0  0  0  0  0  0
  153.9010  139.4040  160.8884 H   0  0  0  0  0  0  0  0  0  0  0  0
  155.0413  138.1258  162.4440 H   0  0  0  0  0  0  0  0  0  0  0  0
  154.8768  135.1355  162.4173 H   0  0  0  0  0  0  0  0  0  0  0  0
  153.5120  137.0135  164.4951 H   0  0  0  0  0  0  0  0  0  0  0  0
  153.6676  135.1841  164.5948 H   0  0  0  0  0  0  0  0  0  0  0  0
  156.1673  135.3945  164.5312 H   0  0  0  0  0  0  0  0  0  0  0  0
  156.0100  137.2237  164.4312 H   0  0  0  0  0  0  0  0  0  0  0  0
  153.3254  143.7011  161.3138 H   0  0  0  0  0  0  0  0  0  0  0  0
  151.9844  145.7002  160.6998 H   0  0  0  0  0  0  0  0  0  0  0  0
  150.3196  145.5796  158.8573 H   0  0  0  0  0  0  0  0  0  0  0  0
  149.9873  143.4461  157.6133 H   0  0  0  0  0  0  0  0  0  0  0  0
  1  2  1  0  0  0  0
  1 22  1  0  0  0  0
  1 23  1  0  0  0  0
  1 24  1  0  0  0  0
  2  3  1  0  0  0  0
  3  4  1  0  0  0  0
  3 25  1  0  0  0  0
  3 26  1  0  0  0  0
  4  5  1  0  0  0  0
  4 27  1  0  0  0  0
  4 28  1  0  0  0  0
  5 21  1  0  0  0  0
  5  6  1  0  0  0  0
  6  7  1  0  0  0  0
  6 15  2  0  0  0  0
  7  8  1  0  0  0  0
  8  9  1  0  0  0  0
  8 29  1  0  0  0  0
  8 30  1  0  0  0  0
  9 10  2  0  0  0  0
  9 11  1  0  0  0  0
 11 12  1  0  0  0  0
 11 31  1  0  0  0  0
 12 14  1  0  0  0  0
 12 13  1  0  0  0  0
 12 32  1  0  0  0  0
 13 14  1  0  0  0  0
 13 33  1  0  0  0  0
 13 34  1  0  0  0  0
 14 35  1  0  0  0  0
 14 36  1  0  0  0  0
 15 16  1  0  0  0  0
 16 21  2  0  0  0  0
 16 17  1  0  0  0  0
 17 18  2  0  0  0  0
 17 37  1  0  0  0  0
 18 19  1  0  0  0  0
 18 38  1  0  0  0  0
 19 20  2  0  0  0  0
 19 39  1  0  0  0  0
 20 21  1  0  0  0  0
 20 40  1  0  0  0  0
M  END
> <s_m_source_file>
AV-unprocessed.smi

> <i_m_source_file_index>
2966

> <i_lp_mmshare_version>
43012

> <i_f3d_flags>
0

> <s_epik_input>
W2NIXTFbY0hdW2NIXVtjSF1jKGMxMiluKFtDSDJdW0NIMl1PW0NIM10pYyhuMilTW0NIMl1DKD1PKVtOSF1bQ0hdM1tDSDJdW0NIMl0z

> <s_epik_cmdline>
J2VwaWtfcHl0aG9uJywgJy1waCcsICc3LjAnLCAnLXRuJywgJzgnLCAnLW1hJywgJzIwMCcsICctbWV0YWxfYmluZGluZycsICctaW1hZScsICc8aW5maWxlLm1hZT4nLCAnLW9tYWUnLCAnPG91dGZpbGUubWFlPic=

> <r_epik_Ionization_Penalty>
0.0369383

> <r_epik_Ionization_Penalty_Charging>
0

> <r_epik_Ionization_Penalty_Neutral>
0.0369383

> <r_epik_State_Penalty>
0.0308874

> <r_epik_Charging_Adjusted_Penalty>
0.0308874

> <i_epik_Tot_Q>
0

> <i_epik_Tot_abs_Q>
0

> <r_epik_Metal_State_Penalty>
0.0290633

> <b_epik_Metal_Only>
0

> <s_lp_Force_Field>
OPLS_2005

> <r_lp_Energy>
20.8616

> <b_lp_Chiralities_Consistent>
1

> <s_lp_Variant>
AV-unprocessed.smi:2966-1

> <Gold.Version>
5.8.1

> <Gold.Id.Protein>
6NUR|6NUR_protein|mol2

> <Gold.PLP.Fitness>
50.6954

> <Gold.PLP.PLP>
-46.5534

> <Gold.PLP.part.hbond>
-2.0000

> <Gold.PLP.part.metal>
0.0000

> <Gold.PLP.part.buried>
-6.3789

> <Gold.PLP.part.nonpolar>
-36.8635

> <Gold.PLP.part.repulsive>
0.0960

> <Gold.PLP.ligand.clash>
0.0000

> <Gold.PLP.ligand.torsion>
0.9146

> <Gold.PLP.Chemscore.Hbond>
1.9440

> <Gold.PLP.Chemscore.CHOScore>
0.0000

> <Gold.PLP.Chemscore.Metal>
0.0000

> <Gold.Chemscore.Hbonds>
donor molecule, donor type, donor heavy atom, donor atom, acceptor molecule, acceptor atom, score
      P1  H  6896  6907       L1    10  1.00
      P1  H  7989  7998       L1     2  0.91

> <Gold.PLP.Chemscore.Internal.Correction>
0.1392

> <Gold.Rescore>
     Score         DG    S(hbond)    S(metal)    S(lipo)     H(rot)  DE(clash)    DE(int)     intcor
     18.92     -20.01       1.74        0.00     121.22       2.13       0.21       0.89       ----

> <Gold.Chemscore.Fitness>
18.9165

> <Gold.Chemscore.DG>
-20.0122

> <Gold.Chemscore.ZeroCoef>
-5.4800

> <Gold.Chemscore.Hbond>
1.7400

> <Gold.Chemscore.Metal>
0.0000

> <Gold.Chemscore.Lipo>
121.2238

> <Gold.Chemscore.Internal_Hbond>
0.0000

> <Gold.Chemscore.DEClash>
0.2069

> <Gold.Chemscore.DEInternal>
0.8888

> <Gold.Chemscore.Rot>
2.1338

> <Gold.Chemscore.Internal.Correction>
   9.000000E+99

> <Gold.Chemscore.Hbonds>
donor molecule, donor type, donor heavy atom, donor atom, acceptor molecule, acceptor atom, score
      P1  H  6896  6907       L1    10  0.93
      P1  H  7989  7998       L1     2  0.22

> <Gold.Chemscore.Hbond.Weighted>
-5.8115

> <Gold.Chemscore.Metal.Weighted>
-0.0000

> <Gold.Chemscore.Lipo.Weighted>
-14.1832

> <Gold.Chemscore.Internal_Hbond.Weighted>
0.0000

> <Gold.Chemscore.DEClash.Weighted>
0.2069

> <Gold.Chemscore.DEInternal.Weighted>
0.8888

> <Gold.Chemscore.Rot.Weighted>
5.4626

> <Gold.Chemscore.Internal.Correction.Weighted>
   9.000000E+99

> <Gold.Protein.RotatedTorsions>
[ 6907 6896 6895 6894 ] final   32.90 input  -60.11 | X-H torsion
[ 7974 7965 7964 7962 ] final   16.40 input  175.53 | X-H torsion
[ 8008 7997 7996 7995 ] final  158.56 input   59.86 | X-H torsion
[ 10167 10162 10161 10158 ] final  174.48 input  -65.29 | X-H torsion
[ 10718 10713 10712 10709 ] final -170.85 input   66.30 | X-H torsion
[ 10763 10752 10751 10750 ] final  -74.71 input  -60.55 | X-H torsion
[ 11005 11000 10999 10996 ] final  106.15 input  -57.11 | X-H torsion

> <Gold.Protein.ActiveResidues>
 VAL166  LYS551  ARG553  GLY616  TRP617  ASP618  TYR619  PRO620  LYS621  CYS622 
 ASP623  PHE694  ASN695  SER759  ASP760  ASP761  ALA762  ILE779  LEU786  VAL792 
 PHE793  MET794  SER795  GLU796  ALA797  LYS798  CYS799  TRP800  GLU811  SER814 

> <Gold.Protein.RotatedAtoms>
  152.0809  134.9472  160.0573 H   0  0  0  0  0  0  0  0  0  0  0  0  # atno 6907 bound_to 6896
  152.0761  133.4125  159.4488 H   0  0  0  0  0  0  0  0  0  0  0  0  # atno 6908 bound_to 6896
  150.6836  134.2956  159.4728 H   0  0  0  0  0  0  0  0  0  0  0  0  # atno 6909 bound_to 6896
  146.2250  139.8754  142.8580 H   0  0  0  0  0  0  0  0  0  0  0  0  # atno 7974 bound_to 7965
  156.2295  140.1855  156.7278 H   0  0  0  0  0  0  0  0  0  0  0  0  # atno 8008 bound_to 7997
  154.5998  140.0638  156.9381 H   0  0  0  0  0  0  0  0  0  0  0  0  # atno 8009 bound_to 7997
  155.2193  140.3306  155.4320 H   0  0  0  0  0  0  0  0  0  0  0  0  # atno 8010 bound_to 7997
  139.5143  144.3142  152.0263 H   0  0  0  0  0  0  0  0  0  0  0  0  # atno 10167 bound_to 10162
  156.7322  130.9310  151.3105 H   0  0  0  0  0  0  0  0  0  0  0  0  # atno 10718 bound_to 10713
  154.4768  135.5855  153.6361 H   0  0  0  0  0  0  0  0  0  0  0  0  # atno 10763 bound_to 10752
  152.9842  135.6080  154.3297 H   0  0  0  0  0  0  0  0  0  0  0  0  # atno 10764 bound_to 10752
  154.3184  135.2844  155.2511 H   0  0  0  0  0  0  0  0  0  0  0  0  # atno 10765 bound_to 10752
  139.8810  134.9359  156.5622 H   0  0  0  0  0  0  0  0  0  0  0  0  # atno 11005 bound_to 11000
  145.2566  141.0063  143.3850 LP  0  0  0  0  0  0  0  0  0  0  0  0  # atno 17320 bound_to 7965
  144.9331  139.4275  143.6485 LP  0  0  0  0  0  0  0  0  0  0  0  0  # atno 17321 bound_to 7965
  140.2585  144.4092  150.6194 LP  0  0  0  0  0  0  0  0  0  0  0  0  # atno 17342 bound_to 10162
  140.6174  143.2173  151.6764 LP  0  0  0  0  0  0  0  0  0  0  0  0  # atno 17343 bound_to 10162
  157.6854  130.9180  150.0373 LP  0  0  0  0  0  0  0  0  0  0  0  0  # atno 17370 bound_to 10713
  156.1521  130.3642  149.9422 LP  0  0  0  0  0  0  0  0  0  0  0  0  # atno 17371 bound_to 10713
  140.8161  133.8391  155.8853 LP  0  0  0  0  0  0  0  0  0  0  0  0  # atno 17394 bound_to 11000
  140.9462  134.1838  157.4762 LP  0  0  0  0  0  0  0  0  0  0  0  0  # atno 17395 bound_to 11000

$$$$
