AV-unprocessed.smi:2786|AV-procd|sdf|10751|dock10
  -GOLD-   2272015183D 1   1.00000     0.00000
 Structure written by MMmdl.
 28 29  0  0  0  0  0  0  0  0  3 V2000
  153.0992  142.2529  159.5302 C   0  0  0  0  0  0  0  0  0  0  0  0
  152.2536  143.3590  159.0762 N   0  0  0  0  0  0  0  0  0  0  0  0
  152.1791  144.6093  159.6349 C   0  0  0  0  0  0  0  0  0  0  0  0
  151.2621  145.3140  158.9004 C   0  0  0  0  0  0  0  0  0  0  0  0
  150.8164  144.4658  157.9236 N   0  3  0  0  0  0  0  0  0  0  0  0
  151.4242  143.2760  158.0219 C   0  0  0  0  0  0  0  0  0  0  0  0
  151.1855  142.0884  157.1337 C   0  0  1  0  0  0  0  0  0  0  0  0
  150.9283  140.8091  157.9629 C   0  0  0  0  0  0  0  0  0  0  0  0
  150.7376  139.6429  157.0755 N   0  3  0  0  0  0  0  0  0  0  0  0
  149.6588  139.8881  156.0982 C   0  0  0  0  0  0  0  0  0  0  0  0
  149.9527  141.1732  155.3037 C   0  0  0  0  0  0  0  0  0  0  0  0
  150.0660  142.3069  156.2169 N   0  0  0  0  0  0  0  0  0  0  0  0
  153.5998  142.5328  160.4580 H   0  0  0  0  0  0  0  0  0  0  0  0
  153.8481  142.0358  158.7679 H   0  0  0  0  0  0  0  0  0  0  0  0
  152.4825  141.3714  159.7076 H   0  0  0  0  0  0  0  0  0  0  0  0
  152.7676  144.8988  160.4941 H   0  0  0  0  0  0  0  0  0  0  0  0
  150.9023  146.3281  158.9977 H   0  0  0  0  0  0  0  0  0  0  0  0
  152.0918  141.9686  156.5388 H   0  0  0  0  0  0  0  0  0  0  0  0
  151.7700  140.6069  158.6256 H   0  0  0  0  0  0  0  0  0  0  0  0
  150.0471  140.9292  158.5951 H   0  0  0  0  0  0  0  0  0  0  0  0
  151.5962  139.4708  156.5721 H   0  0  0  0  0  0  0  0  0  0  0  0
  149.5868  139.0336  155.4250 H   0  0  0  0  0  0  0  0  0  0  0  0
  148.7035  139.9671  156.6193 H   0  0  0  0  0  0  0  0  0  0  0  0
  150.8695  141.0700  154.7213 H   0  0  0  0  0  0  0  0  0  0  0  0
  149.1456  141.3683  154.5972 H   0  0  0  0  0  0  0  0  0  0  0  0
  150.2215  143.1518  155.6839 H   0  0  0  0  0  0  0  0  0  0  0  0
  150.5108  138.8292  157.6295 H   0  0  0  0  0  0  0  0  0  0  0  0
  150.1285  144.7032  157.2196 H   0  0  0  0  0  0  0  0  0  0  0  0
  1  2  1  0  0  0  0
  1 13  1  0  0  0  0
  1 14  1  0  0  0  0
  1 15  1  0  0  0  0
  2  6  1  0  0  0  0
  2  3  1  0  0  0  0
  3  4  2  0  0  0  0
  3 16  1  0  0  0  0
  4  5  1  0  0  0  0
  4 17  1  0  0  0  0
  5  6  2  0  0  0  0
  5 28  1  0  0  0  0
  6  7  1  0  0  0  0
  7 12  1  0  0  0  0
  7  8  1  0  0  0  0
  7 18  1  0  0  0  0
  8  9  1  0  0  0  0
  8 19  1  0  0  0  0
  8 20  1  0  0  0  0
  9 10  1  0  0  0  0
  9 21  1  0  0  0  0
  9 27  1  0  0  0  0
 10 11  1  0  0  0  0
 10 22  1  0  0  0  0
 10 23  1  0  0  0  0
 11 12  1  0  0  0  0
 11 24  1  0  0  0  0
 11 25  1  0  0  0  0
 12 26  1  0  0  0  0
M  CHG  1   5   1
M  CHG  1   9   1
M  END
> <s_m_source_file>
AV-unprocessed.smi

> <i_m_source_file_index>
2786

> <i_lp_mmshare_version>
43012

> <i_f3d_flags>
0

> <s_epik_input>
W0NIM11uMVtjSF1bY0hdbmMxW0NAQEhdMltDSDJdW05IXVtDSDJdW0NIMl1bTkhdMg==

> <s_epik_cmdline>
J2VwaWtfcHl0aG9uJywgJy1waCcsICc3LjAnLCAnLXRuJywgJzgnLCAnLW1hJywgJzIwMCcsICctbWV0YWxfYmluZGluZycsICctaW1hZScsICc8aW5maWxlLm1hZT4nLCAnLW9tYWUnLCAnPG91dGZpbGUubWFlPic=

> <r_lp_tautomer_probability>
1

> <r_epik_Ionization_Penalty>
1.19986

> <r_epik_Ionization_Penalty_Charging>
0.069211

> <r_epik_Ionization_Penalty_Neutral>
1.13065

> <r_epik_State_Penalty>
0.776615

> <r_epik_Charging_Adjusted_Penalty>
0.845826

> <i_epik_Tot_Q>
2

> <i_epik_Tot_abs_Q>
2

> <r_epik_Metal_State_Penalty>
4.73559

> <b_epik_Metal_Only>
0

> <s_lp_Force_Field>
OPLS_2005

> <r_lp_Energy>
18.3539

> <b_lp_Chiralities_Consistent>
1

> <s_lp_Variant>
AV-unprocessed.smi:2786-4

> <Gold.Version>
5.8.1

> <Gold.Id.Protein>
6NUR|6NUR_protein|mol2

> <Gold.PLP.Fitness>
36.6151

> <Gold.PLP.PLP>
-29.3078

> <Gold.PLP.part.hbond>
-2.0909

> <Gold.PLP.part.metal>
0.0000

> <Gold.PLP.part.buried>
-3.7358

> <Gold.PLP.part.nonpolar>
-23.1665

> <Gold.PLP.part.repulsive>
0.1083

> <Gold.PLP.ligand.clash>
0.0000

> <Gold.PLP.ligand.torsion>
0.1675

> <Gold.PLP.Chemscore.Hbond>
2.5440

> <Gold.PLP.Chemscore.CHOScore>
0.0000

> <Gold.PLP.Chemscore.Metal>
0.0000

> <Gold.Chemscore.Hbonds>
donor molecule, donor type, donor heavy atom, donor atom, acceptor molecule, acceptor atom, score
      L1  H     5    28       P1  8028  2.00
      L1  H    12    26       P1  8028  0.45

> <Gold.PLP.Chemscore.Internal.Correction>
0.0103

> <Gold.Rescore>
     Score         DG    S(hbond)    S(metal)    S(lipo)     H(rot)  DE(clash)    DE(int)     intcor
     12.08     -13.19       1.02        0.00      58.62       1.00       0.00       1.10       ----

> <Gold.Chemscore.Fitness>
12.0803

> <Gold.Chemscore.DG>
-13.1853

> <Gold.Chemscore.ZeroCoef>
-5.4800

> <Gold.Chemscore.Hbond>
1.0200

> <Gold.Chemscore.Metal>
0.0000

> <Gold.Chemscore.Lipo>
58.6193

> <Gold.Chemscore.Internal_Hbond>
0.0000

> <Gold.Chemscore.DEClash>
0.0000

> <Gold.Chemscore.DEInternal>
1.1049

> <Gold.Chemscore.Rot>
1.0000

> <Gold.Chemscore.Internal.Correction>
   9.000000E+99

> <Gold.Chemscore.Hbonds>
donor molecule, donor type, donor heavy atom, donor atom, acceptor molecule, acceptor atom, score
      L1  H     5    28       P1  8028  0.30
      L1  H    12    26       P1  8028  0.43

> <Gold.Chemscore.Hbond.Weighted>
-3.4068

> <Gold.Chemscore.Metal.Weighted>
-0.0000

> <Gold.Chemscore.Lipo.Weighted>
-6.8585

> <Gold.Chemscore.Internal_Hbond.Weighted>
0.0000

> <Gold.Chemscore.DEClash.Weighted>
0.0000

> <Gold.Chemscore.DEInternal.Weighted>
1.1049

> <Gold.Chemscore.Rot.Weighted>
2.5600

> <Gold.Chemscore.Internal.Correction.Weighted>
   9.000000E+99

> <Gold.Protein.RotatedTorsions>
[ 6907 6896 6895 6894 ] final  153.55 input  -60.11 | X-H torsion
[ 7974 7965 7964 7962 ] final   55.10 input  175.53 | X-H torsion
[ 8008 7997 7996 7995 ] final    8.22 input   59.86 | X-H torsion
[ 10167 10162 10161 10158 ] final -147.71 input  -65.29 | X-H torsion
[ 10718 10713 10712 10709 ] final  112.40 input   66.30 | X-H torsion
[ 10763 10752 10751 10750 ] final  105.64 input  -60.55 | X-H torsion
[ 11005 11000 10999 10996 ] final  -59.20 input  -57.11 | X-H torsion

> <Gold.Protein.ActiveResidues>
 VAL166  LYS551  ARG553  GLY616  TRP617  ASP618  TYR619  PRO620  LYS621  CYS622 
 ASP623  PHE694  ASN695  SER759  ASP760  ASP761  ALA762  ILE779  LEU786  VAL792 
 PHE793  MET794  SER795  GLU796  ALA797  LYS798  CYS799  TRP800  GLU811  SER814 

> <Gold.Protein.RotatedAtoms>
  152.0710  133.4107  159.4459 H   0  0  0  0  0  0  0  0  0  0  0  0  # atno 6907 bound_to 6896
  150.6863  134.3091  159.4748 H   0  0  0  0  0  0  0  0  0  0  0  0  # atno 6908 bound_to 6896
  152.0923  134.9398  160.0622 H   0  0  0  0  0  0  0  0  0  0  0  0  # atno 6909 bound_to 6896
  145.9539  139.3997  143.0289 H   0  0  0  0  0  0  0  0  0  0  0  0  # atno 7974 bound_to 7965
  154.7640  140.2790  155.6191 H   0  0  0  0  0  0  0  0  0  0  0  0  # atno 8008 bound_to 7997
  156.2921  140.2654  156.2353 H   0  0  0  0  0  0  0  0  0  0  0  0  # atno 8009 bound_to 7997
  154.9982  140.0373  157.2338 H   0  0  0  0  0  0  0  0  0  0  0  0  # atno 8010 bound_to 7997
  139.7597  143.8395  152.2604 H   0  0  0  0  0  0  0  0  0  0  0  0  # atno 10167 bound_to 10162
  157.6394  131.0967  150.6890 H   0  0  0  0  0  0  0  0  0  0  0  0  # atno 10718 bound_to 10713
  153.3821  135.3903  155.1864 H   0  0  0  0  0  0  0  0  0  0  0  0  # atno 10763 bound_to 10752
  154.8709  135.3728  154.4844 H   0  0  0  0  0  0  0  0  0  0  0  0  # atno 10764 bound_to 10752
  153.5322  135.7085  153.5738 H   0  0  0  0  0  0  0  0  0  0  0  0  # atno 10765 bound_to 10752
  141.1239  133.6615  156.5036 H   0  0  0  0  0  0  0  0  0  0  0  0  # atno 11005 bound_to 11000
  145.8133  140.9715  143.0937 LP  0  0  0  0  0  0  0  0  0  0  0  0  # atno 17320 bound_to 7965
  144.6801  139.9949  143.7484 LP  0  0  0  0  0  0  0  0  0  0  0  0  # atno 17321 bound_to 7965
  139.8397  144.7215  150.9346 LP  0  0  0  0  0  0  0  0  0  0  0  0  # atno 17342 bound_to 10162
  140.7806  143.3994  151.1174 LP  0  0  0  0  0  0  0  0  0  0  0  0  # atno 17343 bound_to 10162
  156.7216  130.4682  149.5521 LP  0  0  0  0  0  0  0  0  0  0  0  0  # atno 17370 bound_to 10713
  156.1661  130.6406  151.0780 LP  0  0  0  0  0  0  0  0  0  0  0  0  # atno 17371 bound_to 10713
  140.4426  134.7002  157.4999 LP  0  0  0  0  0  0  0  0  0  0  0  0  # atno 17394 bound_to 11000
  140.0219  134.6534  155.9228 LP  0  0  0  0  0  0  0  0  0  0  0  0  # atno 17395 bound_to 11000

$$$$
