#       Name:                AV-unprocessed.smi:855
#       Creating user name   scv26
#       Creation time:       Fri Mar 27 01:42:55 2020


#       File generated by GOLD software.
#

@<TRIPOS>MOLECULE
AV-unprocessed.smi:855
    41    42     1
SMALL
NO_CHARGES


@<TRIPOS>ATOM
      1 ****        -5.6077   4.1068  -0.4030 C.3            1 S1                 0.0000
      2 ****        -4.1836   3.6822  -0.2934 C.2            1 S1                 0.0000
      3 ****        -3.5170   2.5527  -0.6769 C.2            1 S1                 0.0000
      4 ****        -2.1824   2.8118  -0.2651 C.2            1 S1                 0.0000
      5 ****        -1.1579   1.8534  -0.4857 N.am           1 S1                 0.0000
      6 ****         0.1462   1.9243  -0.1612 C.2            1 S1                 0.0000
      7 ****         0.5974   2.9318   0.3962 O.2            1 S1                 0.0000
      8 ****         0.8262   0.7999  -0.5167 N.pl3          1 S1                -1.0000
      9 ****         2.2571   0.5915  -0.2896 C.3            1 S1                 0.0000
     10 ****         2.6504  -0.8380  -0.7133 C.3            1 S1                 0.0000
     11 ****         1.9125  -1.8884   0.0390 N.4            1 S1                 1.0000
     12 ****         1.7504  -3.1689  -0.6909 C.3            1 S1                 0.0000
     13 ****         1.9648  -4.2976   0.3266 C.3            1 S1                 0.0000
     14 ****         1.8978  -3.6111   1.6864 C.3            1 S1                 0.0000
     15 ****         2.4318  -2.2148   1.3879 C.3            1 S1                 0.0000
     16 ****        -2.0478   3.9947   0.3161 N.2            1 S1                 0.0000
     17 ****        -3.3290   4.5583   0.3006 O.3            1 S1                 0.0000
     18 ****        -6.2302   3.2918  -0.7726 H              1 S1                 0.0000
     19 ****        -5.7076   4.9476  -1.0894 H              1 S1                 0.0000
     20 ****        -5.9953   4.4139   0.5684 H              1 S1                 0.0000
     21 ****        -3.9211   1.6818  -1.1712 H              1 S1                 0.0000
     22 ****        -1.4499   1.0029  -0.9432 H              1 S1                 0.0000
     23 ****         2.8613   1.3024  -0.8538 H              1 S1                 0.0000
     24 ****         2.5276   0.7352   0.7573 H              1 S1                 0.0000
     25 ****         2.4321  -0.9432  -1.7774 H              1 S1                 0.0000
     26 ****         3.7254  -0.9884  -0.6091 H              1 S1                 0.0000
     27 ****         0.7465  -3.2042  -1.1151 H              1 S1                 0.0000
     28 ****         2.4612  -3.2647  -1.5132 H              1 S1                 0.0000
     29 ****         1.2332  -5.0998   0.2258 H              1 S1                 0.0000
     30 ****         2.9552  -4.7327   0.1867 H              1 S1                 0.0000
     31 ****         0.8616  -3.5490   2.0213 H              1 S1                 0.0000
     32 ****         2.4715  -4.1307   2.4543 H              1 S1                 0.0000
     33 ****         3.5227  -2.2370   1.3717 H              1 S1                 0.0000
     34 ****         2.1187  -1.4840   2.1342 H              1 S1                 0.0000
     35 ****         0.9769  -1.5288   0.1694 H              1 S1                 0.0000
     36 ****        -0.0076   3.6992   0.6081 LP             1 S1                 0.0000
     37 ****         1.5673   2.9790   0.6350 LP             1 S1                 0.0000
     38 ****         0.3135   0.0666  -0.9633 LP             1 S1                 0.0000
     39 ****        -1.2110   4.3981   0.6862 LP             1 S1                 0.0000
     40 ****        -3.6288   4.7381   1.2374 LP             1 S1                 0.0000
     41 ****        -3.3135   5.4151  -0.2148 LP             1 S1                 0.0000
@<TRIPOS>BOND
    1    1    2 1     
    2    1   18 1     
    3    1   19 1     
    4    1   20 1     
    5    2   17 1     
    6    2    3 2     
    7    3    4 1     
    8    3   21 1     
    9    4    5 1     
   10    4   16 2     
   11    5    6 am    
   12    5   22 1     
   13    6    7 2     
   14    6    8 1     
   15    8    9 1     
   16    9   10 1     
   17    9   23 1     
   18    9   24 1     
   19   10   11 1     
   20   10   25 1     
   21   10   26 1     
   22   11   15 1     
   23   11   12 1     
   24   11   35 1     
   25   12   13 1     
   26   12   27 1     
   27   12   28 1     
   28   13   14 1     
   29   13   29 1     
   30   13   30 1     
   31   14   15 1     
   32   14   31 1     
   33   14   32 1     
   34   15   33 1     
   35   15   34 1     
   36   16   17 1     
   37    7   36 1     
   38    7   37 1     
   39    8   38 1     
   40   16   39 1     
   41   17   40 1     
   42   17   41 1     
@<TRIPOS>SUBSTRUCTURE
      1 S1             1
@<TRIPOS>SET
LONE_PAIRS      STATIC     ATOMS    <user>   **** ""
6 36 37 38 39 40 41
DONOR_HYDROGENS      STATIC     ATOMS    <user>   **** ""
2 22 35
ATOM$BLUE        STATIC     ATOMS    COLORGROUP SYSTEM
6 36 37 38 39 40 41
ATOM$RED        STATIC     ATOMS    COLORGROUP SYSTEM
2 22 35
