AV-unprocessed.smi:1554|AV-procd|sdf|6261|dock8
  -GOLD-   22720 6443D 1   1.00000     0.00000
 Structure written by MMmdl.
 49 51  0  0  0  0  0  0  0  0  3 V2000
  152.1885  140.1099  156.3658 C   0  0  0  0  0  0  0  0  0  0  0  0
  150.9252  140.1669  155.5240 C   0  0  0  0  0  0  0  0  0  0  0  0
  150.0979  141.3083  155.6259 C   0  0  0  0  0  0  0  0  0  0  0  0
  148.9487  141.3305  154.8446 C   0  0  0  0  0  0  0  0  0  0  0  0
  147.9448  142.2932  154.7184 N   0  3  0  0  0  0  0  0  0  0  0  0
  147.0132  141.8645  153.8219 C   0  0  0  0  0  0  0  0  0  0  0  0
  147.4052  140.6387  153.3788 N   0  0  0  0  0  0  0  0  0  0  0  0
  146.7706  139.7335  152.4113 C   0  0  0  0  0  0  0  0  0  0  0  0
  146.3439  138.3911  153.0376 C   0  0  1  0  0  0  0  0  0  0  0  0
  145.2987  138.6241  153.9614 O   0  0  0  0  0  0  0  0  0  0  0  0
  145.8545  137.3937  151.9689 C   0  0  0  0  0  0  0  0  0  0  0  0
  146.3184  136.0029  152.2251 N   0  3  1  0  0  0  0  0  0  0  0  0
  145.9104  135.4757  153.5501 C   0  0  0  0  0  0  0  0  0  0  0  0
  144.4355  135.0358  153.5429 C   0  0  0  0  0  0  0  0  0  0  0  0
  144.2380  134.0642  152.5231 O   0  0  0  0  0  0  0  0  0  0  0  0
  144.5159  134.5725  151.2230 C   0  0  2  0  0  0  0  0  0  0  0  0
  144.2096  133.4683  150.2052 C   0  0  0  0  0  0  0  0  0  0  0  0
  145.9913  135.0247  151.1551 C   0  0  0  0  0  0  0  0  0  0  0  0
  148.6105  140.2682  153.9845 C   0  0  0  0  0  0  0  0  0  0  0  0
  149.4153  139.1376  153.8692 C   0  0  0  0  0  0  0  0  0  0  0  0
  150.5888  139.0959  154.6556 C   0  0  0  0  0  0  0  0  0  0  0  0
  151.4872  137.8752  154.5522 C   0  0  0  0  0  0  0  0  0  0  0  0
  152.2858  140.9916  156.9999 H   0  0  0  0  0  0  0  0  0  0  0  0
  153.0709  140.0589  155.7274 H   0  0  0  0  0  0  0  0  0  0  0  0
  152.1786  139.2340  157.0150 H   0  0  0  0  0  0  0  0  0  0  0  0
  150.3488  142.1280  156.2834 H   0  0  0  0  0  0  0  0  0  0  0  0
  146.1239  142.3996  153.5204 H   0  0  0  0  0  0  0  0  0  0  0  0
  145.9055  140.2520  151.9954 H   0  0  0  0  0  0  0  0  0  0  0  0
  147.4638  139.5765  151.5839 H   0  0  0  0  0  0  0  0  0  0  0  0
  147.1898  137.9764  153.5840 H   0  0  0  0  0  0  0  0  0  0  0  0
  144.7650  139.3345  153.6388 H   0  0  0  0  0  0  0  0  0  0  0  0
  144.7636  137.4173  151.9536 H   0  0  0  0  0  0  0  0  0  0  0  0
  146.1737  137.7166  150.9782 H   0  0  0  0  0  0  0  0  0  0  0  0
  146.5403  134.6172  153.7866 H   0  0  0  0  0  0  0  0  0  0  0  0
  146.0935  136.2122  154.3332 H   0  0  0  0  0  0  0  0  0  0  0  0
  144.1725  134.5936  154.5039 H   0  0  0  0  0  0  0  0  0  0  0  0
  143.7681  135.8856  153.3921 H   0  0  0  0  0  0  0  0  0  0  0  0
  143.8522  135.4139  151.0199 H   0  0  0  0  0  0  0  0  0  0  0  0
  144.3930  133.8114  149.1867 H   0  0  0  0  0  0  0  0  0  0  0  0
  143.1663  133.1581  150.2683 H   0  0  0  0  0  0  0  0  0  0  0  0
  144.8295  132.5880  150.3784 H   0  0  0  0  0  0  0  0  0  0  0  0
  146.2246  135.4246  150.1694 H   0  0  0  0  0  0  0  0  0  0  0  0
  146.6394  134.1573  151.2886 H   0  0  0  0  0  0  0  0  0  0  0  0
  149.1591  138.3230  153.2081 H   0  0  0  0  0  0  0  0  0  0  0  0
  151.1095  137.1622  153.8188 H   0  0  0  0  0  0  0  0  0  0  0  0
  151.5492  137.3636  155.5130 H   0  0  0  0  0  0  0  0  0  0  0  0
  152.4931  138.1640  154.2470 H   0  0  0  0  0  0  0  0  0  0  0  0
  147.3262  136.0712  152.2565 H   0  0  0  0  0  0  0  0  0  0  0  0
  147.8972  143.1792  155.2054 H   0  0  0  0  0  0  0  0  0  0  0  0
  1  2  1  0  0  0  0
  1 23  1  0  0  0  0
  1 24  1  0  0  0  0
  1 25  1  0  0  0  0
  2 21  1  0  0  0  0
  2  3  2  0  0  0  0
  3  4  1  0  0  0  0
  3 26  1  0  0  0  0
  4 19  2  0  0  0  0
  4  5  1  0  0  0  0
  5  6  2  0  0  0  0
  5 49  1  0  0  0  0
  6  7  1  0  0  0  0
  6 27  1  0  0  0  0
  7  8  1  0  0  0  0
  7 19  1  0  0  0  0
  8  9  1  0  0  0  0
  8 28  1  0  0  0  0
  8 29  1  0  0  0  0
  9 10  1  0  0  0  0
  9 11  1  0  0  0  0
  9 30  1  0  0  0  0
 10 31  1  0  0  0  0
 11 12  1  0  0  0  0
 11 32  1  0  0  0  0
 11 33  1  0  0  0  0
 12 18  1  0  0  0  0
 12 13  1  0  0  0  0
 12 48  1  0  0  0  0
 13 14  1  0  0  0  0
 13 34  1  0  0  0  0
 13 35  1  0  0  0  0
 14 15  1  0  0  0  0
 14 36  1  0  0  0  0
 14 37  1  0  0  0  0
 15 16  1  0  0  0  0
 16 17  1  0  0  0  0
 16 18  1  0  0  0  0
 16 38  1  0  0  0  0
 17 39  1  0  0  0  0
 17 40  1  0  0  0  0
 17 41  1  0  0  0  0
 18 42  1  0  0  0  0
 18 43  1  0  0  0  0
 19 20  1  0  0  0  0
 20 21  2  0  0  0  0
 20 44  1  0  0  0  0
 21 22  1  0  0  0  0
 22 45  1  0  0  0  0
 22 46  1  0  0  0  0
 22 47  1  0  0  0  0
M  CHG  1   5   1
M  CHG  1  12   1
M  END
> <s_m_source_file>
AV-unprocessed.smi

> <i_m_source_file_index>
1554

> <i_lp_mmshare_version>
43012

> <i_f3d_flags>
0

> <s_epik_input>
W0NIM11jKFtjSF0xKWMoW0NIM10pW2NIXWMoYzEyKW4oW2NIXW4yKVtDSDJdW0NASF0oW09IXSlbQ0gyXU4zW0NIMl1bQ0gyXU9bQ0BASF0oW0NIM10pW0NIMl0z

> <s_epik_cmdline>
J2VwaWtfcHl0aG9uJywgJy1waCcsICc3LjAnLCAnLXRuJywgJzgnLCAnLW1hJywgJzIwMCcsICctbWV0YWxfYmluZGluZycsICctaW1hZScsICc8aW5maWxlLm1hZT4nLCAnLW9tYWUnLCAnPG91dGZpbGUubWFlPic=

> <r_epik_Ionization_Penalty>
1.8848

> <r_epik_Ionization_Penalty_Charging>
1.88479

> <r_epik_Ionization_Penalty_Neutral>
1.42224e-05

> <r_epik_State_Penalty>
1.94551

> <r_epik_Charging_Adjusted_Penalty>
3.8303

> <i_epik_Tot_Q>
2

> <i_epik_Tot_abs_Q>
2

> <r_epik_Metal_State_Penalty>
5.95849

> <b_epik_Metal_Only>
0

> <s_lp_Force_Field>
OPLS_2005

> <r_lp_Energy>
31.3767

> <b_lp_Chiralities_Consistent>
1

> <s_lp_Variant>
AV-unprocessed.smi:1554-22

> <Gold.Version>
5.8.1

> <Gold.Id.Protein>
6NUR|6NUR_protein|mol2

> <Gold.PLP.Fitness>
55.0976

> <Gold.PLP.PLP>
-41.3386

> <Gold.PLP.part.hbond>
-3.0000

> <Gold.PLP.part.metal>
0.0000

> <Gold.PLP.part.buried>
1.9597

> <Gold.PLP.part.nonpolar>
-40.2243

> <Gold.PLP.part.repulsive>
0.3120

> <Gold.PLP.ligand.clash>
0.0000

> <Gold.PLP.ligand.torsion>
0.6095

> <Gold.PLP.Chemscore.Hbond>
4.9840

> <Gold.PLP.Chemscore.CHOScore>
0.0000

> <Gold.PLP.Chemscore.Metal>
0.0000

> <Gold.Chemscore.Hbonds>
donor molecule, donor type, donor heavy atom, donor atom, acceptor molecule, acceptor atom, score
      L1  H     5    49       P1  8028  1.79
      L1  H    10    31       P1 10175  1.00
      L1  H    12    48       P1  7948  2.00

> <Gold.PLP.Chemscore.Internal.Correction>
0.0260

> <Gold.Rescore>
     Score         DG    S(hbond)    S(metal)    S(lipo)     H(rot)  DE(clash)    DE(int)     intcor
     19.35     -21.61       2.77        0.00     104.96       2.11       1.70       0.56       ----

> <Gold.Chemscore.Fitness>
19.3471

> <Gold.Chemscore.DG>
-21.6109

> <Gold.Chemscore.ZeroCoef>
-5.4800

> <Gold.Chemscore.Hbond>
2.7716

> <Gold.Chemscore.Metal>
0.0000

> <Gold.Chemscore.Lipo>
104.9649

> <Gold.Chemscore.Internal_Hbond>
0.0000

> <Gold.Chemscore.DEClash>
1.7026

> <Gold.Chemscore.DEInternal>
0.5612

> <Gold.Chemscore.Rot>
2.1122

> <Gold.Chemscore.Internal.Correction>
   9.000000E+99

> <Gold.Chemscore.Hbonds>
donor molecule, donor type, donor heavy atom, donor atom, acceptor molecule, acceptor atom, score
      L1  H     5    49       P1  8028  0.62
      L1  H    10    31       P1 10175  0.99
      L1  H    12    48       P1  7948  1.00

> <Gold.Chemscore.Hbond.Weighted>
-9.2572

> <Gold.Chemscore.Metal.Weighted>
-0.0000

> <Gold.Chemscore.Lipo.Weighted>
-12.2809

> <Gold.Chemscore.Internal_Hbond.Weighted>
0.0000

> <Gold.Chemscore.DEClash.Weighted>
1.7026

> <Gold.Chemscore.DEInternal.Weighted>
0.5612

> <Gold.Chemscore.Rot.Weighted>
5.4073

> <Gold.Chemscore.Internal.Correction.Weighted>
   9.000000E+99

> <Gold.Protein.RotatedTorsions>
[ 6907 6896 6895 6894 ] final  -76.63 input  -60.11 | X-H torsion
[ 7974 7965 7964 7962 ] final   41.56 input  175.53 | X-H torsion
[ 8008 7997 7996 7995 ] final -156.22 input   59.86 | X-H torsion
[ 10167 10162 10161 10158 ] final -108.47 input  -65.29 | X-H torsion
[ 10718 10713 10712 10709 ] final  111.05 input   66.30 | X-H torsion
[ 10763 10752 10751 10750 ] final  165.19 input  -60.55 | X-H torsion
[ 11005 11000 10999 10996 ] final  -13.92 input  -57.11 | X-H torsion

> <Gold.Protein.ActiveResidues>
 VAL166  LYS551  ARG553  GLY616  TRP617  ASP618  TYR619  PRO620  LYS621  CYS622 
 ASP623  PHE694  ASN695  SER759  ASP760  ASP761  ALA762  ILE779  LEU786  VAL792 
 PHE793  MET794  SER795  GLU796  ALA797  LYS798  CYS799  TRP800  GLU811  SER814 

> <Gold.Protein.RotatedAtoms>
  150.7022  134.4543  159.5350 H   0  0  0  0  0  0  0  0  0  0  0  0  # atno 6907 bound_to 6896
  152.2230  134.8392  160.0492 H   0  0  0  0  0  0  0  0  0  0  0  0  # atno 6908 bound_to 6896
  151.9236  133.3557  159.3942 H   0  0  0  0  0  0  0  0  0  0  0  0  # atno 6909 bound_to 6896
  146.0813  139.5401  142.9535 H   0  0  0  0  0  0  0  0  0  0  0  0  # atno 7974 bound_to 7965
  155.7139  140.0781  157.2359 H   0  0  0  0  0  0  0  0  0  0  0  0  # atno 8008 bound_to 7997
  154.4054  140.1625  156.2380 H   0  0  0  0  0  0  0  0  0  0  0  0  # atno 8009 bound_to 7997
  155.9258  140.3394  155.6212 H   0  0  0  0  0  0  0  0  0  0  0  0  # atno 8010 bound_to 7997
  140.1658  143.4083  152.1391 H   0  0  0  0  0  0  0  0  0  0  0  0  # atno 10167 bound_to 10162
  157.6464  131.0944  150.6691 H   0  0  0  0  0  0  0  0  0  0  0  0  # atno 10718 bound_to 10713
  154.3203  135.2756  155.2523 H   0  0  0  0  0  0  0  0  0  0  0  0  # atno 10763 bound_to 10752
  154.4879  135.5841  153.6441 H   0  0  0  0  0  0  0  0  0  0  0  0  # atno 10764 bound_to 10752
  152.9877  135.6127  154.3387 H   0  0  0  0  0  0  0  0  0  0  0  0  # atno 10765 bound_to 10752
  140.7811  133.8362  155.9293 H   0  0  0  0  0  0  0  0  0  0  0  0  # atno 11005 bound_to 11000
  145.6212  141.0322  143.1913 LP  0  0  0  0  0  0  0  0  0  0  0  0  # atno 17320 bound_to 7965
  144.7295  139.7769  143.7352 LP  0  0  0  0  0  0  0  0  0  0  0  0  # atno 17321 bound_to 7965
  139.5360  144.7210  151.4892 LP  0  0  0  0  0  0  0  0  0  0  0  0  # atno 17342 bound_to 10162
  140.6614  143.8491  150.6892 LP  0  0  0  0  0  0  0  0  0  0  0  0  # atno 17343 bound_to 10162
  156.7008  130.4622  149.5573 LP  0  0  0  0  0  0  0  0  0  0  0  0  # atno 17370 bound_to 10713
  156.1797  130.6491  151.0936 LP  0  0  0  0  0  0  0  0  0  0  0  0  # atno 17371 bound_to 10713
  140.9481  134.1814  157.4748 LP  0  0  0  0  0  0  0  0  0  0  0  0  # atno 17394 bound_to 11000
  139.8742  134.9898  156.5476 LP  0  0  0  0  0  0  0  0  0  0  0  0  # atno 17395 bound_to 11000

$$$$
