#       Name:                AV-unprocessed.smi:3079
#       Creating user name   scv26
#       Creation time:       Fri Mar 27 17:13:34 2020


#       File generated by GOLD software.
#

@<TRIPOS>MOLECULE
AV-unprocessed.smi:3079
    25    26     1
SMALL
NO_CHARGES


@<TRIPOS>ATOM
      1 ****        -1.9967   3.6376  -0.7792 N.4            1 S1                 1.0000
      2 ****        -1.5503   2.2349  -0.7615 C.3            1 S1                 0.0000
      3 ****        -0.0211   2.1330  -0.8327 C.3            1 S1                 0.0000
      4 ****         0.4555   0.7196  -0.8101 C.2            1 S1                 0.0000
      5 ****         0.7079   0.0476   0.3158 N.2            1 S1                 0.0000
      6 ****         1.1094  -1.2700   0.0780 C.2            1 S1                 0.0000
      7 ****         1.4501  -2.1602   1.2332 C.3            1 S1                 0.0000
      8 ****         1.0565  -3.6196   1.2370 C.3            1 S1                 0.0000
      9 ****         0.3733  -2.6513   2.1721 C.3            1 S1                 0.0000
     10 ****         1.1492  -1.5913  -1.2561 C.2            1 S1                 0.0000
     11 ****         0.6725  -0.2511  -2.2618 S.3            1 S1                 0.0000
     12 ****        -3.0054   3.6700  -0.7347 H              1 S1                 0.0000
     13 ****        -1.6839   4.0815  -1.6309 H              1 S1                 0.0000
     14 ****        -1.9199   1.7622   0.1491 H              1 S1                 0.0000
     15 ****        -2.0047   1.7123  -1.6039 H              1 S1                 0.0000
     16 ****         0.3473   2.6067  -1.7433 H              1 S1                 0.0000
     17 ****         0.4326   2.6675   0.0031 H              1 S1                 0.0000
     18 ****         2.4134  -1.9033   1.6691 H              1 S1                 0.0000
     19 ****         0.4756  -3.9952   0.3968 H              1 S1                 0.0000
     20 ****         1.7595  -4.3273   1.6714 H              1 S1                 0.0000
     21 ****         0.6207  -2.7134   3.2298 H              1 S1                 0.0000
     22 ****        -0.6569  -2.3811   1.9485 H              1 S1                 0.0000
     23 ****         1.4255  -2.5335  -1.7063 H              1 S1                 0.0000
     24 ****        -1.6103   4.1249   0.0168 H              1 S1                 0.0000
     25 ****         0.6193   0.4438   1.2297 LP             1 S1                 0.0000
@<TRIPOS>BOND
    1    1    2 1     
    2    1   12 1     
    3    1   13 1     
    4    1   24 1     
    5    2    3 1     
    6    2   14 1     
    7    2   15 1     
    8    3    4 1     
    9    3   16 1     
   10    3   17 1     
   11    4   11 1     
   12    4    5 2     
   13    5    6 1     
   14    6    7 1     
   15    6   10 2     
   16    7    9 1     
   17    7    8 1     
   18    7   18 1     
   19    8    9 1     
   20    8   19 1     
   21    8   20 1     
   22    9   21 1     
   23    9   22 1     
   24   10   11 1     
   25   10   23 1     
   26    5   25 1     
@<TRIPOS>SUBSTRUCTURE
      1 S1             1
@<TRIPOS>SET
LONE_PAIRS      STATIC     ATOMS    <user>   **** ""
1 25
DONOR_HYDROGENS      STATIC     ATOMS    <user>   **** ""
3 12 13 24
ATOM$BLUE        STATIC     ATOMS    COLORGROUP SYSTEM
1 25
ATOM$RED        STATIC     ATOMS    COLORGROUP SYSTEM
3 12 13 24
