AV-unprocessed.smi:483|AV-procd|sdf|2685|dock9
  -GOLD-   2262023113D 1   1.00000     0.00000
 Structure written by MMmdl.
 44 44  0  0  0  0  0  0  0  0  1 V2000
  146.4427  141.2290  154.5260 C   0  0  0  0  0  0  0  0  0  0  0  0
  147.3759  140.0575  154.8489 C   0  0  0  0  0  0  0  0  0  0  0  0
  147.9202  139.3753  153.5834 C   0  0  0  0  0  0  0  0  0  0  0  0
  148.9615  138.4053  153.9013 N   0  0  0  0  0  0  0  0  0  0  0  0
  150.0641  138.6652  154.6205 C   0  0  0  0  0  0  0  0  0  0  0  0
  150.3088  139.7720  155.1038 O   0  0  0  0  0  0  0  0  0  0  0  0
  151.0236  137.4842  154.8408 C   0  0  2  0  0  0  0  0  0  0  0  0
  150.1761  136.2164  155.0396 C   0  0  0  0  0  0  0  0  0  0  0  0
  151.8220  137.6874  156.0490 N   0  0  0  0  0  0  0  0  0  0  0  0
  152.7634  138.6311  156.2062 C   0  0  0  0  0  0  0  0  0  0  0  0
  153.0600  139.4403  155.3260 O   0  0  0  0  0  0  0  0  0  0  0  0
  153.4527  138.6749  157.5775 C   0  0  0  0  0  0  0  0  0  0  0  0
  153.1554  139.8992  158.3353 N   0  0  0  0  0  0  0  0  0  0  0  0
  152.1570  140.6775  157.7818 N   0  0  0  0  0  0  0  0  0  0  0  0
  151.7951  141.7938  158.3237 C   0  0  0  0  0  0  0  0  0  0  0  0
  150.7053  142.5615  157.6248 C   0  0  0  0  0  0  0  0  0  0  0  0
  152.4411  142.2440  159.5529 C   0  0  0  0  0  0  0  0  0  0  0  0
  151.9730  143.5644  160.1495 C   0  0  0  0  0  0  0  0  0  0  0  0
  153.4205  141.4717  160.0861 C   0  0  0  0  0  0  0  0  0  0  0  0
  154.1138  141.8351  161.2798 C   0  0  0  0  0  0  0  0  0  0  0  0
  154.6632  142.1186  162.2587 N   0  0  0  0  0  0  0  0  0  0  0  0
  153.8403  140.2092  159.4738 C   0  0  0  0  0  0  0  0  0  0  0  0
  154.7272  139.4861  159.9308 O   0  0  0  0  0  0  0  0  0  0  0  0
  146.0702  141.6921  155.4400 H   0  0  0  0  0  0  0  0  0  0  0  0
  145.5813  140.8983  153.9451 H   0  0  0  0  0  0  0  0  0  0  0  0
  146.9610  141.9970  153.9511 H   0  0  0  0  0  0  0  0  0  0  0  0
  148.2031  140.4210  155.4600 H   0  0  0  0  0  0  0  0  0  0  0  0
  146.8397  139.3283  155.4577 H   0  0  0  0  0  0  0  0  0  0  0  0
  147.1151  138.8493  153.0697 H   0  0  0  0  0  0  0  0  0  0  0  0
  148.3022  140.1187  152.8814 H   0  0  0  0  0  0  0  0  0  0  0  0
  148.8384  137.4690  153.5437 H   0  0  0  0  0  0  0  0  0  0  0  0
  151.6765  137.3575  153.9747 H   0  0  0  0  0  0  0  0  0  0  0  0
  149.5639  136.0081  154.1612 H   0  0  0  0  0  0  0  0  0  0  0  0
  149.5081  136.3027  155.8982 H   0  0  0  0  0  0  0  0  0  0  0  0
  150.8118  135.3456  155.2037 H   0  0  0  0  0  0  0  0  0  0  0  0
  151.6315  137.0729  156.8273 H   0  0  0  0  0  0  0  0  0  0  0  0
  153.1355  137.7955  158.1408 H   0  0  0  0  0  0  0  0  0  0  0  0
  154.5319  138.5664  157.4520 H   0  0  0  0  0  0  0  0  0  0  0  0
  149.8001  142.5863  158.2318 H   0  0  0  0  0  0  0  0  0  0  0  0
  150.4465  142.1153  156.6633 H   0  0  0  0  0  0  0  0  0  0  0  0
  151.0146  143.5896  157.4349 H   0  0  0  0  0  0  0  0  0  0  0  0
  152.3966  143.7418  161.1375 H   0  0  0  0  0  0  0  0  0  0  0  0
  150.8879  143.5800  160.2575 H   0  0  0  0  0  0  0  0  0  0  0  0
  152.2675  144.3956  159.5078 H   0  0  0  0  0  0  0  0  0  0  0  0
  1  2  1  0  0  0  0
  1 24  1  0  0  0  0
  1 25  1  0  0  0  0
  1 26  1  0  0  0  0
  2  3  1  0  0  0  0
  2 27  1  0  0  0  0
  2 28  1  0  0  0  0
  3  4  1  0  0  0  0
  3 29  1  0  0  0  0
  3 30  1  0  0  0  0
  4  5  1  0  0  0  0
  4 31  1  0  0  0  0
  5  6  2  0  0  0  0
  5  7  1  0  0  0  0
  7  8  1  0  0  0  0
  7  9  1  0  0  0  0
  7 32  1  0  0  0  0
  8 33  1  0  0  0  0
  8 34  1  0  0  0  0
  8 35  1  0  0  0  0
  9 10  1  0  0  0  0
  9 36  1  0  0  0  0
 10 11  2  0  0  0  0
 10 12  1  0  0  0  0
 12 13  1  0  0  0  0
 12 37  1  0  0  0  0
 12 38  1  0  0  0  0
 13 22  1  0  0  0  0
 13 14  1  0  0  0  0
 14 15  2  0  0  0  0
 15 16  1  0  0  0  0
 15 17  1  0  0  0  0
 16 39  1  0  0  0  0
 16 40  1  0  0  0  0
 16 41  1  0  0  0  0
 17 18  1  0  0  0  0
 17 19  2  0  0  0  0
 18 42  1  0  0  0  0
 18 43  1  0  0  0  0
 18 44  1  0  0  0  0
 19 20  1  0  0  0  0
 19 22  1  0  0  0  0
 20 21  3  0  0  0  0
 22 23  2  0  0  0  0
M  END
> <s_m_source_file>
AV-unprocessed.smi

> <i_m_source_file_index>
483

> <i_lp_mmshare_version>
43012

> <i_f3d_flags>
0

> <s_epik_input>
W0NIM11bQ0gyXVtDSDJdW05IXUMoPU8pW0NASF0oW0NIM10pW05IXUMoPU8pW0NIMl1uMW5jKFtDSDNdKWMoW0NIM10pYyhDI04pYzE9Tw==

> <s_epik_cmdline>
J2VwaWtfcHl0aG9uJywgJy1waCcsICc3LjAnLCAnLXRuJywgJzgnLCAnLW1hJywgJzIwMCcsICctbWV0YWxfYmluZGluZycsICctaW1hZScsICc8aW5maWxlLm1hZT4nLCAnLW9tYWUnLCAnPG91dGZpbGUubWFlPic=

> <r_lp_tautomer_probability>
1

> <r_epik_Ionization_Penalty>
5.96698e-08

> <r_epik_Ionization_Penalty_Charging>
1.88177e-11

> <r_epik_Ionization_Penalty_Neutral>
5.9651e-08

> <r_epik_State_Penalty>
-0

> <r_epik_Charging_Adjusted_Penalty>
1.88177e-11

> <i_epik_Tot_Q>
0

> <i_epik_Tot_abs_Q>
0

> <r_epik_Metal_State_Penalty>
-0

> <b_epik_Metal_Only>
0

> <s_lp_Force_Field>
OPLS_2005

> <r_lp_Energy>
17.9954

> <b_lp_Chiralities_Consistent>
1

> <s_lp_Variant>
AV-unprocessed.smi:483-1

> <Gold.Version>
5.8.1

> <Gold.Id.Protein>
6NUR|6NUR_protein|mol2

> <Gold.PLP.Fitness>
47.9348

> <Gold.PLP.PLP>
-40.6323

> <Gold.PLP.part.hbond>
-5.0000

> <Gold.PLP.part.metal>
0.0000

> <Gold.PLP.part.buried>
0.0541

> <Gold.PLP.part.nonpolar>
-35.2525

> <Gold.PLP.part.repulsive>
0.2177

> <Gold.PLP.ligand.clash>
0.0009

> <Gold.PLP.ligand.torsion>
0.8689

> <Gold.PLP.Chemscore.Hbond>
2.9913

> <Gold.PLP.Chemscore.CHOScore>
0.0000

> <Gold.PLP.Chemscore.Metal>
0.0000

> <Gold.Chemscore.Hbonds>
donor molecule, donor type, donor heavy atom, donor atom, acceptor molecule, acceptor atom, score
      L1  H     4    31       P1  7948  0.80
      P1  H  7989  7998       L1     6  0.19
      P1  H  7997  8009       L1    11  1.00

> <Gold.PLP.Chemscore.Internal.Correction>
0.0675

> <Gold.Rescore>
     Score         DG    S(hbond)    S(metal)    S(lipo)     H(rot)  DE(clash)    DE(int)     intcor
     12.50     -17.73       2.58        0.00      83.21       2.38       1.74       3.49       ----

> <Gold.Chemscore.Fitness>
12.4980

> <Gold.Chemscore.DG>
-17.7293

> <Gold.Chemscore.ZeroCoef>
-5.4800

> <Gold.Chemscore.Hbond>
2.5757

> <Gold.Chemscore.Metal>
0.0000

> <Gold.Chemscore.Lipo>
83.2099

> <Gold.Chemscore.Internal_Hbond>
0.0000

> <Gold.Chemscore.DEClash>
1.7409

> <Gold.Chemscore.DEInternal>
3.4903

> <Gold.Chemscore.Rot>
2.3785

> <Gold.Chemscore.Internal.Correction>
   9.000000E+99

> <Gold.Chemscore.Hbonds>
donor molecule, donor type, donor heavy atom, donor atom, acceptor molecule, acceptor atom, score
      L1  H     4    31       P1  7948  0.75
      P1  H  7989  7998       L1     6  0.11
      P1  H  7997  8009       L1    11  0.35

> <Gold.Chemscore.Hbond.Weighted>
-8.6027

> <Gold.Chemscore.Metal.Weighted>
-0.0000

> <Gold.Chemscore.Lipo.Weighted>
-9.7356

> <Gold.Chemscore.Internal_Hbond.Weighted>
0.0000

> <Gold.Chemscore.DEClash.Weighted>
1.7409

> <Gold.Chemscore.DEInternal.Weighted>
3.4903

> <Gold.Chemscore.Rot.Weighted>
6.0890

> <Gold.Chemscore.Internal.Correction.Weighted>
   9.000000E+99

> <Gold.Protein.RotatedTorsions>
[ 6907 6896 6895 6894 ] final  -85.47 input  -60.11 | X-H torsion
[ 7974 7965 7964 7962 ] final  126.01 input  175.53 | X-H torsion
[ 8008 7997 7996 7995 ] final -140.11 input   59.86 | X-H torsion
[ 10167 10162 10161 10158 ] final  168.00 input  -65.29 | X-H torsion
[ 10718 10713 10712 10709 ] final   -6.74 input   66.30 | X-H torsion
[ 10763 10752 10751 10750 ] final   65.05 input  -60.55 | X-H torsion
[ 11005 11000 10999 10996 ] final -107.54 input  -57.11 | X-H torsion

> <Gold.Protein.ActiveResidues>
 VAL166  LYS551  ARG553  GLY616  TRP617  ASP618  TYR619  PRO620  LYS621  CYS622 
 ASP623  PHE694  ASN695  SER759  ASP760  ASP761  ALA762  ILE779  LEU786  VAL792 
 PHE793  MET794  SER795  GLU796  ALA797  LYS798  CYS799  TRP800  GLU811  SER814 

> <Gold.Protein.RotatedAtoms>
  150.6870  134.3200  159.4782 H   0  0  0  0  0  0  0  0  0  0  0  0  # atno 6907 bound_to 6896
  152.1076  134.9295  160.0577 H   0  0  0  0  0  0  0  0  0  0  0  0  # atno 6908 bound_to 6896
  152.0550  133.4001  159.4430 H   0  0  0  0  0  0  0  0  0  0  0  0  # atno 6909 bound_to 6896
  145.0666  139.3763  143.4979 H   0  0  0  0  0  0  0  0  0  0  0  0  # atno 7974 bound_to 7965
  155.4560  140.0542  157.2996 H   0  0  0  0  0  0  0  0  0  0  0  0  # atno 8008 bound_to 7997
  154.4757  140.2060  155.9839 H   0  0  0  0  0  0  0  0  0  0  0  0  # atno 8009 bound_to 7997
  156.1128  140.3201  155.8101 H   0  0  0  0  0  0  0  0  0  0  0  0  # atno 8010 bound_to 7997
  139.4958  144.3862  151.9568 H   0  0  0  0  0  0  0  0  0  0  0  0  # atno 10167 bound_to 10162
  156.7275  130.5170  149.5853 H   0  0  0  0  0  0  0  0  0  0  0  0  # atno 10718 bound_to 10713
  153.0080  135.5371  154.6607 H   0  0  0  0  0  0  0  0  0  0  0  0  # atno 10763 bound_to 10752
  154.5816  135.2850  155.0729 H   0  0  0  0  0  0  0  0  0  0  0  0  # atno 10764 bound_to 10752
  154.1856  135.6509  153.5098 H   0  0  0  0  0  0  0  0  0  0  0  0  # atno 10765 bound_to 10752
  141.0948  133.8990  157.1988 H   0  0  0  0  0  0  0  0  0  0  0  0  # atno 11005 bound_to 11000
  146.3527  140.0390  142.8644 LP  0  0  0  0  0  0  0  0  0  0  0  0  # atno 17320 bound_to 7965
  145.1344  140.9536  143.4525 LP  0  0  0  0  0  0  0  0  0  0  0  0  # atno 17321 bound_to 7965
  140.3299  144.3329  150.5990 LP  0  0  0  0  0  0  0  0  0  0  0  0  # atno 17342 bound_to 10162
  140.5654  143.2187  151.7693 LP  0  0  0  0  0  0  0  0  0  0  0  0  # atno 17343 bound_to 10162
  156.1552  130.6337  151.0648 LP  0  0  0  0  0  0  0  0  0  0  0  0  # atno 17370 bound_to 10713
  157.6873  131.0821  150.7208 LP  0  0  0  0  0  0  0  0  0  0  0  0  # atno 17371 bound_to 10713
  139.9782  135.0107  156.9685 LP  0  0  0  0  0  0  0  0  0  0  0  0  # atno 17394 bound_to 11000
  140.5165  134.0949  155.7282 LP  0  0  0  0  0  0  0  0  0  0  0  0  # atno 17395 bound_to 11000

$$$$
