AV-unprocessed.smi:3208|AV-procd|sdf|12266|dock1
  -GOLD-   2272018103D 1   1.00000     0.00000
 Structure written by MMmdl.
 29 29  0  0  0  0  0  0  0  0  2 V2000
  147.4195  140.5470  153.2377 C   0  0  0  0  0  0  0  0  0  0  0  0
  147.8538  141.3348  154.2328 C   0  0  0  0  0  0  0  0  0  0  0  0
  149.3020  141.4722  154.6478 C   0  0  0  0  0  0  0  0  0  0  0  0
  149.7772  140.2449  155.1882 O   0  0  0  0  0  0  0  0  0  0  0  0
  151.1251  140.2605  155.6533 C   0  0  2  0  0  0  0  0  0  0  0  0
  151.5392  138.8064  155.9248 C   0  0  0  0  0  0  0  0  0  0  0  0
  151.2487  141.1246  156.9188 C   0  0  0  0  0  0  0  0  0  0  0  0
  150.5185  142.1065  157.0619 O   0  0  0  0  0  0  0  0  0  0  0  0
  152.1908  140.7347  157.7970 N   0  0  0  0  0  0  0  0  0  0  0  0
  152.5439  141.3184  159.0446 C   0  0  0  0  0  0  0  0  0  0  0  0
  151.9091  142.4025  159.5576 N   0  0  0  0  0  0  0  0  0  0  0  0
  152.3027  142.8963  160.7497 C   0  0  0  0  0  0  0  0  0  0  0  0
  153.3504  142.3420  161.5058 C   0  0  0  0  0  0  0  0  0  0  0  0
  154.0175  141.2185  160.9876 C   0  0  0  0  0  0  0  0  0  0  0  0
  153.6134  140.6969  159.7423 C   0  0  0  0  0  0  0  0  0  0  0  0
  154.2643  139.6035  159.2379 O   0  5  0  0  0  0  0  0  0  0  0  0
  148.1049  139.9467  152.6573 H   0  0  0  0  0  0  0  0  0  0  0  0
  146.3695  140.4933  152.9905 H   0  0  0  0  0  0  0  0  0  0  0  0
  147.1398  141.9217  154.7921 H   0  0  0  0  0  0  0  0  0  0  0  0
  149.8854  141.7464  153.7679 H   0  0  0  0  0  0  0  0  0  0  0  0
  149.3967  142.2829  155.3714 H   0  0  0  0  0  0  0  0  0  0  0  0
  151.7733  140.6573  154.8692 H   0  0  0  0  0  0  0  0  0  0  0  0
  152.5615  138.7494  156.3003 H   0  0  0  0  0  0  0  0  0  0  0  0
  151.4910  138.2150  155.0104 H   0  0  0  0  0  0  0  0  0  0  0  0
  150.8852  138.3318  156.6575 H   0  0  0  0  0  0  0  0  0  0  0  0
  152.7289  139.9172  157.5479 H   0  0  0  0  0  0  0  0  0  0  0  0
  151.7647  143.7597  161.1117 H   0  0  0  0  0  0  0  0  0  0  0  0
  153.6349  142.7668  162.4567 H   0  0  0  0  0  0  0  0  0  0  0  0
  154.8277  140.7644  161.5395 H   0  0  0  0  0  0  0  0  0  0  0  0
  1  2  2  0  0  0  0
  1 17  1  0  0  0  0
  1 18  1  0  0  0  0
  2  3  1  0  0  0  0
  2 19  1  0  0  0  0
  3  4  1  0  0  0  0
  3 20  1  0  0  0  0
  3 21  1  0  0  0  0
  4  5  1  0  0  0  0
  5  6  1  0  0  0  0
  5  7  1  0  0  0  0
  5 22  1  0  0  0  0
  6 23  1  0  0  0  0
  6 24  1  0  0  0  0
  6 25  1  0  0  0  0
  7  8  2  0  0  0  0
  7  9  1  0  0  0  0
  9 26  1  0  0  0  0
  9 10  1  0  0  0  0
 10 15  2  0  0  0  0
 10 11  1  0  0  0  0
 11 12  2  0  0  0  0
 12 27  1  0  0  0  0
 12 13  1  0  0  0  0
 13 28  1  0  0  0  0
 13 14  2  0  0  0  0
 14 15  1  0  0  0  0
 14 29  1  0  0  0  0
 15 16  1  0  0  0  0
M  CHG  1  16  -1
M  END
> <s_m_source_file>
AV-unprocessed.smi

> <i_m_source_file_index>
3208

> <i_lp_mmshare_version>
43012

> <i_f3d_flags>
0

> <s_epik_input>
W0NIMl09W0NIXVtDSDJdT1tDQEhdKFtDSDNdKUMoPU8pW05IXWMxbltjSF1bY0hdW2NIXWMxW09IXQ==

> <s_epik_cmdline>
J2VwaWtfcHl0aG9uJywgJy1waCcsICc3LjAnLCAnLXRuJywgJzgnLCAnLW1hJywgJzIwMCcsICctbWV0YWxfYmluZGluZycsICctaW1hZScsICc8aW5maWxlLm1hZT4nLCAnLW9tYWUnLCAnPG91dGZpbGUubWFlPic=

> <r_epik_Ionization_Penalty>
4.05889

> <r_epik_Ionization_Penalty_Charging>
2.07983

> <r_epik_Ionization_Penalty_Neutral>
1.97905

> <r_epik_State_Penalty>
2.65143

> <r_epik_Charging_Adjusted_Penalty>
4.73126

> <i_epik_Tot_Q>
-1

> <i_epik_Tot_abs_Q>
1

> <r_epik_Metal_State_Penalty>
0.650759

> <b_epik_Metal_Only>
0

> <s_lp_Force_Field>
OPLS_2005

> <r_lp_Energy>
4.23541

> <b_lp_Chiralities_Consistent>
1

> <s_lp_Variant>
AV-unprocessed.smi:3208-7

> <Gold.Version>
5.8.1

> <Gold.Id.Protein>
6NUR|6NUR_protein|mol2

> <Gold.PLP.Fitness>
37.8633

> <Gold.PLP.PLP>
-33.4143

> <Gold.PLP.part.hbond>
-1.0000

> <Gold.PLP.part.metal>
0.0000

> <Gold.PLP.part.buried>
-2.2493

> <Gold.PLP.part.nonpolar>
-29.6784

> <Gold.PLP.part.repulsive>
0.2892

> <Gold.PLP.ligand.clash>
0.0000

> <Gold.PLP.ligand.torsion>
0.8183

> <Gold.PLP.Chemscore.Hbond>
2.0000

> <Gold.PLP.Chemscore.CHOScore>
0.0000

> <Gold.PLP.Chemscore.Metal>
0.0000

> <Gold.Chemscore.Hbonds>
donor molecule, donor type, donor heavy atom, donor atom, acceptor molecule, acceptor atom, score
      P1  H  7997  8008       L1    16  1.46

> <Gold.PLP.Chemscore.Internal.Correction>
0.0857

> <Gold.Rescore>
     Score         DG    S(hbond)    S(metal)    S(lipo)     H(rot)  DE(clash)    DE(int)     intcor
      9.92     -13.59       0.97        0.00      77.78       1.65       0.09       3.57       ----

> <Gold.Chemscore.Fitness>
9.9249

> <Gold.Chemscore.DG>
-13.5872

> <Gold.Chemscore.ZeroCoef>
-5.4800

> <Gold.Chemscore.Hbond>
0.9700

> <Gold.Chemscore.Metal>
0.0000

> <Gold.Chemscore.Lipo>
77.7764

> <Gold.Chemscore.Internal_Hbond>
0.0000

> <Gold.Chemscore.DEClash>
0.0873

> <Gold.Chemscore.DEInternal>
3.5750

> <Gold.Chemscore.Rot>
1.6533

> <Gold.Chemscore.Internal.Correction>
   9.000000E+99

> <Gold.Chemscore.Hbonds>
donor molecule, donor type, donor heavy atom, donor atom, acceptor molecule, acceptor atom, score
      P1  H  7997  8008       L1    16  0.47

> <Gold.Chemscore.Hbond.Weighted>
-3.2397

> <Gold.Chemscore.Metal.Weighted>
-0.0000

> <Gold.Chemscore.Lipo.Weighted>
-9.0998

> <Gold.Chemscore.Internal_Hbond.Weighted>
0.0000

> <Gold.Chemscore.DEClash.Weighted>
0.0873

> <Gold.Chemscore.DEInternal.Weighted>
3.5750

> <Gold.Chemscore.Rot.Weighted>
4.2324

> <Gold.Chemscore.Internal.Correction.Weighted>
   9.000000E+99

> <Gold.Protein.RotatedTorsions>
[ 6907 6896 6895 6894 ] final   45.87 input  -60.11 | X-H torsion
[ 7974 7965 7964 7962 ] final  -88.39 input  175.53 | X-H torsion
[ 8008 7997 7996 7995 ] final -101.46 input   59.86 | X-H torsion
[ 10167 10162 10161 10158 ] final  -18.12 input  -65.29 | X-H torsion
[ 10718 10713 10712 10709 ] final  -24.28 input   66.30 | X-H torsion
[ 10763 10752 10751 10750 ] final -107.83 input  -60.55 | X-H torsion
[ 11005 11000 10999 10996 ] final  -54.86 input  -57.11 | X-H torsion

> <Gold.Protein.ActiveResidues>
 VAL166  LYS551  ARG553  GLY616  TRP617  ASP618  TYR619  PRO620  LYS621  CYS622 
 ASP623  PHE694  ASN695  SER759  ASP760  ASP761  ALA762  ILE779  LEU786  VAL792 
 PHE793  MET794  SER795  GLU796  ALA797  LYS798  CYS799  TRP800  GLU811  SER814 

> <Gold.Protein.RotatedAtoms>
  152.2496  134.8146  160.0447 H   0  0  0  0  0  0  0  0  0  0  0  0  # atno 6907 bound_to 6896
  151.8831  133.3494  159.3781 H   0  0  0  0  0  0  0  0  0  0  0  0  # atno 6908 bound_to 6896
  150.7080  134.4926  159.5567 H   0  0  0  0  0  0  0  0  0  0  0  0  # atno 6909 bound_to 6896
  145.4538  140.9561  143.2007 H   0  0  0  0  0  0  0  0  0  0  0  0  # atno 7974 bound_to 7965
  154.8428  140.0434  157.1553 H   0  0  0  0  0  0  0  0  0  0  0  0  # atno 8008 bound_to 7997
  154.9028  140.3002  155.5288 H   0  0  0  0  0  0  0  0  0  0  0  0  # atno 8009 bound_to 7997
  156.2993  140.2372  156.4058 H   0  0  0  0  0  0  0  0  0  0  0  0  # atno 8010 bound_to 7997
  140.7255  143.4948  150.9945 H   0  0  0  0  0  0  0  0  0  0  0  0  # atno 10167 bound_to 10162
  156.4798  130.4542  149.6818 H   0  0  0  0  0  0  0  0  0  0  0  0  # atno 10718 bound_to 10713
  154.8099  135.4660  154.0488 H   0  0  0  0  0  0  0  0  0  0  0  0  # atno 10763 bound_to 10752
  153.1928  135.6857  153.8338 H   0  0  0  0  0  0  0  0  0  0  0  0  # atno 10764 bound_to 10752
  153.7850  135.3251  155.3348 H   0  0  0  0  0  0  0  0  0  0  0  0  # atno 10765 bound_to 10752
  141.1046  133.6614  156.4383 H   0  0  0  0  0  0  0  0  0  0  0  0  # atno 11005 bound_to 11000
  144.8045  139.6078  143.7057 LP  0  0  0  0  0  0  0  0  0  0  0  0  # atno 17320 bound_to 7965
  146.2489  139.6157  142.9440 LP  0  0  0  0  0  0  0  0  0  0  0  0  # atno 17321 bound_to 7965
  139.8654  143.7260  152.3170 LP  0  0  0  0  0  0  0  0  0  0  0  0  # atno 17342 bound_to 10162
  139.7490  144.7539  151.0535 LP  0  0  0  0  0  0  0  0  0  0  0  0  # atno 17343 bound_to 10162
  156.3533  130.7443  151.2406 LP  0  0  0  0  0  0  0  0  0  0  0  0  # atno 17370 bound_to 10713
  157.7484  131.0371  150.4439 LP  0  0  0  0  0  0  0  0  0  0  0  0  # atno 17371 bound_to 10713
  140.4935  134.6553  157.5220 LP  0  0  0  0  0  0  0  0  0  0  0  0  # atno 17394 bound_to 11000
  139.9911  134.6984  155.9688 LP  0  0  0  0  0  0  0  0  0  0  0  0  # atno 17395 bound_to 11000

$$$$
