AV-unprocessed.smi:3333|AV-procd|sdf|12833|dock9
  -GOLD-   2272019213D 1   1.00000     0.00000
 Structure written by MMmdl.
 41 43  0  0  0  0  0  0  0  0  1 V2000
  147.6671  136.1802  160.3383 C   0  0  0  0  0  0  0  0  0  0  0  0
  148.1035  136.2264  158.8702 C   0  0  0  0  0  0  0  0  0  0  0  0
  149.2901  137.1043  158.6527 C   0  0  0  0  0  0  0  0  0  0  0  0
  150.4513  136.9468  159.2935 N   0  0  0  0  0  0  0  0  0  0  0  0
  151.3953  137.9210  158.9482 C   0  0  0  0  0  0  0  0  0  0  0  0
  152.7583  137.9054  159.5774 C   0  0  0  0  0  0  0  0  0  0  0  0
  153.4362  139.2608  159.3758 C   0  0  0  0  0  0  0  0  0  0  0  0
  154.5186  139.3296  158.7938 O   0  0  0  0  0  0  0  0  0  0  0  0
  152.7773  140.3310  159.8459 N   0  0  0  0  0  0  0  0  0  0  0  0
  153.1889  141.7180  159.6681 C   0  0  0  0  0  0  0  0  0  0  0  0
  152.0562  142.6994  160.0370 C   0  0  2  0  0  0  0  0  0  0  0  0
  150.8260  142.6344  159.1077 C   0  0  0  0  0  0  0  0  0  0  0  0
  150.5956  144.1135  158.7422 C   0  0  2  0  0  0  0  0  0  0  0  0
  151.6834  144.5618  157.7490 C   0  0  0  0  0  0  0  0  0  0  0  0
  152.9368  144.6514  158.6385 C   0  0  0  0  0  0  0  0  0  0  0  0
  152.4098  144.2069  160.0187 C   0  0  1  0  0  0  0  0  0  0  0  0
  151.0192  144.8333  160.0186 C   0  0  0  0  0  0  0  0  0  0  0  0
  150.9251  138.8250  158.0279 C   0  0  0  0  0  0  0  0  0  0  0  0
  149.2759  138.4953  157.5752 S   0  0  0  0  0  0  0  0  0  0  0  0
  146.7958  135.5375  160.4648 H   0  0  0  0  0  0  0  0  0  0  0  0
  147.4053  137.1739  160.7034 H   0  0  0  0  0  0  0  0  0  0  0  0
  148.4628  135.7893  160.9713 H   0  0  0  0  0  0  0  0  0  0  0  0
  148.3387  135.2204  158.5204 H   0  0  0  0  0  0  0  0  0  0  0  0
  147.2836  136.5891  158.2498 H   0  0  0  0  0  0  0  0  0  0  0  0
  152.6946  137.6821  160.6433 H   0  0  0  0  0  0  0  0  0  0  0  0
  153.3778  137.1244  159.1351 H   0  0  0  0  0  0  0  0  0  0  0  0
  151.8938  140.1746  160.3094 H   0  0  0  0  0  0  0  0  0  0  0  0
  154.0700  141.8933  160.2848 H   0  0  0  0  0  0  0  0  0  0  0  0
  153.5084  141.8839  158.6381 H   0  0  0  0  0  0  0  0  0  0  0  0
  151.7240  142.4534  161.0472 H   0  0  0  0  0  0  0  0  0  0  0  0
  150.9917  142.0178  158.2231 H   0  0  0  0  0  0  0  0  0  0  0  0
  149.9664  142.2243  159.6395 H   0  0  0  0  0  0  0  0  0  0  0  0
  149.5811  144.3282  158.4052 H   0  0  0  0  0  0  0  0  0  0  0  0
  151.8072  143.8580  156.9251 H   0  0  0  0  0  0  0  0  0  0  0  0
  151.4451  145.5374  157.3233 H   0  0  0  0  0  0  0  0  0  0  0  0
  153.7611  144.0408  158.2724 H   0  0  0  0  0  0  0  0  0  0  0  0
  153.2930  145.6814  158.6796 H   0  0  0  0  0  0  0  0  0  0  0  0
  153.0446  144.5149  160.8504 H   0  0  0  0  0  0  0  0  0  0  0  0
  151.0324  145.9203  159.9196 H   0  0  0  0  0  0  0  0  0  0  0  0
  150.4188  144.5611  160.8885 H   0  0  0  0  0  0  0  0  0  0  0  0
  151.4452  139.6686  157.5986 H   0  0  0  0  0  0  0  0  0  0  0  0
  1  2  1  0  0  0  0
  1 20  1  0  0  0  0
  1 21  1  0  0  0  0
  1 22  1  0  0  0  0
  2  3  1  0  0  0  0
  2 23  1  0  0  0  0
  2 24  1  0  0  0  0
  3 19  1  0  0  0  0
  3  4  2  0  0  0  0
  4  5  1  0  0  0  0
  5  6  1  0  0  0  0
  5 18  2  0  0  0  0
  6  7  1  0  0  0  0
  6 25  1  0  0  0  0
  6 26  1  0  0  0  0
  7  8  2  0  0  0  0
  7  9  1  0  0  0  0
  9 10  1  0  0  0  0
  9 27  1  0  0  0  0
 10 11  1  0  0  0  0
 10 28  1  0  0  0  0
 10 29  1  0  0  0  0
 11 16  1  0  0  0  0
 11 12  1  0  0  0  0
 11 30  1  0  0  0  0
 12 13  1  0  0  0  0
 12 31  1  0  0  0  0
 12 32  1  0  0  0  0
 13 17  1  0  0  0  0
 13 14  1  0  0  0  0
 13 33  1  0  0  0  0
 14 15  1  0  0  0  0
 14 34  1  0  0  0  0
 14 35  1  0  0  0  0
 15 16  1  0  0  0  0
 15 36  1  0  0  0  0
 15 37  1  0  0  0  0
 16 17  1  0  0  0  0
 16 38  1  0  0  0  0
 17 39  1  0  0  0  0
 17 40  1  0  0  0  0
 18 19  1  0  0  0  0
 18 41  1  0  0  0  0
M  END
> <s_m_source_file>
AV-unprocessed.smi

> <i_m_source_file_index>
3333

> <i_lp_mmshare_version>
43012

> <i_f3d_flags>
0

> <s_epik_input>
W0NIM11bQ0gyXWMxbmMoW2NIXXMxKVtDSDJdQyg9TylbTkhdW0NIMl1bQ0BIXShbQ0gyXVtDQEBIXTIzKVtDQEBIXShbQ0gyXTMpW0NIMl1bQ0gyXTI=

> <s_epik_cmdline>
J2VwaWtfcHl0aG9uJywgJy1waCcsICc3LjAnLCAnLXRuJywgJzgnLCAnLW1hJywgJzIwMCcsICctbWV0YWxfYmluZGluZycsICctaW1hZScsICc8aW5maWxlLm1hZT4nLCAnLW9tYWUnLCAnPG91dGZpbGUubWFlPic=

> <r_lp_tautomer_probability>
1

> <r_epik_Ionization_Penalty>
6.68371e-05

> <r_epik_Ionization_Penalty_Charging>
0

> <r_epik_Ionization_Penalty_Neutral>
6.68371e-05

> <r_epik_State_Penalty>
-0

> <r_epik_Charging_Adjusted_Penalty>
0

> <i_epik_Tot_Q>
0

> <i_epik_Tot_abs_Q>
0

> <r_epik_Metal_State_Penalty>
-0

> <b_epik_Metal_Only>
0

> <s_lp_Force_Field>
OPLS_2005

> <r_lp_Energy>
42.1731

> <b_lp_Chiralities_Consistent>
1

> <s_lp_Variant>
AV-unprocessed.smi:3333-3

> <Gold.Version>
5.8.1

> <Gold.Id.Protein>
6NUR|6NUR_protein|mol2

> <Gold.PLP.Fitness>
47.0526

> <Gold.PLP.PLP>
-41.6925

> <Gold.PLP.part.hbond>
-2.0139

> <Gold.PLP.part.metal>
0.0000

> <Gold.PLP.part.buried>
-5.8030

> <Gold.PLP.part.nonpolar>
-34.7699

> <Gold.PLP.part.repulsive>
0.1152

> <Gold.PLP.ligand.clash>
0.0000

> <Gold.PLP.ligand.torsion>
0.3295

> <Gold.PLP.Chemscore.Hbond>
2.0000

> <Gold.PLP.Chemscore.CHOScore>
0.0000

> <Gold.PLP.Chemscore.Metal>
0.0000

> <Gold.Chemscore.Hbonds>
donor molecule, donor type, donor heavy atom, donor atom, acceptor molecule, acceptor atom, score
      P1  H  6896  6908       L1     4  0.89
      P1  H  7997  8008       L1     8  1.00

> <Gold.PLP.Chemscore.Internal.Correction>
0.0191

> <Gold.Rescore>
     Score         DG    S(hbond)    S(metal)    S(lipo)     H(rot)  DE(clash)    DE(int)     intcor
     21.95     -22.13       1.91        0.00     119.06       1.42       0.02       0.16       ----

> <Gold.Chemscore.Fitness>
21.9496

> <Gold.Chemscore.DG>
-22.1343

> <Gold.Chemscore.ZeroCoef>
-5.4800

> <Gold.Chemscore.Hbond>
1.9062

> <Gold.Chemscore.Metal>
0.0000

> <Gold.Chemscore.Lipo>
119.0580

> <Gold.Chemscore.Internal_Hbond>
0.0000

> <Gold.Chemscore.DEClash>
0.0199

> <Gold.Chemscore.DEInternal>
0.1647

> <Gold.Chemscore.Rot>
1.4227

> <Gold.Chemscore.Internal.Correction>
   9.000000E+99

> <Gold.Chemscore.Hbonds>
donor molecule, donor type, donor heavy atom, donor atom, acceptor molecule, acceptor atom, score
      P1  H  6896  6908       L1     4  0.80
      P1  H  7997  8008       L1     8  1.00

> <Gold.Chemscore.Hbond.Weighted>
-6.3666

> <Gold.Chemscore.Metal.Weighted>
-0.0000

> <Gold.Chemscore.Lipo.Weighted>
-13.9298

> <Gold.Chemscore.Internal_Hbond.Weighted>
0.0000

> <Gold.Chemscore.DEClash.Weighted>
0.0199

> <Gold.Chemscore.DEInternal.Weighted>
0.1647

> <Gold.Chemscore.Rot.Weighted>
3.6421

> <Gold.Chemscore.Internal.Correction.Weighted>
   9.000000E+99

> <Gold.Protein.RotatedTorsions>
[ 6907 6896 6895 6894 ] final -158.08 input  -60.11 | X-H torsion
[ 7974 7965 7964 7962 ] final   71.24 input  175.53 | X-H torsion
[ 8008 7997 7996 7995 ] final -111.66 input   59.86 | X-H torsion
[ 10167 10162 10161 10158 ] final  140.26 input  -65.29 | X-H torsion
[ 10718 10713 10712 10709 ] final  -61.21 input   66.30 | X-H torsion
[ 10763 10752 10751 10750 ] final  124.00 input  -60.55 | X-H torsion
[ 11005 11000 10999 10996 ] final  143.66 input  -57.11 | X-H torsion

> <Gold.Protein.ActiveResidues>
 VAL166  LYS551  ARG553  GLY616  TRP617  ASP618  TYR619  PRO620  LYS621  CYS622 
 ASP623  PHE694  ASN695  SER759  ASP760  ASP761  ALA762  ILE779  LEU786  VAL792 
 PHE793  MET794  SER795  GLU796  ALA797  LYS798  CYS799  TRP800  GLU811  SER814 

> <Gold.Protein.RotatedAtoms>
  151.3127  133.4073  159.2647 H   0  0  0  0  0  0  0  0  0  0  0  0  # atno 6907 bound_to 6896
  151.0100  134.9390  159.8012 H   0  0  0  0  0  0  0  0  0  0  0  0  # atno 6908 bound_to 6896
  152.5298  134.3092  159.9159 H   0  0  0  0  0  0  0  0  0  0  0  0  # atno 6909 bound_to 6896
  145.7683  139.2831  143.1336 H   0  0  0  0  0  0  0  0  0  0  0  0  # atno 7974 bound_to 7965
  154.9933  140.0395  157.2329 H   0  0  0  0  0  0  0  0  0  0  0  0  # atno 8008 bound_to 7997
  154.7609  140.2784  155.6192 H   0  0  0  0  0  0  0  0  0  0  0  0  # atno 8009 bound_to 7997
  156.2904  140.2628  156.2387 H   0  0  0  0  0  0  0  0  0  0  0  0  # atno 8010 bound_to 7997
  139.5054  144.6245  151.5971 H   0  0  0  0  0  0  0  0  0  0  0  0  # atno 10167 bound_to 10162
  156.0937  130.4196  150.0962 H   0  0  0  0  0  0  0  0  0  0  0  0  # atno 10718 bound_to 10713
  153.6544  135.3357  155.3109 H   0  0  0  0  0  0  0  0  0  0  0  0  # atno 10763 bound_to 10752
  154.8530  135.4349  154.1870 H   0  0  0  0  0  0  0  0  0  0  0  0  # atno 10764 bound_to 10752
  153.2821  135.7010  153.7450 H   0  0  0  0  0  0  0  0  0  0  0  0  # atno 10765 bound_to 10752
  140.0571  134.9224  157.1120 H   0  0  0  0  0  0  0  0  0  0  0  0  # atno 11005 bound_to 11000
  146.0196  140.8361  142.9930 LP  0  0  0  0  0  0  0  0  0  0  0  0  # atno 17320 bound_to 7965
  144.6817  140.2608  143.7319 LP  0  0  0  0  0  0  0  0  0  0  0  0  # atno 17321 bound_to 7965
  140.5957  143.9700  150.6353 LP  0  0  0  0  0  0  0  0  0  0  0  0  # atno 17342 bound_to 10162
  140.2895  143.3334  152.1076 LP  0  0  0  0  0  0  0  0  0  0  0  0  # atno 17343 bound_to 10162
  156.8966  130.9606  151.3582 LP  0  0  0  0  0  0  0  0  0  0  0  0  # atno 17370 bound_to 10713
  157.6093  130.8571  149.8926 LP  0  0  0  0  0  0  0  0  0  0  0  0  # atno 17371 bound_to 10713
  140.3827  134.2270  155.7170 LP  0  0  0  0  0  0  0  0  0  0  0  0  # atno 17394 bound_to 11000
  141.1957  133.8100  157.0704 LP  0  0  0  0  0  0  0  0  0  0  0  0  # atno 17395 bound_to 11000

$$$$
