AV-unprocessed.smi:1423|AV-procd|sdf|5795|dock5
  -GOLD-   22720 5443D 1   1.00000     0.00000
 Structure written by MMmdl.
 44 45  0  0  0  0  0  0  0  0  2 V2000
  147.3880  124.2825  155.0062 C   0  0  0  0  0  0  0  0  0  0  0  0
  148.0212  124.5661  153.7634 O   0  0  0  0  0  0  0  0  0  0  0  0
  147.8800  125.8309  153.2299 C   0  0  0  0  0  0  0  0  0  0  0  0
  148.5652  126.1408  152.0386 C   0  0  0  0  0  0  0  0  0  0  0  0
  148.4315  127.4307  151.4904 C   0  0  0  0  0  0  0  0  0  0  0  0
  147.6056  128.3728  152.1500 C   0  0  0  0  0  0  0  0  0  0  0  0
  147.4034  129.7120  151.7172 N   0  0  0  0  0  0  0  0  0  0  0  0
  146.7203  130.7003  152.3203 C   0  0  0  0  0  0  0  0  0  0  0  0
  146.1882  130.6299  153.4276 O   0  0  0  0  0  0  0  0  0  0  0  0
  146.6974  131.8061  151.5619 N   0  0  0  0  0  0  0  0  0  0  0  0
  146.0362  133.0576  151.9213 C   0  0  2  0  0  0  0  0  0  0  0  0
  146.1643  134.0930  150.7878 C   0  0  0  0  0  0  0  0  0  0  0  0
  145.5673  135.4490  151.1997 C   0  0  0  0  0  0  0  0  0  0  0  0
  146.2006  135.9551  152.4438 N   0  3  1  0  0  0  0  0  0  0  0  0
  145.7576  137.3295  152.7920 C   0  0  0  0  0  0  0  0  0  0  0  0
  146.4812  138.4102  151.9822 C   0  0  0  0  0  0  0  0  0  0  0  0
  146.7394  139.5612  152.6070 N   0  0  0  0  0  0  0  0  0  0  0  0
  146.7898  138.2189  150.8071 O   0  0  0  0  0  0  0  0  0  0  0  0
  146.0459  134.9904  153.5651 C   0  0  0  0  0  0  0  0  0  0  0  0
  146.6565  133.6250  153.2083 C   0  0  0  0  0  0  0  0  0  0  0  0
  146.9695  127.9643  153.3408 C   0  0  0  0  0  0  0  0  0  0  0  0
  147.0944  126.7301  153.8722 N   0  0  0  0  0  0  0  0  0  0  0  0
  147.5938  123.2502  155.2884 H   0  0  0  0  0  0  0  0  0  0  0  0
  146.3052  124.3974  154.9389 H   0  0  0  0  0  0  0  0  0  0  0  0
  147.7678  124.9243  155.8024 H   0  0  0  0  0  0  0  0  0  0  0  0
  149.1895  125.4033  151.5557 H   0  0  0  0  0  0  0  0  0  0  0  0
  148.9750  127.6685  150.5899 H   0  0  0  0  0  0  0  0  0  0  0  0
  147.8526  129.9521  150.8457 H   0  0  0  0  0  0  0  0  0  0  0  0
  147.1689  131.7787  150.6697 H   0  0  0  0  0  0  0  0  0  0  0  0
  144.9785  132.8610  152.1082 H   0  0  0  0  0  0  0  0  0  0  0  0
  147.2146  134.2262  150.5242 H   0  0  0  0  0  0  0  0  0  0  0  0
  145.6641  133.7337  149.8877 H   0  0  0  0  0  0  0  0  0  0  0  0
  145.7187  136.1649  150.3910 H   0  0  0  0  0  0  0  0  0  0  0  0
  144.4901  135.3589  151.3478 H   0  0  0  0  0  0  0  0  0  0  0  0
  144.6940  137.4395  152.5760 H   0  0  0  0  0  0  0  0  0  0  0  0
  145.8795  137.5032  153.8625 H   0  0  0  0  0  0  0  0  0  0  0  0
  147.2171  140.3077  152.1228 H   0  0  0  0  0  0  0  0  0  0  0  0
  146.4570  139.6812  153.5695 H   0  0  0  0  0  0  0  0  0  0  0  0
  146.5318  135.3751  154.4620 H   0  0  0  0  0  0  0  0  0  0  0  0
  144.9875  134.8764  153.8050 H   0  0  0  0  0  0  0  0  0  0  0  0
  146.5078  132.9280  154.0342 H   0  0  0  0  0  0  0  0  0  0  0  0
  147.7354  133.7336  153.0858 H   0  0  0  0  0  0  0  0  0  0  0  0
  146.3378  128.6497  153.8873 H   0  0  0  0  0  0  0  0  0  0  0  0
  147.1898  136.0245  152.2498 H   0  0  0  0  0  0  0  0  0  0  0  0
  1  2  1  0  0  0  0
  1 23  1  0  0  0  0
  1 24  1  0  0  0  0
  1 25  1  0  0  0  0
  2  3  1  0  0  0  0
  3 22  1  0  0  0  0
  3  4  2  0  0  0  0
  4  5  1  0  0  0  0
  4 26  1  0  0  0  0
  5  6  2  0  0  0  0
  5 27  1  0  0  0  0
  6  7  1  0  0  0  0
  6 21  1  0  0  0  0
  7  8  1  0  0  0  0
  7 28  1  0  0  0  0
  8  9  2  0  0  0  0
  8 10  1  0  0  0  0
 10 11  1  0  0  0  0
 10 29  1  0  0  0  0
 11 20  1  0  0  0  0
 11 12  1  0  0  0  0
 11 30  1  0  0  0  0
 12 13  1  0  0  0  0
 12 31  1  0  0  0  0
 12 32  1  0  0  0  0
 13 14  1  0  0  0  0
 13 33  1  0  0  0  0
 13 34  1  0  0  0  0
 14 15  1  0  0  0  0
 14 19  1  0  0  0  0
 14 44  1  0  0  0  0
 15 16  1  0  0  0  0
 15 35  1  0  0  0  0
 15 36  1  0  0  0  0
 16 17  1  0  0  0  0
 16 18  2  0  0  0  0
 17 37  1  0  0  0  0
 17 38  1  0  0  0  0
 19 20  1  0  0  0  0
 19 39  1  0  0  0  0
 19 40  1  0  0  0  0
 20 41  1  0  0  0  0
 20 42  1  0  0  0  0
 21 22  2  0  0  0  0
 21 43  1  0  0  0  0
M  CHG  1  14   1
M  END
> <s_m_source_file>
AV-unprocessed.smi

> <i_m_source_file_index>
1423

> <i_lp_mmshare_version>
43012

> <i_f3d_flags>
0

> <s_epik_input>
W0NIM11PYzFbY0hdW2NIXWMoW2NIXW4xKVtOSF1DKD1PKVtOSF1bQ0hdMltDSDJdW0NIMl1OKFtDSDJdW0NIMl0yKVtDSDJdQyg9TylbTkgyXQ==

> <s_epik_cmdline>
J2VwaWtfcHl0aG9uJywgJy1waCcsICc3LjAnLCAnLXRuJywgJzgnLCAnLW1hJywgJzIwMCcsICctbWV0YWxfYmluZGluZycsICctaW1hZScsICc8aW5maWxlLm1hZT4nLCAnLW9tYWUnLCAnPG91dGZpbGUubWFlPic=

> <r_lp_tautomer_probability>
1

> <r_epik_Ionization_Penalty>
0.838963

> <r_epik_Ionization_Penalty_Charging>
0.838844

> <r_epik_Ionization_Penalty_Neutral>
0.0001192

> <r_epik_State_Penalty>
0.8734

> <r_epik_Charging_Adjusted_Penalty>
1.71224

> <i_epik_Tot_Q>
1

> <i_epik_Tot_abs_Q>
1

> <r_epik_Metal_State_Penalty>
0.890706

> <b_epik_Metal_Only>
0

> <s_lp_Force_Field>
OPLS_2005

> <r_lp_Energy>
16.4152

> <b_lp_Chiralities_Consistent>
1

> <s_lp_Variant>
AV-unprocessed.smi:1423-2

> <Gold.Version>
5.8.1

> <Gold.Id.Protein>
6NUR|6NUR_protein|mol2

> <Gold.PLP.Fitness>
45.0403

> <Gold.PLP.PLP>
-33.3532

> <Gold.PLP.part.hbond>
-5.3002

> <Gold.PLP.part.metal>
0.0000

> <Gold.PLP.part.buried>
-4.4538

> <Gold.PLP.part.nonpolar>
-24.8567

> <Gold.PLP.part.repulsive>
1.2583

> <Gold.PLP.ligand.clash>
0.0000

> <Gold.PLP.ligand.torsion>
0.6223

> <Gold.PLP.Chemscore.Hbond>
4.3039

> <Gold.PLP.Chemscore.CHOScore>
0.0000

> <Gold.PLP.Chemscore.Metal>
0.0000

> <Gold.Chemscore.Hbonds>
donor molecule, donor type, donor heavy atom, donor atom, acceptor molecule, acceptor atom, score
      L1  H     7    28       P1 10747  0.83
      L1  H    10    29       P1 10747  0.48
      L1  H    14    44       P1  7948  2.00
      P1  H  7954  7966       L1    18  1.00

> <Gold.PLP.Chemscore.Internal.Correction>
0.0199

> <Gold.Rescore>
     Score         DG    S(hbond)    S(metal)    S(lipo)     H(rot)  DE(clash)    DE(int)     intcor
     13.96     -17.28       3.36        0.00      55.69       2.33       0.51       2.81       ----

> <Gold.Chemscore.Fitness>
13.9594

> <Gold.Chemscore.DG>
-17.2752

> <Gold.Chemscore.ZeroCoef>
-5.4800

> <Gold.Chemscore.Hbond>
3.3642

> <Gold.Chemscore.Metal>
0.0000

> <Gold.Chemscore.Lipo>
55.6938

> <Gold.Chemscore.Internal_Hbond>
0.0000

> <Gold.Chemscore.DEClash>
0.5087

> <Gold.Chemscore.DEInternal>
2.8071

> <Gold.Chemscore.Rot>
2.3271

> <Gold.Chemscore.Internal.Correction>
   9.000000E+99

> <Gold.Chemscore.Hbonds>
donor molecule, donor type, donor heavy atom, donor atom, acceptor molecule, acceptor atom, score
      L1  H     7    28       P1 10747  0.75
      L1  H    10    29       P1 10747  0.48
      L1  H    14    44       P1  7948  1.00
      P1  H  7954  7966       L1    18  0.98

> <Gold.Chemscore.Hbond.Weighted>
-11.2363

> <Gold.Chemscore.Metal.Weighted>
-0.0000

> <Gold.Chemscore.Lipo.Weighted>
-6.5162

> <Gold.Chemscore.Internal_Hbond.Weighted>
0.0000

> <Gold.Chemscore.DEClash.Weighted>
0.5087

> <Gold.Chemscore.DEInternal.Weighted>
2.8071

> <Gold.Chemscore.Rot.Weighted>
5.9573

> <Gold.Chemscore.Internal.Correction.Weighted>
   9.000000E+99

> <Gold.Protein.RotatedTorsions>
[ 6907 6896 6895 6894 ] final -112.85 input  -60.11 | X-H torsion
[ 7974 7965 7964 7962 ] final   66.85 input  175.53 | X-H torsion
[ 8008 7997 7996 7995 ] final  -85.85 input   59.86 | X-H torsion
[ 10167 10162 10161 10158 ] final   51.11 input  -65.29 | X-H torsion
[ 10718 10713 10712 10709 ] final  103.82 input   66.30 | X-H torsion
[ 10763 10752 10751 10750 ] final  -97.01 input  -60.55 | X-H torsion
[ 11005 11000 10999 10996 ] final   31.95 input  -57.11 | X-H torsion

> <Gold.Protein.ActiveResidues>
 VAL166  LYS551  ARG553  GLY616  TRP617  ASP618  TYR619  PRO620  LYS621  CYS622 
 ASP623  PHE694  ASN695  SER759  ASP760  ASP761  ALA762  ILE779  LEU786  VAL792 
 PHE793  MET794  SER795  GLU796  ALA797  LYS798  CYS799  TRP800  GLU811  SER814 

> <Gold.Protein.RotatedAtoms>
  150.7788  133.9029  159.3346 H   0  0  0  0  0  0  0  0  0  0  0  0  # atno 6907 bound_to 6896
  151.6897  135.0946  160.0241 H   0  0  0  0  0  0  0  0  0  0  0  0  # atno 6908 bound_to 6896
  152.3832  133.6537  159.6213 H   0  0  0  0  0  0  0  0  0  0  0  0  # atno 6909 bound_to 6896
  145.8217  139.3088  143.1039 H   0  0  0  0  0  0  0  0  0  0  0  0  # atno 7974 bound_to 7965
  154.6453  140.0586  156.9893 H   0  0  0  0  0  0  0  0  0  0  0  0  # atno 8008 bound_to 7997
  155.1454  140.3269  155.4424 H   0  0  0  0  0  0  0  0  0  0  0  0  # atno 8009 bound_to 7997
  156.2550  140.1957  156.6568 H   0  0  0  0  0  0  0  0  0  0  0  0  # atno 8010 bound_to 7997
  140.2654  144.3326  150.6305 H   0  0  0  0  0  0  0  0  0  0  0  0  # atno 10167 bound_to 10162
  157.6760  131.0788  150.5613 H   0  0  0  0  0  0  0  0  0  0  0  0  # atno 10718 bound_to 10713
  154.7290  135.5062  153.8933 H   0  0  0  0  0  0  0  0  0  0  0  0  # atno 10763 bound_to 10752
  153.0932  135.6665  153.9822 H   0  0  0  0  0  0  0  0  0  0  0  0  # atno 10764 bound_to 10752
  153.9628  135.3046  155.3412 H   0  0  0  0  0  0  0  0  0  0  0  0  # atno 10765 bound_to 10752
  140.2785  134.3000  155.7807 H   0  0  0  0  0  0  0  0  0  0  0  0  # atno 11005 bound_to 11000
  145.9668  140.8792  143.0183 LP  0  0  0  0  0  0  0  0  0  0  0  0  # atno 17320 bound_to 7965
  144.6747  140.1889  143.7398 LP  0  0  0  0  0  0  0  0  0  0  0  0  # atno 17321 bound_to 7965
  140.5932  143.2167  151.7213 LP  0  0  0  0  0  0  0  0  0  0  0  0  # atno 17342 bound_to 10162
  139.5004  144.3906  152.0283 LP  0  0  0  0  0  0  0  0  0  0  0  0  # atno 17343 bound_to 10162
  156.5916  130.4330  149.5934 LP  0  0  0  0  0  0  0  0  0  0  0  0  # atno 17370 bound_to 10713
  156.2579  130.6945  151.1704 LP  0  0  0  0  0  0  0  0  0  0  0  0  # atno 17371 bound_to 10713
  141.2166  133.7511  156.9444 LP  0  0  0  0  0  0  0  0  0  0  0  0  # atno 17394 bound_to 11000
  140.1306  134.9358  157.2331 LP  0  0  0  0  0  0  0  0  0  0  0  0  # atno 17395 bound_to 11000

$$$$
