AV-unprocessed.smi:2358|AV-procd|sdf|9405|dock10
  -GOLD-   2272013 43D 1   1.00000     0.00000
 Structure written by MMmdl.
 46 48  0  0  0  0  0  0  0  0  2 V2000
  151.4094  144.4731  158.8372 C   0  0  0  0  0  0  0  0  0  0  0  0
  152.0959  143.6759  159.9272 C   0  0  0  0  0  0  0  0  0  0  0  0
  152.2735  144.2309  161.2101 C   0  0  0  0  0  0  0  0  0  0  0  0
  152.9078  143.4835  162.2211 C   0  0  0  0  0  0  0  0  0  0  0  0
  153.0958  144.0863  163.5980 C   0  0  0  0  0  0  0  0  0  0  0  0
  153.3647  142.1788  161.9443 C   0  0  0  0  0  0  0  0  0  0  0  0
  153.1955  141.6086  160.6660 C   0  0  0  0  0  0  0  0  0  0  0  0
  153.6720  140.3278  160.4856 O   0  0  0  0  0  0  0  0  0  0  0  0
  153.2333  139.5992  159.3466 C   0  0  0  0  0  0  0  0  0  0  0  0
  154.2318  138.4636  159.0675 C   0  0  2  0  0  0  0  0  0  0  0  0
  155.4497  139.0636  158.6691 O   0  0  0  0  0  0  0  0  0  0  0  0
  153.7574  137.5494  157.9161 C   0  0  0  0  0  0  0  0  0  0  0  0
  154.8122  136.6263  157.4806 N   0  0  0  0  0  0  0  0  0  0  0  0
  155.5953  137.1156  156.4506 N   0  0  0  0  0  0  0  0  0  0  0  0
  156.5784  136.4204  155.9758 C   0  0  0  0  0  0  0  0  0  0  0  0
  157.4395  136.8939  154.9051 N   0  0  0  0  0  0  0  0  0  0  0  0
  157.4344  138.0893  154.2269 C   0  0  0  0  0  0  0  0  0  0  0  0
  158.4548  138.0148  153.3131 C   0  0  0  0  0  0  0  0  0  0  0  0
  159.0358  136.7841  153.4721 N   0  3  0  0  0  0  0  0  0  0  0  0
  158.4183  136.1002  154.4415 C   0  0  0  0  0  0  0  0  0  0  0  0
  156.8610  135.1014  156.5204 C   0  0  0  0  0  0  0  0  0  0  0  0
  156.0925  134.6336  157.5276 C   0  0  0  0  0  0  0  0  0  0  0  0
  154.9875  135.4131  158.0830 C   0  0  0  0  0  0  0  0  0  0  0  0
  154.2830  135.0173  159.0110 O   0  0  0  0  0  0  0  0  0  0  0  0
  152.5548  142.3707  159.6566 C   0  0  0  0  0  0  0  0  0  0  0  0
  151.2695  145.5133  159.1331 H   0  0  0  0  0  0  0  0  0  0  0  0
  150.4308  144.0450  158.6190 H   0  0  0  0  0  0  0  0  0  0  0  0
  152.0030  144.4574  157.9229 H   0  0  0  0  0  0  0  0  0  0  0  0
  151.9228  145.2308  161.4215 H   0  0  0  0  0  0  0  0  0  0  0  0
  153.4998  143.3570  164.3009 H   0  0  0  0  0  0  0  0  0  0  0  0
  152.1424  144.4422  163.9892 H   0  0  0  0  0  0  0  0  0  0  0  0
  153.7839  144.9305  163.5487 H   0  0  0  0  0  0  0  0  0  0  0  0
  153.8515  141.6040  162.7188 H   0  0  0  0  0  0  0  0  0  0  0  0
  152.2547  139.1722  159.5729 H   0  0  0  0  0  0  0  0  0  0  0  0
  153.1220  140.2447  158.4732 H   0  0  0  0  0  0  0  0  0  0  0  0
  154.3827  137.8815  159.9778 H   0  0  0  0  0  0  0  0  0  0  0  0
  156.0670  138.3790  158.4611 H   0  0  0  0  0  0  0  0  0  0  0  0
  152.8939  136.9638  158.2366 H   0  0  0  0  0  0  0  0  0  0  0  0
  153.3903  138.1456  157.0782 H   0  0  0  0  0  0  0  0  0  0  0  0
  156.7361  138.8887  154.4243 H   0  0  0  0  0  0  0  0  0  0  0  0
  158.8015  138.7282  152.5795 H   0  0  0  0  0  0  0  0  0  0  0  0
  158.6702  135.1069  154.7701 H   0  0  0  0  0  0  0  0  0  0  0  0
  157.6677  134.4944  156.1409 H   0  0  0  0  0  0  0  0  0  0  0  0
  156.2996  133.6561  157.9378 H   0  0  0  0  0  0  0  0  0  0  0  0
  152.4021  141.9731  158.6647 H   0  0  0  0  0  0  0  0  0  0  0  0
  159.8203  136.4384  152.9334 H   0  0  0  0  0  0  0  0  0  0  0  0
  1  2  1  0  0  0  0
  1 26  1  0  0  0  0
  1 27  1  0  0  0  0
  1 28  1  0  0  0  0
  2 25  1  0  0  0  0
  2  3  2  0  0  0  0
  3  4  1  0  0  0  0
  3 29  1  0  0  0  0
  4  5  1  0  0  0  0
  4  6  2  0  0  0  0
  5 30  1  0  0  0  0
  5 31  1  0  0  0  0
  5 32  1  0  0  0  0
  6  7  1  0  0  0  0
  6 33  1  0  0  0  0
  7  8  1  0  0  0  0
  7 25  2  0  0  0  0
  8  9  1  0  0  0  0
  9 10  1  0  0  0  0
  9 34  1  0  0  0  0
  9 35  1  0  0  0  0
 10 11  1  0  0  0  0
 10 12  1  0  0  0  0
 10 36  1  0  0  0  0
 11 37  1  0  0  0  0
 12 13  1  0  0  0  0
 12 38  1  0  0  0  0
 12 39  1  0  0  0  0
 13 23  1  0  0  0  0
 13 14  1  0  0  0  0
 14 15  2  0  0  0  0
 15 16  1  0  0  0  0
 15 21  1  0  0  0  0
 16 20  1  0  0  0  0
 16 17  1  0  0  0  0
 17 18  2  0  0  0  0
 17 40  1  0  0  0  0
 18 19  1  0  0  0  0
 18 41  1  0  0  0  0
 19 20  2  0  0  0  0
 19 46  1  0  0  0  0
 20 42  1  0  0  0  0
 21 22  2  0  0  0  0
 21 43  1  0  0  0  0
 22 23  1  0  0  0  0
 22 44  1  0  0  0  0
 23 24  2  0  0  0  0
 25 45  1  0  0  0  0
M  CHG  1  19   1
M  END
> <s_m_source_file>
AV-unprocessed.smi

> <i_m_source_file_index>
2358

> <i_lp_mmshare_version>
43012

> <i_f3d_flags>
0

> <s_epik_input>
W0NIM11jMVtjSF1jKFtDSDNdKVtjSF1jKFtjSF0xKU9bQ0gyXVtDQEhdKFtPSF0pW0NIMl1uMm5jKFtjSF1bY0hdYzI9TyktbjNbY0hdW2NIXW5bY0hdMw==

> <s_epik_cmdline>
J2VwaWtfcHl0aG9uJywgJy1waCcsICc3LjAnLCAnLXRuJywgJzgnLCAnLW1hJywgJzIwMCcsICctbWV0YWxfYmluZGluZycsICctaW1hZScsICc8aW5maWxlLm1hZT4nLCAnLW9tYWUnLCAnPG91dGZpbGUubWFlPic=

> <r_lp_tautomer_probability>
1

> <r_epik_Ionization_Penalty>
1.66053

> <r_epik_Ionization_Penalty_Charging>
2.42216e-09

> <r_epik_Ionization_Penalty_Neutral>
1.66053

> <r_epik_State_Penalty>
1.76336

> <r_epik_Charging_Adjusted_Penalty>
1.76336

> <i_epik_Tot_Q>
1

> <i_epik_Tot_abs_Q>
1

> <r_epik_Metal_State_Penalty>
1.79856

> <b_epik_Metal_Only>
0

> <s_lp_Force_Field>
OPLS_2005

> <r_lp_Energy>
37.8442

> <b_lp_Chiralities_Consistent>
1

> <s_lp_Variant>
AV-unprocessed.smi:2358-3

> <Gold.Version>
5.8.1

> <Gold.Id.Protein>
6NUR|6NUR_protein|mol2

> <Gold.PLP.Fitness>
50.1739

> <Gold.PLP.PLP>
-45.6138

> <Gold.PLP.part.hbond>
-3.2202

> <Gold.PLP.part.metal>
0.0000

> <Gold.PLP.part.buried>
-4.0543

> <Gold.PLP.part.nonpolar>
-38.4652

> <Gold.PLP.part.repulsive>
0.0181

> <Gold.PLP.ligand.clash>
0.0000

> <Gold.PLP.ligand.torsion>
0.7317

> <Gold.PLP.Chemscore.Hbond>
1.9913

> <Gold.PLP.Chemscore.CHOScore>
0.0000

> <Gold.PLP.Chemscore.Metal>
0.0000

> <Gold.Chemscore.Hbonds>
donor molecule, donor type, donor heavy atom, donor atom, acceptor molecule, acceptor atom, score
      P1  H  6896  6907       L1    24  1.00
      P1  H  7997  8009       L1    11  1.00

> <Gold.PLP.Chemscore.Internal.Correction>
0.0497

> <Gold.Rescore>
     Score         DG    S(hbond)    S(metal)    S(lipo)     H(rot)  DE(clash)    DE(int)     intcor
     17.62     -19.41       1.80        0.00     125.81       2.65       0.31       1.49       ----

> <Gold.Chemscore.Fitness>
17.6162

> <Gold.Chemscore.DG>
-19.4150

> <Gold.Chemscore.ZeroCoef>
-5.4800

> <Gold.Chemscore.Hbond>
1.7990

> <Gold.Chemscore.Metal>
0.0000

> <Gold.Chemscore.Lipo>
125.8088

> <Gold.Chemscore.Internal_Hbond>
0.0000

> <Gold.Chemscore.DEClash>
0.3091

> <Gold.Chemscore.DEInternal>
1.4897

> <Gold.Chemscore.Rot>
2.6537

> <Gold.Chemscore.Internal.Correction>
   9.000000E+99

> <Gold.Chemscore.Hbonds>
donor molecule, donor type, donor heavy atom, donor atom, acceptor molecule, acceptor atom, score
      P1  H  6896  6907       L1    24  0.92
      P1  H  7997  8009       L1    11  0.30

> <Gold.Chemscore.Hbond.Weighted>
-6.0088

> <Gold.Chemscore.Metal.Weighted>
-0.0000

> <Gold.Chemscore.Lipo.Weighted>
-14.7196

> <Gold.Chemscore.Internal_Hbond.Weighted>
0.0000

> <Gold.Chemscore.DEClash.Weighted>
0.3091

> <Gold.Chemscore.DEInternal.Weighted>
1.4897

> <Gold.Chemscore.Rot.Weighted>
6.7935

> <Gold.Chemscore.Internal.Correction.Weighted>
   9.000000E+99

> <Gold.Protein.RotatedTorsions>
[ 6907 6896 6895 6894 ] final   80.46 input  -60.11 | X-H torsion
[ 7974 7965 7964 7962 ] final  153.19 input  175.53 | X-H torsion
[ 8008 7997 7996 7995 ] final   90.94 input   59.86 | X-H torsion
[ 10167 10162 10161 10158 ] final  176.85 input  -65.29 | X-H torsion
[ 10718 10713 10712 10709 ] final  -55.05 input   66.30 | X-H torsion
[ 10763 10752 10751 10750 ] final  171.53 input  -60.55 | X-H torsion
[ 11005 11000 10999 10996 ] final  -41.24 input  -57.11 | X-H torsion

> <Gold.Protein.ActiveResidues>
 VAL166  LYS551  ARG553  GLY616  TRP617  ASP618  TYR619  PRO620  LYS621  CYS622 
 ASP623  PHE694  ASN695  SER759  ASP760  ASP761  ALA762  ILE779  LEU786  VAL792 
 PHE793  MET794  SER795  GLU796  ALA797  LYS798  CYS799  TRP800  GLU811  SER814 

> <Gold.Protein.RotatedAtoms>
  152.5235  134.3354  159.9197 H   0  0  0  0  0  0  0  0  0  0  0  0  # atno 6907 bound_to 6896
  151.3303  133.3997  159.2670 H   0  0  0  0  0  0  0  0  0  0  0  0  # atno 6908 bound_to 6896
  150.9886  134.9243  159.7944 H   0  0  0  0  0  0  0  0  0  0  0  0  # atno 6909 bound_to 6896
  144.8171  139.6767  143.6116 H   0  0  0  0  0  0  0  0  0  0  0  0  # atno 7974 bound_to 7965
  156.0180  140.3343  155.7009 H   0  0  0  0  0  0  0  0  0  0  0  0  # atno 8008 bound_to 7997
  155.6064  140.0661  157.2736 H   0  0  0  0  0  0  0  0  0  0  0  0  # atno 8009 bound_to 7997
  154.4305  140.1801  156.1214 H   0  0  0  0  0  0  0  0  0  0  0  0  # atno 8010 bound_to 7997
  139.5230  144.2868  152.0499 H   0  0  0  0  0  0  0  0  0  0  0  0  # atno 10167 bound_to 10162
  156.1400  130.4155  150.0120 H   0  0  0  0  0  0  0  0  0  0  0  0  # atno 10718 bound_to 10713
  154.4132  135.2756  155.2023 H   0  0  0  0  0  0  0  0  0  0  0  0  # atno 10763 bound_to 10752
  154.4000  135.6046  153.5895 H   0  0  0  0  0  0  0  0  0  0  0  0  # atno 10764 bound_to 10752
  152.9831  135.5924  154.4417 H   0  0  0  0  0  0  0  0  0  0  0  0  # atno 10765 bound_to 10752
  141.0232  133.6853  156.2430 H   0  0  0  0  0  0  0  0  0  0  0  0  # atno 11005 bound_to 11000
  146.2475  139.6129  142.9449 LP  0  0  0  0  0  0  0  0  0  0  0  0  # atno 17320 bound_to 7965
  145.5189  141.0433  143.2446 LP  0  0  0  0  0  0  0  0  0  0  0  0  # atno 17321 bound_to 7965
  140.2320  144.4358  150.6296 LP  0  0  0  0  0  0  0  0  0  0  0  0  # atno 17342 bound_to 10162
  140.6348  143.2193  151.6417 LP  0  0  0  0  0  0  0  0  0  0  0  0  # atno 17343 bound_to 10162
  156.8008  130.9290  151.3646 LP  0  0  0  0  0  0  0  0  0  0  0  0  # atno 17370 bound_to 10713
  157.6567  130.8930  149.9743 LP  0  0  0  0  0  0  0  0  0  0  0  0  # atno 17371 bound_to 10713
  140.6537  134.5040  157.5579 LP  0  0  0  0  0  0  0  0  0  0  0  0  # atno 17394 bound_to 11000
  139.9159  134.8247  156.1368 LP  0  0  0  0  0  0  0  0  0  0  0  0  # atno 17395 bound_to 11000

$$$$
