AV-unprocessed.smi:2821|AV-procd|sdf|10859|dock7
  -GOLD-   2272015303D 1   1.00000     0.00000
 Structure written by MMmdl.
 36 37  0  0  0  0  0  0  0  0  1 V2000
  146.1988  142.0527  155.1840 C   0  0  0  0  0  0  0  0  0  0  0  0
  146.7821  141.8693  153.7811 C   0  0  0  0  0  0  0  0  0  0  0  0
  147.5840  140.6922  153.7687 O   0  0  0  0  0  0  0  0  0  0  0  0
  148.7931  140.7193  154.4323 C   0  0  0  0  0  0  0  0  0  0  0  0
  149.7602  139.7284  154.1597 C   0  0  0  0  0  0  0  0  0  0  0  0
  150.9646  139.7171  154.7722 N   0  0  0  0  0  0  0  0  0  0  0  0
  151.2014  140.7079  155.6600 C   0  0  0  0  0  0  0  0  0  0  0  0
  150.2446  141.7079  155.9413 C   0  0  0  0  0  0  0  0  0  0  0  0
  150.5562  142.7151  156.8661 N   0  0  0  0  0  0  0  0  0  0  0  0
  150.5921  142.4578  158.3053 C   0  0  1  0  0  0  0  0  0  0  0  0
  150.4694  140.9489  158.5629 C   0  0  0  0  0  0  0  0  0  0  0  0
  151.8570  143.0394  158.9854 C   0  0  1  0  0  0  0  0  0  0  0  0
  152.0096  144.5709  158.9311 C   0  0  0  0  0  0  0  0  0  0  0  0
  151.9291  144.9901  160.3863 C   0  0  0  0  0  0  0  0  0  0  0  0
  152.4551  143.7564  161.1054 C   0  0  0  0  0  0  0  0  0  0  0  0
  151.8921  142.6856  160.3660 O   0  0  0  0  0  0  0  0  0  0  0  0
  149.0348  141.7044  155.3331 N   0  0  0  0  0  0  0  0  0  0  0  0
  145.5807  142.9492  155.2342 H   0  0  0  0  0  0  0  0  0  0  0  0
  146.9903  142.1496  155.9273 H   0  0  0  0  0  0  0  0  0  0  0  0
  145.5774  141.2017  155.4634 H   0  0  0  0  0  0  0  0  0  0  0  0
  145.9700  141.7862  153.0565 H   0  0  0  0  0  0  0  0  0  0  0  0
  147.3829  142.7412  153.5168 H   0  0  0  0  0  0  0  0  0  0  0  0
  149.5677  138.9430  153.4438 H   0  0  0  0  0  0  0  0  0  0  0  0
  152.1668  140.7043  156.1450 H   0  0  0  0  0  0  0  0  0  0  0  0
  150.4796  143.6761  156.5664 H   0  0  0  0  0  0  0  0  0  0  0  0
  149.7174  142.9186  158.7655 H   0  0  0  0  0  0  0  0  0  0  0  0
  150.4468  140.7338  159.6315 H   0  0  0  0  0  0  0  0  0  0  0  0
  151.3051  140.3972  158.1311 H   0  0  0  0  0  0  0  0  0  0  0  0
  149.5505  140.5513  158.1307 H   0  0  0  0  0  0  0  0  0  0  0  0
  152.7399  142.5868  158.5315 H   0  0  0  0  0  0  0  0  0  0  0  0
  152.9891  144.8273  158.5254 H   0  0  0  0  0  0  0  0  0  0  0  0
  151.2606  145.0706  158.3167 H   0  0  0  0  0  0  0  0  0  0  0  0
  152.5027  145.8907  160.6060 H   0  0  0  0  0  0  0  0  0  0  0  0
  150.8903  145.1681  160.6675 H   0  0  0  0  0  0  0  0  0  0  0  0
  153.5436  143.7062  161.0490 H   0  0  0  0  0  0  0  0  0  0  0  0
  152.1590  143.7188  162.1538 H   0  0  0  0  0  0  0  0  0  0  0  0
  1  2  1  0  0  0  0
  1 18  1  0  0  0  0
  1 19  1  0  0  0  0
  1 20  1  0  0  0  0
  2  3  1  0  0  0  0
  2 21  1  0  0  0  0
  2 22  1  0  0  0  0
  3  4  1  0  0  0  0
  4 17  1  0  0  0  0
  4  5  2  0  0  0  0
  5  6  1  0  0  0  0
  5 23  1  0  0  0  0
  6  7  2  0  0  0  0
  7  8  1  0  0  0  0
  7 24  1  0  0  0  0
  8  9  1  0  0  0  0
  8 17  2  0  0  0  0
  9 10  1  0  0  0  0
  9 25  1  0  0  0  0
 10 11  1  0  0  0  0
 10 12  1  0  0  0  0
 10 26  1  0  0  0  0
 11 27  1  0  0  0  0
 11 28  1  0  0  0  0
 11 29  1  0  0  0  0
 12 16  1  0  0  0  0
 12 13  1  0  0  0  0
 12 30  1  0  0  0  0
 13 14  1  0  0  0  0
 13 31  1  0  0  0  0
 13 32  1  0  0  0  0
 14 15  1  0  0  0  0
 14 33  1  0  0  0  0
 14 34  1  0  0  0  0
 15 16  1  0  0  0  0
 15 35  1  0  0  0  0
 15 36  1  0  0  0  0
M  END
> <s_m_source_file>
AV-unprocessed.smi

> <i_m_source_file_index>
2821

> <i_lp_mmshare_version>
43012

> <i_f3d_flags>
0

> <s_epik_input>
W0NIM11bQ0gyXU9jMVtjSF1uW2NIXWMobjEpW05IXVtDQEhdKFtDSDNdKVtDQEBIXTJbQ0gyXVtDSDJdW0NIMl1PMg==

> <s_epik_cmdline>
J2VwaWtfcHl0aG9uJywgJy1waCcsICc3LjAnLCAnLXRuJywgJzgnLCAnLW1hJywgJzIwMCcsICctbWV0YWxfYmluZGluZycsICctaW1hZScsICc8aW5maWxlLm1hZT4nLCAnLW9tYWUnLCAnPG91dGZpbGUubWFlPic=

> <r_lp_tautomer_probability>
1

> <r_epik_Ionization_Penalty>
4.69533e-05

> <r_epik_Ionization_Penalty_Charging>
0

> <r_epik_Ionization_Penalty_Neutral>
4.69533e-05

> <r_epik_State_Penalty>
-0

> <r_epik_Charging_Adjusted_Penalty>
0

> <i_epik_Tot_Q>
0

> <i_epik_Tot_abs_Q>
0

> <r_epik_Metal_State_Penalty>
-0

> <b_epik_Metal_Only>
0

> <s_lp_Force_Field>
OPLS_2005

> <r_lp_Energy>
30.0608

> <b_lp_Chiralities_Consistent>
1

> <s_lp_Variant>
AV-unprocessed.smi:2821-4

> <Gold.Version>
5.8.1

> <Gold.Id.Protein>
6NUR|6NUR_protein|mol2

> <Gold.PLP.Fitness>
39.0644

> <Gold.PLP.PLP>
-37.6705

> <Gold.PLP.part.hbond>
-2.2315

> <Gold.PLP.part.metal>
0.0000

> <Gold.PLP.part.buried>
-3.9210

> <Gold.PLP.part.nonpolar>
-31.3222

> <Gold.PLP.part.repulsive>
1.0172

> <Gold.PLP.ligand.clash>
0.4195

> <Gold.PLP.ligand.torsion>
1.0867

> <Gold.PLP.Chemscore.Hbond>
0.7788

> <Gold.PLP.Chemscore.CHOScore>
0.5368

> <Gold.PLP.Chemscore.Metal>
0.0000

> <Gold.Chemscore.Hbonds>
donor molecule, donor type, donor heavy atom, donor atom, acceptor molecule, acceptor atom, score
      L1  H     9    25       P1  8028  0.53
      P1  H  7989  7998       L1     6  0.15
      L1  C     5    23       P1  7957  0.54

> <Gold.PLP.Chemscore.Internal.Correction>
0.0400

> <Gold.Rescore>
     Score         DG    S(hbond)    S(metal)    S(lipo)     H(rot)  DE(clash)    DE(int)     intcor
     13.26     -14.28       0.95        0.00      81.91       1.55       0.02       1.00       ----

> <Gold.Chemscore.Fitness>
13.2567

> <Gold.Chemscore.DG>
-14.2770

> <Gold.Chemscore.ZeroCoef>
-5.4800

> <Gold.Chemscore.Hbond>
0.9537

> <Gold.Chemscore.Metal>
0.0000

> <Gold.Chemscore.Lipo>
81.9062

> <Gold.Chemscore.Internal_Hbond>
0.0000

> <Gold.Chemscore.DEClash>
0.0222

> <Gold.Chemscore.DEInternal>
0.9981

> <Gold.Chemscore.Rot>
1.5514

> <Gold.Chemscore.Internal.Correction>
   9.000000E+99

> <Gold.Chemscore.Hbonds>
donor molecule, donor type, donor heavy atom, donor atom, acceptor molecule, acceptor atom, score
      L1  H     9    25       P1  8028  0.53

> <Gold.Chemscore.Hbond.Weighted>
-3.1855

> <Gold.Chemscore.Metal.Weighted>
-0.0000

> <Gold.Chemscore.Lipo.Weighted>
-9.5830

> <Gold.Chemscore.Internal_Hbond.Weighted>
0.0000

> <Gold.Chemscore.DEClash.Weighted>
0.0222

> <Gold.Chemscore.DEInternal.Weighted>
0.9981

> <Gold.Chemscore.Rot.Weighted>
3.9715

> <Gold.Chemscore.Internal.Correction.Weighted>
   9.000000E+99

> <Gold.Protein.RotatedTorsions>
[ 6907 6896 6895 6894 ] final -165.31 input  -60.11 | X-H torsion
[ 7974 7965 7964 7962 ] final  111.40 input  175.53 | X-H torsion
[ 8008 7997 7996 7995 ] final -127.92 input   59.86 | X-H torsion
[ 10167 10162 10161 10158 ] final  144.84 input  -65.29 | X-H torsion
[ 10718 10713 10712 10709 ] final   69.60 input   66.30 | X-H torsion
[ 10763 10752 10751 10750 ] final  120.45 input  -60.55 | X-H torsion
[ 11005 11000 10999 10996 ] final   32.63 input  -57.11 | X-H torsion

> <Gold.Protein.ActiveResidues>
 VAL166  LYS551  ARG553  GLY616  TRP617  ASP618  TYR619  PRO620  LYS621  CYS622 
 ASP623  PHE694  ASN695  SER759  ASP760  ASP761  ALA762  ILE779  LEU786  VAL792 
 PHE793  MET794  SER795  GLU796  ALA797  LYS798  CYS799  TRP800  GLU811  SER814 

> <Gold.Protein.RotatedAtoms>
  151.4256  133.3685  159.2761 H   0  0  0  0  0  0  0  0  0  0  0  0  # atno 6907 bound_to 6896
  150.9262  134.8680  159.7532 H   0  0  0  0  0  0  0  0  0  0  0  0  # atno 6908 bound_to 6896
  152.5006  134.4197  159.9528 H   0  0  0  0  0  0  0  0  0  0  0  0  # atno 6909 bound_to 6896
  145.2427  139.2772  143.4109 H   0  0  0  0  0  0  0  0  0  0  0  0  # atno 7974 bound_to 7965
  155.2542  140.0433  157.2990 H   0  0  0  0  0  0  0  0  0  0  0  0  # atno 8008 bound_to 7997
  154.5750  140.2384  155.8105 H   0  0  0  0  0  0  0  0  0  0  0  0  # atno 8009 bound_to 7997
  156.2151  140.2987  155.9829 H   0  0  0  0  0  0  0  0  0  0  0  0  # atno 8010 bound_to 7997
  139.4938  144.5944  151.6614 H   0  0  0  0  0  0  0  0  0  0  0  0  # atno 10167 bound_to 10162
  157.6355  130.9434  150.0536 H   0  0  0  0  0  0  0  0  0  0  0  0  # atno 10718 bound_to 10713
  153.5988  135.3452  155.2937 H   0  0  0  0  0  0  0  0  0  0  0  0  # atno 10763 bound_to 10752
  154.8640  135.4222  154.2436 H   0  0  0  0  0  0  0  0  0  0  0  0  # atno 10764 bound_to 10752
  153.3260  135.7041  153.7061 H   0  0  0  0  0  0  0  0  0  0  0  0  # atno 10765 bound_to 10752
  140.2715  134.3077  155.7826 H   0  0  0  0  0  0  0  0  0  0  0  0  # atno 11005 bound_to 11000
  146.3324  140.2795  142.8609 LP  0  0  0  0  0  0  0  0  0  0  0  0  # atno 17320 bound_to 7965
  144.9574  140.8240  143.5534 LP  0  0  0  0  0  0  0  0  0  0  0  0  # atno 17321 bound_to 7965
  140.5578  144.0318  150.6156 LP  0  0  0  0  0  0  0  0  0  0  0  0  # atno 17342 bound_to 10162
  140.3394  143.3029  152.0604 LP  0  0  0  0  0  0  0  0  0  0  0  0  # atno 17343 bound_to 10162
  156.1590  130.3643  149.9327 LP  0  0  0  0  0  0  0  0  0  0  0  0  # atno 17370 bound_to 10713
  156.7329  130.9050  151.3627 LP  0  0  0  0  0  0  0  0  0  0  0  0  # atno 17371 bound_to 10713
  141.2176  133.7470  156.9342 LP  0  0  0  0  0  0  0  0  0  0  0  0  # atno 17394 bound_to 11000
  140.1369  134.9319  157.2413 LP  0  0  0  0  0  0  0  0  0  0  0  0  # atno 17395 bound_to 11000

$$$$
