#       Name:                AV-unprocessed.smi:2607
#       Creating user name   scv26
#       Creation time:       Fri Mar 27 14:21:10 2020


#       File generated by GOLD software.
#

@<TRIPOS>MOLECULE
AV-unprocessed.smi:2607
    28    29     1
SMALL
NO_CHARGES


@<TRIPOS>ATOM
      1 ****        -1.9386  -0.1855   0.8945 C.3            1 S1                 0.0000
      2 ****        -0.4239  -0.4206   0.7255 C.3            1 S1                 0.0000
      3 ****         0.1553   0.3994  -0.4411 C.ar           1 S1                 0.0000
      4 ****         0.7527  -0.2056  -1.5768 C.ar           1 S1                 0.0000
      5 ****         1.2612   0.5222  -2.5961 N.ar           1 S1                 0.0000
      6 ****         1.1749   1.8651  -2.4839 C.ar           1 S1                 0.0000
      7 ****         0.5810   2.4777  -1.3617 C.ar           1 S1                 0.0000
      8 ****         0.0706   1.7506  -0.3446 N.ar           1 S1                 0.0000
      9 ****        -0.1825  -1.8449   0.5919 N.am           1 S1                 0.0000
     10 ****         0.5991  -2.3077   1.5651 C.2            1 S1                 0.0000
     11 ****         0.9401  -3.4873   1.6138 O.2            1 S1                 0.0000
     12 ****         0.9140  -1.3149   2.4178 N.pl3          1 S1                -1.0000
     13 ****         0.3433  -0.1523   2.0324 C.2            1 S1                 0.0000
     14 ****         0.3650   0.9515   2.5765 O.2            1 S1                 0.0000
     15 ****        -2.1647   0.8672   1.0674 H              1 S1                 0.0000
     16 ****        -2.3405  -0.7469   1.7392 H              1 S1                 0.0000
     17 ****        -2.4846  -0.4967   0.0035 H              1 S1                 0.0000
     18 ****         0.8315  -1.2770  -1.6832 H              1 S1                 0.0000
     19 ****         1.5806   2.4544  -3.2927 H              1 S1                 0.0000
     20 ****         0.5145   3.5525  -1.2808 H              1 S1                 0.0000
     21 ****        -0.5490  -2.4013  -0.1660 H              1 S1                 0.0000
     22 ****         1.6803   0.0878  -3.3934 LP             1 S1                 0.0000
     23 ****        -0.3527   2.1900   0.4477 LP             1 S1                 0.0000
     24 ****         0.6296  -4.1270   0.9106 LP             1 S1                 0.0000
     25 ****         1.5281  -3.8075   2.3566 LP             1 S1                 0.0000
     26 ****         1.4919  -1.4231   3.2267 LP             1 S1                 0.0000
     27 ****        -0.1295   1.7194   2.1694 LP             1 S1                 0.0000
     28 ****         0.8771   1.0804   3.4256 LP             1 S1                 0.0000
@<TRIPOS>BOND
    1    1    2 1     
    2    1   15 1     
    3    1   16 1     
    4    1   17 1     
    5    2   13 1     
    6    2    3 1     
    7    2    9 1     
    8    3    8 ar    
    9    3    4 ar    
   10    4    5 ar    
   11    4   18 1     
   12    5    6 ar    
   13    6    7 ar    
   14    6   19 1     
   15    7    8 ar    
   16    7   20 1     
   17    9   10 am    
   18    9   21 1     
   19   10   11 2     
   20   10   12 1     
   21   12   13 1     
   22   13   14 2     
   23    5   22 1     
   24    8   23 1     
   25   11   24 1     
   26   11   25 1     
   27   12   26 1     
   28   14   27 1     
   29   14   28 1     
@<TRIPOS>SUBSTRUCTURE
      1 S1             1
@<TRIPOS>SET
LONE_PAIRS      STATIC     ATOMS    <user>   **** ""
7 22 23 24 25 26 27 28
DONOR_HYDROGENS      STATIC     ATOMS    <user>   **** ""
1 21
ATOM$BLUE        STATIC     ATOMS    COLORGROUP SYSTEM
7 22 23 24 25 26 27 28
ATOM$RED        STATIC     ATOMS    COLORGROUP SYSTEM
1 21
