#       Name:                AV-unprocessed.smi:2051
#       Creating user name   scv26
#       Creation time:       Fri Mar 27 10:59:14 2020


#       File generated by GOLD software.
#

@<TRIPOS>MOLECULE
AV-unprocessed.smi:2051
    39    40     1
SMALL
NO_CHARGES


@<TRIPOS>ATOM
      1 ****        -0.3732  -0.0325   1.6027 O.2            1 S1                 0.0000
      2 ****         0.4003  -0.8408   1.0877 C.2            1 S1                 0.0000
      3 ****         1.9190  -0.6569   1.2123 C.3            1 S1                 0.0000
      4 ****         2.3213   0.7573   1.2906 N.am           1 S1                 0.0000
      5 ****         2.6257   1.2702   2.5672 C.2            1 S1                 0.0000
      6 ****         3.0006   2.5463   2.7488 C.2            1 S1                 0.0000
      7 ****         3.0888   3.4033   1.5904 C.2            1 S1                 0.0000
      8 ****         2.7968   2.9240   0.3650 C.2            1 S1                 0.0000
      9 ****         2.3848   1.5302   0.1621 C.2            1 S1                 0.0000
     10 ****         2.1133   1.0847  -0.9536 O.2            1 S1                 0.0000
     11 ****        -0.0090  -1.9209   0.4052 N.am           1 S1                 0.0000
     12 ****        -1.3983  -2.2705   0.1280 C.3            1 S1                 0.0000
     13 ****        -1.8409  -1.7788  -1.2611 C.3            1 S1                 0.0000
     14 ****        -1.8748  -0.2596  -1.4349 C.3            1 S1                 0.0000
     15 ****        -2.8638  -0.1074  -2.5671 C.3            1 S1                 0.0000
     16 ****        -3.8862  -1.1904  -2.2342 C.3            1 S1                 0.0000
     17 ****        -3.1720  -2.2077  -1.5351 O.3            1 S1                 0.0000
     18 ****         2.2552  -1.2046   2.0935 H              1 S1                 0.0000
     19 ****         2.4190  -1.1367   0.3685 H              1 S1                 0.0000
     20 ****         2.5285   0.5674   3.3819 H              1 S1                 0.0000
     21 ****         3.2264   2.9230   3.7354 H              1 S1                 0.0000
     22 ****         3.3890   4.4343   1.7072 H              1 S1                 0.0000
     23 ****         2.8673   3.5802  -0.4901 H              1 S1                 0.0000
     24 ****         0.6967  -2.5347   0.0247 H              1 S1                 0.0000
     25 ****        -1.4816  -3.3566   0.1712 H              1 S1                 0.0000
     26 ****        -2.0643  -1.8839   0.9012 H              1 S1                 0.0000
     27 ****        -1.1972  -2.2107  -2.0292 H              1 S1                 0.0000
     28 ****        -2.2615   0.2229  -0.5362 H              1 S1                 0.0000
     29 ****        -0.8967   0.1673  -1.6598 H              1 S1                 0.0000
     30 ****        -3.3011   0.8895  -2.6260 H              1 S1                 0.0000
     31 ****        -2.3785  -0.3262  -3.5192 H              1 S1                 0.0000
     32 ****        -4.6580  -0.7954  -1.5727 H              1 S1                 0.0000
     33 ****        -4.3742  -1.5867  -3.1250 H              1 S1                 0.0000
     34 ****        -0.0133   0.7521   2.1075 LP             1 S1                 0.0000
     35 ****        -1.3612  -0.1608   1.5161 LP             1 S1                 0.0000
     36 ****         1.8356   0.1296  -1.0566 LP             1 S1                 0.0000
     37 ****         2.1705   1.6781  -1.7564 LP             1 S1                 0.0000
     38 ****        -3.6389  -2.4054  -0.6731 LP             1 S1                 0.0000
     39 ****        -3.1431  -3.0351  -2.0959 LP             1 S1                 0.0000
@<TRIPOS>BOND
    1    1    2 2     
    2    2    3 1     
    3    2   11 am    
    4    3    4 1     
    5    3   18 1     
    6    3   19 1     
    7    4    9 am    
    8    4    5 1     
    9    5    6 2     
   10    5   20 1     
   11    6    7 1     
   12    6   21 1     
   13    7    8 2     
   14    7   22 1     
   15    8    9 1     
   16    8   23 1     
   17    9   10 2     
   18   11   12 1     
   19   11   24 1     
   20   12   13 1     
   21   12   25 1     
   22   12   26 1     
   23   13   17 1     
   24   13   14 1     
   25   13   27 1     
   26   14   15 1     
   27   14   28 1     
   28   14   29 1     
   29   15   16 1     
   30   15   30 1     
   31   15   31 1     
   32   16   17 1     
   33   16   32 1     
   34   16   33 1     
   35    1   34 1     
   36    1   35 1     
   37   10   36 1     
   38   10   37 1     
   39   17   38 1     
   40   17   39 1     
@<TRIPOS>SUBSTRUCTURE
      1 S1             1
@<TRIPOS>SET
LONE_PAIRS      STATIC     ATOMS    <user>   **** ""
6 34 35 36 37 38 39
DONOR_HYDROGENS      STATIC     ATOMS    <user>   **** ""
1 24
ATOM$BLUE        STATIC     ATOMS    COLORGROUP SYSTEM
6 34 35 36 37 38 39
ATOM$RED        STATIC     ATOMS    COLORGROUP SYSTEM
1 24
