AV-unprocessed.smi:159|AV-procd|sdf|1341|dock8
  -GOLD-   2262019 43D 1   1.00000     0.00000
 Structure written by MMmdl.
 28 29  0  0  0  0  0  0  0  0  1 V2000
  150.5537  139.5074  154.4742 N   0  0  0  0  0  0  0  0  0  0  0  0
  150.8747  140.2611  155.5348 C   0  0  0  0  0  0  0  0  0  0  0  0
  150.2510  141.5499  155.7285 C   0  0  0  0  0  0  0  0  0  0  0  0
  150.6255  142.2526  156.8201 C   0  0  0  0  0  0  0  0  0  0  0  0
  151.5732  141.7765  157.7190 N   0  0  0  0  0  0  0  0  0  0  0  0
  151.9831  142.5509  158.9579 C   0  0  1  0  0  0  0  0  0  0  0  0
  152.7683  143.8213  158.5788 C   0  0  0  0  0  0  0  0  0  0  0  0
  152.0030  144.9117  159.3028 C   0  0  0  0  0  0  0  0  0  0  0  0
  150.5888  144.3432  159.3326 C   0  0  2  0  0  0  0  0  0  0  0  0
  149.6877  144.9810  160.3982 C   0  0  0  0  0  0  0  0  0  0  0  0
  148.5054  144.2234  160.5400 O   0  0  0  0  0  0  0  0  0  0  0  0
  150.8469  142.9806  159.6509 O   0  0  0  0  0  0  0  0  0  0  0  0
  152.1538  140.5023  157.5079 C   0  0  0  0  0  0  0  0  0  0  0  0
  152.9786  140.0306  158.2899 O   0  0  0  0  0  0  0  0  0  0  0  0
  151.7635  139.8055  156.3959 N   0  0  0  0  0  0  0  0  0  0  0  0
  152.5415  141.8442  159.5750 H   0  0  0  0  0  0  0  0  0  0  0  0
  150.1447  144.4290  158.3388 H   0  0  0  0  0  0  0  0  0  0  0  0
  150.9894  138.6061  154.3428 H   0  0  0  0  0  0  0  0  0  0  0  0
  149.8766  139.8454  153.8057 H   0  0  0  0  0  0  0  0  0  0  0  0
  149.5151  141.9616  155.0525 H   0  0  0  0  0  0  0  0  0  0  0  0
  150.1529  143.2118  156.9674 H   0  0  0  0  0  0  0  0  0  0  0  0
  153.8096  143.7474  158.8934 H   0  0  0  0  0  0  0  0  0  0  0  0
  152.7331  143.9836  157.5003 H   0  0  0  0  0  0  0  0  0  0  0  0
  152.3883  145.0265  160.3170 H   0  0  0  0  0  0  0  0  0  0  0  0
  152.0644  145.8781  158.8018 H   0  0  0  0  0  0  0  0  0  0  0  0
  150.2025  145.0670  161.3556 H   0  0  0  0  0  0  0  0  0  0  0  0
  149.3987  145.9868  160.0918 H   0  0  0  0  0  0  0  0  0  0  0  0
  147.9109  144.4611  159.8451 H   0  0  0  0  0  0  0  0  0  0  0  0
  1  2  1  0  0  0  0
  1 18  1  0  0  0  0
  1 19  1  0  0  0  0
  2 15  2  0  0  0  0
  2  3  1  0  0  0  0
  3  4  2  0  0  0  0
  3 20  1  0  0  0  0
  4  5  1  0  0  0  0
  4 21  1  0  0  0  0
  5  6  1  0  0  0  0
  5 13  1  0  0  0  0
  6 16  1  0  0  0  0
  6 12  1  0  0  0  0
  6  7  1  0  0  0  0
  7  8  1  0  0  0  0
  7 22  1  0  0  0  0
  7 23  1  0  0  0  0
  8  9  1  0  0  0  0
  8 24  1  0  0  0  0
  8 25  1  0  0  0  0
  9 17  1  0  0  0  0
  9 10  1  0  0  0  0
  9 12  1  0  0  0  0
 10 11  1  0  0  0  0
 10 26  1  0  0  0  0
 10 27  1  0  0  0  0
 11 28  1  0  0  0  0
 13 14  2  0  0  0  0
 13 15  1  0  0  0  0
M  END
> <s_m_source_file>
AV-unprocessed.smi

> <i_m_source_file_index>
159

> <i_lp_mmshare_version>
43012

> <i_f3d_flags>
0

> <s_epik_input>
W05IMl1jMVtjSF1bY0hdbihjKD1PKW4xKVtDQEhdMltDSDJdW0NIMl1bQ0BIXShPMilbQ0gyXVtPSF0=

> <s_epik_cmdline>
J2VwaWtfcHl0aG9uJywgJy1waCcsICc3LjAnLCAnLXRuJywgJzgnLCAnLW1hJywgJzIwMCcsICctbWV0YWxfYmluZGluZycsICctaW1hZScsICc8aW5maWxlLm1hZT4nLCAnLW9tYWUnLCAnPG91dGZpbGUubWFlPic=

> <r_lp_tautomer_probability>
0.99996

> <r_epik_Ionization_Penalty>
0.00126102

> <r_epik_Ionization_Penalty_Charging>
4.46248e-08

> <r_epik_Ionization_Penalty_Neutral>
0.00126097

> <r_epik_State_Penalty>
1.15523e-05

> <r_epik_Charging_Adjusted_Penalty>
1.1597e-05

> <i_epik_Tot_Q>
0

> <i_epik_Tot_abs_Q>
0

> <r_epik_Metal_State_Penalty>
-0

> <b_epik_Metal_Only>
0

> <s_epik_Chemistry_Notes>
This compound contains an acetal/aminal-like group ( X-CH(R)-Y where X, Y are N, S, or O) that may be acid/base labile, releasing an aldehyde.

> <s_lp_Force_Field>
OPLS_2005

> <r_lp_Energy>
23.8036

> <b_lp_Chiralities_Consistent>
1

> <s_lp_Variant>
AV-unprocessed.smi:159-3

> <Gold.Version>
5.8.1

> <Gold.Id.Protein>
6NUR|6NUR_protein|mol2

> <Gold.PLP.Fitness>
40.6970

> <Gold.PLP.PLP>
-32.3002

> <Gold.PLP.part.hbond>
-2.9297

> <Gold.PLP.part.metal>
0.0000

> <Gold.PLP.part.buried>
-4.7664

> <Gold.PLP.part.nonpolar>
-24.6621

> <Gold.PLP.part.repulsive>
0.4996

> <Gold.PLP.ligand.clash>
0.0000

> <Gold.PLP.ligand.torsion>
0.1936

> <Gold.PLP.Chemscore.Hbond>
1.9200

> <Gold.PLP.Chemscore.CHOScore>
1.0000

> <Gold.PLP.Chemscore.Metal>
0.0000

> <Gold.Chemscore.Hbonds>
donor molecule, donor type, donor heavy atom, donor atom, acceptor molecule, acceptor atom, score
      P1  H  6933  6944       L1    11  0.86
      P1  H  7997  8010       L1    14  0.90
      L1  C     4    21       P1  8028  1.00

> <Gold.PLP.Chemscore.Internal.Correction>
0.0241

> <Gold.Rescore>
     Score         DG    S(hbond)    S(metal)    S(lipo)     H(rot)  DE(clash)    DE(int)     intcor
     12.26     -12.54       1.71        0.00      57.18       2.09       0.04       0.24       ----

> <Gold.Chemscore.Fitness>
12.2558

> <Gold.Chemscore.DG>
-12.5363

> <Gold.Chemscore.ZeroCoef>
-5.4800

> <Gold.Chemscore.Hbond>
1.7142

> <Gold.Chemscore.Metal>
0.0000

> <Gold.Chemscore.Lipo>
57.1815

> <Gold.Chemscore.Internal_Hbond>
0.0000

> <Gold.Chemscore.DEClash>
0.0440

> <Gold.Chemscore.DEInternal>
0.2364

> <Gold.Chemscore.Rot>
2.0935

> <Gold.Chemscore.Internal.Correction>
   9.000000E+99

> <Gold.Chemscore.Hbonds>
donor molecule, donor type, donor heavy atom, donor atom, acceptor molecule, acceptor atom, score
      P1  H  6933  6944       L1    11  0.78
      P1  H  7997  8010       L1    14  0.25

> <Gold.Chemscore.Hbond.Weighted>
-5.7254

> <Gold.Chemscore.Metal.Weighted>
-0.0000

> <Gold.Chemscore.Lipo.Weighted>
-6.6902

> <Gold.Chemscore.Internal_Hbond.Weighted>
0.0000

> <Gold.Chemscore.DEClash.Weighted>
0.0440

> <Gold.Chemscore.DEInternal.Weighted>
0.2364

> <Gold.Chemscore.Rot.Weighted>
5.3594

> <Gold.Chemscore.Internal.Correction.Weighted>
   9.000000E+99

> <Gold.Protein.RotatedTorsions>
[ 6907 6896 6895 6894 ] final  -56.16 input  -60.11 | X-H torsion
[ 7974 7965 7964 7962 ] final -128.37 input  175.53 | X-H torsion
[ 8008 7997 7996 7995 ] final   27.28 input   59.86 | X-H torsion
[ 10167 10162 10161 10158 ] final  -86.67 input  -65.29 | X-H torsion
[ 10718 10713 10712 10709 ] final  105.53 input   66.30 | X-H torsion
[ 10763 10752 10751 10750 ] final -177.47 input  -60.55 | X-H torsion
[ 11005 11000 10999 10996 ] final  -98.51 input  -57.11 | X-H torsion

> <Gold.Protein.ActiveResidues>
 VAL166  LYS551  ARG553  GLY616  TRP617  ASP618  TYR619  PRO620  LYS621  CYS622 
 ASP623  PHE694  ASN695  SER759  ASP760  ASP761  ALA762  ILE779  LEU786  VAL792 
 PHE793  MET794  SER795  GLU796  ALA797  LYS798  CYS799  TRP800  GLU811  SER814 

> <Gold.Protein.RotatedAtoms>
  150.8191  134.7389  159.6755 H   0  0  0  0  0  0  0  0  0  0  0  0  # atno 6907 bound_to 6896
  152.4308  134.5778  159.9949 H   0  0  0  0  0  0  0  0  0  0  0  0  # atno 6908 bound_to 6896
  151.5967  133.3323  159.3075 H   0  0  0  0  0  0  0  0  0  0  0  0  # atno 6909 bound_to 6896
  144.9677  140.7513  143.4690 H   0  0  0  0  0  0  0  0  0  0  0  0  # atno 7974 bound_to 7965
  155.0404  140.3168  155.4726 H   0  0  0  0  0  0  0  0  0  0  0  0  # atno 8008 bound_to 7997
  156.2856  140.2164  156.5471 H   0  0  0  0  0  0  0  0  0  0  0  0  # atno 8009 bound_to 7997
  154.7295  140.0482  157.0701 H   0  0  0  0  0  0  0  0  0  0  0  0  # atno 8010 bound_to 7997
  140.3919  143.2701  151.9253 H   0  0  0  0  0  0  0  0  0  0  0  0  # atno 10167 bound_to 10162
  157.6702  131.0830  150.5870 H   0  0  0  0  0  0  0  0  0  0  0  0  # atno 10718 bound_to 10713
  154.5598  135.2819  155.0930 H   0  0  0  0  0  0  0  0  0  0  0  0  # atno 10763 bound_to 10752
  154.2344  135.6368  153.5189 H   0  0  0  0  0  0  0  0  0  0  0  0  # atno 10764 bound_to 10752
  153.0026  135.5545  154.6188 H   0  0  0  0  0  0  0  0  0  0  0  0  # atno 10765 bound_to 10752
  141.1342  133.8250  157.0848 H   0  0  0  0  0  0  0  0  0  0  0  0  # atno 11005 bound_to 11000
  145.2605  139.1994  143.4894 LP  0  0  0  0  0  0  0  0  0  0  0  0  # atno 17320 bound_to 7965
  146.3373  140.2534  142.8599 LP  0  0  0  0  0  0  0  0  0  0  0  0  # atno 17321 bound_to 7965
  139.4788  144.5719  151.8075 LP  0  0  0  0  0  0  0  0  0  0  0  0  # atno 17342 bound_to 10162
  140.4830  144.1421  150.5936 LP  0  0  0  0  0  0  0  0  0  0  0  0  # atno 17343 bound_to 10162
  156.6170  130.4395  149.5836 LP  0  0  0  0  0  0  0  0  0  0  0  0  # atno 17370 bound_to 10713
  156.2385  130.6837  151.1533 LP  0  0  0  0  0  0  0  0  0  0  0  0  # atno 17371 bound_to 10713
  140.0429  134.9845  157.0994 LP  0  0  0  0  0  0  0  0  0  0  0  0  # atno 17394 bound_to 11000
  140.4108  134.1983  155.7163 LP  0  0  0  0  0  0  0  0  0  0  0  0  # atno 17395 bound_to 11000

$$$$
