AV-unprocessed.smi:832|AV-procd|sdf|3879|dock8
  -GOLD-   22720 1333D 1   1.00000     0.00000
 Structure written by MMmdl.
 42 43  0  0  0  0  0  0  0  0  2 V2000
  149.9577  142.0210  155.6099 C   0  0  0  0  0  0  0  0  0  0  0  0
  150.2175  140.5905  155.2828 C   0  0  0  0  0  0  0  0  0  0  0  0
  149.3940  139.5294  155.0301 C   0  0  0  0  0  0  0  0  0  0  0  0
  150.3058  138.4663  154.7940 C   0  0  0  0  0  0  0  0  0  0  0  0
  149.8410  137.1609  154.4914 N   0  0  0  0  0  0  0  0  0  0  0  0
  149.6359  136.1468  155.3491 C   0  0  0  0  0  0  0  0  0  0  0  0
  149.8346  136.1937  156.5635 O   0  0  0  0  0  0  0  0  0  0  0  0
  149.1752  135.0571  154.7172 N   0  0  0  0  0  0  0  0  0  0  0  0
  148.8732  133.7769  155.3508 C   0  0  0  0  0  0  0  0  0  0  0  0
  148.6053  132.6621  154.3206 C   0  0  1  0  0  0  0  0  0  0  0  0
  147.8012  131.4911  154.8813 C   0  0  0  0  0  0  0  0  0  0  0  0
  147.1309  130.8513  153.6582 C   0  0  0  0  0  0  0  0  0  0  0  0
  147.2619  131.8124  152.5342 N   0  3  1  0  0  0  0  0  0  0  0  0
  146.0612  131.9367  151.6604 C   0  0  0  0  0  0  0  0  0  0  0  0
  145.4584  130.5541  151.3467 C   0  0  0  0  0  0  0  0  0  0  0  0
  146.3862  132.6674  150.3430 C   0  0  0  0  0  0  0  0  0  0  0  0
  147.7615  133.0772  153.1146 C   0  0  0  0  0  0  0  0  0  0  0  0
  151.5711  138.8439  154.8943 N   0  0  0  0  0  0  0  0  0  0  0  0
  151.5209  140.2076  155.2063 O   0  0  0  0  0  0  0  0  0  0  0  0
  148.9239  142.1673  155.9234 H   0  0  0  0  0  0  0  0  0  0  0  0
  150.1412  142.6545  154.7422 H   0  0  0  0  0  0  0  0  0  0  0  0
  150.6064  142.3580  156.4188 H   0  0  0  0  0  0  0  0  0  0  0  0
  148.3142  139.5195  155.0170 H   0  0  0  0  0  0  0  0  0  0  0  0
  149.6430  136.9818  153.5181 H   0  0  0  0  0  0  0  0  0  0  0  0
  149.0430  135.1096  153.7176 H   0  0  0  0  0  0  0  0  0  0  0  0
  149.7330  133.5041  155.9629 H   0  0  0  0  0  0  0  0  0  0  0  0
  148.0315  133.8780  156.0384 H   0  0  0  0  0  0  0  0  0  0  0  0
  149.5590  132.2755  153.9565 H   0  0  0  0  0  0  0  0  0  0  0  0
  148.4219  130.7860  155.4353 H   0  0  0  0  0  0  0  0  0  0  0  0
  147.0325  131.8588  155.5627 H   0  0  0  0  0  0  0  0  0  0  0  0
  147.6199  129.9162  153.3828 H   0  0  0  0  0  0  0  0  0  0  0  0
  146.0879  130.6263  153.8862 H   0  0  0  0  0  0  0  0  0  0  0  0
  145.3128  132.5241  152.1946 H   0  0  0  0  0  0  0  0  0  0  0  0
  144.5903  130.6465  150.6933 H   0  0  0  0  0  0  0  0  0  0  0  0
  145.1232  130.0373  152.2458 H   0  0  0  0  0  0  0  0  0  0  0  0
  146.1819  129.9116  150.8436 H   0  0  0  0  0  0  0  0  0  0  0  0
  145.5132  132.7022  149.6905 H   0  0  0  0  0  0  0  0  0  0  0  0
  147.1856  132.1659  149.7965 H   0  0  0  0  0  0  0  0  0  0  0  0
  146.6918  133.7001  150.5125 H   0  0  0  0  0  0  0  0  0  0  0  0
  146.9175  133.6878  153.4407 H   0  0  0  0  0  0  0  0  0  0  0  0
  148.3382  133.6505  152.3879 H   0  0  0  0  0  0  0  0  0  0  0  0
  148.0124  131.4618  151.9561 H   0  0  0  0  0  0  0  0  0  0  0  0
  1  2  1  0  0  0  0
  1 20  1  0  0  0  0
  1 21  1  0  0  0  0
  1 22  1  0  0  0  0
  2 19  1  0  0  0  0
  2  3  2  0  0  0  0
  3  4  1  0  0  0  0
  3 23  1  0  0  0  0
  4  5  1  0  0  0  0
  4 18  2  0  0  0  0
  5  6  1  0  0  0  0
  5 24  1  0  0  0  0
  6  7  2  0  0  0  0
  6  8  1  0  0  0  0
  8  9  1  0  0  0  0
  8 25  1  0  0  0  0
  9 10  1  0  0  0  0
  9 26  1  0  0  0  0
  9 27  1  0  0  0  0
 10 17  1  0  0  0  0
 10 11  1  0  0  0  0
 10 28  1  0  0  0  0
 11 12  1  0  0  0  0
 11 29  1  0  0  0  0
 11 30  1  0  0  0  0
 12 13  1  0  0  0  0
 12 31  1  0  0  0  0
 12 32  1  0  0  0  0
 13 14  1  0  0  0  0
 13 17  1  0  0  0  0
 13 42  1  0  0  0  0
 14 15  1  0  0  0  0
 14 16  1  0  0  0  0
 14 33  1  0  0  0  0
 15 34  1  0  0  0  0
 15 35  1  0  0  0  0
 15 36  1  0  0  0  0
 16 37  1  0  0  0  0
 16 38  1  0  0  0  0
 16 39  1  0  0  0  0
 17 40  1  0  0  0  0
 17 41  1  0  0  0  0
 18 19  1  0  0  0  0
M  CHG  1  13   1
M  END
> <s_m_source_file>
AV-unprocessed.smi

> <i_m_source_file_index>
832

> <i_lp_mmshare_version>
43012

> <i_f3d_flags>
0

> <s_epik_input>
W0NIM11jMVtjSF1jKG5vMSlbTkhdQyg9TylbTkhdW0NIMl1bQ0BASF0yW0NIMl1bQ0gyXU4oW0NIMl0yKVtDSF0oW0NIM10pW0NIM10=

> <s_epik_cmdline>
J2VwaWtfcHl0aG9uJywgJy1waCcsICc3LjAnLCAnLXRuJywgJzgnLCAnLW1hJywgJzIwMCcsICctbWV0YWxfYmluZGluZycsICctaW1hZScsICc8aW5maWxlLm1hZT4nLCAnLW9tYWUnLCAnPG91dGZpbGUubWFlPic=

> <r_lp_tautomer_probability>
1

> <r_epik_Ionization_Penalty>
0.000242791

> <r_epik_Ionization_Penalty_Charging>
0.000220876

> <r_epik_Ionization_Penalty_Neutral>
2.19143e-05

> <r_epik_State_Penalty>
-0

> <r_epik_Charging_Adjusted_Penalty>
0.000220876

> <i_epik_Tot_Q>
1

> <i_epik_Tot_abs_Q>
1

> <r_epik_Metal_State_Penalty>
-0

> <b_epik_Metal_Only>
0

> <s_lp_Force_Field>
OPLS_2005

> <r_lp_Energy>
26.1652

> <b_lp_Chiralities_Consistent>
1

> <s_lp_Variant>
AV-unprocessed.smi:832-4

> <Gold.Version>
5.8.1

> <Gold.Id.Protein>
6NUR|6NUR_protein|mol2

> <Gold.PLP.Fitness>
44.8417

> <Gold.PLP.PLP>
-36.4143

> <Gold.PLP.part.hbond>
-5.2599

> <Gold.PLP.part.metal>
0.0000

> <Gold.PLP.part.buried>
-3.3318

> <Gold.PLP.part.nonpolar>
-28.2586

> <Gold.PLP.part.repulsive>
0.2915

> <Gold.PLP.ligand.clash>
0.0000

> <Gold.PLP.ligand.torsion>
1.1535

> <Gold.PLP.Chemscore.Hbond>
3.5708

> <Gold.PLP.Chemscore.CHOScore>
0.0000

> <Gold.PLP.Chemscore.Metal>
0.0000

> <Gold.Chemscore.Hbonds>
donor molecule, donor type, donor heavy atom, donor atom, acceptor molecule, acceptor atom, score
      L1  H     5    24       P1  7948  1.00
      L1  H     8    25       P1  7948  0.73
      L1  H    13    42       P1 10747  1.00
      P1  H  7989  7998       L1    19  0.51

> <Gold.PLP.Chemscore.Internal.Correction>
0.0220

> <Gold.Rescore>
     Score         DG    S(hbond)    S(metal)    S(lipo)     H(rot)  DE(clash)    DE(int)     intcor
     15.00     -15.97       1.90        0.00      68.68       1.51       0.02       0.96       ----

> <Gold.Chemscore.Fitness>
15.0021

> <Gold.Chemscore.DG>
-15.9730

> <Gold.Chemscore.ZeroCoef>
-5.4800

> <Gold.Chemscore.Hbond>
1.8965

> <Gold.Chemscore.Metal>
0.0000

> <Gold.Chemscore.Lipo>
68.6850

> <Gold.Chemscore.Internal_Hbond>
0.0000

> <Gold.Chemscore.DEClash>
0.0154

> <Gold.Chemscore.DEInternal>
0.9554

> <Gold.Chemscore.Rot>
1.5146

> <Gold.Chemscore.Internal.Correction>
   9.000000E+99

> <Gold.Chemscore.Hbonds>
donor molecule, donor type, donor heavy atom, donor atom, acceptor molecule, acceptor atom, score
      L1  H     5    24       P1  7948  0.74
      L1  H     8    25       P1  7948  0.31
      L1  H    13    42       P1 10747  0.93
      P1  H  7989  7998       L1    19  0.01

> <Gold.Chemscore.Hbond.Weighted>
-6.3342

> <Gold.Chemscore.Metal.Weighted>
-0.0000

> <Gold.Chemscore.Lipo.Weighted>
-8.0361

> <Gold.Chemscore.Internal_Hbond.Weighted>
0.0000

> <Gold.Chemscore.DEClash.Weighted>
0.0154

> <Gold.Chemscore.DEInternal.Weighted>
0.9554

> <Gold.Chemscore.Rot.Weighted>
3.8774

> <Gold.Chemscore.Internal.Correction.Weighted>
   9.000000E+99

> <Gold.Protein.RotatedTorsions>
[ 6907 6896 6895 6894 ] final -178.01 input  -60.11 | X-H torsion
[ 7974 7965 7964 7962 ] final -115.07 input  175.53 | X-H torsion
[ 8008 7997 7996 7995 ] final -158.45 input   59.86 | X-H torsion
[ 10167 10162 10161 10158 ] final   43.26 input  -65.29 | X-H torsion
[ 10718 10713 10712 10709 ] final  -41.12 input   66.30 | X-H torsion
[ 10763 10752 10751 10750 ] final -172.39 input  -60.55 | X-H torsion
[ 11005 11000 10999 10996 ] final   29.97 input  -57.11 | X-H torsion

> <Gold.Protein.ActiveResidues>
 VAL166  LYS551  ARG553  GLY616  TRP617  ASP618  TYR619  PRO620  LYS621  CYS622 
 ASP623  PHE694  ASN695  SER759  ASP760  ASP761  ALA762  ILE779  LEU786  VAL792 
 PHE793  MET794  SER795  GLU796  ALA797  LYS798  CYS799  TRP800  GLU811  SER814 

> <Gold.Protein.RotatedAtoms>
  151.6303  133.3332  159.3107 H   0  0  0  0  0  0  0  0  0  0  0  0  # atno 6907 bound_to 6896
  150.8060  134.7188  159.6656 H   0  0  0  0  0  0  0  0  0  0  0  0  # atno 6908 bound_to 6896
  152.4155  134.6054  160.0062 H   0  0  0  0  0  0  0  0  0  0  0  0  # atno 6909 bound_to 6896
  145.1127  140.8622  143.3860 H   0  0  0  0  0  0  0  0  0  0  0  0  # atno 7974 bound_to 7965
  155.7477  140.0822  157.2216 H   0  0  0  0  0  0  0  0  0  0  0  0  # atno 8008 bound_to 7997
  154.4015  140.1566  156.2744 H   0  0  0  0  0  0  0  0  0  0  0  0  # atno 8009 bound_to 7997
  155.8960  140.3412  155.5994 H   0  0  0  0  0  0  0  0  0  0  0  0  # atno 8010 bound_to 7997
  140.3461  144.2409  150.6150 H   0  0  0  0  0  0  0  0  0  0  0  0  # atno 10167 bound_to 10162
  156.2739  130.4209  149.8409 H   0  0  0  0  0  0  0  0  0  0  0  0  # atno 10718 bound_to 10713
  154.6198  135.2874  155.0339 H   0  0  0  0  0  0  0  0  0  0  0  0  # atno 10763 bound_to 10752
  154.1538  135.6499  153.4973 H   0  0  0  0  0  0  0  0  0  0  0  0  # atno 10764 bound_to 10752
  153.0231  135.5362  154.6983 H   0  0  0  0  0  0  0  0  0  0  0  0  # atno 10765 bound_to 10752
  140.2993  134.2775  155.7757 H   0  0  0  0  0  0  0  0  0  0  0  0  # atno 11005 bound_to 11000
  145.0828  139.2947  143.5775 LP  0  0  0  0  0  0  0  0  0  0  0  0  # atno 17320 bound_to 7965
  146.3525  140.0340  142.8648 LP  0  0  0  0  0  0  0  0  0  0  0  0  # atno 17321 bound_to 7965
  140.5263  143.2253  151.8310 LP  0  0  0  0  0  0  0  0  0  0  0  0  # atno 17342 bound_to 10162
  139.4833  144.4776  151.9348 LP  0  0  0  0  0  0  0  0  0  0  0  0  # atno 17343 bound_to 10162
  156.5880  130.8494  151.3400 LP  0  0  0  0  0  0  0  0  0  0  0  0  # atno 17370 bound_to 10713
  157.7293  130.9669  150.1780 LP  0  0  0  0  0  0  0  0  0  0  0  0  # atno 17371 bound_to 10713
  141.2131  133.7636  156.9743 LP  0  0  0  0  0  0  0  0  0  0  0  0  # atno 17394 bound_to 11000
  140.1124  134.9468  157.2084 LP  0  0  0  0  0  0  0  0  0  0  0  0  # atno 17395 bound_to 11000

$$$$
