AV-unprocessed.smi:81|AV-procd|sdf|793|dock4
  -GOLD-   2262017173D 1   1.00000     0.00000
 Structure written by MMmdl.
 64 67  0  0  0  0  0  0  0  0  2 V2000
  151.6405  137.1331  155.9667 C   0  0  0  0  0  0  0  0  0  0  0  0
  151.8106  137.8754  154.6310 C   0  0  0  0  0  0  0  0  0  0  0  0
  152.8168  139.0250  154.7787 C   0  0  0  0  0  0  0  0  0  0  0  0
  150.4615  138.4062  154.0926 C   0  0  0  0  0  0  0  0  0  0  0  0
  149.6297  139.0811  155.0955 N   0  0  0  0  0  0  0  0  0  0  0  0
  148.6527  138.3257  155.6546 C   0  0  0  0  0  0  0  0  0  0  0  0
  147.4863  138.2138  154.9712 N   0  0  0  0  0  0  0  0  0  0  0  0
  146.4749  137.5056  155.4807 C   0  0  0  0  0  0  0  0  0  0  0  0
  146.4179  136.8500  156.6411 N   0  0  0  0  0  0  0  0  0  0  0  0
  147.5799  136.9786  157.3446 C   0  0  0  0  0  0  0  0  0  0  0  0
  148.7386  137.6918  156.9276 C   0  0  0  0  0  0  0  0  0  0  0  0
  149.7276  137.5880  157.8968 N   0  0  0  0  0  0  0  0  0  0  0  0
  149.1854  136.8569  158.8312 C   0  0  0  0  0  0  0  0  0  0  0  0
  147.8836  136.4680  158.5965 N   0  0  0  0  0  0  0  0  0  0  0  0
  147.0293  135.6403  159.4433 C   0  0  0  0  0  0  0  0  0  0  0  0
  146.8311  136.1449  160.8996 C   0  0  2  0  0  0  0  0  0  0  0  0
  146.1528  137.3882  160.8400 O   0  0  0  0  0  0  0  0  0  0  0  0
  148.1492  136.3749  161.6218 C   0  0  0  0  0  0  0  0  0  0  0  0
  147.7261  136.3962  163.0839 C   0  0  0  0  0  0  0  0  0  0  0  0
  146.6842  135.4340  163.1665 O   0  0  0  0  0  0  0  0  0  0  0  0
  146.0634  135.2344  161.8941 C   0  0  2  0  0  0  0  0  0  0  0  0
  146.1610  133.7209  161.6422 C   0  0  0  0  0  0  0  0  0  0  0  0
  149.3767  140.5179  154.8909 C   0  0  2  0  0  0  0  0  0  0  0  0
  150.3544  141.4809  155.6061 C   0  0  0  0  0  0  0  0  0  0  0  0
  149.9270  141.8698  157.0350 C   0  0  0  0  0  0  0  0  0  0  0  0
  148.5335  142.3714  157.0602 N   0  3  2  0  0  0  0  0  0  0  0  0
  148.1482  142.8881  158.3909 C   0  0  0  0  0  0  0  0  0  0  0  0
  147.5787  141.3592  156.5523 C   0  0  0  0  0  0  0  0  0  0  0  0
  147.9085  140.9579  155.1029 C   0  0  0  0  0  0  0  0  0  0  0  0
  151.2186  137.7857  156.7317 H   0  0  0  0  0  0  0  0  0  0  0  0
  152.5981  136.7647  156.3351 H   0  0  0  0  0  0  0  0  0  0  0  0
  150.9796  136.2723  155.8636 H   0  0  0  0  0  0  0  0  0  0  0  0
  152.2395  137.1782  153.9109 H   0  0  0  0  0  0  0  0  0  0  0  0
  152.4704  139.7663  155.4997 H   0  0  0  0  0  0  0  0  0  0  0  0
  152.9742  139.5335  153.8270 H   0  0  0  0  0  0  0  0  0  0  0  0
  153.7860  138.6580  155.1176 H   0  0  0  0  0  0  0  0  0  0  0  0
  150.6612  139.1021  153.2771 H   0  0  0  0  0  0  0  0  0  0  0  0
  149.8974  137.5881  153.6464 H   0  0  0  0  0  0  0  0  0  0  0  0
  145.5824  137.4608  154.8739 H   0  0  0  0  0  0  0  0  0  0  0  0
  149.7352  136.5834  159.7190 H   0  0  0  0  0  0  0  0  0  0  0  0
  146.0575  135.5478  158.9581 H   0  0  0  0  0  0  0  0  0  0  0  0
  147.4481  134.6332  159.4534 H   0  0  0  0  0  0  0  0  0  0  0  0
  145.4232  137.3013  160.2453 H   0  0  0  0  0  0  0  0  0  0  0  0
  148.8234  135.5338  161.4542 H   0  0  0  0  0  0  0  0  0  0  0  0
  148.6670  137.2839  161.3127 H   0  0  0  0  0  0  0  0  0  0  0  0
  148.5452  136.1579  163.7626 H   0  0  0  0  0  0  0  0  0  0  0  0
  147.3305  137.3750  163.3586 H   0  0  0  0  0  0  0  0  0  0  0  0
  145.0099  135.5129  161.9546 H   0  0  0  0  0  0  0  0  0  0  0  0
  145.5826  133.4169  160.7730 H   0  0  0  0  0  0  0  0  0  0  0  0
  145.7616  133.1651  162.4908 H   0  0  0  0  0  0  0  0  0  0  0  0
  147.1937  133.4031  161.4975 H   0  0  0  0  0  0  0  0  0  0  0  0
  149.5769  140.6541  153.8274 H   0  0  0  0  0  0  0  0  0  0  0  0
  151.3673  141.0773  155.6018 H   0  0  0  0  0  0  0  0  0  0  0  0
  150.4065  142.3990  155.0195 H   0  0  0  0  0  0  0  0  0  0  0  0
  150.0176  141.0301  157.7225 H   0  0  0  0  0  0  0  0  0  0  0  0
  150.5975  142.6450  157.4077 H   0  0  0  0  0  0  0  0  0  0  0  0
  148.1689  142.0947  159.1393 H   0  0  0  0  0  0  0  0  0  0  0  0
  147.1427  143.3092  158.3654 H   0  0  0  0  0  0  0  0  0  0  0  0
  148.8300  143.6770  158.7096 H   0  0  0  0  0  0  0  0  0  0  0  0
  147.5852  140.4956  157.2140 H   0  0  0  0  0  0  0  0  0  0  0  0
  146.5674  141.7660  156.5872 H   0  0  0  0  0  0  0  0  0  0  0  0
  147.7254  141.8279  154.4710 H   0  0  0  0  0  0  0  0  0  0  0  0
  147.2127  140.1947  154.7544 H   0  0  0  0  0  0  0  0  0  0  0  0
  148.4936  143.1550  156.4239 H   0  0  0  0  0  0  0  0  0  0  0  0
  1  2  1  0  0  0  0
  1 30  1  0  0  0  0
  1 31  1  0  0  0  0
  1 32  1  0  0  0  0
  2  3  1  0  0  0  0
  2  4  1  0  0  0  0
  2 33  1  0  0  0  0
  3 34  1  0  0  0  0
  3 35  1  0  0  0  0
  3 36  1  0  0  0  0
  4  5  1  0  0  0  0
  4 37  1  0  0  0  0
  4 38  1  0  0  0  0
  5  6  1  0  0  0  0
  5 23  1  0  0  0  0
  6 11  1  0  0  0  0
  6  7  2  0  0  0  0
  7  8  1  0  0  0  0
  8  9  2  0  0  0  0
  8 39  1  0  0  0  0
  9 10  1  0  0  0  0
 10 14  1  0  0  0  0
 10 11  2  0  0  0  0
 11 12  1  0  0  0  0
 12 13  2  0  0  0  0
 13 14  1  0  0  0  0
 13 40  1  0  0  0  0
 14 15  1  0  0  0  0
 15 16  1  0  0  0  0
 15 41  1  0  0  0  0
 15 42  1  0  0  0  0
 16 21  1  0  0  0  0
 16 17  1  0  0  0  0
 16 18  1  0  0  0  0
 17 43  1  0  0  0  0
 18 19  1  0  0  0  0
 18 44  1  0  0  0  0
 18 45  1  0  0  0  0
 19 20  1  0  0  0  0
 19 46  1  0  0  0  0
 19 47  1  0  0  0  0
 20 21  1  0  0  0  0
 21 22  1  0  0  0  0
 21 48  1  0  0  0  0
 22 49  1  0  0  0  0
 22 50  1  0  0  0  0
 22 51  1  0  0  0  0
 23 29  1  0  0  0  0
 23 24  1  0  0  0  0
 23 52  1  0  0  0  0
 24 25  1  0  0  0  0
 24 53  1  0  0  0  0
 24 54  1  0  0  0  0
 25 26  1  0  0  0  0
 25 55  1  0  0  0  0
 25 56  1  0  0  0  0
 26 27  1  0  0  0  0
 26 28  1  0  0  0  0
 26 64  1  0  0  0  0
 27 57  1  0  0  0  0
 27 58  1  0  0  0  0
 27 59  1  0  0  0  0
 28 29  1  0  0  0  0
 28 60  1  0  0  0  0
 28 61  1  0  0  0  0
 29 62  1  0  0  0  0
 29 63  1  0  0  0  0
M  CHG  1  26   1
M  END
> <s_m_source_file>
AV-unprocessed.smi

> <i_m_source_file_index>
81

> <i_lp_mmshare_version>
43012

> <i_f3d_flags>
0

> <s_epik_input>
W0NIMl0xW0NIMl1OKFtDSDNdKVtDSDJdW0NIMl1bQ0hdMU4oW0NIMl1bQ0hdKFtDSDNdKVtDSDNdKWMobltjSF1uMiljKGMyMyluW2NIXW4zW0NIMl1bQ0BAXTQoW09IXSlbQ0gyXVtDSDJdT1tDQEhdNFtDSDNd

> <s_epik_cmdline>
J2VwaWtfcHl0aG9uJywgJy1waCcsICc3LjAnLCAnLXRuJywgJzgnLCAnLW1hJywgJzIwMCcsICctbWV0YWxfYmluZGluZycsICctaW1hZScsICc8aW5maWxlLm1hZT4nLCAnLW9tYWUnLCAnPG91dGZpbGUubWFlPic=

> <r_lp_tautomer_probability>
1

> <r_epik_Ionization_Penalty>
0.00272708

> <r_epik_Ionization_Penalty_Charging>
0.00158983

> <r_epik_Ionization_Penalty_Neutral>
0.00113725

> <r_epik_State_Penalty>
-0

> <r_epik_Charging_Adjusted_Penalty>
0.00158983

> <i_epik_Tot_Q>
1

> <i_epik_Tot_abs_Q>
1

> <r_epik_Metal_State_Penalty>
-0

> <b_epik_Metal_Only>
0

> <s_lp_Force_Field>
OPLS_2005

> <r_lp_Energy>
52.2974

> <b_lp_Chiralities_Consistent>
1

> <s_lp_Variant>
AV-unprocessed.smi:81-8

> <Gold.Version>
5.8.1

> <Gold.Id.Protein>
6NUR|6NUR_protein|mol2

> <Gold.PLP.Fitness>
44.9841

> <Gold.PLP.PLP>
-38.6511

> <Gold.PLP.part.hbond>
-2.0000

> <Gold.PLP.part.metal>
0.0000

> <Gold.PLP.part.buried>
-4.5423

> <Gold.PLP.part.nonpolar>
-32.8111

> <Gold.PLP.part.repulsive>
0.0923

> <Gold.PLP.ligand.clash>
0.0000

> <Gold.PLP.ligand.torsion>
2.0226

> <Gold.PLP.Chemscore.Hbond>
3.0000

> <Gold.PLP.Chemscore.CHOScore>
0.0000

> <Gold.PLP.Chemscore.Metal>
0.0000

> <Gold.Chemscore.Hbonds>
donor molecule, donor type, donor heavy atom, donor atom, acceptor molecule, acceptor atom, score
      L1  H    26    64       P1  8028  2.00
      P1  H  6934  6947       L1    17  1.00

> <Gold.PLP.Chemscore.Internal.Correction>
1.3782

> <Gold.Rescore>
     Score         DG    S(hbond)    S(metal)    S(lipo)     H(rot)  DE(clash)    DE(int)     intcor
     13.33     -17.97       1.94        0.00     102.17       2.32       0.41       4.23       ----

> <Gold.Chemscore.Fitness>
13.3272

> <Gold.Chemscore.DG>
-17.9675

> <Gold.Chemscore.ZeroCoef>
-5.4800

> <Gold.Chemscore.Hbond>
1.9352

> <Gold.Chemscore.Metal>
0.0000

> <Gold.Chemscore.Lipo>
102.1685

> <Gold.Chemscore.Internal_Hbond>
0.0000

> <Gold.Chemscore.DEClash>
0.4071

> <Gold.Chemscore.DEInternal>
4.2332

> <Gold.Chemscore.Rot>
2.3163

> <Gold.Chemscore.Internal.Correction>
   9.000000E+99

> <Gold.Chemscore.Hbonds>
donor molecule, donor type, donor heavy atom, donor atom, acceptor molecule, acceptor atom, score
      L1  H    26    64       P1  8028  0.78
      P1  H  6934  6947       L1    17  0.95

> <Gold.Chemscore.Hbond.Weighted>
-6.4635

> <Gold.Chemscore.Metal.Weighted>
-0.0000

> <Gold.Chemscore.Lipo.Weighted>
-11.9537

> <Gold.Chemscore.Internal_Hbond.Weighted>
0.0000

> <Gold.Chemscore.DEClash.Weighted>
0.4071

> <Gold.Chemscore.DEInternal.Weighted>
4.2332

> <Gold.Chemscore.Rot.Weighted>
5.9297

> <Gold.Chemscore.Internal.Correction.Weighted>
   9.000000E+99

> <Gold.Protein.RotatedTorsions>
[ 6907 6896 6895 6894 ] final  -41.22 input  -60.11 | X-H torsion
[ 7974 7965 7964 7962 ] final    1.99 input  175.53 | X-H torsion
[ 8008 7997 7996 7995 ] final  173.81 input   59.86 | X-H torsion
[ 10167 10162 10161 10158 ] final  -45.48 input  -65.29 | X-H torsion
[ 10718 10713 10712 10709 ] final   15.99 input   66.30 | X-H torsion
[ 10763 10752 10751 10750 ] final  -55.07 input  -60.55 | X-H torsion
[ 11005 11000 10999 10996 ] final   48.26 input  -57.11 | X-H torsion

> <Gold.Protein.ActiveResidues>
 VAL166  LYS551  ARG553  GLY616  TRP617  ASP618  TYR619  PRO620  LYS621  CYS622 
 ASP623  PHE694  ASN695  SER759  ASP760  ASP761  ALA762  ILE779  LEU786  VAL792 
 PHE793  MET794  SER795  GLU796  ALA797  LYS798  CYS799  TRP800  GLU811  SER814 

> <Gold.Protein.RotatedAtoms>
  150.9693  134.9068  159.7777 H   0  0  0  0  0  0  0  0  0  0  0  0  # atno 6907 bound_to 6896
  152.5184  134.3563  159.9279 H   0  0  0  0  0  0  0  0  0  0  0  0  # atno 6908 bound_to 6896
  151.3573  133.3862  159.2721 H   0  0  0  0  0  0  0  0  0  0  0  0  # atno 6909 bound_to 6896
  146.2442  140.0904  142.8352 H   0  0  0  0  0  0  0  0  0  0  0  0  # atno 7974 bound_to 7965
  156.1038  140.1450  156.9432 H   0  0  0  0  0  0  0  0  0  0  0  0  # atno 8008 bound_to 7997
  154.4720  140.0907  156.7212 H   0  0  0  0  0  0  0  0  0  0  0  0  # atno 8009 bound_to 7997
  155.4715  140.3442  155.4328 H   0  0  0  0  0  0  0  0  0  0  0  0  # atno 8010 bound_to 7997
  140.6856  143.2877  151.3645 H   0  0  0  0  0  0  0  0  0  0  0  0  # atno 10167 bound_to 10162
  157.0615  130.6311  149.5787 H   0  0  0  0  0  0  0  0  0  0  0  0  # atno 10718 bound_to 10713
  154.1849  135.6437  153.5044 H   0  0  0  0  0  0  0  0  0  0  0  0  # atno 10763 bound_to 10752
  153.0050  135.5415  154.6476 H   0  0  0  0  0  0  0  0  0  0  0  0  # atno 10764 bound_to 10752
  154.5849  135.2928  155.0667 H   0  0  0  0  0  0  0  0  0  0  0  0  # atno 10765 bound_to 10752
  140.1206  134.4834  155.8600 H   0  0  0  0  0  0  0  0  0  0  0  0  # atno 11005 bound_to 11000
  145.0656  140.9119  143.4913 LP  0  0  0  0  0  0  0  0  0  0  0  0  # atno 17320 bound_to 7965
  145.1027  139.2811  143.5678 LP  0  0  0  0  0  0  0  0  0  0  0  0  # atno 17321 bound_to 7965
  139.6212  144.0903  152.2393 LP  0  0  0  0  0  0  0  0  0  0  0  0  # atno 17342 bound_to 10162
  140.0348  144.6053  150.7459 LP  0  0  0  0  0  0  0  0  0  0  0  0  # atno 17343 bound_to 10162
  155.9977  130.5049  150.7544 LP  0  0  0  0  0  0  0  0  0  0  0  0  # atno 17370 bound_to 10713
  157.4951  131.0914  151.0381 LP  0  0  0  0  0  0  0  0  0  0  0  0  # atno 17371 bound_to 10713
  141.2151  133.6759  156.6881 LP  0  0  0  0  0  0  0  0  0  0  0  0  # atno 17394 bound_to 11000
  140.2970  134.8194  157.4065 LP  0  0  0  0  0  0  0  0  0  0  0  0  # atno 17395 bound_to 11000

$$$$
