AV-unprocessed.smi:1570|AV-procd|sdf|6318|dock1
  -GOLD-   22720 6523D 1   1.00000     0.00000
 Structure written by MMmdl.
 52 54  0  0  0  0  0  0  0  0  2 V2000
  147.4968  128.4532  151.3739 C   0  0  0  0  0  0  0  0  0  0  0  0
  146.1552  129.1242  151.6957 C   0  0  0  0  0  0  0  0  0  0  0  0
  146.3528  130.4647  152.2409 N   0  0  0  0  0  0  0  0  0  0  0  0
  147.0311  130.7846  153.3678 C   0  0  0  0  0  0  0  0  0  0  0  0
  147.6065  129.9941  154.1152 O   0  0  0  0  0  0  0  0  0  0  0  0
  146.9336  132.1228  153.5525 N   0  0  0  0  0  0  0  0  0  0  0  0
  147.4728  132.8929  154.6730 C   0  0  0  0  0  0  0  0  0  0  0  0
  148.4549  133.9855  154.2031 C   0  0  2  0  0  0  0  0  0  0  0  0
  149.6960  133.3672  153.9305 O   0  0  0  0  0  0  0  0  0  0  0  0
  148.6784  135.0945  155.2540 C   0  0  0  0  0  0  0  0  0  0  0  0
  149.0007  136.4065  154.6399 N   0  3  1  0  0  0  0  0  0  0  0  0
  148.0218  137.4701  154.9752 C   0  0  0  0  0  0  0  0  0  0  0  0
  148.3937  138.7889  154.2722 C   0  0  1  0  0  0  0  0  0  0  0  0
  147.4521  139.9337  154.6623 C   0  0  0  0  0  0  0  0  0  0  0  0
  149.7176  139.1570  154.6438 O   0  0  0  0  0  0  0  0  0  0  0  0
  150.6859  138.1902  154.2517 C   0  0  1  0  0  0  0  0  0  0  0  0
  152.0736  138.7292  154.6164 C   0  0  0  0  0  0  0  0  0  0  0  0
  150.3768  136.8556  154.9560 C   0  0  0  0  0  0  0  0  0  0  0  0
  146.1610  132.6722  152.5193 C   0  0  0  0  0  0  0  0  0  0  0  0
  145.7620  133.9964  152.2670 C   0  0  0  0  0  0  0  0  0  0  0  0
  144.9588  134.2232  151.1250 C   0  0  0  0  0  0  0  0  0  0  0  0
  144.5776  133.1492  150.2793 C   0  0  0  0  0  0  0  0  0  0  0  0
  144.9931  131.8257  150.5569 C   0  0  0  0  0  0  0  0  0  0  0  0
  145.7931  131.6289  151.6959 C   0  0  0  0  0  0  0  0  0  0  0  0
  147.3421  127.4537  150.9673 H   0  0  0  0  0  0  0  0  0  0  0  0
  148.1141  128.3564  152.2675 H   0  0  0  0  0  0  0  0  0  0  0  0
  148.0596  129.0279  150.6376 H   0  0  0  0  0  0  0  0  0  0  0  0
  145.5413  129.1761  150.7952 H   0  0  0  0  0  0  0  0  0  0  0  0
  145.5950  128.5179  152.4080 H   0  0  0  0  0  0  0  0  0  0  0  0
  146.6635  133.3347  155.2571 H   0  0  0  0  0  0  0  0  0  0  0  0
  147.9796  132.1983  155.3444 H   0  0  0  0  0  0  0  0  0  0  0  0
  148.0874  134.4067  153.2682 H   0  0  0  0  0  0  0  0  0  0  0  0
  150.3087  133.6057  154.6099 H   0  0  0  0  0  0  0  0  0  0  0  0
  147.8005  135.2202  155.8875 H   0  0  0  0  0  0  0  0  0  0  0  0
  149.4868  134.7845  155.9186 H   0  0  0  0  0  0  0  0  0  0  0  0
  147.0176  137.1715  154.6762 H   0  0  0  0  0  0  0  0  0  0  0  0
  148.0008  137.6164  156.0566 H   0  0  0  0  0  0  0  0  0  0  0  0
  148.3479  138.6557  153.1899 H   0  0  0  0  0  0  0  0  0  0  0  0
  146.4221  139.7066  154.3860 H   0  0  0  0  0  0  0  0  0  0  0  0
  147.7339  140.8590  154.1592 H   0  0  0  0  0  0  0  0  0  0  0  0
  147.4777  140.1180  155.7367 H   0  0  0  0  0  0  0  0  0  0  0  0
  150.6403  138.0540  153.1695 H   0  0  0  0  0  0  0  0  0  0  0  0
  152.8563  138.0270  154.3289 H   0  0  0  0  0  0  0  0  0  0  0  0
  152.1596  138.9062  155.6889 H   0  0  0  0  0  0  0  0  0  0  0  0
  152.2709  139.6728  154.1070 H   0  0  0  0  0  0  0  0  0  0  0  0
  150.4846  136.9629  156.0367 H   0  0  0  0  0  0  0  0  0  0  0  0
  151.0928  136.0975  154.6354 H   0  0  0  0  0  0  0  0  0  0  0  0
  146.0531  134.8095  152.9155 H   0  0  0  0  0  0  0  0  0  0  0  0
  144.6305  135.2261  150.8945 H   0  0  0  0  0  0  0  0  0  0  0  0
  143.9621  133.3443  149.4135 H   0  0  0  0  0  0  0  0  0  0  0  0
  144.7037  131.0044  149.9182 H   0  0  0  0  0  0  0  0  0  0  0  0
  148.9689  136.2704  153.6392 H   0  0  0  0  0  0  0  0  0  0  0  0
  1  2  1  0  0  0  0
  1 25  1  0  0  0  0
  1 26  1  0  0  0  0
  1 27  1  0  0  0  0
  2  3  1  0  0  0  0
  2 28  1  0  0  0  0
  2 29  1  0  0  0  0
  3 24  1  0  0  0  0
  3  4  1  0  0  0  0
  4  5  2  0  0  0  0
  4  6  1  0  0  0  0
  6  7  1  0  0  0  0
  6 19  1  0  0  0  0
  7  8  1  0  0  0  0
  7 30  1  0  0  0  0
  7 31  1  0  0  0  0
  8  9  1  0  0  0  0
  8 10  1  0  0  0  0
  8 32  1  0  0  0  0
  9 33  1  0  0  0  0
 10 11  1  0  0  0  0
 10 34  1  0  0  0  0
 10 35  1  0  0  0  0
 11 18  1  0  0  0  0
 11 12  1  0  0  0  0
 11 52  1  0  0  0  0
 12 13  1  0  0  0  0
 12 36  1  0  0  0  0
 12 37  1  0  0  0  0
 13 14  1  0  0  0  0
 13 15  1  0  0  0  0
 13 38  1  0  0  0  0
 14 39  1  0  0  0  0
 14 40  1  0  0  0  0
 14 41  1  0  0  0  0
 15 16  1  0  0  0  0
 16 17  1  0  0  0  0
 16 18  1  0  0  0  0
 16 42  1  0  0  0  0
 17 43  1  0  0  0  0
 17 44  1  0  0  0  0
 17 45  1  0  0  0  0
 18 46  1  0  0  0  0
 18 47  1  0  0  0  0
 19 24  2  0  0  0  0
 19 20  1  0  0  0  0
 20 21  2  0  0  0  0
 20 48  1  0  0  0  0
 21 22  1  0  0  0  0
 21 49  1  0  0  0  0
 22 23  2  0  0  0  0
 22 50  1  0  0  0  0
 23 24  1  0  0  0  0
 23 51  1  0  0  0  0
M  CHG  1  11   1
M  END
> <s_m_source_file>
AV-unprocessed.smi

> <i_m_source_file_index>
1570

> <i_lp_mmshare_version>
43012

> <i_f3d_flags>
0

> <s_epik_input>
W2NIXTFbY0hdW2NIXVtjSF1jKGMxMiluKFtDSDJdW0NIM10pYyg9TyluMltDSDJdW0NASF0oW09IXSlbQ0gyXU4zW0NIMl1bQ0BASF0oW0NIM10pT1tDQEBIXShbQ0gzXSlbQ0gyXTM=

> <s_epik_cmdline>
J2VwaWtfcHl0aG9uJywgJy1waCcsICc3LjAnLCAnLXRuJywgJzgnLCAnLW1hJywgJzIwMCcsICctbWV0YWxfYmluZGluZycsICctaW1hZScsICc8aW5maWxlLm1hZT4nLCAnLW9tYWUnLCAnPG91dGZpbGUubWFlPic=

> <r_epik_Ionization_Penalty>
0.706332

> <r_epik_Ionization_Penalty_Charging>
0.706318

> <r_epik_Ionization_Penalty_Neutral>
1.42224e-05

> <r_epik_State_Penalty>
0.729493

> <r_epik_Charging_Adjusted_Penalty>
1.43581

> <i_epik_Tot_Q>
1

> <i_epik_Tot_abs_Q>
1

> <r_epik_Metal_State_Penalty>
0.729493

> <b_epik_Metal_Only>
0

> <s_lp_Force_Field>
OPLS_2005

> <r_lp_Energy>
50.1879

> <b_lp_Chiralities_Consistent>
1

> <s_lp_Variant>
AV-unprocessed.smi:1570-7

> <Gold.Version>
5.8.1

> <Gold.Id.Protein>
6NUR|6NUR_protein|mol2

> <Gold.PLP.Fitness>
44.7269

> <Gold.PLP.PLP>
-41.1501

> <Gold.PLP.part.hbond>
-1.0000

> <Gold.PLP.part.metal>
0.0000

> <Gold.PLP.part.buried>
-6.1775

> <Gold.PLP.part.nonpolar>
-34.6708

> <Gold.PLP.part.repulsive>
0.2420

> <Gold.PLP.ligand.clash>
0.0000

> <Gold.PLP.ligand.torsion>
1.2853

> <Gold.PLP.Chemscore.Hbond>
2.0000

> <Gold.PLP.Chemscore.CHOScore>
0.0000

> <Gold.PLP.Chemscore.Metal>
0.0000

> <Gold.Chemscore.Hbonds>
donor molecule, donor type, donor heavy atom, donor atom, acceptor molecule, acceptor atom, score
      L1  H    11    52       P1  7948  2.00

> <Gold.PLP.Chemscore.Internal.Correction>
0.1474

> <Gold.Rescore>
     Score         DG    S(hbond)    S(metal)    S(lipo)     H(rot)  DE(clash)    DE(int)     intcor
     15.41     -16.82       0.98        0.00     115.51       2.13       0.15       1.26       ----

> <Gold.Chemscore.Fitness>
15.4100

> <Gold.Chemscore.DG>
-16.8218

> <Gold.Chemscore.ZeroCoef>
-5.4800

> <Gold.Chemscore.Hbond>
0.9824

> <Gold.Chemscore.Metal>
0.0000

> <Gold.Chemscore.Lipo>
115.5060

> <Gold.Chemscore.Internal_Hbond>
0.0000

> <Gold.Chemscore.DEClash>
0.1550

> <Gold.Chemscore.DEInternal>
1.2568

> <Gold.Chemscore.Rot>
2.1303

> <Gold.Chemscore.Internal.Correction>
   9.000000E+99

> <Gold.Chemscore.Hbonds>
donor molecule, donor type, donor heavy atom, donor atom, acceptor molecule, acceptor atom, score
      L1  H    11    52       P1  7948  0.99

> <Gold.Chemscore.Hbond.Weighted>
-3.2812

> <Gold.Chemscore.Metal.Weighted>
-0.0000

> <Gold.Chemscore.Lipo.Weighted>
-13.5142

> <Gold.Chemscore.Internal_Hbond.Weighted>
0.0000

> <Gold.Chemscore.DEClash.Weighted>
0.1550

> <Gold.Chemscore.DEInternal.Weighted>
1.2568

> <Gold.Chemscore.Rot.Weighted>
5.4535

> <Gold.Chemscore.Internal.Correction.Weighted>
   9.000000E+99

> <Gold.Protein.RotatedTorsions>
[ 6907 6896 6895 6894 ] final   -7.91 input  -60.11 | X-H torsion
[ 7974 7965 7964 7962 ] final   35.32 input  175.53 | X-H torsion
[ 8008 7997 7996 7995 ] final  134.29 input   59.86 | X-H torsion
[ 10167 10162 10161 10158 ] final   19.13 input  -65.29 | X-H torsion
[ 10718 10713 10712 10709 ] final  165.74 input   66.30 | X-H torsion
[ 10763 10752 10751 10750 ] final  -49.78 input  -60.55 | X-H torsion
[ 11005 11000 10999 10996 ] final   78.65 input  -57.11 | X-H torsion

> <Gold.Protein.ActiveResidues>
 VAL166  LYS551  ARG553  GLY616  TRP617  ASP618  TYR619  PRO620  LYS621  CYS622 
 ASP623  PHE694  ASN695  SER759  ASP760  ASP761  ALA762  ILE779  LEU786  VAL792 
 PHE793  MET794  SER795  GLU796  ALA797  LYS798  CYS799  TRP800  GLU811  SER814 

> <Gold.Protein.RotatedAtoms>
  151.4421  135.1021  159.9672 H   0  0  0  0  0  0  0  0  0  0  0  0  # atno 6907 bound_to 6896
  152.4919  133.8519  159.7216 H   0  0  0  0  0  0  0  0  0  0  0  0  # atno 6908 bound_to 6896
  150.9081  133.6974  159.2889 H   0  0  0  0  0  0  0  0  0  0  0  0  # atno 6909 bound_to 6896
  146.1291  139.6157  142.9238 H   0  0  0  0  0  0  0  0  0  0  0  0  # atno 7974 bound_to 7965
  156.2998  140.2500  156.3392 H   0  0  0  0  0  0  0  0  0  0  0  0  # atno 8008 bound_to 7997
  154.9071  140.0404  157.1945 H   0  0  0  0  0  0  0  0  0  0  0  0  # atno 8009 bound_to 7997
  154.8442  140.2896  155.5644 H   0  0  0  0  0  0  0  0  0  0  0  0  # atno 8010 bound_to 7997
  140.5602  143.9352  150.6637 H   0  0  0  0  0  0  0  0  0  0  0  0  # atno 10167 bound_to 10162
  157.0759  131.0379  151.2594 H   0  0  0  0  0  0  0  0  0  0  0  0  # atno 10718 bound_to 10713
  154.0996  135.6565  153.4866 H   0  0  0  0  0  0  0  0  0  0  0  0  # atno 10763 bound_to 10752
  153.0293  135.5222  154.7299 H   0  0  0  0  0  0  0  0  0  0  0  0  # atno 10764 bound_to 10752
  154.6447  135.2993  155.0029 H   0  0  0  0  0  0  0  0  0  0  0  0  # atno 10765 bound_to 10752
  139.9204  134.7780  156.1676 H   0  0  0  0  0  0  0  0  0  0  0  0  # atno 11005 bound_to 11000
  145.5300  141.0427  143.2388 LP  0  0  0  0  0  0  0  0  0  0  0  0  # atno 17320 bound_to 7965
  144.7672  139.6817  143.7210 LP  0  0  0  0  0  0  0  0  0  0  0  0  # atno 17321 bound_to 7965
  140.2800  143.3396  152.1160 LP  0  0  0  0  0  0  0  0  0  0  0  0  # atno 17342 bound_to 10162
  139.5066  144.6817  151.5991 LP  0  0  0  0  0  0  0  0  0  0  0  0  # atno 17343 bound_to 10162
  157.4840  130.7782  149.7442 LP  0  0  0  0  0  0  0  0  0  0  0  0  # atno 17370 bound_to 10713
  155.9937  130.3922  150.2889 LP  0  0  0  0  0  0  0  0  0  0  0  0  # atno 17371 bound_to 10713
  141.0720  133.6792  156.2159 LP  0  0  0  0  0  0  0  0  0  0  0  0  # atno 17394 bound_to 11000
  140.6491  134.5085  157.5576 LP  0  0  0  0  0  0  0  0  0  0  0  0  # atno 17395 bound_to 11000

$$$$
