AV-unprocessed.smi:34|AV-procd|sdf|245|dock9
  -GOLD-   2262016 03D 1   1.00000     0.00000
 Structure written by MMmdl.
 54 58  0  0  0  0  0  0  0  0  2 V2000
  142.3387  139.1560  157.1266 O   0  0  0  0  0  0  0  0  0  0  0  0
  142.4395  138.8217  155.9442 C   0  0  0  0  0  0  0  0  0  0  0  0
  143.5746  138.5832  155.2393 N   0  5  0  0  0  0  0  0  0  0  0  0
  144.7285  139.1572  155.6124 C   0  0  0  0  0  0  0  0  0  0  0  0
  144.8215  139.8008  156.8036 N   0  0  0  0  0  0  0  0  0  0  0  0
  145.9770  140.3604  157.1804 C   0  0  0  0  0  0  0  0  0  0  0  0
  147.1464  140.3888  156.5345 N   0  0  0  0  0  0  0  0  0  0  0  0
  147.0688  139.7422  155.3347 C   0  0  0  0  0  0  0  0  0  0  0  0
  145.9045  139.1041  154.8146 C   0  0  0  0  0  0  0  0  0  0  0  0
  146.1652  138.5327  153.5780 N   0  0  0  0  0  0  0  0  0  0  0  0
  147.4473  138.8438  153.4046 C   0  0  0  0  0  0  0  0  0  0  0  0
  148.0549  139.5510  154.3782 N   0  0  0  0  0  0  0  0  0  0  0  0
  149.4802  140.0110  154.4002 C   0  0  2  0  0  0  0  0  0  0  0  0
  150.1420  139.3581  155.4414 O   0  0  0  0  0  0  0  0  0  0  0  0
  151.0029  140.2827  156.0942 C   0  0  2  0  0  0  0  0  0  0  0  0
  151.3549  139.7953  157.5059 C   0  0  0  0  0  0  0  0  0  0  0  0
  152.0359  140.8239  158.2066 O   0  0  0  0  0  0  0  0  0  0  0  0
  152.4155  140.6303  159.4853 C   0  0  0  0  0  0  0  0  0  0  0  0
  152.7089  139.5265  159.9495 O   0  0  0  0  0  0  0  0  0  0  0  0
  152.4502  141.8925  160.2794 C   0  0  0  0  0  0  0  0  0  0  0  0
  152.9260  141.8601  161.6112 C   0  0  0  0  0  0  0  0  0  0  0  0
  152.9751  143.0361  162.3846 C   0  0  0  0  0  0  0  0  0  0  0  0
  152.5473  144.2592  161.8361 C   0  0  0  0  0  0  0  0  0  0  0  0
  152.0693  144.3044  160.5134 C   0  0  0  0  0  0  0  0  0  0  0  0
  152.0203  143.1293  159.7381 C   0  0  0  0  0  0  0  0  0  0  0  0
  150.2316  141.6024  156.0286 C   0  0  2  0  0  0  0  0  0  0  0  0
  149.2836  141.6148  156.9681 F   0  0  0  0  0  0  0  0  0  0  0  0
  149.6241  141.5306  154.6352 C   0  0  2  0  0  0  0  0  0  0  0  0
  148.4351  142.2925  154.5223 O   0  0  0  0  0  0  0  0  0  0  0  0
  141.1846  138.5731  155.1507 C   0  0  0  0  0  0  0  0  0  0  0  0
  139.9411  139.0293  155.6446 C   0  0  0  0  0  0  0  0  0  0  0  0
  138.7593  138.8296  154.9044 C   0  0  0  0  0  0  0  0  0  0  0  0
  138.8101  138.1800  153.6568 C   0  0  0  0  0  0  0  0  0  0  0  0
  140.0441  137.7338  153.1481 C   0  0  0  0  0  0  0  0  0  0  0  0
  141.2261  137.9328  153.8879 C   0  0  0  0  0  0  0  0  0  0  0  0
  145.9633  140.8552  158.1400 H   0  0  0  0  0  0  0  0  0  0  0  0
  147.9768  138.5409  152.5134 H   0  0  0  0  0  0  0  0  0  0  0  0
  149.8827  139.6947  153.4368 H   0  0  0  0  0  0  0  0  0  0  0  0
  151.9127  140.3622  155.4961 H   0  0  0  0  0  0  0  0  0  0  0  0
  150.4576  139.4930  158.0475 H   0  0  0  0  0  0  0  0  0  0  0  0
  152.0027  138.9202  157.4382 H   0  0  0  0  0  0  0  0  0  0  0  0
  153.2610  140.9330  162.0536 H   0  0  0  0  0  0  0  0  0  0  0  0
  153.3421  142.9991  163.3997 H   0  0  0  0  0  0  0  0  0  0  0  0
  152.5855  145.1612  162.4293 H   0  0  0  0  0  0  0  0  0  0  0  0
  151.7394  145.2428  160.0920 H   0  0  0  0  0  0  0  0  0  0  0  0
  151.6476  143.1994  158.7265 H   0  0  0  0  0  0  0  0  0  0  0  0
  150.8599  142.4801  156.1830 H   0  0  0  0  0  0  0  0  0  0  0  0
  150.3477  141.9029  153.9088 H   0  0  0  0  0  0  0  0  0  0  0  0
  148.6050  143.1674  154.8361 H   0  0  0  0  0  0  0  0  0  0  0  0
  139.8856  139.5320  156.5996 H   0  0  0  0  0  0  0  0  0  0  0  0
  137.8142  139.1771  155.2944 H   0  0  0  0  0  0  0  0  0  0  0  0
  137.9045  138.0278  153.0885 H   0  0  0  0  0  0  0  0  0  0  0  0
  140.0862  137.2413  152.1880 H   0  0  0  0  0  0  0  0  0  0  0  0
  142.1646  137.5927  153.4743 H   0  0  0  0  0  0  0  0  0  0  0  0
  1  2  2  0  0  0  0
  2  3  1  0  0  0  0
  2 30  1  0  0  0  0
  3  4  1  0  0  0  0
  4  9  1  0  0  0  0
  4  5  2  0  0  0  0
  5  6  1  0  0  0  0
  6  7  2  0  0  0  0
  6 36  1  0  0  0  0
  7  8  1  0  0  0  0
  8 12  1  0  0  0  0
  8  9  2  0  0  0  0
  9 10  1  0  0  0  0
 10 11  2  0  0  0  0
 11 12  1  0  0  0  0
 11 37  1  0  0  0  0
 12 13  1  0  0  0  0
 13 28  1  0  0  0  0
 13 14  1  0  0  0  0
 13 38  1  0  0  0  0
 14 15  1  0  0  0  0
 15 16  1  0  0  0  0
 15 26  1  0  0  0  0
 15 39  1  0  0  0  0
 16 17  1  0  0  0  0
 16 40  1  0  0  0  0
 16 41  1  0  0  0  0
 17 18  1  0  0  0  0
 18 19  2  0  0  0  0
 18 20  1  0  0  0  0
 20 25  1  0  0  0  0
 20 21  2  0  0  0  0
 21 22  1  0  0  0  0
 21 42  1  0  0  0  0
 22 23  2  0  0  0  0
 22 43  1  0  0  0  0
 23 24  1  0  0  0  0
 23 44  1  0  0  0  0
 24 25  2  0  0  0  0
 24 45  1  0  0  0  0
 25 46  1  0  0  0  0
 26 27  1  0  0  0  0
 26 28  1  0  0  0  0
 26 47  1  0  0  0  0
 28 29  1  0  0  0  0
 28 48  1  0  0  0  0
 29 49  1  0  0  0  0
 30 35  1  0  0  0  0
 30 31  2  0  0  0  0
 31 32  1  0  0  0  0
 31 50  1  0  0  0  0
 32 33  2  0  0  0  0
 32 51  1  0  0  0  0
 33 34  1  0  0  0  0
 33 52  1  0  0  0  0
 34 35  2  0  0  0  0
 34 53  1  0  0  0  0
 35 54  1  0  0  0  0
M  CHG  1   3  -1
M  END
> <s_m_source_file>
AV-unprocessed.smi

> <i_m_source_file_index>
34

> <i_lp_mmshare_version>
43012

> <i_f3d_flags>
0

> <s_epik_input>
W2NIXTFbY0hdW2NIXVtjSF1bY0hdYzFDKD1PKVtOSF1jKG5bY0hdbjIpYyhjMjMpbltjSF1uM1tDQEBIXTRPW0NASF0oW0NAQEhdKEYpW0NASF00W09IXSlbQ0gyXU9DKD1PKWM1W2NIXVtjSF1bY0hdW2NIXVtjSF01

> <s_epik_cmdline>
J2VwaWtfcHl0aG9uJywgJy1waCcsICc3LjAnLCAnLXRuJywgJzgnLCAnLW1hJywgJzIwMCcsICctbWV0YWxfYmluZGluZycsICctaW1hZScsICc8aW5maWxlLm1hZT4nLCAnLW9tYWUnLCAnPG91dGZpbGUubWFlPic=

> <r_lp_tautomer_probability>
1

> <r_epik_Ionization_Penalty>
4.33227

> <r_epik_Ionization_Penalty_Charging>
3.41027

> <r_epik_Ionization_Penalty_Neutral>
0.922001

> <r_epik_State_Penalty>
3.41358

> <r_epik_Charging_Adjusted_Penalty>
6.82385

> <i_epik_Tot_Q>
-1

> <i_epik_Tot_abs_Q>
1

> <r_epik_Metal_State_Penalty>
0.496292

> <b_epik_Metal_Only>
1

> <s_epik_Chemistry_Notes>
This compound has an ester and may undergo hydrolysis at high or low pH. This compound contains an acetal/aminal-like group ( X-CH(R)-Y where X, Y are N, S, or O) that may be acid/base labile, releasing an aldehyde.

> <s_lp_Force_Field>
OPLS_2005

> <r_lp_Energy>
53.545

> <b_lp_Chiralities_Consistent>
1

> <s_lp_Variant>
AV-unprocessed.smi:34-31

> <Gold.Version>
5.8.1

> <Gold.Id.Protein>
6NUR|6NUR_protein|mol2

> <Gold.PLP.Fitness>
60.2348

> <Gold.PLP.PLP>
-52.6030

> <Gold.PLP.part.hbond>
-1.0000

> <Gold.PLP.part.metal>
0.0000

> <Gold.PLP.part.buried>
-7.0674

> <Gold.PLP.part.nonpolar>
-43.6741

> <Gold.PLP.part.repulsive>
0.2806

> <Gold.PLP.ligand.clash>
0.0000

> <Gold.PLP.ligand.torsion>
0.6977

> <Gold.PLP.Chemscore.Hbond>
1.0000

> <Gold.PLP.Chemscore.CHOScore>
1.8383

> <Gold.PLP.Chemscore.Metal>
0.0000

> <Gold.Chemscore.Hbonds>
donor molecule, donor type, donor heavy atom, donor atom, acceptor molecule, acceptor atom, score
      L1  H    29    49       P1  8028  1.00
      L1  C    11    37       P1  7948  0.91
      L1  C    11    37       P1  7957  0.83

> <Gold.PLP.Chemscore.Internal.Correction>
0.5123

> <Gold.Rescore>
     Score         DG    S(hbond)    S(metal)    S(lipo)     H(rot)  DE(clash)    DE(int)     intcor
     11.08     -16.60       0.96        0.00     126.69       2.69       0.31       5.21       ----

> <Gold.Chemscore.Fitness>
11.0788

> <Gold.Chemscore.DG>
-16.5986

> <Gold.Chemscore.ZeroCoef>
-5.4800

> <Gold.Chemscore.Hbond>
0.9560

> <Gold.Chemscore.Metal>
0.0000

> <Gold.Chemscore.Lipo>
126.6925

> <Gold.Chemscore.Internal_Hbond>
0.0000

> <Gold.Chemscore.DEClash>
0.3059

> <Gold.Chemscore.DEInternal>
5.2139

> <Gold.Chemscore.Rot>
2.6944

> <Gold.Chemscore.Internal.Correction>
   9.000000E+99

> <Gold.Chemscore.Hbonds>
donor molecule, donor type, donor heavy atom, donor atom, acceptor molecule, acceptor atom, score
      L1  H    29    49       P1  8028  1.00

> <Gold.Chemscore.Hbond.Weighted>
-3.1931

> <Gold.Chemscore.Metal.Weighted>
-0.0000

> <Gold.Chemscore.Lipo.Weighted>
-14.8230

> <Gold.Chemscore.Internal_Hbond.Weighted>
0.0000

> <Gold.Chemscore.DEClash.Weighted>
0.3059

> <Gold.Chemscore.DEInternal.Weighted>
5.2139

> <Gold.Chemscore.Rot.Weighted>
6.8975

> <Gold.Chemscore.Internal.Correction.Weighted>
   9.000000E+99

> <Gold.Protein.RotatedTorsions>
[ 6907 6896 6895 6894 ] final  -89.32 input  -60.11 | X-H torsion
[ 7974 7965 7964 7962 ] final  -72.28 input  175.53 | X-H torsion
[ 8008 7997 7996 7995 ] final   19.95 input   59.86 | X-H torsion
[ 10167 10162 10161 10158 ] final  141.52 input  -65.29 | X-H torsion
[ 10718 10713 10712 10709 ] final  120.34 input   66.30 | X-H torsion
[ 10763 10752 10751 10750 ] final   93.68 input  -60.55 | X-H torsion
[ 11005 11000 10999 10996 ] final -172.37 input  -57.11 | X-H torsion

> <Gold.Protein.ActiveResidues>
 VAL166  LYS551  ARG553  GLY616  TRP617  ASP618  TYR619  PRO620  LYS621  CYS622 
 ASP623  PHE694  ASN695  SER759  ASP760  ASP761  ALA762  ILE779  LEU786  VAL792 
 PHE793  MET794  SER795  GLU796  ALA797  LYS798  CYS799  TRP800  GLU811  SER814 

> <Gold.Protein.RotatedAtoms>
  150.6873  134.2606  159.4547 H   0  0  0  0  0  0  0  0  0  0  0  0  # atno 6907 bound_to 6896
  152.0536  134.9635  160.0584 H   0  0  0  0  0  0  0  0  0  0  0  0  # atno 6908 bound_to 6896
  152.1090  133.4256  159.4659 H   0  0  0  0  0  0  0  0  0  0  0  0  # atno 6909 bound_to 6896
  145.6671  140.9233  143.0902 H   0  0  0  0  0  0  0  0  0  0  0  0  # atno 7974 bound_to 7965
  154.9284  140.3037  155.5180 H   0  0  0  0  0  0  0  0  0  0  0  0  # atno 8008 bound_to 7997
  156.3005  140.2358  156.4278 H   0  0  0  0  0  0  0  0  0  0  0  0  # atno 8009 bound_to 7997
  154.8261  140.0421  157.1433 H   0  0  0  0  0  0  0  0  0  0  0  0  # atno 8010 bound_to 7997
  139.5018  144.6166  151.6149 H   0  0  0  0  0  0  0  0  0  0  0  0  # atno 10167 bound_to 10162
  157.5898  131.1065  150.8021 H   0  0  0  0  0  0  0  0  0  0  0  0  # atno 10718 bound_to 10713
  153.2330  135.4317  155.0616 H   0  0  0  0  0  0  0  0  0  0  0  0  # atno 10763 bound_to 10752
  154.8306  135.3384  154.6759 H   0  0  0  0  0  0  0  0  0  0  0  0  # atno 10764 bound_to 10752
  153.7186  135.7018  153.5075 H   0  0  0  0  0  0  0  0  0  0  0  0  # atno 10765 bound_to 10752
  140.4978  134.5923  157.4977 H   0  0  0  0  0  0  0  0  0  0  0  0  # atno 11005 bound_to 11000
  144.7069  139.8524  143.7427 LP  0  0  0  0  0  0  0  0  0  0  0  0  # atno 17320 bound_to 7965
  146.1076  139.4078  143.0307 LP  0  0  0  0  0  0  0  0  0  0  0  0  # atno 17321 bound_to 7965
  140.5856  143.9870  150.6293 LP  0  0  0  0  0  0  0  0  0  0  0  0  # atno 17342 bound_to 10162
  140.3033  143.3246  152.0950 LP  0  0  0  0  0  0  0  0  0  0  0  0  # atno 17343 bound_to 10162
  156.8446  130.5060  149.5317 LP  0  0  0  0  0  0  0  0  0  0  0  0  # atno 17370 bound_to 10713
  156.0951  130.5926  150.9799 LP  0  0  0  0  0  0  0  0  0  0  0  0  # atno 17371 bound_to 10713
  139.9731  134.7259  156.0002 LP  0  0  0  0  0  0  0  0  0  0  0  0  # atno 17394 bound_to 11000
  141.1451  133.6557  156.3844 LP  0  0  0  0  0  0  0  0  0  0  0  0  # atno 17395 bound_to 11000

$$$$
