AV-unprocessed.smi:1665|AV-procd|sdf|6669|dock7
  -GOLD-   22720 7383D 1   1.00000     0.00000
 Structure written by MMmdl.
 37 38  0  0  0  0  0  0  0  0  1 V2000
  151.5036  140.8267  158.3922 C   0  0  0  0  0  0  0  0  0  0  0  0
  152.4561  141.3059  159.4989 C   0  0  2  0  0  0  0  0  0  0  0  0
  153.2021  142.5877  159.0817 C   0  0  0  0  0  0  0  0  0  0  0  0
  152.3774  143.7766  159.2097 N   0  0  0  0  0  0  0  0  0  0  0  0
  152.2903  144.6483  160.2744 C   0  0  0  0  0  0  0  0  0  0  0  0
  151.3845  145.6123  159.9362 C   0  0  0  0  0  0  0  0  0  0  0  0
  150.9669  145.2398  158.6279 C   0  0  0  0  0  0  0  0  0  0  0  0
  151.5651  144.1427  158.1945 N   0  0  0  0  0  0  0  0  0  0  0  0
  153.4151  140.2545  159.8305 N   0  0  0  0  0  0  0  0  0  0  0  0
  154.2086  140.2393  160.9113 C   0  0  0  0  0  0  0  0  0  0  0  0
  154.1669  141.0951  161.7953 O   0  0  0  0  0  0  0  0  0  0  0  0
  155.2145  139.0876  161.0007 C   0  0  0  0  0  0  0  0  0  0  0  0
  154.5631  137.6946  160.8576 C   0  0  0  0  0  0  0  0  0  0  0  0
  154.5561  136.9299  162.1072 N   0  0  0  0  0  0  0  0  0  0  0  0
  153.8239  137.4364  163.2600 C   0  0  0  0  0  0  0  0  0  0  0  0
  154.2864  136.6405  164.4813 C   0  0  0  0  0  0  0  0  0  0  0  0
  154.8785  135.0425  163.8896 S   0  0  0  0  0  0  0  0  0  0  0  0
  155.1204  135.6668  162.2227 C   0  0  0  0  0  0  0  0  0  0  0  0
  155.7040  135.0186  161.3560 O   0  0  0  0  0  0  0  0  0  0  0  0
  150.7670  141.5935  158.1518 H   0  0  0  0  0  0  0  0  0  0  0  0
  150.9568  139.9338  158.6970 H   0  0  0  0  0  0  0  0  0  0  0  0
  152.0467  140.5881  157.4770 H   0  0  0  0  0  0  0  0  0  0  0  0
  151.8614  141.5358  160.3853 H   0  0  0  0  0  0  0  0  0  0  0  0
  154.1094  142.7156  159.6748 H   0  0  0  0  0  0  0  0  0  0  0  0
  153.5203  142.5132  158.0412 H   0  0  0  0  0  0  0  0  0  0  0  0
  152.8741  144.5114  161.1726 H   0  0  0  0  0  0  0  0  0  0  0  0
  151.0699  146.4572  160.5306 H   0  0  0  0  0  0  0  0  0  0  0  0
  150.2567  145.7348  157.9819 H   0  0  0  0  0  0  0  0  0  0  0  0
  153.5220  139.5103  159.1558 H   0  0  0  0  0  0  0  0  0  0  0  0
  155.9560  139.2237  160.2130 H   0  0  0  0  0  0  0  0  0  0  0  0
  155.7607  139.1468  161.9433 H   0  0  0  0  0  0  0  0  0  0  0  0
  153.5415  137.8003  160.4893 H   0  0  0  0  0  0  0  0  0  0  0  0
  155.0927  137.1214  160.0953 H   0  0  0  0  0  0  0  0  0  0  0  0
  153.9848  138.5055  163.4019 H   0  0  0  0  0  0  0  0  0  0  0  0
  152.7583  137.2809  163.0867 H   0  0  0  0  0  0  0  0  0  0  0  0
  155.1224  137.1506  164.9610 H   0  0  0  0  0  0  0  0  0  0  0  0
  153.4968  136.5220  165.2234 H   0  0  0  0  0  0  0  0  0  0  0  0
  1  2  1  0  0  0  0
  1 20  1  0  0  0  0
  1 21  1  0  0  0  0
  1 22  1  0  0  0  0
  2  3  1  0  0  0  0
  2  9  1  0  0  0  0
  2 23  1  0  0  0  0
  3  4  1  0  0  0  0
  3 24  1  0  0  0  0
  3 25  1  0  0  0  0
  4  8  1  0  0  0  0
  4  5  1  0  0  0  0
  5  6  2  0  0  0  0
  5 26  1  0  0  0  0
  6  7  1  0  0  0  0
  6 27  1  0  0  0  0
  7  8  2  0  0  0  0
  7 28  1  0  0  0  0
  9 10  1  0  0  0  0
  9 29  1  0  0  0  0
 10 11  2  0  0  0  0
 10 12  1  0  0  0  0
 12 13  1  0  0  0  0
 12 30  1  0  0  0  0
 12 31  1  0  0  0  0
 13 14  1  0  0  0  0
 13 32  1  0  0  0  0
 13 33  1  0  0  0  0
 14 18  1  0  0  0  0
 14 15  1  0  0  0  0
 15 16  1  0  0  0  0
 15 34  1  0  0  0  0
 15 35  1  0  0  0  0
 16 17  1  0  0  0  0
 16 36  1  0  0  0  0
 16 37  1  0  0  0  0
 17 18  1  0  0  0  0
 18 19  2  0  0  0  0
M  END
> <s_m_source_file>
AV-unprocessed.smi

> <i_m_source_file_index>
1665

> <i_lp_mmshare_version>
43012

> <i_f3d_flags>
0

> <s_epik_input>
bjFbY0hdW2NIXVtjSF1uMVtDSDJdW0NAQEhdKFtDSDNdKVtOSF1DKD1PKVtDSDJdW0NIMl1OMltDSDJdW0NIMl1TQzI9Tw==

> <s_epik_cmdline>
J2VwaWtfcHl0aG9uJywgJy1waCcsICc3LjAnLCAnLXRuJywgJzgnLCAnLW1hJywgJzIwMCcsICctbWV0YWxfYmluZGluZycsICctaW1hZScsICc8aW5maWxlLm1hZT4nLCAnLW9tYWUnLCAnPG91dGZpbGUubWFlPic=

> <r_lp_tautomer_probability>
1

> <r_epik_Ionization_Penalty>
0.000300775

> <r_epik_Ionization_Penalty_Charging>
0

> <r_epik_Ionization_Penalty_Neutral>
0.000300775

> <r_epik_State_Penalty>
-0

> <r_epik_Charging_Adjusted_Penalty>
0

> <i_epik_Tot_Q>
0

> <i_epik_Tot_abs_Q>
0

> <r_epik_Metal_State_Penalty>
-0

> <b_epik_Metal_Only>
0

> <s_lp_Force_Field>
OPLS_2005

> <r_lp_Energy>
0.465271

> <b_lp_Chiralities_Consistent>
1

> <s_lp_Variant>
AV-unprocessed.smi:1665-1

> <Gold.Version>
5.8.1

> <Gold.Id.Protein>
6NUR|6NUR_protein|mol2

> <Gold.PLP.Fitness>
43.8529

> <Gold.PLP.PLP>
-42.9791

> <Gold.PLP.part.hbond>
0.0000

> <Gold.PLP.part.metal>
0.0000

> <Gold.PLP.part.buried>
-6.3878

> <Gold.PLP.part.nonpolar>
-35.8540

> <Gold.PLP.part.repulsive>
0.1881

> <Gold.PLP.ligand.clash>
0.0000

> <Gold.PLP.ligand.torsion>
1.0778

> <Gold.PLP.Chemscore.Hbond>
0.0000

> <Gold.PLP.Chemscore.CHOScore>
0.9809

> <Gold.PLP.Chemscore.Metal>
0.0000

> <Gold.Chemscore.Hbonds>
donor molecule, donor type, donor heavy atom, donor atom, acceptor molecule, acceptor atom, score
      L1  C     7    28       P1  8029  0.85

> <Gold.PLP.Chemscore.Internal.Correction>
0.0866

> <Gold.Rescore>
     Score         DG    S(hbond)    S(metal)    S(lipo)     H(rot)  DE(clash)    DE(int)     intcor
     10.92     -11.75       0.00        0.00     101.78       2.20       0.05       0.77       ----

> <Gold.Chemscore.Fitness>
10.9246

> <Gold.Chemscore.DG>
-11.7499

> <Gold.Chemscore.ZeroCoef>
-5.4800

> <Gold.Chemscore.Hbond>
0.0000

> <Gold.Chemscore.Metal>
0.0000

> <Gold.Chemscore.Lipo>
101.7831

> <Gold.Chemscore.Internal_Hbond>
0.0000

> <Gold.Chemscore.DEClash>
0.0544

> <Gold.Chemscore.DEInternal>
0.7709

> <Gold.Chemscore.Rot>
2.2026

> <Gold.Chemscore.Internal.Correction>
   9.000000E+99

> <Gold.Chemscore.Hbond.Weighted>
-0.0000

> <Gold.Chemscore.Metal.Weighted>
-0.0000

> <Gold.Chemscore.Lipo.Weighted>
-11.9086

> <Gold.Chemscore.Internal_Hbond.Weighted>
0.0000

> <Gold.Chemscore.DEClash.Weighted>
0.0544

> <Gold.Chemscore.DEInternal.Weighted>
0.7709

> <Gold.Chemscore.Rot.Weighted>
5.6387

> <Gold.Chemscore.Internal.Correction.Weighted>
   9.000000E+99

> <Gold.Protein.RotatedTorsions>
[ 6907 6896 6895 6894 ] final   95.37 input  -60.11 | X-H torsion
[ 7974 7965 7964 7962 ] final  -24.18 input  175.53 | X-H torsion
[ 8008 7997 7996 7995 ] final -131.53 input   59.86 | X-H torsion
[ 10167 10162 10161 10158 ] final   90.57 input  -65.29 | X-H torsion
[ 10718 10713 10712 10709 ] final -148.96 input   66.30 | X-H torsion
[ 10763 10752 10751 10750 ] final  -41.23 input  -60.55 | X-H torsion
[ 11005 11000 10999 10996 ] final  174.26 input  -57.11 | X-H torsion

> <Gold.Protein.ActiveResidues>
 VAL166  LYS551  ARG553  GLY616  TRP617  ASP618  TYR619  PRO620  LYS621  CYS622 
 ASP623  PHE694  ASN695  SER759  ASP760  ASP761  ALA762  ILE779  LEU786  VAL792 
 PHE793  MET794  SER795  GLU796  ALA797  LYS798  CYS799  TRP800  GLU811  SER814 

> <Gold.Protein.RotatedAtoms>
  152.5444  134.1051  159.8334 H   0  0  0  0  0  0  0  0  0  0  0  0  # atno 6907 bound_to 6896
  151.1124  133.5156  159.2612 H   0  0  0  0  0  0  0  0  0  0  0  0  # atno 6908 bound_to 6896
  151.1870  135.0395  159.8871 H   0  0  0  0  0  0  0  0  0  0  0  0  # atno 6909 bound_to 6896
  146.1570  140.4717  142.8587 H   0  0  0  0  0  0  0  0  0  0  0  0  # atno 7974 bound_to 7965
  155.3139  140.0458  157.3036 H   0  0  0  0  0  0  0  0  0  0  0  0  # atno 8008 bound_to 7997
  154.5418  140.2290  155.8596 H   0  0  0  0  0  0  0  0  0  0  0  0  # atno 8009 bound_to 7997
  156.1887  140.3056  155.9296 H   0  0  0  0  0  0  0  0  0  0  0  0  # atno 8010 bound_to 7997
  139.8460  144.6617  150.9226 H   0  0  0  0  0  0  0  0  0  0  0  0  # atno 10167 bound_to 10162
  156.4269  130.8056  151.2282 H   0  0  0  0  0  0  0  0  0  0  0  0  # atno 10718 bound_to 10713
  153.9590  135.6742  153.4745 H   0  0  0  0  0  0  0  0  0  0  0  0  # atno 10763 bound_to 10752
  153.0847  135.4905  154.8570 H   0  0  0  0  0  0  0  0  0  0  0  0  # atno 10764 bound_to 10752
  154.7283  135.3132  154.8893 H   0  0  0  0  0  0  0  0  0  0  0  0  # atno 10765 bound_to 10752
  140.3494  134.7208  157.4257 H   0  0  0  0  0  0  0  0  0  0  0  0  # atno 11005 bound_to 11000
  144.7977  140.6154  143.6499 LP  0  0  0  0  0  0  0  0  0  0  0  0  # atno 17320 bound_to 7965
  145.4682  139.1506  143.3828 LP  0  0  0  0  0  0  0  0  0  0  0  0  # atno 17321 bound_to 7965
  140.7793  143.3870  151.1377 LP  0  0  0  0  0  0  0  0  0  0  0  0  # atno 17342 bound_to 10162
  139.7512  143.8776  152.3077 LP  0  0  0  0  0  0  0  0  0  0  0  0  # atno 17343 bound_to 10162
  157.7508  131.0210  150.3733 LP  0  0  0  0  0  0  0  0  0  0  0  0  # atno 17370 bound_to 10713
  156.4063  130.3925  149.6924 LP  0  0  0  0  0  0  0  0  0  0  0  0  # atno 17371 bound_to 10713
  140.0715  134.5856  155.8637 LP  0  0  0  0  0  0  0  0  0  0  0  0  # atno 17394 bound_to 11000
  141.2016  133.6620  156.5961 LP  0  0  0  0  0  0  0  0  0  0  0  0  # atno 17395 bound_to 11000

$$$$
