#       Name:                AV-unprocessed.smi:2168
#       Creating user name   scv26
#       Creation time:       Fri Mar 27 12:01:06 2020


#       File generated by GOLD software.
#

@<TRIPOS>MOLECULE
AV-unprocessed.smi:2168
    51    52     1
SMALL
NO_CHARGES


@<TRIPOS>ATOM
      1 ****        -0.7056   1.9250   5.2066 C.3            1 S1                 0.0000
      2 ****         0.0237   0.5914   5.4260 C.3            1 S1                 0.0000
      3 ****         0.0059  -0.2754   4.2321 N.pl3          1 S1                 0.0000
      4 ****        -1.3022  -0.8286   3.8290 C.3            1 S1                 0.0000
      5 ****        -1.9267  -0.0859   2.6367 C.3            1 S1                 0.0000
      6 ****         1.3353  -0.2537   3.1132 S.o2           1 S1                 0.0000
      7 ****         2.5947  -0.1030   3.8578 O.2            1 S1                 0.0000
      8 ****         1.1573  -1.3426   2.1400 O.2            1 S1                 0.0000
      9 ****         1.0122   1.2407   2.3173 N.3            1 S1                 0.0000
     10 ****         1.8327   1.6415   1.1774 C.3            1 S1                 0.0000
     11 ****         1.3895   0.9788  -0.1127 C.ar           1 S1                 0.0000
     12 ****         2.2748   0.1609  -0.8448 C.ar           1 S1                 0.0000
     13 ****         1.8260  -0.4622  -2.0276 C.ar           1 S1                 0.0000
     14 ****         0.4949  -0.2639  -2.4692 C.ar           1 S1                 0.0000
     15 ****        -0.0116  -0.8704  -3.6391 N.3            1 S1                 0.0000
     16 ****         0.8279  -0.7683  -4.8301 C.3            1 S1                 0.0000
     17 ****         0.3258  -1.7272  -5.9229 C.3            1 S1                 0.0000
     18 ****        -1.0500  -1.4763  -6.1880 O.3            1 S1                 0.0000
     19 ****        -1.8601  -1.7017  -5.0399 C.3            1 S1                 0.0000
     20 ****        -1.4410  -0.7405  -3.9149 C.3            1 S1                 0.0000
     21 ****        -0.3153   0.5319  -1.7269 N.pl3          1 S1                 1.0000
     22 ****         0.0750   1.1504  -0.5919 C.ar           1 S1                 0.0000
     23 ****        -0.6254   2.5523   6.0945 H              1 S1                 0.0000
     24 ****        -1.7675   1.7756   5.0134 H              1 S1                 0.0000
     25 ****        -0.2831   2.4853   4.3732 H              1 S1                 0.0000
     26 ****         1.0552   0.7823   5.7210 H              1 S1                 0.0000
     27 ****        -0.4325   0.0560   6.2593 H              1 S1                 0.0000
     28 ****        -1.1707  -1.8800   3.5724 H              1 S1                 0.0000
     29 ****        -1.9876  -0.8078   4.6770 H              1 S1                 0.0000
     30 ****        -2.9236  -0.4736   2.4267 H              1 S1                 0.0000
     31 ****        -1.3358  -0.2152   1.7305 H              1 S1                 0.0000
     32 ****        -2.0229   0.9828   2.8240 H              1 S1                 0.0000
     33 ****         0.7847   2.0017   2.9571 H              1 S1                 0.0000
     34 ****         1.7552   2.7220   1.0549 H              1 S1                 0.0000
     35 ****         2.8799   1.4216   1.3894 H              1 S1                 0.0000
     36 ****         3.2859  -0.0000  -0.4999 H              1 S1                 0.0000
     37 ****         2.5052  -1.1034  -2.5689 H              1 S1                 0.0000
     38 ****         0.7977   0.2594  -5.1941 H              1 S1                 0.0000
     39 ****         1.8697  -0.9982  -4.6125 H              1 S1                 0.0000
     40 ****         0.8960  -1.5813  -6.8403 H              1 S1                 0.0000
     41 ****         0.4667  -2.7669  -5.6230 H              1 S1                 0.0000
     42 ****        -2.9048  -1.5377  -5.3040 H              1 S1                 0.0000
     43 ****        -1.7727  -2.7406  -4.7174 H              1 S1                 0.0000
     44 ****        -2.0222  -0.9634  -3.0193 H              1 S1                 0.0000
     45 ****        -1.6615   0.2887  -4.2013 H              1 S1                 0.0000
     46 ****        -0.6758   1.7499  -0.0978 H              1 S1                 0.0000
     47 ****        -1.2750   0.6717  -2.0429 H              1 S1                 0.0000
     48 ****         0.1758   0.9965   1.8267 LP             1 S1                 0.0000
     49 ****         0.0607  -1.8263  -3.3542 LP             1 S1                 0.0000
     50 ****        -1.3538  -2.0831  -6.9225 LP             1 S1                 0.0000
     51 ****        -1.1555  -0.5247  -6.4767 LP             1 S1                 0.0000
@<TRIPOS>BOND
    1    1    2 1     
    2    1   23 1     
    3    1   24 1     
    4    1   25 1     
    5    2    3 1     
    6    2   26 1     
    7    2   27 1     
    8    3    4 1     
    9    3    6 1     
   10    4    5 1     
   11    4   28 1     
   12    4   29 1     
   13    5   30 1     
   14    5   31 1     
   15    5   32 1     
   16    6    7 2     
   17    6    8 2     
   18    6    9 1     
   19    9   10 1     
   20    9   33 1     
   21   10   11 1     
   22   10   34 1     
   23   10   35 1     
   24   11   22 ar    
   25   11   12 ar    
   26   12   13 ar    
   27   12   36 1     
   28   13   14 ar    
   29   13   37 1     
   30   14   15 1     
   31   14   21 ar    
   32   15   20 1     
   33   15   16 1     
   34   16   17 1     
   35   16   38 1     
   36   16   39 1     
   37   17   18 1     
   38   17   40 1     
   39   17   41 1     
   40   18   19 1     
   41   19   20 1     
   42   19   42 1     
   43   19   43 1     
   44   20   44 1     
   45   20   45 1     
   46   21   22 ar    
   47   21   47 1     
   48   22   46 1     
   49    9   48 1     
   50   15   49 1     
   51   18   50 1     
   52   18   51 1     
@<TRIPOS>SUBSTRUCTURE
      1 S1             1
@<TRIPOS>SET
LONE_PAIRS      STATIC     ATOMS    <user>   **** ""
6 7 8 48 49 50 51
DONOR_HYDROGENS      STATIC     ATOMS    <user>   **** ""
2 33 47
ATOM$BLUE        STATIC     ATOMS    COLORGROUP SYSTEM
6 7 8 48 49 50 51
ATOM$RED        STATIC     ATOMS    COLORGROUP SYSTEM
2 33 47
