#       Name:                AV-unprocessed.smi:1047
#       Creating user name   scv26
#       Creation time:       Fri Mar 27 03:06:02 2020


#       File generated by GOLD software.
#

@<TRIPOS>MOLECULE
AV-unprocessed.smi:1047
    62    64     1
SMALL
NO_CHARGES


@<TRIPOS>ATOM
      1 ****        -5.8636   5.5282   0.6302 C.3            1 S1                 0.0000
      2 ****        -4.9265   4.3144   0.5600 C.3            1 S1                 0.0000
      3 ****        -5.1352   3.5114  -0.6740 N.4            1 S1                 1.0000
      4 ****        -4.6102   4.1335  -1.9157 C.3            1 S1                 0.0000
      5 ****        -3.0831   3.9680  -2.0252 C.3            1 S1                 0.0000
      6 ****        -2.7443   2.5892  -1.9350 O.3            1 S1                 0.0000
      7 ****        -3.1298   2.0079  -0.6929 C.3            1 S1                 0.0000
      8 ****        -2.6552   0.5463  -0.6913 C.3            1 S1                 0.0000
      9 ****        -1.1807   0.4556  -0.6862 N.4            1 S1                 1.0000
     10 ****        -0.6626  -0.9260  -0.7580 C.3            1 S1                 0.0000
     11 ****         0.8754  -0.9496  -0.7597 C.3            1 S1                 0.0000
     12 ****         1.3351  -0.5243   0.5082 O.3            1 S1                 0.0000
     13 ****         1.4284  -2.3555  -1.0652 C.3            1 S1                 0.0000
     14 ****         2.8983  -2.3988  -1.0967 N.pl3          1 S1                 0.0000
     15 ****         3.7534  -2.0779  -2.1062 C.2            1 S1                 0.0000
     16 ****         5.0201  -2.2995  -1.6593 N.pl3          1 S1                 1.0000
     17 ****         4.9752  -2.7730  -0.3467 C.ar           1 S1                 0.0000
     18 ****         5.9957  -3.1415   0.5217 C.ar           1 S1                 0.0000
     19 ****         5.6185  -3.5909   1.8071 C.ar           1 S1                 0.0000
     20 ****         6.7100  -4.0078   2.7783 C.3            1 S1                 0.0000
     21 ****         4.2523  -3.6557   2.1853 C.ar           1 S1                 0.0000
     22 ****         3.8568  -4.1415   3.5695 C.3            1 S1                 0.0000
     23 ****         3.2293  -3.2718   1.2888 C.ar           1 S1                 0.0000
     24 ****         3.6172  -2.8372   0.0230 C.ar           1 S1                 0.0000
     25 ****        -4.6657   2.1081  -0.5595 C.3            1 S1                 0.0000
     26 ****        -5.7540   6.0418   1.5856 H              1 S1                 0.0000
     27 ****        -6.9075   5.2268   0.5371 H              1 S1                 0.0000
     28 ****        -5.6524   6.2564  -0.1524 H              1 S1                 0.0000
     29 ****        -3.8874   4.6305   0.6495 H              1 S1                 0.0000
     30 ****        -5.1316   3.6898   1.4304 H              1 S1                 0.0000
     31 ****        -5.0830   3.6410  -2.7667 H              1 S1                 0.0000
     32 ****        -4.8897   5.1841  -1.9826 H              1 S1                 0.0000
     33 ****        -2.7355   4.3509  -2.9848 H              1 S1                 0.0000
     34 ****        -2.5614   4.5363  -1.2544 H              1 S1                 0.0000
     35 ****        -2.6494   2.5407   0.1298 H              1 S1                 0.0000
     36 ****        -3.0357   0.0332   0.1930 H              1 S1                 0.0000
     37 ****        -3.0530   0.0229  -1.5620 H              1 S1                 0.0000
     38 ****        -0.8246   0.9694  -1.4798 H              1 S1                 0.0000
     39 ****        -1.0546  -1.5136   0.0739 H              1 S1                 0.0000
     40 ****        -1.0368  -1.3838  -1.6748 H              1 S1                 0.0000
     41 ****         1.2494  -0.2529  -1.5115 H              1 S1                 0.0000
     42 ****         2.2806  -0.5334   0.5034 H              1 S1                 0.0000
     43 ****         1.0575  -3.0920  -0.3523 H              1 S1                 0.0000
     44 ****         1.0813  -2.6835  -2.0460 H              1 S1                 0.0000
     45 ****         3.4785  -1.7172  -3.0870 H              1 S1                 0.0000
     46 ****         7.0337  -3.0904   0.2265 H              1 S1                 0.0000
     47 ****         6.6440  -5.0756   2.9888 H              1 S1                 0.0000
     48 ****         6.6199  -3.4630   3.7181 H              1 S1                 0.0000
     49 ****         7.7025  -3.8077   2.3732 H              1 S1                 0.0000
     50 ****         2.7737  -4.2148   3.6722 H              1 S1                 0.0000
     51 ****         4.2197  -3.4530   4.3331 H              1 S1                 0.0000
     52 ****         4.2747  -5.1294   3.7656 H              1 S1                 0.0000
     53 ****         2.1914  -3.3179   1.5830 H              1 S1                 0.0000
     54 ****        -5.0056   1.6682   0.3789 H              1 S1                 0.0000
     55 ****        -5.1377   1.5288  -1.3546 H              1 S1                 0.0000
     56 ****        -0.8285   0.8828   0.1591 H              1 S1                 0.0000
     57 ****        -6.1384   3.4574  -0.7817 H              1 S1                 0.0000
     58 ****         5.8527  -2.1431  -2.2132 H              1 S1                 0.0000
     59 ****        -1.7541   2.4958  -2.0381 LP             1 S1                 0.0000
     60 ****        -3.2043   2.0978  -2.6745 LP             1 S1                 0.0000
     61 ****         0.9954  -1.1443   1.2155 LP             1 S1                 0.0000
     62 ****         1.0077   0.4025   0.6922 LP             1 S1                 0.0000
@<TRIPOS>BOND
    1    1    2 1     
    2    1   26 1     
    3    1   27 1     
    4    1   28 1     
    5    2    3 1     
    6    2   29 1     
    7    2   30 1     
    8    3   25 1     
    9    3    4 1     
   10    3   57 1     
   11    4    5 1     
   12    4   31 1     
   13    4   32 1     
   14    5    6 1     
   15    5   33 1     
   16    5   34 1     
   17    6    7 1     
   18    7    8 1     
   19    7   25 1     
   20    7   35 1     
   21    8    9 1     
   22    8   36 1     
   23    8   37 1     
   24    9   10 1     
   25    9   38 1     
   26    9   56 1     
   27   10   11 1     
   28   10   39 1     
   29   10   40 1     
   30   11   12 1     
   31   11   13 1     
   32   11   41 1     
   33   12   42 1     
   34   13   14 1     
   35   13   43 1     
   36   13   44 1     
   37   14   24 1     
   38   14   15 1     
   39   15   16 2     
   40   15   45 1     
   41   16   17 1     
   42   16   58 1     
   43   17   24 ar    
   44   17   18 ar    
   45   18   19 ar    
   46   18   46 1     
   47   19   20 1     
   48   19   21 ar    
   49   20   47 1     
   50   20   48 1     
   51   20   49 1     
   52   21   22 1     
   53   21   23 ar    
   54   22   50 1     
   55   22   51 1     
   56   22   52 1     
   57   23   24 ar    
   58   23   53 1     
   59   25   54 1     
   60   25   55 1     
   61    6   59 1     
   62    6   60 1     
   63   12   61 1     
   64   12   62 1     
@<TRIPOS>SUBSTRUCTURE
      1 S1             1
@<TRIPOS>SET
LONE_PAIRS      STATIC     ATOMS    <user>   **** ""
4 59 60 61 62
DONOR_HYDROGENS      STATIC     ATOMS    <user>   **** ""
5 57 38 56 42 58
ATOM$BLUE        STATIC     ATOMS    COLORGROUP SYSTEM
4 59 60 61 62
ATOM$RED        STATIC     ATOMS    COLORGROUP SYSTEM
5 57 38 56 42 58
