AV-unprocessed.smi:2400|AV-procd|sdf|9502|dock2
  -GOLD-   2272013133D 1   1.00000     0.00000
 Structure written by MMmdl.
 44 45  0  0  0  0  0  0  0  0  1 V2000
  152.3218  138.7160  154.7076 C   0  0  0  0  0  0  0  0  0  0  0  0
  150.9921  138.4699  155.1317 O   0  0  0  0  0  0  0  0  0  0  0  0
  150.1558  139.5069  154.9113 C   0  0  0  0  0  0  0  0  0  0  0  0
  149.0324  139.6272  154.1407 C   0  0  0  0  0  0  0  0  0  0  0  0
  148.3825  138.6685  153.3217 N   0  0  0  0  0  0  0  0  0  0  0  0
  147.0610  138.4783  153.1846 C   0  0  0  0  0  0  0  0  0  0  0  0
  146.1907  139.1057  153.7871 O   0  0  0  0  0  0  0  0  0  0  0  0
  146.8000  137.4925  152.3147 N   0  0  0  0  0  0  0  0  0  0  0  0
  145.4646  137.0284  151.9383 C   0  0  1  0  0  0  0  0  0  0  0  0
  145.5658  135.9351  150.8558 C   0  0  0  0  0  0  0  0  0  0  0  0
  144.9365  134.6769  151.4496 C   0  0  0  0  0  0  0  0  0  0  0  0
  143.9478  135.2060  152.4831 C   0  0  0  0  0  0  0  0  0  0  0  0
  144.6413  136.4246  153.1192 C   0  0  0  0  0  0  0  0  0  0  0  0
  145.5150  135.9465  154.3047 C   0  0  0  0  0  0  0  0  0  0  0  0
  143.6018  137.4306  153.6485 C   0  0  0  0  0  0  0  0  0  0  0  0
  148.5683  140.9520  154.3705 C   0  0  0  0  0  0  0  0  0  0  0  0
  147.3571  141.6458  153.8163 C   0  0  0  0  0  0  0  0  0  0  0  0
  149.3812  141.6096  155.1899 N   0  0  0  0  0  0  0  0  0  0  0  0
  150.3585  140.7293  155.5170 N   0  0  0  0  0  0  0  0  0  0  0  0
  151.4129  141.1388  156.4218 C   0  0  0  0  0  0  0  0  0  0  0  0
  152.9427  137.8481  154.9290 H   0  0  0  0  0  0  0  0  0  0  0  0
  152.7549  139.5769  155.2183 H   0  0  0  0  0  0  0  0  0  0  0  0
  152.3604  138.8930  153.6319 H   0  0  0  0  0  0  0  0  0  0  0  0
  148.9863  138.0149  152.8454 H   0  0  0  0  0  0  0  0  0  0  0  0
  147.5806  137.0276  151.8750 H   0  0  0  0  0  0  0  0  0  0  0  0
  144.9147  137.8607  151.4937 H   0  0  0  0  0  0  0  0  0  0  0  0
  144.9989  136.2447  149.9766 H   0  0  0  0  0  0  0  0  0  0  0  0
  146.5883  135.7485  150.5238 H   0  0  0  0  0  0  0  0  0  0  0  0
  144.4589  134.0527  150.6938 H   0  0  0  0  0  0  0  0  0  0  0  0
  145.7016  134.0747  151.9409 H   0  0  0  0  0  0  0  0  0  0  0  0
  143.0372  135.5174  151.9685 H   0  0  0  0  0  0  0  0  0  0  0  0
  143.6600  134.4455  153.2103 H   0  0  0  0  0  0  0  0  0  0  0  0
  144.9121  135.4321  155.0542 H   0  0  0  0  0  0  0  0  0  0  0  0
  146.0016  136.7814  154.8099 H   0  0  0  0  0  0  0  0  0  0  0  0
  146.2938  135.2544  153.9836 H   0  0  0  0  0  0  0  0  0  0  0  0
  142.9759  136.9825  154.4206 H   0  0  0  0  0  0  0  0  0  0  0  0
  142.9419  137.7828  152.8548 H   0  0  0  0  0  0  0  0  0  0  0  0
  144.0858  138.3057  154.0834 H   0  0  0  0  0  0  0  0  0  0  0  0
  146.7804  140.9864  153.1679 H   0  0  0  0  0  0  0  0  0  0  0  0
  147.6412  142.5196  153.2292 H   0  0  0  0  0  0  0  0  0  0  0  0
  146.6975  141.9816  154.6168 H   0  0  0  0  0  0  0  0  0  0  0  0
  152.2406  140.4304  156.3818 H   0  0  0  0  0  0  0  0  0  0  0  0
  151.0267  141.1765  157.4405 H   0  0  0  0  0  0  0  0  0  0  0  0
  151.7820  142.1258  156.1410 H   0  0  0  0  0  0  0  0  0  0  0  0
  1  2  1  0  0  0  0
  1 21  1  0  0  0  0
  1 22  1  0  0  0  0
  1 23  1  0  0  0  0
  2  3  1  0  0  0  0
  3 19  1  0  0  0  0
  3  4  2  0  0  0  0
  4  5  1  0  0  0  0
  4 16  1  0  0  0  0
  5  6  1  0  0  0  0
  5 24  1  0  0  0  0
  6  7  2  0  0  0  0
  6  8  1  0  0  0  0
  8  9  1  0  0  0  0
  8 25  1  0  0  0  0
  9 13  1  0  0  0  0
  9 10  1  0  0  0  0
  9 26  1  0  0  0  0
 10 11  1  0  0  0  0
 10 27  1  0  0  0  0
 10 28  1  0  0  0  0
 11 12  1  0  0  0  0
 11 29  1  0  0  0  0
 11 30  1  0  0  0  0
 12 13  1  0  0  0  0
 12 31  1  0  0  0  0
 12 32  1  0  0  0  0
 13 14  1  0  0  0  0
 13 15  1  0  0  0  0
 14 33  1  0  0  0  0
 14 34  1  0  0  0  0
 14 35  1  0  0  0  0
 15 36  1  0  0  0  0
 15 37  1  0  0  0  0
 15 38  1  0  0  0  0
 16 17  1  0  0  0  0
 16 18  2  0  0  0  0
 17 39  1  0  0  0  0
 17 40  1  0  0  0  0
 17 41  1  0  0  0  0
 18 19  1  0  0  0  0
 19 20  1  0  0  0  0
 20 42  1  0  0  0  0
 20 43  1  0  0  0  0
 20 44  1  0  0  0  0
M  END
> <s_m_source_file>
AV-unprocessed.smi

> <i_m_source_file_index>
2400

> <i_lp_mmshare_version>
43012

> <i_f3d_flags>
0

> <s_epik_input>
W0NIM11uMW5jKFtDSDNdKWMoYzFPW0NIM10pW05IXUMoPU8pW05IXVtDQEBIXShDMihbQ0gzXSlbQ0gzXSlbQ0gyXVtDSDJdW0NIMl0y

> <s_epik_cmdline>
J2VwaWtfcHl0aG9uJywgJy1waCcsICc3LjAnLCAnLXRuJywgJzgnLCAnLW1hJywgJzIwMCcsICctbWV0YWxfYmluZGluZycsICctaW1hZScsICc8aW5maWxlLm1hZT4nLCAnLW9tYWUnLCAnPG91dGZpbGUubWFlPic=

> <r_lp_tautomer_probability>
1

> <r_epik_Ionization_Penalty>
0.000423583

> <r_epik_Ionization_Penalty_Charging>
0

> <r_epik_Ionization_Penalty_Neutral>
0.000423583

> <r_epik_State_Penalty>
-0

> <r_epik_Charging_Adjusted_Penalty>
0

> <i_epik_Tot_Q>
0

> <i_epik_Tot_abs_Q>
0

> <r_epik_Metal_State_Penalty>
-0

> <b_epik_Metal_Only>
0

> <s_lp_Force_Field>
OPLS_2005

> <r_lp_Energy>
29.9284

> <b_lp_Chiralities_Consistent>
1

> <s_lp_Variant>
AV-unprocessed.smi:2400-2

> <Gold.Version>
5.8.1

> <Gold.Id.Protein>
6NUR|6NUR_protein|mol2

> <Gold.PLP.Fitness>
39.5340

> <Gold.PLP.PLP>
-34.5525

> <Gold.PLP.part.hbond>
-2.9634

> <Gold.PLP.part.metal>
0.0000

> <Gold.PLP.part.buried>
-3.3879

> <Gold.PLP.part.nonpolar>
-28.8266

> <Gold.PLP.part.repulsive>
0.5031

> <Gold.PLP.ligand.clash>
0.0000

> <Gold.PLP.ligand.torsion>
0.3065

> <Gold.PLP.Chemscore.Hbond>
1.8640

> <Gold.PLP.Chemscore.CHOScore>
0.0000

> <Gold.PLP.Chemscore.Metal>
0.0000

> <Gold.Chemscore.Hbonds>
donor molecule, donor type, donor heavy atom, donor atom, acceptor molecule, acceptor atom, score
      L1  H     5    24       P1  7948  0.86
      L1  H     8    25       P1  7948  1.00

> <Gold.PLP.Chemscore.Internal.Correction>
0.0026

> <Gold.Rescore>
     Score         DG    S(hbond)    S(metal)    S(lipo)     H(rot)  DE(clash)    DE(int)     intcor
     14.49     -16.29       1.96        0.00      63.10       1.21       0.14       1.67       ----

> <Gold.Chemscore.Fitness>
14.4881

> <Gold.Chemscore.DG>
-16.2926

> <Gold.Chemscore.ZeroCoef>
-5.4800

> <Gold.Chemscore.Hbond>
1.9559

> <Gold.Chemscore.Metal>
0.0000

> <Gold.Chemscore.Lipo>
63.0961

> <Gold.Chemscore.Internal_Hbond>
0.0000

> <Gold.Chemscore.DEClash>
0.1377

> <Gold.Chemscore.DEInternal>
1.6668

> <Gold.Chemscore.Rot>
1.2119

> <Gold.Chemscore.Internal.Correction>
   9.000000E+99

> <Gold.Chemscore.Hbonds>
donor molecule, donor type, donor heavy atom, donor atom, acceptor molecule, acceptor atom, score
      L1  H     5    24       P1  7948  0.81
      L1  H     8    25       P1  7948  0.95

> <Gold.Chemscore.Hbond.Weighted>
-6.5327

> <Gold.Chemscore.Metal.Weighted>
-0.0000

> <Gold.Chemscore.Lipo.Weighted>
-7.3822

> <Gold.Chemscore.Internal_Hbond.Weighted>
0.0000

> <Gold.Chemscore.DEClash.Weighted>
0.1377

> <Gold.Chemscore.DEInternal.Weighted>
1.6668

> <Gold.Chemscore.Rot.Weighted>
3.1024

> <Gold.Chemscore.Internal.Correction.Weighted>
   9.000000E+99

> <Gold.Protein.RotatedTorsions>
[ 6907 6896 6895 6894 ] final  -13.49 input  -60.11 | X-H torsion
[ 7974 7965 7964 7962 ] final   73.35 input  175.53 | X-H torsion
[ 8008 7997 7996 7995 ] final  135.84 input   59.86 | X-H torsion
[ 10167 10162 10161 10158 ] final  157.87 input  -65.29 | X-H torsion
[ 10718 10713 10712 10709 ] final  -45.50 input   66.30 | X-H torsion
[ 10763 10752 10751 10750 ] final   58.36 input  -60.55 | X-H torsion
[ 11005 11000 10999 10996 ] final   37.85 input  -57.11 | X-H torsion

> <Gold.Protein.ActiveResidues>
 VAL166  LYS551  ARG553  GLY616  TRP617  ASP618  TYR619  PRO620  LYS621  CYS622 
 ASP623  PHE694  ASN695  SER759  ASP760  ASP761  ALA762  ILE779  LEU786  VAL792 
 PHE793  MET794  SER795  GLU796  ALA797  LYS798  CYS799  TRP800  GLU811  SER814 

> <Gold.Protein.RotatedAtoms>
  151.3541  135.0890  159.9412 H   0  0  0  0  0  0  0  0  0  0  0  0  # atno 6907 bound_to 6896
  152.5179  133.9323  159.7597 H   0  0  0  0  0  0  0  0  0  0  0  0  # atno 6908 bound_to 6896
  150.9704  133.6296  159.2768 H   0  0  0  0  0  0  0  0  0  0  0  0  # atno 6909 bound_to 6896
  145.7419  139.2724  143.1481 H   0  0  0  0  0  0  0  0  0  0  0  0  # atno 7974 bound_to 7965
  156.3003  140.2460  156.3647 H   0  0  0  0  0  0  0  0  0  0  0  0  # atno 8008 bound_to 7997
  154.8844  140.0411  157.1821 H   0  0  0  0  0  0  0  0  0  0  0  0  # atno 8009 bound_to 7997
  154.8662  140.2928  155.5513 H   0  0  0  0  0  0  0  0  0  0  0  0  # atno 8010 bound_to 7997
  139.4824  144.4878  151.8353 H   0  0  0  0  0  0  0  0  0  0  0  0  # atno 10167 bound_to 10162
  156.2277  130.4170  149.8914 H   0  0  0  0  0  0  0  0  0  0  0  0  # atno 10718 bound_to 10713
  152.9869  135.5609  154.5539 H   0  0  0  0  0  0  0  0  0  0  0  0  # atno 10763 bound_to 10752
  154.4971  135.2795  155.1453 H   0  0  0  0  0  0  0  0  0  0  0  0  # atno 10764 bound_to 10752
  154.2898  135.6328  153.5434 H   0  0  0  0  0  0  0  0  0  0  0  0  # atno 10765 bound_to 10752
  140.2184  134.3670  155.8016 H   0  0  0  0  0  0  0  0  0  0  0  0  # atno 11005 bound_to 11000
  146.0439  140.8137  142.9815 LP  0  0  0  0  0  0  0  0  0  0  0  0  # atno 17320 bound_to 7965
  144.6868  140.2951  143.7272 LP  0  0  0  0  0  0  0  0  0  0  0  0  # atno 17321 bound_to 7965
  140.4359  144.2052  150.5889 LP  0  0  0  0  0  0  0  0  0  0  0  0  # atno 17342 bound_to 10162
  140.4732  143.2405  151.9059 LP  0  0  0  0  0  0  0  0  0  0  0  0  # atno 17343 bound_to 10162
  156.6539  130.8754  151.3536 LP  0  0  0  0  0  0  0  0  0  0  0  0  # atno 17370 bound_to 10713
  157.7118  130.9449  150.1116 LP  0  0  0  0  0  0  0  0  0  0  0  0  # atno 17371 bound_to 10713
  141.2224  133.7180  156.8535 LP  0  0  0  0  0  0  0  0  0  0  0  0  # atno 17394 bound_to 11000
  140.1875  134.8989  157.3022 LP  0  0  0  0  0  0  0  0  0  0  0  0  # atno 17395 bound_to 11000

$$$$
