AV-unprocessed.smi:2059|AV-procd|sdf|8349|dock4
  -GOLD-   2272011 13D 1   1.00000     0.00000
 Structure written by MMmdl.
 30 31  0  0  0  0  0  0  0  0  1 V2000
  147.1506  129.7750  152.7745 C   0  0  0  0  0  0  0  0  0  0  0  0
  147.8646  130.9437  153.3621 C   0  0  0  0  0  0  0  0  0  0  0  0
  148.0237  132.2381  152.9541 C   0  0  0  0  0  0  0  0  0  0  0  0
  148.8160  132.8087  153.9860 C   0  0  0  0  0  0  0  0  0  0  0  0
  149.2008  134.1781  153.9219 N   0  0  0  0  0  0  0  0  0  0  0  0
  150.0057  134.9103  154.7208 C   0  0  0  0  0  0  0  0  0  0  0  0
  150.5538  134.4086  155.7008 O   0  0  0  0  0  0  0  0  0  0  0  0
  150.1666  136.1997  154.3804 N   0  0  0  0  0  0  0  0  0  0  0  0
  150.9918  137.1654  155.0973 C   0  0  1  0  0  0  0  0  0  0  0  0
  152.0142  137.8554  154.1715 C   0  0  0  0  0  0  0  0  0  0  0  0
  152.5665  139.0959  154.8847 C   0  0  0  0  0  0  0  0  0  0  0  0
  151.2235  139.6967  155.9782 S   0  0  0  0  0  0  0  0  0  0  0  0
  151.7096  139.7073  157.3664 O   0  0  0  0  0  0  0  0  0  0  0  0
  150.5995  140.8895  155.3858 O   0  0  0  0  0  0  0  0  0  0  0  0
  150.1185  138.2566  155.7311 C   0  0  0  0  0  0  0  0  0  0  0  0
  149.1114  131.9361  154.9392 N   0  0  0  0  0  0  0  0  0  0  0  0
  148.5040  130.7385  154.5447 O   0  0  0  0  0  0  0  0  0  0  0  0
  146.8562  129.9762  151.7442 H   0  0  0  0  0  0  0  0  0  0  0  0
  146.2504  129.5459  153.3449 H   0  0  0  0  0  0  0  0  0  0  0  0
  147.7876  128.8904  152.7766 H   0  0  0  0  0  0  0  0  0  0  0  0
  147.6341  132.6999  152.0589 H   0  0  0  0  0  0  0  0  0  0  0  0
  148.7967  134.6900  153.1512 H   0  0  0  0  0  0  0  0  0  0  0  0
  149.6811  136.5334  153.5596 H   0  0  0  0  0  0  0  0  0  0  0  0
  151.5341  136.6602  155.8991 H   0  0  0  0  0  0  0  0  0  0  0  0
  152.8157  137.1792  153.8724 H   0  0  0  0  0  0  0  0  0  0  0  0
  151.5105  138.1745  153.2579 H   0  0  0  0  0  0  0  0  0  0  0  0
  153.4177  138.8326  155.5126 H   0  0  0  0  0  0  0  0  0  0  0  0
  152.8718  139.8820  154.1942 H   0  0  0  0  0  0  0  0  0  0  0  0
  149.3187  138.5656  155.0570 H   0  0  0  0  0  0  0  0  0  0  0  0
  149.6763  137.9535  156.6804 H   0  0  0  0  0  0  0  0  0  0  0  0
  1  2  1  0  0  0  0
  1 18  1  0  0  0  0
  1 19  1  0  0  0  0
  1 20  1  0  0  0  0
  2 17  1  0  0  0  0
  2  3  2  0  0  0  0
  3  4  1  0  0  0  0
  3 21  1  0  0  0  0
  4  5  1  0  0  0  0
  4 16  2  0  0  0  0
  5  6  1  0  0  0  0
  5 22  1  0  0  0  0
  6  7  2  0  0  0  0
  6  8  1  0  0  0  0
  8  9  1  0  0  0  0
  8 23  1  0  0  0  0
  9 15  1  0  0  0  0
  9 10  1  0  0  0  0
  9 24  1  0  0  0  0
 10 11  1  0  0  0  0
 10 25  1  0  0  0  0
 10 26  1  0  0  0  0
 11 12  1  0  0  0  0
 11 27  1  0  0  0  0
 11 28  1  0  0  0  0
 12 13  2  0  0  0  0
 12 14  2  0  0  0  0
 12 15  1  0  0  0  0
 15 29  1  0  0  0  0
 15 30  1  0  0  0  0
 16 17  1  0  0  0  0
M  END
> <s_m_source_file>
AV-unprocessed.smi

> <i_m_source_file_index>
2059

> <i_lp_mmshare_version>
43012

> <i_f3d_flags>
0

> <s_epik_input>
W0NIM11jMVtjSF1jKG5vMSlbTkhdQyg9TylbTkhdW0NAQEhdKFtDSDJdMilbQ0gyXVtDSDJdUzIoPU8pPU8=

> <s_epik_cmdline>
J2VwaWtfcHl0aG9uJywgJy1waCcsICc3LjAnLCAnLXRuJywgJzgnLCAnLW1hJywgJzIwMCcsICctbWV0YWxfYmluZGluZycsICctaW1hZScsICc8aW5maWxlLm1hZT4nLCAnLW9tYWUnLCAnPG91dGZpbGUubWFlPic=

> <r_lp_tautomer_probability>
1

> <r_epik_Ionization_Penalty>
3.88767e-05

> <r_epik_Ionization_Penalty_Charging>
0

> <r_epik_Ionization_Penalty_Neutral>
3.88767e-05

> <r_epik_State_Penalty>
-0

> <r_epik_Charging_Adjusted_Penalty>
0

> <i_epik_Tot_Q>
0

> <i_epik_Tot_abs_Q>
0

> <r_epik_Metal_State_Penalty>
0.0251347

> <b_epik_Metal_Only>
0

> <s_lp_Force_Field>
OPLS_2005

> <r_lp_Energy>
4.37502

> <b_lp_Chiralities_Consistent>
1

> <s_lp_Variant>
AV-unprocessed.smi:2059-2

> <Gold.Version>
5.8.1

> <Gold.Id.Protein>
6NUR|6NUR_protein|mol2

> <Gold.PLP.Fitness>
33.8258

> <Gold.PLP.PLP>
-25.7263

> <Gold.PLP.part.hbond>
-3.8745

> <Gold.PLP.part.metal>
0.0000

> <Gold.PLP.part.buried>
-0.8694

> <Gold.PLP.part.nonpolar>
-20.8608

> <Gold.PLP.part.repulsive>
0.2159

> <Gold.PLP.ligand.clash>
0.0000

> <Gold.PLP.ligand.torsion>
0.0424

> <Gold.PLP.Chemscore.Hbond>
2.7280

> <Gold.PLP.Chemscore.CHOScore>
0.0000

> <Gold.PLP.Chemscore.Metal>
0.0000

> <Gold.Chemscore.Hbonds>
donor molecule, donor type, donor heavy atom, donor atom, acceptor molecule, acceptor atom, score
      L1  H     5    22       P1  7948  0.85
      L1  H     8    23       P1  7948  0.99
      P1  H  7989  7998       L1    14  0.53

> <Gold.PLP.Chemscore.Internal.Correction>
0.0004

> <Gold.Rescore>
     Score         DG    S(hbond)    S(metal)    S(lipo)     H(rot)  DE(clash)    DE(int)     intcor
     12.68     -13.93       1.75        0.00      44.28       1.00       0.04       1.21       ----

> <Gold.Chemscore.Fitness>
12.6824

> <Gold.Chemscore.DG>
-13.9348

> <Gold.Chemscore.ZeroCoef>
-5.4800

> <Gold.Chemscore.Hbond>
1.7469

> <Gold.Chemscore.Metal>
0.0000

> <Gold.Chemscore.Lipo>
44.2760

> <Gold.Chemscore.Internal_Hbond>
0.0000

> <Gold.Chemscore.DEClash>
0.0404

> <Gold.Chemscore.DEInternal>
1.2120

> <Gold.Chemscore.Rot>
1.0000

> <Gold.Chemscore.Internal.Correction>
   9.000000E+99

> <Gold.Chemscore.Hbonds>
donor molecule, donor type, donor heavy atom, donor atom, acceptor molecule, acceptor atom, score
      L1  H     5    22       P1  7948  0.16
      L1  H     8    23       P1  7948  0.47
      P1  H  7989  7998       L1    14  0.12

> <Gold.Chemscore.Hbond.Weighted>
-5.8345

> <Gold.Chemscore.Metal.Weighted>
-0.0000

> <Gold.Chemscore.Lipo.Weighted>
-5.1803

> <Gold.Chemscore.Internal_Hbond.Weighted>
0.0000

> <Gold.Chemscore.DEClash.Weighted>
0.0404

> <Gold.Chemscore.DEInternal.Weighted>
1.2120

> <Gold.Chemscore.Rot.Weighted>
2.5600

> <Gold.Chemscore.Internal.Correction.Weighted>
   9.000000E+99

> <Gold.Protein.RotatedTorsions>
[ 6907 6896 6895 6894 ] final  -92.63 input  -60.11 | X-H torsion
[ 7974 7965 7964 7962 ] final   37.34 input  175.53 | X-H torsion
[ 8008 7997 7996 7995 ] final  -99.17 input   59.86 | X-H torsion
[ 10167 10162 10161 10158 ] final  -66.51 input  -65.29 | X-H torsion
[ 10718 10713 10712 10709 ] final  -39.69 input   66.30 | X-H torsion
[ 10763 10752 10751 10750 ] final   -7.88 input  -60.55 | X-H torsion
[ 11005 11000 10999 10996 ] final  -14.41 input  -57.11 | X-H torsion

> <Gold.Protein.ActiveResidues>
 VAL166  LYS551  ARG553  GLY616  TRP617  ASP618  TYR619  PRO620  LYS621  CYS622 
 ASP623  PHE694  ASN695  SER759  ASP760  ASP761  ALA762  ILE779  LEU786  VAL792 
 PHE793  MET794  SER795  GLU796  ALA797  LYS798  CYS799  TRP800  GLU811  SER814 

> <Gold.Protein.RotatedAtoms>
  150.6909  134.2092  159.4352 H   0  0  0  0  0  0  0  0  0  0  0  0  # atno 6907 bound_to 6896
  152.0055  134.9903  160.0576 H   0  0  0  0  0  0  0  0  0  0  0  0  # atno 6908 bound_to 6896
  152.1538  133.4504  159.4864 H   0  0  0  0  0  0  0  0  0  0  0  0  # atno 6909 bound_to 6896
  146.1144  139.5906  142.9331 H   0  0  0  0  0  0  0  0  0  0  0  0  # atno 7974 bound_to 7965
  154.8112  140.0450  157.1344 H   0  0  0  0  0  0  0  0  0  0  0  0  # atno 8008 bound_to 7997
  154.9366  140.3047  155.5121 H   0  0  0  0  0  0  0  0  0  0  0  0  # atno 8009 bound_to 7997
  156.2972  140.2313  156.4432 H   0  0  0  0  0  0  0  0  0  0  0  0  # atno 8010 bound_to 7997
  140.5651  143.2314  151.6650 H   0  0  0  0  0  0  0  0  0  0  0  0  # atno 10167 bound_to 10162
  156.2897  130.4227  149.8252 H   0  0  0  0  0  0  0  0  0  0  0  0  # atno 10718 bound_to 10713
  153.4326  135.7012  153.6220 H   0  0  0  0  0  0  0  0  0  0  0  0  # atno 10763 bound_to 10752
  153.4629  135.3732  155.2348 H   0  0  0  0  0  0  0  0  0  0  0  0  # atno 10764 bound_to 10752
  154.8726  135.4024  154.3712 H   0  0  0  0  0  0  0  0  0  0  0  0  # atno 10765 bound_to 10752
  140.7862  133.8324  155.9337 H   0  0  0  0  0  0  0  0  0  0  0  0  # atno 11005 bound_to 11000
  145.5596  141.0405  143.2233 LP  0  0  0  0  0  0  0  0  0  0  0  0  # atno 17320 bound_to 7965
  144.7540  139.7121  143.7261 LP  0  0  0  0  0  0  0  0  0  0  0  0  # atno 17321 bound_to 7965
  139.5089  144.3595  152.0576 LP  0  0  0  0  0  0  0  0  0  0  0  0  # atno 17342 bound_to 10162
  140.2726  144.3948  150.6146 LP  0  0  0  0  0  0  0  0  0  0  0  0  # atno 17343 bound_to 10162
  156.5669  130.8408  151.3345 LP  0  0  0  0  0  0  0  0  0  0  0  0  # atno 17370 bound_to 10713
  157.7339  130.9737  150.1999 LP  0  0  0  0  0  0  0  0  0  0  0  0  # atno 17371 bound_to 10713
  140.9435  134.1871  157.4781 LP  0  0  0  0  0  0  0  0  0  0  0  0  # atno 17394 bound_to 11000
  139.8736  134.9881  156.5397 LP  0  0  0  0  0  0  0  0  0  0  0  0  # atno 17395 bound_to 11000

$$$$
