AV-unprocessed.smi:2114|AV-procd|sdf|8618|dock4
  -GOLD-   2272011363D 1   1.00000     0.00000
 Structure written by MMmdl.
 47 48  0  0  0  0  0  0  0  0  1 V2000
  148.2869  133.1503  152.9280 C   0  0  0  0  0  0  0  0  0  0  0  0
  148.8170  133.0866  154.2402 O   0  0  0  0  0  0  0  0  0  0  0  0
  149.1015  134.3694  154.7755 C   0  0  0  0  0  0  0  0  0  0  0  0
  149.7356  134.2125  156.1660 C   0  0  1  0  0  0  0  0  0  0  0  0
  150.9639  133.2888  156.1238 C   0  0  0  0  0  0  0  0  0  0  0  0
  150.1084  135.5273  156.6801 N   0  0  0  0  0  0  0  0  0  0  0  0
  150.8720  136.4272  156.0393 C   0  0  0  0  0  0  0  0  0  0  0  0
  151.3139  136.2604  154.9022 O   0  0  0  0  0  0  0  0  0  0  0  0
  151.1100  137.7129  156.7760 C   0  0  0  0  0  0  0  0  0  0  0  0
  151.8272  138.7660  156.1716 C   0  0  0  0  0  0  0  0  0  0  0  0
  152.0500  139.9506  156.8993 C   0  0  0  0  0  0  0  0  0  0  0  0
  151.5568  140.0521  158.2215 C   0  0  0  0  0  0  0  0  0  0  0  0
  151.7664  141.2322  158.9667 N   0  0  0  0  0  0  0  0  0  0  0  0
  151.9478  142.4823  158.2326 C   0  0  0  0  0  0  0  0  0  0  0  0
  151.8680  143.6851  159.1906 C   0  0  2  0  0  0  0  0  0  0  0  0
  152.1714  145.0079  158.4797 C   0  0  0  0  0  0  0  0  0  0  0  0
  152.8179  143.5111  160.2383 O   0  0  0  0  0  0  0  0  0  0  0  0
  152.5628  142.3446  161.0161 C   0  0  2  0  0  0  0  0  0  0  0  0
  153.5749  142.3035  162.1652 C   0  0  0  0  0  0  0  0  0  0  0  0
  152.6621  141.1013  160.1123 C   0  0  0  0  0  0  0  0  0  0  0  0
  150.8847  139.0312  158.8080 N   0  0  0  0  0  0  0  0  0  0  0  0
  150.6719  137.8982  158.1061 C   0  0  0  0  0  0  0  0  0  0  0  0
  148.0841  132.1424  152.5659 H   0  0  0  0  0  0  0  0  0  0  0  0
  148.9915  133.6196  152.2403 H   0  0  0  0  0  0  0  0  0  0  0  0
  147.3511  133.7101  152.9074 H   0  0  0  0  0  0  0  0  0  0  0  0
  149.7897  134.8941  154.1106 H   0  0  0  0  0  0  0  0  0  0  0  0
  148.1893  134.9658  154.8374 H   0  0  0  0  0  0  0  0  0  0  0  0
  148.9910  133.7669  156.8282 H   0  0  0  0  0  0  0  0  0  0  0  0
  150.6974  132.3011  155.7468 H   0  0  0  0  0  0  0  0  0  0  0  0
  151.3928  133.1533  157.1171 H   0  0  0  0  0  0  0  0  0  0  0  0
  151.7431  133.6929  155.4767 H   0  0  0  0  0  0  0  0  0  0  0  0
  149.7731  135.7634  157.6030 H   0  0  0  0  0  0  0  0  0  0  0  0
  152.2032  138.6760  155.1627 H   0  0  0  0  0  0  0  0  0  0  0  0
  152.6065  140.7560  156.4436 H   0  0  0  0  0  0  0  0  0  0  0  0
  152.9152  142.4657  157.7283 H   0  0  0  0  0  0  0  0  0  0  0  0
  151.1799  142.5801  157.4641 H   0  0  0  0  0  0  0  0  0  0  0  0
  150.8673  143.7454  159.6222 H   0  0  0  0  0  0  0  0  0  0  0  0
  151.4623  145.1908  157.6720 H   0  0  0  0  0  0  0  0  0  0  0  0
  153.1740  145.0045  158.0510 H   0  0  0  0  0  0  0  0  0  0  0  0
  152.1082  145.8465  159.1732 H   0  0  0  0  0  0  0  0  0  0  0  0
  151.5594  142.4101  161.4413 H   0  0  0  0  0  0  0  0  0  0  0  0
  153.4113  141.4334  162.8016 H   0  0  0  0  0  0  0  0  0  0  0  0
  153.4901  143.1929  162.7900 H   0  0  0  0  0  0  0  0  0  0  0  0
  154.5973  142.2567  161.7893 H   0  0  0  0  0  0  0  0  0  0  0  0
  152.4346  140.2134  160.7004 H   0  0  0  0  0  0  0  0  0  0  0  0
  153.6827  140.9849  159.7453 H   0  0  0  0  0  0  0  0  0  0  0  0
  150.1389  137.1202  158.6328 H   0  0  0  0  0  0  0  0  0  0  0  0
  1  2  1  0  0  0  0
  1 23  1  0  0  0  0
  1 24  1  0  0  0  0
  1 25  1  0  0  0  0
  2  3  1  0  0  0  0
  3  4  1  0  0  0  0
  3 26  1  0  0  0  0
  3 27  1  0  0  0  0
  4  5  1  0  0  0  0
  4  6  1  0  0  0  0
  4 28  1  0  0  0  0
  5 29  1  0  0  0  0
  5 30  1  0  0  0  0
  5 31  1  0  0  0  0
  6  7  1  0  0  0  0
  6 32  1  0  0  0  0
  7  8  2  0  0  0  0
  7  9  1  0  0  0  0
  9 22  1  0  0  0  0
  9 10  2  0  0  0  0
 10 11  1  0  0  0  0
 10 33  1  0  0  0  0
 11 12  2  0  0  0  0
 11 34  1  0  0  0  0
 12 13  1  0  0  0  0
 12 21  1  0  0  0  0
 13 20  1  0  0  0  0
 13 14  1  0  0  0  0
 14 15  1  0  0  0  0
 14 35  1  0  0  0  0
 14 36  1  0  0  0  0
 15 16  1  0  0  0  0
 15 17  1  0  0  0  0
 15 37  1  0  0  0  0
 16 38  1  0  0  0  0
 16 39  1  0  0  0  0
 16 40  1  0  0  0  0
 17 18  1  0  0  0  0
 18 19  1  0  0  0  0
 18 20  1  0  0  0  0
 18 41  1  0  0  0  0
 19 42  1  0  0  0  0
 19 43  1  0  0  0  0
 19 44  1  0  0  0  0
 20 45  1  0  0  0  0
 20 46  1  0  0  0  0
 21 22  2  0  0  0  0
 22 47  1  0  0  0  0
M  END
> <s_m_source_file>
AV-unprocessed.smi

> <i_m_source_file_index>
2114

> <i_lp_mmshare_version>
43012

> <i_f3d_flags>
0

> <s_epik_input>
W0NIM11PW0NIMl1bQ0BIXShbQ0gzXSlbTkhdQyg9TyljMVtjSF1bY0hdYyhuW2NIXTEpTjJbQ0gyXVtDQEBIXShbQ0gzXSlPW0NAQEhdKFtDSDNdKVtDSDJdMg==

> <s_epik_cmdline>
J2VwaWtfcHl0aG9uJywgJy1waCcsICc3LjAnLCAnLXRuJywgJzgnLCAnLW1hJywgJzIwMCcsICctbWV0YWxfYmluZGluZycsICctaW1hZScsICc8aW5maWxlLm1hZT4nLCAnLW9tYWUnLCAnPG91dGZpbGUubWFlPic=

> <r_lp_tautomer_probability>
1

> <r_epik_Ionization_Penalty>
1.92915e-05

> <r_epik_Ionization_Penalty_Charging>
0

> <r_epik_Ionization_Penalty_Neutral>
1.92915e-05

> <r_epik_State_Penalty>
-0

> <r_epik_Charging_Adjusted_Penalty>
0

> <i_epik_Tot_Q>
0

> <i_epik_Tot_abs_Q>
0

> <r_epik_Metal_State_Penalty>
-0

> <b_epik_Metal_Only>
0

> <s_lp_Force_Field>
OPLS_2005

> <r_lp_Energy>
18.3403

> <b_lp_Chiralities_Consistent>
1

> <s_lp_Variant>
AV-unprocessed.smi:2114-2

> <Gold.Version>
5.8.1

> <Gold.Id.Protein>
6NUR|6NUR_protein|mol2

> <Gold.PLP.Fitness>
40.9387

> <Gold.PLP.PLP>
-38.5932

> <Gold.PLP.part.hbond>
-1.0000

> <Gold.PLP.part.metal>
0.0000

> <Gold.PLP.part.buried>
-6.4693

> <Gold.PLP.part.nonpolar>
-31.4634

> <Gold.PLP.part.repulsive>
0.3509

> <Gold.PLP.ligand.clash>
0.0000

> <Gold.PLP.ligand.torsion>
0.4991

> <Gold.PLP.Chemscore.Hbond>
1.0000

> <Gold.PLP.Chemscore.CHOScore>
0.0000

> <Gold.PLP.Chemscore.Metal>
0.0000

> <Gold.Chemscore.Hbonds>
donor molecule, donor type, donor heavy atom, donor atom, acceptor molecule, acceptor atom, score
      P1  H 10752 10764       L1     8  1.00

> <Gold.PLP.Chemscore.Internal.Correction>
0.3438

> <Gold.Rescore>
     Score         DG    S(hbond)    S(metal)    S(lipo)     H(rot)  DE(clash)    DE(int)     intcor
     15.72     -17.17       0.99        0.00     104.88       1.52       0.00       1.45       ----

> <Gold.Chemscore.Fitness>
15.7200

> <Gold.Chemscore.DG>
-17.1747

> <Gold.Chemscore.ZeroCoef>
-5.4800

> <Gold.Chemscore.Hbond>
0.9946

> <Gold.Chemscore.Metal>
0.0000

> <Gold.Chemscore.Lipo>
104.8777

> <Gold.Chemscore.Internal_Hbond>
0.0000

> <Gold.Chemscore.DEClash>
0.0034

> <Gold.Chemscore.DEInternal>
1.4514

> <Gold.Chemscore.Rot>
1.5226

> <Gold.Chemscore.Internal.Correction>
   9.000000E+99

> <Gold.Chemscore.Hbonds>
donor molecule, donor type, donor heavy atom, donor atom, acceptor molecule, acceptor atom, score
      P1  H 10752 10764       L1     8  0.99

> <Gold.Chemscore.Hbond.Weighted>
-3.3220

> <Gold.Chemscore.Metal.Weighted>
-0.0000

> <Gold.Chemscore.Lipo.Weighted>
-12.2707

> <Gold.Chemscore.Internal_Hbond.Weighted>
0.0000

> <Gold.Chemscore.DEClash.Weighted>
0.0034

> <Gold.Chemscore.DEInternal.Weighted>
1.4514

> <Gold.Chemscore.Rot.Weighted>
3.8980

> <Gold.Chemscore.Internal.Correction.Weighted>
   9.000000E+99

> <Gold.Protein.RotatedTorsions>
[ 6907 6896 6895 6894 ] final  -61.93 input  -60.11 | X-H torsion
[ 7974 7965 7964 7962 ] final -136.58 input  175.53 | X-H torsion
[ 8008 7997 7996 7995 ] final  -80.99 input   59.86 | X-H torsion
[ 10167 10162 10161 10158 ] final  126.05 input  -65.29 | X-H torsion
[ 10718 10713 10712 10709 ] final  -33.05 input   66.30 | X-H torsion
[ 10763 10752 10751 10750 ] final  -59.84 input  -60.55 | X-H torsion
[ 11005 11000 10999 10996 ] final  -15.91 input  -57.11 | X-H torsion

> <Gold.Protein.ActiveResidues>
 VAL166  LYS551  ARG553  GLY616  TRP617  ASP618  TYR619  PRO620  LYS621  CYS622 
 ASP623  PHE694  ASN695  SER759  ASP760  ASP761  ALA762  ILE779  LEU786  VAL792 
 PHE793  MET794  SER795  GLU796  ALA797  LYS798  CYS799  TRP800  GLU811  SER814 

> <Gold.Protein.RotatedAtoms>
  150.7751  134.6639  159.6354 H   0  0  0  0  0  0  0  0  0  0  0  0  # atno 6907 bound_to 6896
  152.3817  134.6576  160.0149 H   0  0  0  0  0  0  0  0  0  0  0  0  # atno 6908 bound_to 6896
  151.6904  133.3274  159.3278 H   0  0  0  0  0  0  0  0  0  0  0  0  # atno 6909 bound_to 6896
  144.8915  140.6648  143.5142 H   0  0  0  0  0  0  0  0  0  0  0  0  # atno 7974 bound_to 7965
  154.5939  140.0654  156.9276 H   0  0  0  0  0  0  0  0  0  0  0  0  # atno 8008 bound_to 7997
  155.2248  140.3333  155.4292 H   0  0  0  0  0  0  0  0  0  0  0  0  # atno 8009 bound_to 7997
  156.2274  140.1825  156.7313 H   0  0  0  0  0  0  0  0  0  0  0  0  # atno 8010 bound_to 7997
  139.5652  144.6907  151.3931 H   0  0  0  0  0  0  0  0  0  0  0  0  # atno 10167 bound_to 10162
  156.3674  130.4334  149.7573 H   0  0  0  0  0  0  0  0  0  0  0  0  # atno 10718 bound_to 10713
  154.2600  135.6310  153.5271 H   0  0  0  0  0  0  0  0  0  0  0  0  # atno 10763 bound_to 10752
  152.9897  135.5585  154.5714 H   0  0  0  0  0  0  0  0  0  0  0  0  # atno 10764 bound_to 10752
  154.5261  135.2885  155.1196 H   0  0  0  0  0  0  0  0  0  0  0  0  # atno 10765 bound_to 10752
  140.8014  133.8211  155.9474 H   0  0  0  0  0  0  0  0  0  0  0  0  # atno 11005 bound_to 11000
  145.3775  139.1644  143.4298 LP  0  0  0  0  0  0  0  0  0  0  0  0  # atno 17320 bound_to 7965
  146.3056  140.3853  142.8688 LP  0  0  0  0  0  0  0  0  0  0  0  0  # atno 17321 bound_to 7965
  140.6935  143.7805  150.7291 LP  0  0  0  0  0  0  0  0  0  0  0  0  # atno 17342 bound_to 10162
  140.1295  143.4539  152.2263 LP  0  0  0  0  0  0  0  0  0  0  0  0  # atno 17343 bound_to 10162
  156.4714  130.7998  151.3016 LP  0  0  0  0  0  0  0  0  0  0  0  0  # atno 17370 bound_to 10713
  157.7480  131.0035  150.3039 LP  0  0  0  0  0  0  0  0  0  0  0  0  # atno 17371 bound_to 10713
  140.9290  134.2045  157.4876 LP  0  0  0  0  0  0  0  0  0  0  0  0  # atno 17394 bound_to 11000
  139.8721  134.9825  156.5159 LP  0  0  0  0  0  0  0  0  0  0  0  0  # atno 17395 bound_to 11000

$$$$
