#       Name:                AV-unprocessed.smi:1866
#       Creating user name   scv26
#       Creation time:       Fri Mar 27 09:27:43 2020


#       File generated by GOLD software.
#

@<TRIPOS>MOLECULE
AV-unprocessed.smi:1866
    36    37     1
SMALL
NO_CHARGES


@<TRIPOS>ATOM
      1 ****        -6.2877   1.7376  -0.8550 C.3            1 S1                 0.0000
      2 ****        -4.8977   1.5546  -0.3496 C.2            1 S1                 0.0000
      3 ****        -4.6177   1.3731   0.9431 N.2            1 S1                 0.0000
      4 ****        -3.2564   1.2257   1.1673 N.2            1 S1                 0.0000
      5 ****        -2.5285   1.2882   0.0434 C.2            1 S1                 0.0000
      6 ****        -1.1902   1.1727   0.0447 N.pl3          1 S1                -1.0000
      7 ****        -0.6132  -0.0074  -0.2778 C.2            1 S1                 0.0000
      8 ****        -1.1997  -1.0442  -0.5962 O.2            1 S1                 0.0000
      9 ****         0.7275   0.0204  -0.2342 N.am           1 S1                 0.0000
     10 ****         1.6379  -1.0918  -0.5130 C.3            1 S1                 0.0000
     11 ****         2.9881  -0.5089  -0.9850 C.3            1 S1                 0.0000
     12 ****         3.8070   0.0726   0.1716 C.3            1 S1                 0.0000
     13 ****         4.0962  -1.0219   1.2057 C.3            1 S1                 0.0000
     14 ****         2.9244  -1.8421   1.5036 N.am           1 S1                 0.0000
     15 ****         1.8080  -1.9538   0.7603 C.2            1 S1                 0.0000
     16 ****         0.9172  -2.7379   1.0813 O.2            1 S1                 0.0000
     17 ****        -3.4956   1.5612  -1.4059 S.3            1 S1                 0.0000
     18 ****        -6.8002   0.7762  -0.8909 H              1 S1                 0.0000
     19 ****        -6.2732   2.1651  -1.8577 H              1 S1                 0.0000
     20 ****        -6.8427   2.4083  -0.1986 H              1 S1                 0.0000
     21 ****         1.1558   0.8942   0.0332 H              1 S1                 0.0000
     22 ****         1.2248  -1.7113  -1.3110 H              1 S1                 0.0000
     23 ****         3.5679  -1.2946  -1.4712 H              1 S1                 0.0000
     24 ****         2.8229   0.2542  -1.7469 H              1 S1                 0.0000
     25 ****         4.7411   0.4977  -0.1965 H              1 S1                 0.0000
     26 ****         3.2572   0.8899   0.6400 H              1 S1                 0.0000
     27 ****         4.8776  -1.6841   0.8317 H              1 S1                 0.0000
     28 ****         4.4723  -0.5816   2.1293 H              1 S1                 0.0000
     29 ****         2.9782  -2.4117   2.3355 H              1 S1                 0.0000
     30 ****        -5.3086   1.3465   1.6655 LP             1 S1                 0.0000
     31 ****        -2.8590   1.0870   2.0744 LP             1 S1                 0.0000
     32 ****        -0.6207   1.9590   0.2840 LP             1 S1                 0.0000
     33 ****        -2.1989  -1.0622  -0.6335 LP             1 S1                 0.0000
     34 ****        -0.6763  -1.8671  -0.8172 LP             1 S1                 0.0000
     35 ****         0.0923  -2.8140   0.5211 LP             1 S1                 0.0000
     36 ****         1.0175  -3.2996   1.9025 LP             1 S1                 0.0000
@<TRIPOS>BOND
    1    1    2 1     
    2    1   18 1     
    3    1   19 1     
    4    1   20 1     
    5    2   17 1     
    6    2    3 2     
    7    3    4 1     
    8    4    5 2     
    9    5    6 1     
   10    5   17 1     
   11    6    7 1     
   12    7    8 2     
   13    7    9 am    
   14    9   10 1     
   15    9   21 1     
   16   10   15 1     
   17   10   11 1     
   18   10   22 1     
   19   11   12 1     
   20   11   23 1     
   21   11   24 1     
   22   12   13 1     
   23   12   25 1     
   24   12   26 1     
   25   13   14 1     
   26   13   27 1     
   27   13   28 1     
   28   14   15 am    
   29   14   29 1     
   30   15   16 2     
   31    3   30 1     
   32    4   31 1     
   33    6   32 1     
   34    8   33 1     
   35    8   34 1     
   36   16   35 1     
   37   16   36 1     
@<TRIPOS>SUBSTRUCTURE
      1 S1             1
@<TRIPOS>SET
LONE_PAIRS      STATIC     ATOMS    <user>   **** ""
7 30 31 32 33 34 35 36
DONOR_HYDROGENS      STATIC     ATOMS    <user>   **** ""
2 21 29
ATOM$BLUE        STATIC     ATOMS    COLORGROUP SYSTEM
7 30 31 32 33 34 35 36
ATOM$RED        STATIC     ATOMS    COLORGROUP SYSTEM
2 21 29
