#       Name:                AV-unprocessed.smi:3285
#       Creating user name   scv26
#       Creation time:       Fri Mar 27 18:51:01 2020


#       File generated by GOLD software.
#

@<TRIPOS>MOLECULE
AV-unprocessed.smi:3285
    48    49     1
SMALL
NO_CHARGES


@<TRIPOS>ATOM
      1 ****        -3.5964   3.0667   2.4232 C.3            1 S1                 0.0000
      2 ****        -3.7129   3.0264   0.9265 C.2            1 S1                 0.0000
      3 ****        -4.1846   4.0779   0.2783 N.2            1 S1                 0.0000
      4 ****        -4.1674   3.7326  -1.0763 O.3            1 S1                 0.0000
      5 ****        -3.6780   2.4721  -1.1921 C.2            1 S1                 0.0000
      6 ****        -3.5793   1.9168  -2.5727 C.3            1 S1                 0.0000
      7 ****        -3.3690   1.9656   0.0404 C.2            1 S1                 0.0000
      8 ****        -2.8001   0.6164   0.3868 C.3            1 S1                 0.0000
      9 ****        -1.2741   0.5936   0.2308 C.3            1 S1                 0.0000
     10 ****        -0.7268  -0.7345   0.5775 N.4            1 S1                 1.0000
     11 ****         0.7447  -0.8563   0.4805 C.3            1 S1                 0.0000
     12 ****         1.2176  -2.0787   1.2872 C.3            1 S1                 0.0000
     13 ****         2.7381  -2.2760   1.1844 C.3            1 S1                 0.0000
     14 ****         3.1911  -2.3934  -0.2840 C.3            1 S1                 0.0000
     15 ****         4.6974  -2.6801  -0.3970 C.3            1 S1                 0.0000
     16 ****         2.7324  -1.1715  -1.1204 C.3            1 S1                 0.0000
     17 ****         3.5007   0.1299  -0.8123 C.3            1 S1                 0.0000
     18 ****         1.2066  -0.9761  -0.9895 C.3            1 S1                 0.0000
     19 ****        -2.5538   3.0007   2.7335 H              1 S1                 0.0000
     20 ****        -4.1321   2.2337   2.8784 H              1 S1                 0.0000
     21 ****        -4.0081   3.9879   2.8373 H              1 S1                 0.0000
     22 ****        -2.6596   1.3457  -2.6976 H              1 S1                 0.0000
     23 ****        -3.5825   2.7137  -3.3167 H              1 S1                 0.0000
     24 ****        -4.4196   1.2552  -2.7818 H              1 S1                 0.0000
     25 ****        -3.0620   0.3405   1.4088 H              1 S1                 0.0000
     26 ****        -3.2394  -0.1545  -0.2475 H              1 S1                 0.0000
     27 ****        -1.0077   0.8480  -0.7949 H              1 S1                 0.0000
     28 ****        -0.8235   1.3477   0.8778 H              1 S1                 0.0000
     29 ****        -0.9868  -0.9234   1.5350 H              1 S1                 0.0000
     30 ****         1.1849   0.0345   0.9304 H              1 S1                 0.0000
     31 ****         0.9353  -1.9680   2.3347 H              1 S1                 0.0000
     32 ****         0.7142  -2.9768   0.9262 H              1 S1                 0.0000
     33 ****         3.2521  -1.4478   1.6734 H              1 S1                 0.0000
     34 ****         3.0226  -3.1748   1.7328 H              1 S1                 0.0000
     35 ****         2.6857  -3.2659  -0.7014 H              1 S1                 0.0000
     36 ****         5.2949  -1.9012   0.0770 H              1 S1                 0.0000
     37 ****         5.0071  -2.7536  -1.4398 H              1 S1                 0.0000
     38 ****         4.9506  -3.6236   0.0873 H              1 S1                 0.0000
     39 ****         2.9317  -1.4015  -2.1681 H              1 S1                 0.0000
     40 ****         3.4215   0.4185   0.2353 H              1 S1                 0.0000
     41 ****         3.1182   0.9580  -1.4095 H              1 S1                 0.0000
     42 ****         4.5602   0.0339  -1.0495 H              1 S1                 0.0000
     43 ****         0.7011  -1.8238  -1.4546 H              1 S1                 0.0000
     44 ****         0.9069  -0.0989  -1.5628 H              1 S1                 0.0000
     45 ****        -1.1512  -1.4353  -0.0132 H              1 S1                 0.0000
     46 ****        -4.4909   4.9429   0.6756 LP             1 S1                 0.0000
     47 ****        -3.5829   4.3691  -1.5795 LP             1 S1                 0.0000
     48 ****        -5.0959   3.7694  -1.4459 LP             1 S1                 0.0000
@<TRIPOS>BOND
    1    1    2 1     
    2    1   19 1     
    3    1   20 1     
    4    1   21 1     
    5    2    7 1     
    6    2    3 2     
    7    3    4 1     
    8    4    5 1     
    9    5    6 1     
   10    5    7 2     
   11    6   22 1     
   12    6   23 1     
   13    6   24 1     
   14    7    8 1     
   15    8    9 1     
   16    8   25 1     
   17    8   26 1     
   18    9   10 1     
   19    9   27 1     
   20    9   28 1     
   21   10   11 1     
   22   10   29 1     
   23   10   45 1     
   24   11   18 1     
   25   11   12 1     
   26   11   30 1     
   27   12   13 1     
   28   12   31 1     
   29   12   32 1     
   30   13   14 1     
   31   13   33 1     
   32   13   34 1     
   33   14   15 1     
   34   14   16 1     
   35   14   35 1     
   36   15   36 1     
   37   15   37 1     
   38   15   38 1     
   39   16   17 1     
   40   16   18 1     
   41   16   39 1     
   42   17   40 1     
   43   17   41 1     
   44   17   42 1     
   45   18   43 1     
   46   18   44 1     
   47    3   46 1     
   48    4   47 1     
   49    4   48 1     
@<TRIPOS>SUBSTRUCTURE
      1 S1             1
@<TRIPOS>SET
LONE_PAIRS      STATIC     ATOMS    <user>   **** ""
3 46 47 48
DONOR_HYDROGENS      STATIC     ATOMS    <user>   **** ""
2 29 45
ATOM$BLUE        STATIC     ATOMS    COLORGROUP SYSTEM
3 46 47 48
ATOM$RED        STATIC     ATOMS    COLORGROUP SYSTEM
2 29 45
