AV-unprocessed.smi:788|AV-procd|sdf|3733|dock8
  -GOLD-   22720 1163D 1   1.00000     0.00000
 Structure written by MMmdl.
 35 36  0  0  0  0  0  0  0  0  1 V2000
  144.7053  135.7751  152.0696 C   0  0  0  0  0  0  0  0  0  0  0  0
  145.0206  134.4124  151.4261 C   0  0  2  0  0  0  0  0  0  0  0  0
  143.7213  133.7159  150.9790 C   0  0  0  0  0  0  0  0  0  0  0  0
  144.0053  132.3656  150.3089 C   0  0  0  0  0  0  0  0  0  0  0  0
  144.8074  131.4495  151.2417 C   0  0  0  0  0  0  0  0  0  0  0  0
  146.1233  132.1106  151.6945 C   0  0  2  0  0  0  0  0  0  0  0  0
  146.9157  131.1579  152.6086 C   0  0  0  0  0  0  0  0  0  0  0  0
  145.8470  133.4861  152.3560 C   0  0  1  0  0  0  0  0  0  0  0  0
  147.1130  134.1331  152.7037 N   0  0  0  0  0  0  0  0  0  0  0  0
  147.8783  133.8638  153.7753 C   0  0  0  0  0  0  0  0  0  0  0  0
  147.5843  133.0095  154.6093 O   0  0  0  0  0  0  0  0  0  0  0  0
  149.0044  134.5973  153.9053 N   0  0  0  0  0  0  0  0  0  0  0  0
  150.0337  134.5906  154.8912 C   0  0  0  0  0  0  0  0  0  0  0  0
  150.8291  135.6361  155.1714 N   0  0  0  0  0  0  0  0  0  0  0  0
  151.7483  135.3415  156.1695 N   0  0  0  0  0  0  0  0  0  0  0  0
  151.6178  134.0835  156.5992 C   0  0  0  0  0  0  0  0  0  0  0  0
  150.3607  133.1362  155.8242 S   0  0  0  0  0  0  0  0  0  0  0  0
  144.1538  135.6529  153.0020 H   0  0  0  0  0  0  0  0  0  0  0  0
  144.1006  136.3916  151.4040 H   0  0  0  0  0  0  0  0  0  0  0  0
  145.6126  136.3375  152.2902 H   0  0  0  0  0  0  0  0  0  0  0  0
  145.6135  134.6065  150.5306 H   0  0  0  0  0  0  0  0  0  0  0  0
  143.0690  133.5647  151.8402 H   0  0  0  0  0  0  0  0  0  0  0  0
  143.1733  134.3556  150.2861 H   0  0  0  0  0  0  0  0  0  0  0  0
  143.0670  131.8840  150.0324 H   0  0  0  0  0  0  0  0  0  0  0  0
  144.5580  132.5231  149.3816 H   0  0  0  0  0  0  0  0  0  0  0  0
  144.2017  131.1982  152.1136 H   0  0  0  0  0  0  0  0  0  0  0  0
  145.0177  130.5088  150.7317 H   0  0  0  0  0  0  0  0  0  0  0  0
  146.7286  132.2813  150.8026 H   0  0  0  0  0  0  0  0  0  0  0  0
  146.3878  130.9796  153.5459 H   0  0  0  0  0  0  0  0  0  0  0  0
  147.9007  131.5568  152.8513 H   0  0  0  0  0  0  0  0  0  0  0  0
  147.0713  130.1927  152.1264 H   0  0  0  0  0  0  0  0  0  0  0  0
  145.2580  133.3092  153.2580 H   0  0  0  0  0  0  0  0  0  0  0  0
  147.4360  134.8521  152.0719 H   0  0  0  0  0  0  0  0  0  0  0  0
  149.1428  135.2743  153.1691 H   0  0  0  0  0  0  0  0  0  0  0  0
  152.2681  133.7094  157.3760 H   0  0  0  0  0  0  0  0  0  0  0  0
  1  2  1  0  0  0  0
  1 18  1  0  0  0  0
  1 19  1  0  0  0  0
  1 20  1  0  0  0  0
  2  8  1  0  0  0  0
  2  3  1  0  0  0  0
  2 21  1  0  0  0  0
  3  4  1  0  0  0  0
  3 22  1  0  0  0  0
  3 23  1  0  0  0  0
  4  5  1  0  0  0  0
  4 24  1  0  0  0  0
  4 25  1  0  0  0  0
  5  6  1  0  0  0  0
  5 26  1  0  0  0  0
  5 27  1  0  0  0  0
  6  7  1  0  0  0  0
  6  8  1  0  0  0  0
  6 28  1  0  0  0  0
  7 29  1  0  0  0  0
  7 30  1  0  0  0  0
  7 31  1  0  0  0  0
  8  9  1  0  0  0  0
  8 32  1  0  0  0  0
  9 10  1  0  0  0  0
  9 33  1  0  0  0  0
 10 11  2  0  0  0  0
 10 12  1  0  0  0  0
 12 13  1  0  0  0  0
 12 34  1  0  0  0  0
 13 17  1  0  0  0  0
 13 14  2  0  0  0  0
 14 15  1  0  0  0  0
 15 16  2  0  0  0  0
 16 17  1  0  0  0  0
 16 35  1  0  0  0  0
M  END
> <s_m_source_file>
AV-unprocessed.smi

> <i_m_source_file_index>
788

> <i_lp_mmshare_version>
43012

> <i_f3d_flags>
0

> <s_epik_input>
W0NIM11bQ0BASF0xW0NIMl1bQ0gyXVtDSDJdW0NAQEhdKFtDSDNdKVtDQEhdMVtOSF1DKD1PKVtOSF1jMm5uW2NIXXMy

> <s_epik_cmdline>
J2VwaWtfcHl0aG9uJywgJy1waCcsICc3LjAnLCAnLXRuJywgJzgnLCAnLW1hJywgJzIwMCcsICctbWV0YWxfYmluZGluZycsICctaW1hZScsICc8aW5maWxlLm1hZT4nLCAnLW9tYWUnLCAnPG91dGZpbGUubWFlPic=

> <r_lp_tautomer_probability>
1

> <r_epik_Ionization_Penalty>
0.000304078

> <r_epik_Ionization_Penalty_Charging>
0

> <r_epik_Ionization_Penalty_Neutral>
0.000304078

> <r_epik_State_Penalty>
-0

> <r_epik_Charging_Adjusted_Penalty>
0

> <i_epik_Tot_Q>
0

> <i_epik_Tot_abs_Q>
0

> <r_epik_Metal_State_Penalty>
0.164801

> <b_epik_Metal_Only>
0

> <s_lp_Force_Field>
OPLS_2005

> <r_lp_Energy>
14.1502

> <b_lp_Chiralities_Consistent>
1

> <s_lp_Variant>
AV-unprocessed.smi:788-3

> <Gold.Version>
5.8.1

> <Gold.Id.Protein>
6NUR|6NUR_protein|mol2

> <Gold.PLP.Fitness>
33.4157

> <Gold.PLP.PLP>
-25.7758

> <Gold.PLP.part.hbond>
-3.5335

> <Gold.PLP.part.metal>
0.0000

> <Gold.PLP.part.buried>
-0.4969

> <Gold.PLP.part.nonpolar>
-20.8752

> <Gold.PLP.part.repulsive>
0.1695

> <Gold.PLP.ligand.clash>
0.0000

> <Gold.PLP.ligand.torsion>
0.4307

> <Gold.PLP.Chemscore.Hbond>
2.8320

> <Gold.PLP.Chemscore.CHOScore>
0.0000

> <Gold.PLP.Chemscore.Metal>
0.0000

> <Gold.Chemscore.Hbonds>
donor molecule, donor type, donor heavy atom, donor atom, acceptor molecule, acceptor atom, score
      L1  H     9    33       P1  7948  0.83
      L1  H    12    34       P1  7948  0.95
      P1  H 10752 10764       L1    15  0.99

> <Gold.PLP.Chemscore.Internal.Correction>
0.0053

> <Gold.Rescore>
     Score         DG    S(hbond)    S(metal)    S(lipo)     H(rot)  DE(clash)    DE(int)     intcor
     12.00     -15.65       1.52        0.00      65.40       1.00       1.80       1.86       ----

> <Gold.Chemscore.Fitness>
12.0025

> <Gold.Chemscore.DG>
-15.6533

> <Gold.Chemscore.ZeroCoef>
-5.4800

> <Gold.Chemscore.Hbond>
1.5214

> <Gold.Chemscore.Metal>
0.0000

> <Gold.Chemscore.Lipo>
65.3987

> <Gold.Chemscore.Internal_Hbond>
0.0000

> <Gold.Chemscore.DEClash>
1.7950

> <Gold.Chemscore.DEInternal>
1.8558

> <Gold.Chemscore.Rot>
1.0000

> <Gold.Chemscore.Internal.Correction>
   9.000000E+99

> <Gold.Chemscore.Hbonds>
donor molecule, donor type, donor heavy atom, donor atom, acceptor molecule, acceptor atom, score
      L1  H     9    33       P1  7948  0.68
      L1  H    12    34       P1  7948  0.21
      P1  H 10752 10764       L1    15  0.16

> <Gold.Chemscore.Hbond.Weighted>
-5.0816

> <Gold.Chemscore.Metal.Weighted>
-0.0000

> <Gold.Chemscore.Lipo.Weighted>
-7.6516

> <Gold.Chemscore.Internal_Hbond.Weighted>
0.0000

> <Gold.Chemscore.DEClash.Weighted>
1.7950

> <Gold.Chemscore.DEInternal.Weighted>
1.8558

> <Gold.Chemscore.Rot.Weighted>
2.5600

> <Gold.Chemscore.Internal.Correction.Weighted>
   9.000000E+99

> <Gold.Protein.RotatedTorsions>
[ 6907 6896 6895 6894 ] final  -83.87 input  -60.11 | X-H torsion
[ 7974 7965 7964 7962 ] final  144.15 input  175.53 | X-H torsion
[ 8008 7997 7996 7995 ] final  110.42 input   59.86 | X-H torsion
[ 10167 10162 10161 10158 ] final   80.12 input  -65.29 | X-H torsion
[ 10718 10713 10712 10709 ] final -176.18 input   66.30 | X-H torsion
[ 10763 10752 10751 10750 ] final  -14.59 input  -60.55 | X-H torsion
[ 11005 11000 10999 10996 ] final  136.97 input  -57.11 | X-H torsion

> <Gold.Protein.ActiveResidues>
 VAL166  LYS551  ARG553  GLY616  TRP617  ASP618  TYR619  PRO620  LYS621  CYS622 
 ASP623  PHE694  ASN695  SER759  ASP760  ASP761  ALA762  ILE779  LEU786  VAL792 
 PHE793  MET794  SER795  GLU796  ALA797  LYS798  CYS799  TRP800  GLU811  SER814 

> <Gold.Protein.RotatedAtoms>
  150.6881  134.3446  159.4882 H   0  0  0  0  0  0  0  0  0  0  0  0  # atno 6907 bound_to 6896
  152.1295  134.9143  160.0568 H   0  0  0  0  0  0  0  0  0  0  0  0  # atno 6908 bound_to 6896
  152.0318  133.3906  159.4337 H   0  0  0  0  0  0  0  0  0  0  0  0  # atno 6909 bound_to 6896
  144.8860  139.5628  143.5821 H   0  0  0  0  0  0  0  0  0  0  0  0  # atno 7974 bound_to 7965
  156.2052  140.3039  155.9611 H   0  0  0  0  0  0  0  0  0  0  0  0  # atno 8008 bound_to 7997
  155.2859  140.0440  157.3036 H   0  0  0  0  0  0  0  0  0  0  0  0  # atno 8009 bound_to 7997
  154.5623  140.2324  155.8325 H   0  0  0  0  0  0  0  0  0  0  0  0  # atno 8010 bound_to 7997
  139.9531  144.6012  150.8142 H   0  0  0  0  0  0  0  0  0  0  0  0  # atno 10167 bound_to 10162
  156.8108  130.9585  151.3116 H   0  0  0  0  0  0  0  0  0  0  0  0  # atno 10718 bound_to 10713
  153.5306  135.7014  153.5685 H   0  0  0  0  0  0  0  0  0  0  0  0  # atno 10763 bound_to 10752
  153.3694  135.3948  155.1777 H   0  0  0  0  0  0  0  0  0  0  0  0  # atno 10764 bound_to 10752
  154.8685  135.3808  154.4802 H   0  0  0  0  0  0  0  0  0  0  0  0  # atno 10765 bound_to 10752
  140.0082  134.9450  157.0221 H   0  0  0  0  0  0  0  0  0  0  0  0  # atno 11005 bound_to 11000
  146.3024  139.7470  142.9081 LP  0  0  0  0  0  0  0  0  0  0  0  0  # atno 17320 bound_to 7965
  145.3869  141.0366  143.3146 LP  0  0  0  0  0  0  0  0  0  0  0  0  # atno 17321 bound_to 7965
  140.7577  143.3091  151.2889 LP  0  0  0  0  0  0  0  0  0  0  0  0  # atno 17342 bound_to 10162
  139.6613  144.0185  152.2694 LP  0  0  0  0  0  0  0  0  0  0  0  0  # atno 17343 bound_to 10162
  157.6507  130.8882  149.9627 LP  0  0  0  0  0  0  0  0  0  0  0  0  # atno 17370 bound_to 10713
  156.1046  130.3653  150.0157 LP  0  0  0  0  0  0  0  0  0  0  0  0  # atno 17371 bound_to 10713
  140.4602  134.1491  155.7190 LP  0  0  0  0  0  0  0  0  0  0  0  0  # atno 17394 bound_to 11000
  141.1692  133.8642  157.1622 LP  0  0  0  0  0  0  0  0  0  0  0  0  # atno 17395 bound_to 11000

$$$$
