AV-unprocessed.smi:1880|AV-procd|sdf|7636|dock10
  -GOLD-   22720 9363D 1   1.00000     0.00000
 Structure written by MMmdl.
 36 38  0  0  0  0  0  0  0  0  1 V2000
  151.3159  134.8588  157.3973 O   0  0  0  0  0  0  0  0  0  0  0  0
  150.1629  134.3042  156.7945 C   0  0  1  0  0  0  0  0  0  0  0  0
  148.9257  134.9950  157.3885 C   0  0  0  0  0  0  0  0  0  0  0  0
  149.0969  135.1246  158.7901 O   0  0  0  0  0  0  0  0  0  0  0  0
  148.5922  136.3504  159.2907 C   0  0  0  0  0  0  0  0  0  0  0  0
  147.9050  136.0352  160.5755 C   0  0  0  0  0  0  0  0  0  0  0  0
  147.5630  134.8663  161.1976 C   0  0  0  0  0  0  0  0  0  0  0  0
  146.9213  135.2318  162.4131 C   0  0  0  0  0  0  0  0  0  0  0  0
  146.9198  136.5974  162.4419 C   0  0  0  0  0  0  0  0  0  0  0  0
  147.5166  137.1032  161.3281 O   0  0  0  0  0  0  0  0  0  0  0  0
  150.2511  134.4966  155.2680 C   0  0  0  0  0  0  0  0  0  0  0  0
  149.3497  133.6188  154.5425 N   0  0  0  0  0  0  0  0  0  0  0  0
  148.2467  133.9788  153.8588 C   0  0  0  0  0  0  0  0  0  0  0  0
  147.5570  133.0116  153.2609 N   0  0  0  0  0  0  0  0  0  0  0  0
  148.2985  131.8916  153.5961 C   0  0  0  0  0  0  0  0  0  0  0  0
  148.1014  130.5306  153.2709 C   0  0  0  0  0  0  0  0  0  0  0  0
  149.0013  129.5475  153.7328 C   0  0  0  0  0  0  0  0  0  0  0  0
  148.7979  128.2477  153.4118 F   0  0  0  0  0  0  0  0  0  0  0  0
  150.1104  129.9102  154.5258 C   0  0  0  0  0  0  0  0  0  0  0  0
  150.9691  128.9600  154.9653 F   0  0  0  0  0  0  0  0  0  0  0  0
  150.3277  131.2602  154.8618 C   0  0  0  0  0  0  0  0  0  0  0  0
  149.4275  132.2376  154.3984 C   0  0  0  0  0  0  0  0  0  0  0  0
  151.2987  134.6512  158.3194 H   0  0  0  0  0  0  0  0  0  0  0  0
  150.1266  133.2364  157.0155 H   0  0  0  0  0  0  0  0  0  0  0  0
  148.7483  135.9630  156.9161 H   0  0  0  0  0  0  0  0  0  0  0  0
  148.0414  134.3814  157.2084 H   0  0  0  0  0  0  0  0  0  0  0  0
  149.4022  137.0623  159.4563 H   0  0  0  0  0  0  0  0  0  0  0  0
  147.8894  136.7958  158.5852 H   0  0  0  0  0  0  0  0  0  0  0  0
  147.7529  133.8711  160.8240 H   0  0  0  0  0  0  0  0  0  0  0  0
  146.5132  134.5787  163.1704 H   0  0  0  0  0  0  0  0  0  0  0  0
  146.5548  137.3323  163.1441 H   0  0  0  0  0  0  0  0  0  0  0  0
  150.0045  135.5257  155.0038 H   0  0  0  0  0  0  0  0  0  0  0  0
  151.2692  134.3222  154.9173 H   0  0  0  0  0  0  0  0  0  0  0  0
  147.9321  135.0105  153.7975 H   0  0  0  0  0  0  0  0  0  0  0  0
  147.2557  130.2413  152.6650 H   0  0  0  0  0  0  0  0  0  0  0  0
  151.1741  131.5408  155.4707 H   0  0  0  0  0  0  0  0  0  0  0  0
  1  2  1  0  0  0  0
  1 23  1  0  0  0  0
  2  3  1  0  0  0  0
  2 11  1  0  0  0  0
  2 24  1  0  0  0  0
  3  4  1  0  0  0  0
  3 25  1  0  0  0  0
  3 26  1  0  0  0  0
  4  5  1  0  0  0  0
  5  6  1  0  0  0  0
  5 27  1  0  0  0  0
  5 28  1  0  0  0  0
  6 10  1  0  0  0  0
  6  7  2  0  0  0  0
  7  8  1  0  0  0  0
  7 29  1  0  0  0  0
  8  9  2  0  0  0  0
  8 30  1  0  0  0  0
  9 10  1  0  0  0  0
  9 31  1  0  0  0  0
 11 12  1  0  0  0  0
 11 32  1  0  0  0  0
 11 33  1  0  0  0  0
 12 22  1  0  0  0  0
 12 13  1  0  0  0  0
 13 14  2  0  0  0  0
 13 34  1  0  0  0  0
 14 15  1  0  0  0  0
 15 22  2  0  0  0  0
 15 16  1  0  0  0  0
 16 17  2  0  0  0  0
 16 35  1  0  0  0  0
 17 18  1  0  0  0  0
 17 19  1  0  0  0  0
 19 20  1  0  0  0  0
 19 21  2  0  0  0  0
 21 22  1  0  0  0  0
 21 36  1  0  0  0  0
M  END
> <s_m_source_file>
AV-unprocessed.smi

> <i_m_source_file_index>
1880

> <i_lp_mmshare_version>
43012

> <i_f3d_flags>
0

> <s_epik_input>
W2NIXTFjKEYpYyhGKVtjSF1jKGMxMiluKFtjSF1uMilbQ0gyXVtDQEhdKFtPSF0pW0NIMl1PW0NIMl1jM1tjSF1bY0hdW2NIXW8z

> <s_epik_cmdline>
J2VwaWtfcHl0aG9uJywgJy1waCcsICc3LjAnLCAnLXRuJywgJzgnLCAnLW1hJywgJzIwMCcsICctbWV0YWxfYmluZGluZycsICctaW1hZScsICc8aW5maWxlLm1hZT4nLCAnLW9tYWUnLCAnPG91dGZpbGUubWFlPic=

> <r_epik_Ionization_Penalty>
0.0152348

> <r_epik_Ionization_Penalty_Charging>
0

> <r_epik_Ionization_Penalty_Neutral>
0.0152348

> <r_epik_State_Penalty>
0.0119607

> <r_epik_Charging_Adjusted_Penalty>
0.0119607

> <i_epik_Tot_Q>
0

> <i_epik_Tot_abs_Q>
0

> <r_epik_Metal_State_Penalty>
1.20821e-05

> <b_epik_Metal_Only>
0

> <s_lp_Force_Field>
OPLS_2005

> <r_lp_Energy>
7.94545

> <b_lp_Chiralities_Consistent>
1

> <s_lp_Variant>
AV-unprocessed.smi:1880-2

> <Gold.Version>
5.8.1

> <Gold.Id.Protein>
6NUR|6NUR_protein|mol2

> <Gold.PLP.Fitness>
51.0190

> <Gold.PLP.PLP>
-42.3763

> <Gold.PLP.part.hbond>
-4.0000

> <Gold.PLP.part.metal>
0.0000

> <Gold.PLP.part.buried>
-3.8676

> <Gold.PLP.part.nonpolar>
-34.6437

> <Gold.PLP.part.repulsive>
0.1205

> <Gold.PLP.ligand.clash>
0.0000

> <Gold.PLP.ligand.torsion>
1.0187

> <Gold.PLP.Chemscore.Hbond>
2.8800

> <Gold.PLP.Chemscore.CHOScore>
0.6652

> <Gold.PLP.Chemscore.Metal>
0.0000

> <Gold.Chemscore.Hbonds>
donor molecule, donor type, donor heavy atom, donor atom, acceptor molecule, acceptor atom, score
      P1  H  6896  6908       L1     4  1.00
      P1  H  6931  6943       L1    10  0.96
      P1  H  6934  6947       L1    10  0.91
      L1  C    13    34       P1  7948  0.64

> <Gold.PLP.Chemscore.Internal.Correction>
0.0446

> <Gold.Rescore>
     Score         DG    S(hbond)    S(metal)    S(lipo)     H(rot)  DE(clash)    DE(int)     intcor
     14.24     -15.31       2.39        0.00      78.25       2.85       0.06       1.02       ----

> <Gold.Chemscore.Fitness>
14.2367

> <Gold.Chemscore.DG>
-15.3139

> <Gold.Chemscore.ZeroCoef>
-5.4800

> <Gold.Chemscore.Hbond>
2.3889

> <Gold.Chemscore.Metal>
0.0000

> <Gold.Chemscore.Lipo>
78.2522

> <Gold.Chemscore.Internal_Hbond>
0.0000

> <Gold.Chemscore.DEClash>
0.0580

> <Gold.Chemscore.DEInternal>
1.0193

> <Gold.Chemscore.Rot>
2.8518

> <Gold.Chemscore.Internal.Correction>
   9.000000E+99

> <Gold.Chemscore.Hbonds>
donor molecule, donor type, donor heavy atom, donor atom, acceptor molecule, acceptor atom, score
      P1  H  6896  6908       L1     4  0.87
      P1  H  6931  6943       L1    10  0.52
      P1  H  6934  6947       L1    10  0.81

> <Gold.Chemscore.Hbond.Weighted>
-7.9789

> <Gold.Chemscore.Metal.Weighted>
-0.0000

> <Gold.Chemscore.Lipo.Weighted>
-9.1555

> <Gold.Chemscore.Internal_Hbond.Weighted>
0.0000

> <Gold.Chemscore.DEClash.Weighted>
0.0580

> <Gold.Chemscore.DEInternal.Weighted>
1.0193

> <Gold.Chemscore.Rot.Weighted>
7.3005

> <Gold.Chemscore.Internal.Correction.Weighted>
   9.000000E+99

> <Gold.Protein.RotatedTorsions>
[ 6907 6896 6895 6894 ] final  152.22 input  -60.11 | X-H torsion
[ 7974 7965 7964 7962 ] final  -58.86 input  175.53 | X-H torsion
[ 8008 7997 7996 7995 ] final  -95.58 input   59.86 | X-H torsion
[ 10167 10162 10161 10158 ] final  -54.86 input  -65.29 | X-H torsion
[ 10718 10713 10712 10709 ] final -132.34 input   66.30 | X-H torsion
[ 10763 10752 10751 10750 ] final  124.62 input  -60.55 | X-H torsion
[ 11005 11000 10999 10996 ] final -106.69 input  -57.11 | X-H torsion

> <Gold.Protein.ActiveResidues>
 VAL166  LYS551  ARG553  GLY616  TRP617  ASP618  TYR619  PRO620  LYS621  CYS622 
 ASP623  PHE694  ASN695  SER759  ASP760  ASP761  ALA762  ILE779  LEU786  VAL792 
 PHE793  MET794  SER795  GLU796  ALA797  LYS798  CYS799  TRP800  GLU811  SER814 

> <Gold.Protein.RotatedAtoms>
  152.0898  133.4195  159.4538 H   0  0  0  0  0  0  0  0  0  0  0  0  # atno 6907 bound_to 6896
  150.6862  134.2885  159.4666 H   0  0  0  0  0  0  0  0  0  0  0  0  # atno 6908 bound_to 6896
  152.0735  134.9517  160.0625 H   0  0  0  0  0  0  0  0  0  0  0  0  # atno 6909 bound_to 6896
  145.8344  140.8459  143.0067 H   0  0  0  0  0  0  0  0  0  0  0  0  # atno 7974 bound_to 7965
  154.7633  140.0479  157.0991 H   0  0  0  0  0  0  0  0  0  0  0  0  # atno 8008 bound_to 7997
  154.9911  140.3113  155.4886 H   0  0  0  0  0  0  0  0  0  0  0  0  # atno 8009 bound_to 7997
  156.2908  140.2218  156.5016 H   0  0  0  0  0  0  0  0  0  0  0  0  # atno 8010 bound_to 7997
  140.6407  143.2506  151.4996 H   0  0  0  0  0  0  0  0  0  0  0  0  # atno 10167 bound_to 10162
  156.2336  130.7053  151.0884 H   0  0  0  0  0  0  0  0  0  0  0  0  # atno 10718 bound_to 10713
  153.6643  135.3341  155.3136 H   0  0  0  0  0  0  0  0  0  0  0  0  # atno 10763 bound_to 10752
  154.8507  135.4371  154.1771 H   0  0  0  0  0  0  0  0  0  0  0  0  # atno 10764 bound_to 10752
  153.2746  135.7003  153.7522 H   0  0  0  0  0  0  0  0  0  0  0  0  # atno 10765 bound_to 10752
  141.0992  133.8915  157.1886 H   0  0  0  0  0  0  0  0  0  0  0  0  # atno 11005 bound_to 11000
  144.6737  140.0719  143.7472 LP  0  0  0  0  0  0  0  0  0  0  0  0  # atno 17320 bound_to 7965
  145.9535  139.2750  143.1198 LP  0  0  0  0  0  0  0  0  0  0  0  0  # atno 17321 bound_to 7965
  139.5616  144.2142  152.1701 LP  0  0  0  0  0  0  0  0  0  0  0  0  # atno 17342 bound_to 10162
  140.1411  144.5201  150.6743 LP  0  0  0  0  0  0  0  0  0  0  0  0  # atno 17343 bound_to 10162
  157.7144  131.0717  150.6382 LP  0  0  0  0  0  0  0  0  0  0  0  0  # atno 17370 bound_to 10713
  156.6451  130.4469  149.5739 LP  0  0  0  0  0  0  0  0  0  0  0  0  # atno 17371 bound_to 10713
  139.9838  135.0089  156.9813 LP  0  0  0  0  0  0  0  0  0  0  0  0  # atno 17394 bound_to 11000
  140.5065  134.1045  155.7261 LP  0  0  0  0  0  0  0  0  0  0  0  0  # atno 17395 bound_to 11000

$$$$
