AV-unprocessed.smi:212|AV-procd|sdf|1626|dock6
  -GOLD-   2262019573D 1   1.00000     0.00000
 Structure written by MMmdl.
 65 68  0  0  0  0  0  0  0  0  2 V2000
  145.7046  135.4988  156.3058 C   0  0  0  0  0  0  0  0  0  0  0  0
  146.8504  136.1072  155.4793 C   0  0  1  0  0  0  0  0  0  0  0  0
  147.0624  135.3640  154.1428 C   0  0  0  0  0  0  0  0  0  0  0  0
  145.9758  135.6591  153.1731 N   0  3  2  0  0  0  0  0  0  0  0  0
  146.0727  134.8664  151.9194 C   0  0  0  0  0  0  0  0  0  0  0  0
  144.7899  134.9672  151.0628 C   0  0  0  0  0  0  0  0  0  0  0  0
  144.6362  133.7127  150.1867 C   0  0  0  0  0  0  0  0  0  0  0  0
  143.5281  135.1762  151.9209 C   0  0  0  0  0  0  0  0  0  0  0  0
  144.9161  136.0651  150.1803 O   0  0  0  0  0  0  0  0  0  0  0  0
  145.8117  137.1155  152.9360 C   0  0  0  0  0  0  0  0  0  0  0  0
  145.6007  137.8700  154.2613 C   0  0  0  0  0  0  0  0  0  0  0  0
  146.6419  137.5370  155.2353 N   0  0  0  0  0  0  0  0  0  0  0  0
  147.7513  138.3199  155.3004 C   0  0  0  0  0  0  0  0  0  0  0  0
  148.1220  139.0637  154.2240 N   0  0  0  0  0  0  0  0  0  0  0  0
  149.2172  139.8281  154.2740 C   0  0  0  0  0  0  0  0  0  0  0  0
  150.0717  139.9955  155.2848 N   0  0  0  0  0  0  0  0  0  0  0  0
  149.7021  139.2583  156.3703 C   0  0  0  0  0  0  0  0  0  0  0  0
  148.5679  138.4034  156.4639 C   0  0  0  0  0  0  0  0  0  0  0  0
  148.5114  137.8306  157.7297 N   0  0  0  0  0  0  0  0  0  0  0  0
  149.5550  138.3150  158.3464 C   0  0  0  0  0  0  0  0  0  0  0  0
  150.3294  139.1741  157.5999 N   0  0  0  0  0  0  0  0  0  0  0  0
  151.5376  139.8569  158.0267 C   0  0  0  0  0  0  0  0  0  0  0  0
  151.3148  141.3698  158.2902 C   0  0  2  0  0  0  0  0  0  0  0  0
  150.7962  142.0972  157.0271 C   0  0  0  0  0  0  0  0  0  0  0  0
  150.3161  143.3880  157.3405 O   0  0  0  0  0  0  0  0  0  0  0  0
  152.5670  142.0667  158.8947 C   0  0  1  0  0  0  0  0  0  0  0  0
  152.2495  143.3700  159.6341 C   0  0  0  0  0  0  0  0  0  0  0  0
  152.8823  143.1888  161.0129 C   0  0  0  0  0  0  0  0  0  0  0  0
  152.9251  141.7822  161.1840 O   0  0  0  0  0  0  0  0  0  0  0  0
  153.3304  141.2371  159.9392 C   0  0  0  0  0  0  0  0  0  0  0  0
  145.9029  134.4511  156.5327 H   0  0  0  0  0  0  0  0  0  0  0  0
  144.7495  135.5451  155.7822 H   0  0  0  0  0  0  0  0  0  0  0  0
  145.5899  136.0224  157.2553 H   0  0  0  0  0  0  0  0  0  0  0  0
  147.7593  135.9626  156.0629 H   0  0  0  0  0  0  0  0  0  0  0  0
  148.0162  135.6620  153.7040 H   0  0  0  0  0  0  0  0  0  0  0  0
  147.1202  134.2893  154.3211 H   0  0  0  0  0  0  0  0  0  0  0  0
  146.9404  135.1843  151.3385 H   0  0  0  0  0  0  0  0  0  0  0  0
  146.2551  133.8167  152.1557 H   0  0  0  0  0  0  0  0  0  0  0  0
  144.5306  132.8156  150.7976 H   0  0  0  0  0  0  0  0  0  0  0  0
  145.5024  133.5689  149.5396 H   0  0  0  0  0  0  0  0  0  0  0  0
  143.7557  133.7777  149.5460 H   0  0  0  0  0  0  0  0  0  0  0  0
  143.3959  134.3587  152.6307 H   0  0  0  0  0  0  0  0  0  0  0  0
  142.6313  135.2206  151.3015 H   0  0  0  0  0  0  0  0  0  0  0  0
  143.5723  136.1043  152.4918 H   0  0  0  0  0  0  0  0  0  0  0  0
  145.3964  135.7842  149.4156 H   0  0  0  0  0  0  0  0  0  0  0  0
  146.6936  137.4971  152.4199 H   0  0  0  0  0  0  0  0  0  0  0  0
  144.9603  137.2901  152.2775 H   0  0  0  0  0  0  0  0  0  0  0  0
  145.5562  138.9460  154.0867 H   0  0  0  0  0  0  0  0  0  0  0  0
  144.6336  137.6010  154.6864 H   0  0  0  0  0  0  0  0  0  0  0  0
  149.4411  140.3851  153.3761 H   0  0  0  0  0  0  0  0  0  0  0  0
  149.7927  138.0535  159.3675 H   0  0  0  0  0  0  0  0  0  0  0  0
  151.8995  139.3484  158.9199 H   0  0  0  0  0  0  0  0  0  0  0  0
  152.3018  139.7074  157.2637 H   0  0  0  0  0  0  0  0  0  0  0  0
  150.5241  141.4498  159.0382 H   0  0  0  0  0  0  0  0  0  0  0  0
  151.5764  142.1762  156.2703 H   0  0  0  0  0  0  0  0  0  0  0  0
  149.9690  141.5522  156.5732 H   0  0  0  0  0  0  0  0  0  0  0  0
  149.7878  143.6962  156.6201 H   0  0  0  0  0  0  0  0  0  0  0  0
  153.2572  142.3056  158.0850 H   0  0  0  0  0  0  0  0  0  0  0  0
  152.6560  144.2431  159.1224 H   0  0  0  0  0  0  0  0  0  0  0  0
  151.1757  143.5295  159.7296 H   0  0  0  0  0  0  0  0  0  0  0  0
  153.8980  143.5870  161.0284 H   0  0  0  0  0  0  0  0  0  0  0  0
  152.3113  143.6738  161.8051 H   0  0  0  0  0  0  0  0  0  0  0  0
  153.1343  140.1664  159.8862 H   0  0  0  0  0  0  0  0  0  0  0  0
  154.4066  141.3793  159.8254 H   0  0  0  0  0  0  0  0  0  0  0  0
  145.1224  135.3544  153.6193 H   0  0  0  0  0  0  0  0  0  0  0  0
  1  2  1  0  0  0  0
  1 31  1  0  0  0  0
  1 32  1  0  0  0  0
  1 33  1  0  0  0  0
  2 12  1  0  0  0  0
  2  3  1  0  0  0  0
  2 34  1  0  0  0  0
  3  4  1  0  0  0  0
  3 35  1  0  0  0  0
  3 36  1  0  0  0  0
  4  5  1  0  0  0  0
  4 10  1  0  0  0  0
  4 65  1  0  0  0  0
  5  6  1  0  0  0  0
  5 37  1  0  0  0  0
  5 38  1  0  0  0  0
  6  7  1  0  0  0  0
  6  8  1  0  0  0  0
  6  9  1  0  0  0  0
  7 39  1  0  0  0  0
  7 40  1  0  0  0  0
  7 41  1  0  0  0  0
  8 42  1  0  0  0  0
  8 43  1  0  0  0  0
  8 44  1  0  0  0  0
  9 45  1  0  0  0  0
 10 11  1  0  0  0  0
 10 46  1  0  0  0  0
 10 47  1  0  0  0  0
 11 12  1  0  0  0  0
 11 48  1  0  0  0  0
 11 49  1  0  0  0  0
 12 13  1  0  0  0  0
 13 18  1  0  0  0  0
 13 14  2  0  0  0  0
 14 15  1  0  0  0  0
 15 16  2  0  0  0  0
 15 50  1  0  0  0  0
 16 17  1  0  0  0  0
 17 21  1  0  0  0  0
 17 18  2  0  0  0  0
 18 19  1  0  0  0  0
 19 20  2  0  0  0  0
 20 21  1  0  0  0  0
 20 51  1  0  0  0  0
 21 22  1  0  0  0  0
 22 23  1  0  0  0  0
 22 52  1  0  0  0  0
 22 53  1  0  0  0  0
 23 24  1  0  0  0  0
 23 26  1  0  0  0  0
 23 54  1  0  0  0  0
 24 25  1  0  0  0  0
 24 55  1  0  0  0  0
 24 56  1  0  0  0  0
 25 57  1  0  0  0  0
 26 30  1  0  0  0  0
 26 27  1  0  0  0  0
 26 58  1  0  0  0  0
 27 28  1  0  0  0  0
 27 59  1  0  0  0  0
 27 60  1  0  0  0  0
 28 29  1  0  0  0  0
 28 61  1  0  0  0  0
 28 62  1  0  0  0  0
 29 30  1  0  0  0  0
 30 63  1  0  0  0  0
 30 64  1  0  0  0  0
M  CHG  1   4   1
M  END
> <s_m_source_file>
AV-unprocessed.smi

> <i_m_source_file_index>
212

> <i_lp_mmshare_version>
43012

> <i_f3d_flags>
0

> <s_epik_input>
W0NIM11bQ0BASF0xW0NIMl1OKFtDSDJdQyhbQ0gzXSkoW0NIM10pW09IXSlbQ0gyXVtDSDJdTjFjKG5bY0hdbjIpYyhjMjMpbltjSF1uM1tDSDJdW0NASF0oW0NIMl1bT0hdKVtDQEBIXTRbQ0gyXVtDSDJdT1tDSDJdNA==

> <s_epik_cmdline>
J2VwaWtfcHl0aG9uJywgJy1waCcsICc3LjAnLCAnLXRuJywgJzgnLCAnLW1hJywgJzIwMCcsICctbWV0YWxfYmluZGluZycsICctaW1hZScsICc8aW5maWxlLm1hZT4nLCAnLW9tYWUnLCAnPG91dGZpbGUubWFlPic=

> <r_lp_tautomer_probability>
1

> <r_epik_Ionization_Penalty>
0.00182193

> <r_epik_Ionization_Penalty_Charging>
0.00173996

> <r_epik_Ionization_Penalty_Neutral>
8.19718e-05

> <r_epik_State_Penalty>
-0

> <r_epik_Charging_Adjusted_Penalty>
0.00173996

> <i_epik_Tot_Q>
1

> <i_epik_Tot_abs_Q>
1

> <r_epik_Metal_State_Penalty>
-0

> <b_epik_Metal_Only>
0

> <s_lp_Force_Field>
OPLS_2005

> <r_lp_Energy>
61.088

> <b_lp_Chiralities_Consistent>
1

> <s_lp_Variant>
AV-unprocessed.smi:212-10

> <Gold.Version>
5.8.1

> <Gold.Id.Protein>
6NUR|6NUR_protein|mol2

> <Gold.PLP.Fitness>
46.0426

> <Gold.PLP.PLP>
-39.4269

> <Gold.PLP.part.hbond>
-3.1413

> <Gold.PLP.part.metal>
0.0000

> <Gold.PLP.part.buried>
-5.4594

> <Gold.PLP.part.nonpolar>
-31.1013

> <Gold.PLP.part.repulsive>
0.2214

> <Gold.PLP.ligand.clash>
0.0035

> <Gold.PLP.ligand.torsion>
1.7363

> <Gold.PLP.Chemscore.Hbond>
2.0000

> <Gold.PLP.Chemscore.CHOScore>
1.0000

> <Gold.PLP.Chemscore.Metal>
0.0000

> <Gold.Chemscore.Hbonds>
donor molecule, donor type, donor heavy atom, donor atom, acceptor molecule, acceptor atom, score
      L1  H     9    45       P1  7921  0.71
      L1  H    25    57       P1  8028  1.00
      L1  C    15    50       P1  7957  1.00

> <Gold.PLP.Chemscore.Internal.Correction>
1.0919

> <Gold.Rescore>
     Score         DG    S(hbond)    S(metal)    S(lipo)     H(rot)  DE(clash)    DE(int)     intcor
     11.54     -13.97       1.96        0.00      91.06       3.40       0.33       2.10       ----

> <Gold.Chemscore.Fitness>
11.5363

> <Gold.Chemscore.DG>
-13.9713

> <Gold.Chemscore.ZeroCoef>
-5.4800

> <Gold.Chemscore.Hbond>
1.9573

> <Gold.Chemscore.Metal>
0.0000

> <Gold.Chemscore.Lipo>
91.0625

> <Gold.Chemscore.Internal_Hbond>
0.0000

> <Gold.Chemscore.DEClash>
0.3321

> <Gold.Chemscore.DEInternal>
2.1029

> <Gold.Chemscore.Rot>
3.3986

> <Gold.Chemscore.Internal.Correction>
   9.000000E+99

> <Gold.Chemscore.Hbonds>
donor molecule, donor type, donor heavy atom, donor atom, acceptor molecule, acceptor atom, score
      L1  H     9    45       P1  7921  0.71
      L1  H    25    57       P1  8028  0.99

> <Gold.Chemscore.Hbond.Weighted>
-6.5375

> <Gold.Chemscore.Metal.Weighted>
-0.0000

> <Gold.Chemscore.Lipo.Weighted>
-10.6543

> <Gold.Chemscore.Internal_Hbond.Weighted>
0.0000

> <Gold.Chemscore.DEClash.Weighted>
0.3321

> <Gold.Chemscore.DEInternal.Weighted>
2.1029

> <Gold.Chemscore.Rot.Weighted>
8.7005

> <Gold.Chemscore.Internal.Correction.Weighted>
   9.000000E+99

> <Gold.Protein.RotatedTorsions>
[ 6907 6896 6895 6894 ] final -164.24 input  -60.11 | X-H torsion
[ 7974 7965 7964 7962 ] final -148.51 input  175.53 | X-H torsion
[ 8008 7997 7996 7995 ] final    1.48 input   59.86 | X-H torsion
[ 10167 10162 10161 10158 ] final  100.00 input  -65.29 | X-H torsion
[ 10718 10713 10712 10709 ] final  106.13 input   66.30 | X-H torsion
[ 10763 10752 10751 10750 ] final -126.48 input  -60.55 | X-H torsion
[ 11005 11000 10999 10996 ] final  -26.39 input  -57.11 | X-H torsion

> <Gold.Protein.ActiveResidues>
 VAL166  LYS551  ARG553  GLY616  TRP617  ASP618  TYR619  PRO620  LYS621  CYS622 
 ASP623  PHE694  ASN695  SER759  ASP760  ASP761  ALA762  ILE779  LEU786  VAL792 
 PHE793  MET794  SER795  GLU796  ALA797  LYS798  CYS799  TRP800  GLU811  SER814 

> <Gold.Protein.RotatedAtoms>
  151.4087  133.3734  159.2741 H   0  0  0  0  0  0  0  0  0  0  0  0  # atno 6907 bound_to 6896
  150.9379  134.8791  159.7604 H   0  0  0  0  0  0  0  0  0  0  0  0  # atno 6908 bound_to 6896
  152.5058  134.4036  159.9477 H   0  0  0  0  0  0  0  0  0  0  0  0  # atno 6909 bound_to 6896
  144.8025  140.5187  143.5697 H   0  0  0  0  0  0  0  0  0  0  0  0  # atno 7974 bound_to 7965
  154.6803  140.2631  155.6915 H   0  0  0  0  0  0  0  0  0  0  0  0  # atno 8008 bound_to 7997
  156.2694  140.2811  156.1267 H   0  0  0  0  0  0  0  0  0  0  0  0  # atno 8009 bound_to 7997
  155.1041  140.0375  157.2695 H   0  0  0  0  0  0  0  0  0  0  0  0  # atno 8010 bound_to 7997
  139.7566  144.6967  151.0353 H   0  0  0  0  0  0  0  0  0  0  0  0  # atno 10167 bound_to 10162
  157.6680  131.0843  150.5960 H   0  0  0  0  0  0  0  0  0  0  0  0  # atno 10718 bound_to 10713
  154.8746  135.3994  154.3437 H   0  0  0  0  0  0  0  0  0  0  0  0  # atno 10763 bound_to 10752
  153.4233  135.7023  153.6285 H   0  0  0  0  0  0  0  0  0  0  0  0  # atno 10764 bound_to 10752
  153.4938  135.3742  155.2475 H   0  0  0  0  0  0  0  0  0  0  0  0  # atno 10765 bound_to 10752
  140.9025  133.7514  156.0562 H   0  0  0  0  0  0  0  0  0  0  0  0  # atno 11005 bound_to 11000
  145.5519  139.1477  143.3389 LP  0  0  0  0  0  0  0  0  0  0  0  0  # atno 17320 bound_to 7965
  146.2309  140.5657  142.8976 LP  0  0  0  0  0  0  0  0  0  0  0  0  # atno 17321 bound_to 7965
  140.7803  143.4745  151.0101 LP  0  0  0  0  0  0  0  0  0  0  0  0  # atno 17342 bound_to 10162
  139.8432  143.7536  152.3180 LP  0  0  0  0  0  0  0  0  0  0  0  0  # atno 17343 bound_to 10162
  156.6261  130.4419  149.5804 LP  0  0  0  0  0  0  0  0  0  0  0  0  # atno 17370 bound_to 10713
  156.2318  130.6799  151.1471 LP  0  0  0  0  0  0  0  0  0  0  0  0  # atno 17371 bound_to 10713
  140.8212  134.3287  157.5381 LP  0  0  0  0  0  0  0  0  0  0  0  0  # atno 17394 bound_to 11000
  139.8744  134.9310  156.3517 LP  0  0  0  0  0  0  0  0  0  0  0  0  # atno 17395 bound_to 11000

$$$$
