AV-unprocessed.smi:2023|AV-procd|sdf|8190|dock6
  -GOLD-   2272010443D 1   1.00000     0.00000
 Structure written by MMmdl.
 34 35  0  0  0  0  0  0  0  0  2 V2000
  150.8174  139.9442  154.5391 O   0  0  0  0  0  0  0  0  0  0  0  0
  151.5189  139.4711  155.7437 S   0  0  0  0  0  0  0  0  0  0  0  0
  152.9881  139.5637  155.7633 O   0  0  0  0  0  0  0  0  0  0  0  0
  150.8407  139.9611  157.1305 N   0  5  0  0  0  0  0  0  0  0  0  0
  151.5741  140.8645  157.9991 C   0  0  0  0  0  0  0  0  0  0  0  0
  151.4466  142.3162  157.4883 C   0  0  0  0  0  0  0  0  0  0  0  0
  151.6252  143.3878  158.5593 C   0  0  0  0  0  0  0  0  0  0  0  0
  152.1808  143.0724  159.8183 C   0  0  0  0  0  0  0  0  0  0  0  0
  152.3366  144.0976  160.7706 C   0  0  0  0  0  0  0  0  0  0  0  0
  151.9322  145.4018  160.4232 C   0  0  0  0  0  0  0  0  0  0  0  0
  151.4065  145.7206  159.2214 N   0  0  0  0  0  0  0  0  0  0  0  0
  151.2585  144.7307  158.3142 C   0  0  0  0  0  0  0  0  0  0  0  0
  151.1308  137.7840  155.8891 N   0  0  0  0  0  0  0  0  0  0  0  0
  152.0238  136.9666  156.7279 C   0  0  0  0  0  0  0  0  0  0  0  0
  151.4317  135.5693  156.9728 C   0  0  0  0  0  0  0  0  0  0  0  0
  151.1230  134.9429  155.7377 O   0  0  0  0  0  0  0  0  0  0  0  0
  150.1397  135.6745  155.0226 C   0  0  0  0  0  0  0  0  0  0  0  0
  150.6691  137.0752  154.6779 C   0  0  0  0  0  0  0  0  0  0  0  0
  151.2233  140.8139  159.0303 H   0  0  0  0  0  0  0  0  0  0  0  0
  152.6320  140.6032  158.0320 H   0  0  0  0  0  0  0  0  0  0  0  0
  152.1938  142.4850  156.7123 H   0  0  0  0  0  0  0  0  0  0  0  0
  150.4797  142.4565  157.0028 H   0  0  0  0  0  0  0  0  0  0  0  0
  152.4813  142.0615  160.0512 H   0  0  0  0  0  0  0  0  0  0  0  0
  152.7556  143.8892  161.7437 H   0  0  0  0  0  0  0  0  0  0  0  0
  152.0377  146.2118  161.1296 H   0  0  0  0  0  0  0  0  0  0  0  0
  150.8338  145.0188  157.3637 H   0  0  0  0  0  0  0  0  0  0  0  0
  152.9925  136.8848  156.2336 H   0  0  0  0  0  0  0  0  0  0  0  0
  152.1921  137.4615  157.6841 H   0  0  0  0  0  0  0  0  0  0  0  0
  152.1484  134.9504  157.5126 H   0  0  0  0  0  0  0  0  0  0  0  0
  150.5373  135.6322  157.5948 H   0  0  0  0  0  0  0  0  0  0  0  0
  149.8935  135.1344  154.1084 H   0  0  0  0  0  0  0  0  0  0  0  0
  149.2206  135.7413  155.6071 H   0  0  0  0  0  0  0  0  0  0  0  0
  149.8854  137.6420  154.1769 H   0  0  0  0  0  0  0  0  0  0  0  0
  151.5012  136.9980  153.9775 H   0  0  0  0  0  0  0  0  0  0  0  0
  1  2  2  0  0  0  0
  2  3  2  0  0  0  0
  2  4  1  0  0  0  0
  2 13  1  0  0  0  0
  4  5  1  0  0  0  0
  5  6  1  0  0  0  0
  5 19  1  0  0  0  0
  5 20  1  0  0  0  0
  6  7  1  0  0  0  0
  6 21  1  0  0  0  0
  6 22  1  0  0  0  0
  7 12  1  0  0  0  0
  7  8  2  0  0  0  0
  8  9  1  0  0  0  0
  8 23  1  0  0  0  0
  9 10  2  0  0  0  0
  9 24  1  0  0  0  0
 10 11  1  0  0  0  0
 10 25  1  0  0  0  0
 11 12  2  0  0  0  0
 12 26  1  0  0  0  0
 13 18  1  0  0  0  0
 13 14  1  0  0  0  0
 14 15  1  0  0  0  0
 14 27  1  0  0  0  0
 14 28  1  0  0  0  0
 15 16  1  0  0  0  0
 15 29  1  0  0  0  0
 15 30  1  0  0  0  0
 16 17  1  0  0  0  0
 17 18  1  0  0  0  0
 17 31  1  0  0  0  0
 17 32  1  0  0  0  0
 18 33  1  0  0  0  0
 18 34  1  0  0  0  0
M  CHG  1   4  -1
M  END
> <s_m_source_file>
AV-unprocessed.smi

> <i_m_source_file_index>
2023

> <i_lp_mmshare_version>
43012

> <i_f3d_flags>
0

> <s_epik_input>
W0NIMl0xW0NIMl1PW0NIMl1bQ0gyXU4xUyg9TykoPU8pW05IXVtDSDJdW0NIMl1jMltjSF1bY0hdW2NIXW5bY0hdMg==

> <s_epik_cmdline>
J2VwaWtfcHl0aG9uJywgJy1waCcsICc3LjAnLCAnLXRuJywgJzgnLCAnLW1hJywgJzIwMCcsICctbWV0YWxfYmluZGluZycsICctaW1hZScsICc8aW5maWxlLm1hZT4nLCAnLW9tYWUnLCAnPG91dGZpbGUubWFlPic=

> <r_epik_Ionization_Penalty>
1.23471

> <r_epik_Ionization_Penalty_Charging>
1.20871

> <r_epik_Ionization_Penalty_Neutral>
0.025996

> <r_epik_State_Penalty>
1.46261

> <r_epik_Charging_Adjusted_Penalty>
2.67132

> <i_epik_Tot_Q>
-1

> <i_epik_Tot_abs_Q>
1

> <r_epik_Metal_State_Penalty>
0.521406

> <b_epik_Metal_Only>
0

> <s_lp_Force_Field>
OPLS_2005

> <r_lp_Energy>
4.19534

> <b_lp_Chiralities_Consistent>
1

> <s_lp_Variant>
AV-unprocessed.smi:2023-2

> <Gold.Version>
5.8.1

> <Gold.Id.Protein>
6NUR|6NUR_protein|mol2

> <Gold.PLP.Fitness>
42.4591

> <Gold.PLP.PLP>
-33.4585

> <Gold.PLP.part.hbond>
-3.8611

> <Gold.PLP.part.metal>
0.0000

> <Gold.PLP.part.buried>
-3.6483

> <Gold.PLP.part.nonpolar>
-26.3618

> <Gold.PLP.part.repulsive>
0.3263

> <Gold.PLP.ligand.clash>
0.0000

> <Gold.PLP.ligand.torsion>
1.8523

> <Gold.PLP.Chemscore.Hbond>
2.7208

> <Gold.PLP.Chemscore.CHOScore>
1.0000

> <Gold.PLP.Chemscore.Metal>
0.0000

> <Gold.Chemscore.Hbonds>
donor molecule, donor type, donor heavy atom, donor atom, acceptor molecule, acceptor atom, score
      P1  H  7989  7998       L1     1  1.00
      P1  H  7997  8009       L1     3  1.00
      P1  H 10752 10763       L1    16  0.47
      L1  C    12    26       P1  8028  0.93

> <Gold.PLP.Chemscore.Internal.Correction>
1.5428

> <Gold.Rescore>
     Score         DG    S(hbond)    S(metal)    S(lipo)     H(rot)  DE(clash)    DE(int)     intcor
     17.10     -18.82       1.98        0.00      91.65       1.56       0.01       1.70       ----

> <Gold.Chemscore.Fitness>
17.1049

> <Gold.Chemscore.DG>
-18.8246

> <Gold.Chemscore.ZeroCoef>
-5.4800

> <Gold.Chemscore.Hbond>
1.9828

> <Gold.Chemscore.Metal>
0.0000

> <Gold.Chemscore.Lipo>
91.6520

> <Gold.Chemscore.Internal_Hbond>
0.0000

> <Gold.Chemscore.DEClash>
0.0149

> <Gold.Chemscore.DEInternal>
1.7048

> <Gold.Chemscore.Rot>
1.5630

> <Gold.Chemscore.Internal.Correction>
   9.000000E+99

> <Gold.Chemscore.Hbonds>
donor molecule, donor type, donor heavy atom, donor atom, acceptor molecule, acceptor atom, score
      P1  H  7989  7998       L1     1  0.95
      P1  H  7997  8009       L1     3  0.96
      P1  H 10752 10763       L1    16  0.03

> <Gold.Chemscore.Hbond.Weighted>
-6.6226

> <Gold.Chemscore.Metal.Weighted>
-0.0000

> <Gold.Chemscore.Lipo.Weighted>
-10.7233

> <Gold.Chemscore.Internal_Hbond.Weighted>
0.0000

> <Gold.Chemscore.DEClash.Weighted>
0.0149

> <Gold.Chemscore.DEInternal.Weighted>
1.7048

> <Gold.Chemscore.Rot.Weighted>
4.0013

> <Gold.Chemscore.Internal.Correction.Weighted>
   9.000000E+99

> <Gold.Protein.RotatedTorsions>
[ 6907 6896 6895 6894 ] final  -32.30 input  -60.11 | X-H torsion
[ 7974 7965 7964 7962 ] final -144.29 input  175.53 | X-H torsion
[ 8008 7997 7996 7995 ] final -135.04 input   59.86 | X-H torsion
[ 10167 10162 10161 10158 ] final  166.36 input  -65.29 | X-H torsion
[ 10718 10713 10712 10709 ] final  109.75 input   66.30 | X-H torsion
[ 10763 10752 10751 10750 ] final   68.93 input  -60.55 | X-H torsion
[ 11005 11000 10999 10996 ] final -149.24 input  -57.11 | X-H torsion

> <Gold.Protein.ActiveResidues>
 VAL166  LYS551  ARG553  GLY616  TRP617  ASP618  TYR619  PRO620  LYS621  CYS622 
 ASP623  PHE694  ASN695  SER759  ASP760  ASP761  ALA762  ILE779  LEU786  VAL792 
 PHE793  MET794  SER795  GLU796  ALA797  LYS798  CYS799  TRP800  GLU811  SER814 

> <Gold.Protein.RotatedAtoms>
  151.0806  134.9856  159.8353 H   0  0  0  0  0  0  0  0  0  0  0  0  # atno 6907 bound_to 6896
  152.5419  134.2186  159.8789 H   0  0  0  0  0  0  0  0  0  0  0  0  # atno 6908 bound_to 6896
  151.2216  133.4455  159.2634 H   0  0  0  0  0  0  0  0  0  0  0  0  # atno 6909 bound_to 6896
  144.8308  140.5728  143.5516 H   0  0  0  0  0  0  0  0  0  0  0  0  # atno 7974 bound_to 7965
  155.3720  140.0489  157.3045 H   0  0  0  0  0  0  0  0  0  0  0  0  # atno 8008 bound_to 7997
  154.5125  140.2196  155.9091 H   0  0  0  0  0  0  0  0  0  0  0  0  # atno 8009 bound_to 7997
  156.1599  140.3118  155.8795 H   0  0  0  0  0  0  0  0  0  0  0  0  # atno 8010 bound_to 7997
  139.4923  144.4036  151.9381 H   0  0  0  0  0  0  0  0  0  0  0  0  # atno 10167 bound_to 10162
  157.6527  131.0919  150.6500 H   0  0  0  0  0  0  0  0  0  0  0  0  # atno 10718 bound_to 10713
  153.0261  135.5229  154.7211 H   0  0  0  0  0  0  0  0  0  0  0  0  # atno 10763 bound_to 10752
  154.6266  135.2895  155.0267 H   0  0  0  0  0  0  0  0  0  0  0  0  # atno 10764 bound_to 10752
  154.1235  135.6604  153.4960 H   0  0  0  0  0  0  0  0  0  0  0  0  # atno 10765 bound_to 10752
  140.7528  134.3387  157.5121 H   0  0  0  0  0  0  0  0  0  0  0  0  # atno 11005 bound_to 11000
  145.4900  139.1489  143.3715 LP  0  0  0  0  0  0  0  0  0  0  0  0  # atno 17320 bound_to 7965
  146.2611  140.5038  142.8853 LP  0  0  0  0  0  0  0  0  0  0  0  0  # atno 17321 bound_to 7965
  140.3475  144.3129  150.5955 LP  0  0  0  0  0  0  0  0  0  0  0  0  # atno 17342 bound_to 10162
  140.5513  143.2206  151.7922 LP  0  0  0  0  0  0  0  0  0  0  0  0  # atno 17343 bound_to 10162
  156.6809  130.4567  149.5628 LP  0  0  0  0  0  0  0  0  0  0  0  0  # atno 17370 bound_to 10713
  156.1930  130.6571  151.1082 LP  0  0  0  0  0  0  0  0  0  0  0  0  # atno 17371 bound_to 10713
  139.8784  134.9153  156.3127 LP  0  0  0  0  0  0  0  0  0  0  0  0  # atno 17394 bound_to 11000
  140.9735  133.7312  156.0569 LP  0  0  0  0  0  0  0  0  0  0  0  0  # atno 17395 bound_to 11000

$$$$
