AV-unprocessed.smi:2896|AV-procd|sdf|11137|dock10
  -GOLD-   2272016 13D 1   1.00000     0.00000
 Structure written by MMmdl.
 50 51  0  0  0  0  0  0  0  0  2 V2000
  147.5886  140.5845  153.9451 C   0  0  0  0  0  0  0  0  0  0  0  0
  147.9359  139.1076  153.6713 C   0  0  1  0  0  0  0  0  0  0  0  0
  149.2978  138.7216  154.2888 C   0  0  0  0  0  0  0  0  0  0  0  0
  149.3897  139.0947  155.6960 N   0  0  0  0  0  0  0  0  0  0  0  0
  150.2179  140.0268  156.1993 C   0  0  0  0  0  0  0  0  0  0  0  0
  151.0328  140.6290  155.4984 O   0  0  0  0  0  0  0  0  0  0  0  0
  150.1055  140.3284  157.7146 C   0  0  0  0  0  0  0  0  0  0  0  0
  148.6121  140.5803  158.0287 C   0  0  0  0  0  0  0  0  0  0  0  0
  150.5502  139.1004  158.5467 C   0  0  0  0  0  0  0  0  0  0  0  0
  151.0143  141.5274  158.0584 C   0  0  0  0  0  0  0  0  0  0  0  0
  152.0438  141.3917  159.0213 C   0  0  0  0  0  0  0  0  0  0  0  0
  152.8744  142.4896  159.3117 C   0  0  0  0  0  0  0  0  0  0  0  0
  152.6464  143.6984  158.6291 C   0  0  0  0  0  0  0  0  0  0  0  0
  151.6718  143.8533  157.7099 N   0  0  0  0  0  0  0  0  0  0  0  0
  150.8794  142.7944  157.4375 C   0  0  0  0  0  0  0  0  0  0  0  0
  146.8272  138.1652  154.1881 C   0  0  0  0  0  0  0  0  0  0  0  0
  146.6819  136.9348  153.3684 N   0  3  0  0  0  0  0  0  0  0  0  0
  146.2055  135.7582  154.1378 C   0  0  0  0  0  0  0  0  0  0  0  0
  146.1237  134.5198  153.2295 C   0  0  0  0  0  0  0  0  0  0  0  0
  145.2729  134.7935  152.1235 O   0  0  0  0  0  0  0  0  0  0  0  0
  145.7648  135.8633  151.3264 C   0  0  0  0  0  0  0  0  0  0  0  0
  145.8340  137.1468  152.1713 C   0  0  0  0  0  0  0  0  0  0  0  0
  147.4996  140.7779  155.0146 H   0  0  0  0  0  0  0  0  0  0  0  0
  146.6452  140.8659  153.4772 H   0  0  0  0  0  0  0  0  0  0  0  0
  148.3499  141.2569  153.5508 H   0  0  0  0  0  0  0  0  0  0  0  0
  148.0259  138.9800  152.5929 H   0  0  0  0  0  0  0  0  0  0  0  0
  149.4522  137.6447  154.2120 H   0  0  0  0  0  0  0  0  0  0  0  0
  150.1156  139.1867  153.7354 H   0  0  0  0  0  0  0  0  0  0  0  0
  148.7528  138.6380  156.3333 H   0  0  0  0  0  0  0  0  0  0  0  0
  148.2085  141.4202  157.4613 H   0  0  0  0  0  0  0  0  0  0  0  0
  148.4569  140.7879  159.0881 H   0  0  0  0  0  0  0  0  0  0  0  0
  148.0021  139.7097  157.7827 H   0  0  0  0  0  0  0  0  0  0  0  0
  151.5618  138.7754  158.3019 H   0  0  0  0  0  0  0  0  0  0  0  0
  149.8923  138.2446  158.3875 H   0  0  0  0  0  0  0  0  0  0  0  0
  150.5302  139.3250  159.6137 H   0  0  0  0  0  0  0  0  0  0  0  0
  152.2095  140.4521  159.5274 H   0  0  0  0  0  0  0  0  0  0  0  0
  153.6679  142.4069  160.0395 H   0  0  0  0  0  0  0  0  0  0  0  0
  153.2637  144.5625  158.8254 H   0  0  0  0  0  0  0  0  0  0  0  0
  150.1236  142.9859  156.6919 H   0  0  0  0  0  0  0  0  0  0  0  0
  147.0133  137.8815  155.2253 H   0  0  0  0  0  0  0  0  0  0  0  0
  145.8848  138.7153  154.1903 H   0  0  0  0  0  0  0  0  0  0  0  0
  146.8750  135.5456  154.9704 H   0  0  0  0  0  0  0  0  0  0  0  0
  145.2240  135.9711  154.5642 H   0  0  0  0  0  0  0  0  0  0  0  0
  147.1146  134.2270  152.8789 H   0  0  0  0  0  0  0  0  0  0  0  0
  145.7195  133.6734  153.7850 H   0  0  0  0  0  0  0  0  0  0  0  0
  146.7454  135.6101  150.9203 H   0  0  0  0  0  0  0  0  0  0  0  0
  145.0961  136.0075  150.4774 H   0  0  0  0  0  0  0  0  0  0  0  0
  144.8313  137.4468  152.4803 H   0  0  0  0  0  0  0  0  0  0  0  0
  146.2409  137.9589  151.5678 H   0  0  0  0  0  0  0  0  0  0  0  0
  147.6040  136.7097  153.0228 H   0  0  0  0  0  0  0  0  0  0  0  0
  1  2  1  0  0  0  0
  1 23  1  0  0  0  0
  1 24  1  0  0  0  0
  1 25  1  0  0  0  0
  2  3  1  0  0  0  0
  2 16  1  0  0  0  0
  2 26  1  0  0  0  0
  3  4  1  0  0  0  0
  3 27  1  0  0  0  0
  3 28  1  0  0  0  0
  4  5  1  0  0  0  0
  4 29  1  0  0  0  0
  5  6  2  0  0  0  0
  5  7  1  0  0  0  0
  7  8  1  0  0  0  0
  7  9  1  0  0  0  0
  7 10  1  0  0  0  0
  8 30  1  0  0  0  0
  8 31  1  0  0  0  0
  8 32  1  0  0  0  0
  9 33  1  0  0  0  0
  9 34  1  0  0  0  0
  9 35  1  0  0  0  0
 10 15  1  0  0  0  0
 10 11  2  0  0  0  0
 11 12  1  0  0  0  0
 11 36  1  0  0  0  0
 12 13  2  0  0  0  0
 12 37  1  0  0  0  0
 13 14  1  0  0  0  0
 13 38  1  0  0  0  0
 14 15  2  0  0  0  0
 15 39  1  0  0  0  0
 16 17  1  0  0  0  0
 16 40  1  0  0  0  0
 16 41  1  0  0  0  0
 17 22  1  0  0  0  0
 17 18  1  0  0  0  0
 17 50  1  0  0  0  0
 18 19  1  0  0  0  0
 18 42  1  0  0  0  0
 18 43  1  0  0  0  0
 19 20  1  0  0  0  0
 19 44  1  0  0  0  0
 19 45  1  0  0  0  0
 20 21  1  0  0  0  0
 21 22  1  0  0  0  0
 21 46  1  0  0  0  0
 21 47  1  0  0  0  0
 22 48  1  0  0  0  0
 22 49  1  0  0  0  0
M  CHG  1  17   1
M  END
> <s_m_source_file>
AV-unprocessed.smi

> <i_m_source_file_index>
2896

> <i_lp_mmshare_version>
43012

> <i_f3d_flags>
0

> <s_epik_input>
W0NIMl0xW0NIMl1PW0NIMl1bQ0gyXU4xW0NIMl1bQ0BIXShbQ0gzXSlbQ0gyXVtOSF1DKD1PKUMoW0NIM10pKFtDSDNdKWMyW2NIXVtjSF1bY0hdbltjSF0y

> <s_epik_cmdline>
J2VwaWtfcHl0aG9uJywgJy1waCcsICc3LjAnLCAnLXRuJywgJzgnLCAnLW1hJywgJzIwMCcsICctbWV0YWxfYmluZGluZycsICctaW1hZScsICc8aW5maWxlLm1hZT4nLCAnLW9tYWUnLCAnPG91dGZpbGUubWFlPic=

> <r_epik_Ionization_Penalty>
0.378644

> <r_epik_Ionization_Penalty_Charging>
0.372108

> <r_epik_Ionization_Penalty_Neutral>
0.0065361

> <r_epik_State_Penalty>
0.380038

> <r_epik_Charging_Adjusted_Penalty>
0.752147

> <i_epik_Tot_Q>
1

> <i_epik_Tot_abs_Q>
1

> <r_epik_Metal_State_Penalty>
0.375202

> <b_epik_Metal_Only>
0

> <s_lp_Force_Field>
OPLS_2005

> <r_lp_Energy>
23.8301

> <b_lp_Chiralities_Consistent>
1

> <s_lp_Variant>
AV-unprocessed.smi:2896-2

> <Gold.Version>
5.8.1

> <Gold.Id.Protein>
6NUR|6NUR_protein|mol2

> <Gold.PLP.Fitness>
42.2138

> <Gold.PLP.PLP>
-32.3205

> <Gold.PLP.part.hbond>
-2.0000

> <Gold.PLP.part.metal>
0.0000

> <Gold.PLP.part.buried>
-2.3714

> <Gold.PLP.part.nonpolar>
-29.2582

> <Gold.PLP.part.repulsive>
0.3152

> <Gold.PLP.ligand.clash>
0.0000

> <Gold.PLP.ligand.torsion>
0.9390

> <Gold.PLP.Chemscore.Hbond>
2.8640

> <Gold.PLP.Chemscore.CHOScore>
1.0000

> <Gold.PLP.Chemscore.Metal>
0.0000

> <Gold.Chemscore.Hbonds>
donor molecule, donor type, donor heavy atom, donor atom, acceptor molecule, acceptor atom, score
      L1  H    17    50       P1  7948  2.00
      P1  H  7989  7998       L1     6  0.73
      L1  C    15    39       P1  8028  1.00

> <Gold.PLP.Chemscore.Internal.Correction>
0.1794

> <Gold.Rescore>
     Score         DG    S(hbond)    S(metal)    S(lipo)     H(rot)  DE(clash)    DE(int)     intcor
     15.94     -18.14       1.82        0.00      95.06       1.78       0.20       2.01       ----

> <Gold.Chemscore.Fitness>
15.9359

> <Gold.Chemscore.DG>
-18.1423

> <Gold.Chemscore.ZeroCoef>
-5.4800

> <Gold.Chemscore.Hbond>
1.8232

> <Gold.Chemscore.Metal>
0.0000

> <Gold.Chemscore.Lipo>
95.0619

> <Gold.Chemscore.Internal_Hbond>
0.0000

> <Gold.Chemscore.DEClash>
0.2008

> <Gold.Chemscore.DEInternal>
2.0056

> <Gold.Chemscore.Rot>
1.7771

> <Gold.Chemscore.Internal.Correction>
   9.000000E+99

> <Gold.Chemscore.Hbonds>
donor molecule, donor type, donor heavy atom, donor atom, acceptor molecule, acceptor atom, score
      L1  H    17    50       P1  7948  1.00
      P1  H  7989  7998       L1     6  0.70

> <Gold.Chemscore.Hbond.Weighted>
-6.0894

> <Gold.Chemscore.Metal.Weighted>
-0.0000

> <Gold.Chemscore.Lipo.Weighted>
-11.1222

> <Gold.Chemscore.Internal_Hbond.Weighted>
0.0000

> <Gold.Chemscore.DEClash.Weighted>
0.2008

> <Gold.Chemscore.DEInternal.Weighted>
2.0056

> <Gold.Chemscore.Rot.Weighted>
4.5494

> <Gold.Chemscore.Internal.Correction.Weighted>
   9.000000E+99

> <Gold.Protein.RotatedTorsions>
[ 6907 6896 6895 6894 ] final  122.23 input  -60.11 | X-H torsion
[ 7974 7965 7964 7962 ] final  -61.07 input  175.53 | X-H torsion
[ 8008 7997 7996 7995 ] final   82.95 input   59.86 | X-H torsion
[ 10167 10162 10161 10158 ] final  152.08 input  -65.29 | X-H torsion
[ 10718 10713 10712 10709 ] final   20.53 input   66.30 | X-H torsion
[ 10763 10752 10751 10750 ] final   71.39 input  -60.55 | X-H torsion
[ 11005 11000 10999 10996 ] final   12.05 input  -57.11 | X-H torsion

> <Gold.Protein.ActiveResidues>
 VAL166  LYS551  ARG553  GLY616  TRP617  ASP618  TYR619  PRO620  LYS621  CYS622 
 ASP623  PHE694  ASN695  SER759  ASP760  ASP761  ALA762  ILE779  LEU786  VAL792 
 PHE793  MET794  SER795  GLU796  ALA797  LYS798  CYS799  TRP800  GLU811  SER814 

> <Gold.Protein.RotatedAtoms>
  152.4259  133.7194  159.6524 H   0  0  0  0  0  0  0  0  0  0  0  0  # atno 6907 bound_to 6896
  150.8136  133.8367  159.3177 H   0  0  0  0  0  0  0  0  0  0  0  0  # atno 6908 bound_to 6896
  151.6070  135.1045  160.0124 H   0  0  0  0  0  0  0  0  0  0  0  0  # atno 6909 bound_to 6896
  145.8078  140.8617  143.0197 H   0  0  0  0  0  0  0  0  0  0  0  0  # atno 7974 bound_to 7965
  155.9175  140.3423  155.6146 H   0  0  0  0  0  0  0  0  0  0  0  0  # atno 8008 bound_to 7997
  155.7314  140.0796  157.2306 H   0  0  0  0  0  0  0  0  0  0  0  0  # atno 8009 bound_to 7997
  154.4064  140.1587  156.2500 H   0  0  0  0  0  0  0  0  0  0  0  0  # atno 8010 bound_to 7997
  139.4835  144.5387  151.7600 H   0  0  0  0  0  0  0  0  0  0  0  0  # atno 10167 bound_to 10162
  157.1257  130.6569  149.5937 H   0  0  0  0  0  0  0  0  0  0  0  0  # atno 10718 bound_to 10713
  153.0396  135.5139  154.7585 H   0  0  0  0  0  0  0  0  0  0  0  0  # atno 10763 bound_to 10752
  154.6533  135.2928  154.9961 H   0  0  0  0  0  0  0  0  0  0  0  0  # atno 10764 bound_to 10752
  154.0838  135.6660  153.4894 H   0  0  0  0  0  0  0  0  0  0  0  0  # atno 10765 bound_to 10752
  140.4963  134.0790  155.7783 H   0  0  0  0  0  0  0  0  0  0  0  0  # atno 11005 bound_to 11000
  144.6761  140.0352  143.7482 LP  0  0  0  0  0  0  0  0  0  0  0  0  # atno 17320 bound_to 7965
  145.9809  139.2940  143.1042 LP  0  0  0  0  0  0  0  0  0  0  0  0  # atno 17321 bound_to 7965
  140.4924  144.1291  150.5953 LP  0  0  0  0  0  0  0  0  0  0  0  0  # atno 17342 bound_to 10162
  140.4156  143.2636  151.9779 LP  0  0  0  0  0  0  0  0  0  0  0  0  # atno 17343 bound_to 10162
  155.9819  130.4829  150.6851 LP  0  0  0  0  0  0  0  0  0  0  0  0  # atno 17370 bound_to 10713
  157.4437  131.0864  151.0917 LP  0  0  0  0  0  0  0  0  0  0  0  0  # atno 17371 bound_to 10713
  141.1458  133.9057  157.2218 LP  0  0  0  0  0  0  0  0  0  0  0  0  # atno 17394 bound_to 11000
  139.9739  135.0120  156.9583 LP  0  0  0  0  0  0  0  0  0  0  0  0  # atno 17395 bound_to 11000

$$$$
