#       Name:                AV-unprocessed.smi:1527
#       Creating user name   scv26
#       Creation time:       Fri Mar 27 06:29:54 2020


#       File generated by GOLD software.
#

@<TRIPOS>MOLECULE
AV-unprocessed.smi:1527
    38    38     1
SMALL
NO_CHARGES


@<TRIPOS>ATOM
      1 ****        -2.6286   0.7363  -1.1347 C.3            1 S1                 0.0000
      2 ****        -2.6787  -0.4613  -0.1745 C.3            1 S1                 0.0000
      3 ****        -2.0147  -0.1914   1.1885 C.3            1 S1                 0.0000
      4 ****        -2.1573  -1.3931   2.1357 C.3            1 S1                 0.0000
      5 ****        -0.6044   0.1337   0.9984 N.am           1 S1                 0.0000
      6 ****         0.1439   0.9076   1.8030 C.2            1 S1                 0.0000
      7 ****        -0.2914   1.4125   2.8374 O.2            1 S1                 0.0000
      8 ****         1.6052   1.1711   1.3985 C.3            1 S1                 0.0000
      9 ****         1.9812   0.6643   0.0680 N.am           1 S1                 0.0000
     10 ****         2.6021  -0.5755   0.0893 N.2            1 S1                 0.0000
     11 ****         2.9665  -1.1336  -1.0153 C.2            1 S1                 0.0000
     12 ****         3.5754  -2.3628  -0.9490 O.3            1 S1                 0.0000
     13 ****         2.7419  -0.4873  -2.2900 C.2            1 S1                 0.0000
     14 ****         2.1382   0.7213  -2.3008 C.2            1 S1                 0.0000
     15 ****         1.7093   1.3809  -1.0663 C.2            1 S1                 0.0000
     16 ****         1.1451   2.4744  -1.0478 O.2            1 S1                 0.0000
     17 ****         3.7642  -2.5994  -1.8439 H              1 S1                 0.0000
     18 ****        -3.1551   0.5098  -2.0621 H              1 S1                 0.0000
     19 ****        -1.6036   1.0008  -1.3959 H              1 S1                 0.0000
     20 ****        -3.0989   1.6148  -0.6923 H              1 S1                 0.0000
     21 ****        -3.7219  -0.7363  -0.0158 H              1 S1                 0.0000
     22 ****        -2.2078  -1.3223  -0.6507 H              1 S1                 0.0000
     23 ****        -2.5187   0.6643   1.6419 H              1 S1                 0.0000
     24 ****        -3.2062  -1.6448   2.2937 H              1 S1                 0.0000
     25 ****        -1.7216  -1.1807   3.1126 H              1 S1                 0.0000
     26 ****        -1.6600  -2.2769   1.7344 H              1 S1                 0.0000
     27 ****        -0.1631  -0.2423   0.1718 H              1 S1                 0.0000
     28 ****         1.7958   2.2440   1.4592 H              1 S1                 0.0000
     29 ****         2.2469   0.7229   2.1592 H              1 S1                 0.0000
     30 ****         3.0533  -0.9663  -3.2066 H              1 S1                 0.0000
     31 ****         1.9645   1.2156  -3.2454 H              1 S1                 0.0000
     32 ****        -1.2402   1.2535   3.1106 LP             1 S1                 0.0000
     33 ****         0.3035   1.9818   3.4047 LP             1 S1                 0.0000
     34 ****         2.7673  -1.0370   0.9609 LP             1 S1                 0.0000
     35 ****         2.9629  -3.0342  -0.5317 LP             1 S1                 0.0000
     36 ****         4.4201  -2.3062  -0.4168 LP             1 S1                 0.0000
     37 ****         0.8635   2.8771  -0.1769 LP             1 S1                 0.0000
     38 ****         0.9681   2.9603  -1.9037 LP             1 S1                 0.0000
@<TRIPOS>BOND
    1    1    2 1     
    2    1   18 1     
    3    1   19 1     
    4    1   20 1     
    5    2    3 1     
    6    2   21 1     
    7    2   22 1     
    8    3    4 1     
    9    3    5 1     
   10    3   23 1     
   11    4   24 1     
   12    4   25 1     
   13    4   26 1     
   14    5    6 am    
   15    5   27 1     
   16    6    7 2     
   17    6    8 1     
   18    8   28 1     
   19    8   29 1     
   20    8    9 1     
   21    9   10 1     
   22    9   15 am    
   23   10   11 2     
   24   11   12 1     
   25   11   13 1     
   26   12   17 1     
   27   13   30 1     
   28   13   14 2     
   29   14   31 1     
   30   14   15 1     
   31   15   16 2     
   32    7   32 1     
   33    7   33 1     
   34   10   34 1     
   35   12   35 1     
   36   12   36 1     
   37   16   37 1     
   38   16   38 1     
@<TRIPOS>SUBSTRUCTURE
      1 S1             1
@<TRIPOS>SET
LONE_PAIRS      STATIC     ATOMS    <user>   **** ""
7 32 33 34 35 36 37 38
DONOR_HYDROGENS      STATIC     ATOMS    <user>   **** ""
2 27 17
ATOM$BLUE        STATIC     ATOMS    COLORGROUP SYSTEM
7 32 33 34 35 36 37 38
ATOM$RED        STATIC     ATOMS    COLORGROUP SYSTEM
2 27 17
