AV-unprocessed.smi:52|AV-procd|sdf|510|dock4
  -GOLD-   2262016383D 1   1.00000     0.00000
 Structure written by MMmdl.
 27 28  0  0  0  0  0  0  0  0  3 V2000
  151.9334  135.2960  156.6446 O   0  0  0  0  0  0  0  0  0  0  0  0
  150.7056  135.3977  156.8599 C   0  0  0  0  0  0  0  0  0  0  0  0
  150.2577  135.8933  157.9172 O   0  5  0  0  0  0  0  0  0  0  0  0
  149.7513  134.9105  155.8311 C   0  0  0  0  0  0  0  0  0  0  0  0
  150.0037  133.9903  154.8452 C   0  0  0  0  0  0  0  0  0  0  0  0
  148.8679  133.7994  154.1058 O   0  0  0  0  0  0  0  0  0  0  0  0
  147.9534  134.6278  154.6793 C   0  0  0  0  0  0  0  0  0  0  0  0
  146.5627  134.6589  154.1375 C   0  0  0  0  0  0  0  0  0  0  0  0
  146.7465  134.6153  152.6675 N   0  3  1  0  0  0  0  0  0  0  0  0
  147.0610  133.2792  152.0977 C   0  0  0  0  0  0  0  0  0  0  0  0
  146.1663  133.0995  150.8647 C   0  0  0  0  0  0  0  0  0  0  0  0
  145.7091  134.5156  150.5282 C   0  0  1  0  0  0  0  0  0  0  0  0
  144.4762  134.5281  149.8410 O   0  0  0  0  0  0  0  0  0  0  0  0
  145.6099  135.1685  151.9044 C   0  0  0  0  0  0  0  0  0  0  0  0
  148.4283  135.3171  155.7133 N   0  0  0  0  0  0  0  0  0  0  0  0
  146.4692  135.0205  149.9301 H   0  0  0  0  0  0  0  0  0  0  0  0
  150.8753  133.4189  154.5611 H   0  0  0  0  0  0  0  0  0  0  0  0
  145.9775  133.8143  154.5036 H   0  0  0  0  0  0  0  0  0  0  0  0
  146.0769  135.5857  154.4447 H   0  0  0  0  0  0  0  0  0  0  0  0
  148.1155  133.2608  151.8207 H   0  0  0  0  0  0  0  0  0  0  0  0
  146.8945  132.4711  152.8117 H   0  0  0  0  0  0  0  0  0  0  0  0
  146.6794  132.6112  150.0358 H   0  0  0  0  0  0  0  0  0  0  0  0
  145.3071  132.4824  151.1336 H   0  0  0  0  0  0  0  0  0  0  0  0
  144.6463  134.4979  148.9115 H   0  0  0  0  0  0  0  0  0  0  0  0
  144.6753  134.8788  152.3891 H   0  0  0  0  0  0  0  0  0  0  0  0
  145.6438  136.2575  151.8591 H   0  0  0  0  0  0  0  0  0  0  0  0
  147.5386  135.2048  152.4541 H   0  0  0  0  0  0  0  0  0  0  0  0
  1  2  2  0  0  0  0
  2  3  1  0  0  0  0
  2  4  1  0  0  0  0
  4 15  1  0  0  0  0
  4  5  2  0  0  0  0
  5  6  1  0  0  0  0
  5 17  1  0  0  0  0
  6  7  1  0  0  0  0
  7  8  1  0  0  0  0
  7 15  2  0  0  0  0
  8  9  1  0  0  0  0
  8 18  1  0  0  0  0
  8 19  1  0  0  0  0
  9 14  1  0  0  0  0
  9 10  1  0  0  0  0
  9 27  1  0  0  0  0
 10 11  1  0  0  0  0
 10 20  1  0  0  0  0
 10 21  1  0  0  0  0
 11 12  1  0  0  0  0
 11 22  1  0  0  0  0
 11 23  1  0  0  0  0
 12 16  1  0  0  0  0
 12 13  1  0  0  0  0
 12 14  1  0  0  0  0
 13 24  1  0  0  0  0
 14 25  1  0  0  0  0
 14 26  1  0  0  0  0
M  CHG  1   3  -1
M  CHG  1   9   1
M  END
> <s_m_source_file>
AV-unprocessed.smi

> <i_m_source_file_index>
52

> <i_lp_mmshare_version>
43012

> <i_f3d_flags>
0

> <s_epik_input>
Tz1DKFtPSF0pYzFbY0hdb2MobjEpW0NIMl1OMltDSDJdW0NIMl1bQ0BIXShbT0hdKVtDSDJdMg==

> <s_epik_cmdline>
J2VwaWtfcHl0aG9uJywgJy1waCcsICc3LjAnLCAnLXRuJywgJzgnLCAnLW1hJywgJzIwMCcsICctbWV0YWxfYmluZGluZycsICctaW1hZScsICc8aW5maWxlLm1hZT4nLCAnLW9tYWUnLCAnPG91dGZpbGUubWFlPic=

> <r_epik_Ionization_Penalty>
0.0376014

> <r_epik_Ionization_Penalty_Charging>
0.0376013

> <r_epik_Ionization_Penalty_Neutral>
1.78687e-08

> <r_epik_State_Penalty>
0.0314164

> <r_epik_Charging_Adjusted_Penalty>
0.0690177

> <i_epik_Tot_Q>
0

> <i_epik_Tot_abs_Q>
2

> <r_epik_Metal_State_Penalty>
0.0314164

> <b_epik_Metal_Only>
0

> <s_lp_Force_Field>
OPLS_2005

> <r_lp_Energy>
19.8896

> <b_lp_Chiralities_Consistent>
1

> <s_lp_Variant>
AV-unprocessed.smi:52-4

> <Gold.Version>
5.8.1

> <Gold.Id.Protein>
6NUR|6NUR_protein|mol2

> <Gold.PLP.Fitness>
36.9697

> <Gold.PLP.PLP>
-19.2205

> <Gold.PLP.part.hbond>
-4.0000

> <Gold.PLP.part.metal>
0.0000

> <Gold.PLP.part.buried>
-2.7971

> <Gold.PLP.part.nonpolar>
-12.8148

> <Gold.PLP.part.repulsive>
0.2025

> <Gold.PLP.ligand.clash>
0.0000

> <Gold.PLP.ligand.torsion>
0.6838

> <Gold.PLP.Chemscore.Hbond>
6.3680

> <Gold.PLP.Chemscore.CHOScore>
0.0000

> <Gold.PLP.Chemscore.Metal>
0.0000

> <Gold.Chemscore.Hbonds>
donor molecule, donor type, donor heavy atom, donor atom, acceptor molecule, acceptor atom, score
      L1  H     9    27       P1  7948  2.00
      L1  H    13    24       P1  7921  0.80
      P1  H  6896  6907       L1     3  1.27
      P1  H 10752 10764       L1     1  2.00

> <Gold.PLP.Chemscore.Internal.Correction>
0.0129

> <Gold.Rescore>
     Score         DG    S(hbond)    S(metal)    S(lipo)     H(rot)  DE(clash)    DE(int)     intcor
     13.78     -16.70       3.62        0.00      36.29       1.99       0.79       2.13       ----

> <Gold.Chemscore.Fitness>
13.7758

> <Gold.Chemscore.DG>
-16.7045

> <Gold.Chemscore.ZeroCoef>
-5.4800

> <Gold.Chemscore.Hbond>
3.6162

> <Gold.Chemscore.Metal>
0.0000

> <Gold.Chemscore.Lipo>
36.2855

> <Gold.Chemscore.Internal_Hbond>
0.0000

> <Gold.Chemscore.DEClash>
0.7946

> <Gold.Chemscore.DEInternal>
2.1341

> <Gold.Chemscore.Rot>
1.9919

> <Gold.Chemscore.Internal.Correction>
   9.000000E+99

> <Gold.Chemscore.Hbonds>
donor molecule, donor type, donor heavy atom, donor atom, acceptor molecule, acceptor atom, score
      L1  H     9    27       P1  7948  1.00
      L1  H    13    24       P1  7921  0.77
      P1  H  6896  6907       L1     3  0.51
      P1  H 10752 10764       L1     1  0.97

> <Gold.Chemscore.Hbond.Weighted>
-12.0782

> <Gold.Chemscore.Metal.Weighted>
-0.0000

> <Gold.Chemscore.Lipo.Weighted>
-4.2454

> <Gold.Chemscore.Internal_Hbond.Weighted>
0.0000

> <Gold.Chemscore.DEClash.Weighted>
0.7946

> <Gold.Chemscore.DEInternal.Weighted>
2.1341

> <Gold.Chemscore.Rot.Weighted>
5.0991

> <Gold.Chemscore.Internal.Correction.Weighted>
   9.000000E+99

> <Gold.Protein.RotatedTorsions>
[ 6907 6896 6895 6894 ] final  -57.76 input  -60.11 | X-H torsion
[ 7974 7965 7964 7962 ] final  -59.19 input  175.53 | X-H torsion
[ 8008 7997 7996 7995 ] final  156.49 input   59.86 | X-H torsion
[ 10167 10162 10161 10158 ] final  135.19 input  -65.29 | X-H torsion
[ 10718 10713 10712 10709 ] final  -27.20 input   66.30 | X-H torsion
[ 10763 10752 10751 10750 ] final  -14.25 input  -60.55 | X-H torsion
[ 11005 11000 10999 10996 ] final   28.94 input  -57.11 | X-H torsion

> <Gold.Protein.ActiveResidues>
 VAL166  LYS551  ARG553  GLY616  TRP617  ASP618  TYR619  PRO620  LYS621  CYS622 
 ASP623  PHE694  ASN695  SER759  ASP760  ASP761  ALA762  ILE779  LEU786  VAL792 
 PHE793  MET794  SER795  GLU796  ALA797  LYS798  CYS799  TRP800  GLU811  SER814 

> <Gold.Protein.RotatedAtoms>
  150.8060  134.7185  159.6644 H   0  0  0  0  0  0  0  0  0  0  0  0  # atno 6907 bound_to 6896
  152.4179  134.6005  160.0008 H   0  0  0  0  0  0  0  0  0  0  0  0  # atno 6908 bound_to 6896
  151.6229  133.3300  159.3128 H   0  0  0  0  0  0  0  0  0  0  0  0  # atno 6909 bound_to 6896
  145.8304  140.8483  143.0086 H   0  0  0  0  0  0  0  0  0  0  0  0  # atno 7974 bound_to 7965
  156.2419  140.1911  156.6964 H   0  0  0  0  0  0  0  0  0  0  0  0  # atno 8008 bound_to 7997
  154.6214  140.0608  156.9646 H   0  0  0  0  0  0  0  0  0  0  0  0  # atno 8009 bound_to 7997
  155.1856  140.3280  155.4370 H   0  0  0  0  0  0  0  0  0  0  0  0  # atno 8010 bound_to 7997
  139.5226  144.6529  151.5248 H   0  0  0  0  0  0  0  0  0  0  0  0  # atno 10167 bound_to 10162
  156.4412  130.4464  149.7051 H   0  0  0  0  0  0  0  0  0  0  0  0  # atno 10718 bound_to 10713
  153.5254  135.7015  153.5710 H   0  0  0  0  0  0  0  0  0  0  0  0  # atno 10763 bound_to 10752
  153.3741  135.3937  155.1809 H   0  0  0  0  0  0  0  0  0  0  0  0  # atno 10764 bound_to 10752
  154.8690  135.3819  154.4747 H   0  0  0  0  0  0  0  0  0  0  0  0  # atno 10765 bound_to 10752
  140.3102  134.2658  155.7736 H   0  0  0  0  0  0  0  0  0  0  0  0  # atno 11005 bound_to 11000
  144.6740  140.0664  143.7474 LP  0  0  0  0  0  0  0  0  0  0  0  0  # atno 17320 bound_to 7965
  145.9577  139.2778  143.1174 LP  0  0  0  0  0  0  0  0  0  0  0  0  # atno 17321 bound_to 7965
  140.6342  143.9017  150.6632 LP  0  0  0  0  0  0  0  0  0  0  0  0  # atno 17342 bound_to 10162
  140.2330  143.3721  152.1550 LP  0  0  0  0  0  0  0  0  0  0  0  0  # atno 17343 bound_to 10162
  156.3915  130.7629  151.2631 LP  0  0  0  0  0  0  0  0  0  0  0  0  # atno 17370 bound_to 10713
  157.7506  131.0266  150.3970 LP  0  0  0  0  0  0  0  0  0  0  0  0  # atno 17371 bound_to 10713
  141.2110  133.7703  156.9896 LP  0  0  0  0  0  0  0  0  0  0  0  0  # atno 17394 bound_to 11000
  140.1031  134.9523  157.1953 LP  0  0  0  0  0  0  0  0  0  0  0  0  # atno 17395 bound_to 11000

$$$$
