#       Name:                AV-unprocessed.smi:2831
#       Creating user name   scv26
#       Creation time:       Fri Mar 27 15:35:40 2020


#       File generated by GOLD software.
#

@<TRIPOS>MOLECULE
AV-unprocessed.smi:2831
    36    37     1
SMALL
NO_CHARGES


@<TRIPOS>ATOM
      1 ****        -6.1789   1.8072  -0.7997 C.3            1 S1                 0.0000
      2 ****        -4.8143   1.2418  -0.6001 C.2            1 S1                 0.0000
      3 ****        -4.6032   0.0303  -0.0714 N.2            1 S1                 0.0000
      4 ****        -3.2525  -0.2754   0.0208 N.2            1 S1                 0.0000
      5 ****        -2.4822   0.7193  -0.4410 C.2            1 S1                 0.0000
      6 ****        -1.0630   0.6754  -0.4597 N.am           1 S1                 0.0000
      7 ****        -0.2538  -0.3162  -0.0478 C.2            1 S1                 0.0000
      8 ****        -0.6293  -1.3915   0.4195 O.2            1 S1                 0.0000
      9 ****         1.0375   0.0162  -0.2117 N.am           1 S1                 0.0000
     10 ****         2.2134  -0.8031   0.1045 C.3            1 S1                 0.0000
     11 ****         2.2913  -2.0201  -0.8426 C.3            1 S1                 0.0000
     12 ****         3.4800   0.0576  -0.0168 C.3            1 S1                 0.0000
     13 ****         4.0323   0.1407   1.4037 C.3            1 S1                 0.0000
     14 ****         3.5859  -1.0653   1.9934 O.3            1 S1                 0.0000
     15 ****         2.2372  -1.2280   1.5890 C.3            1 S1                 0.0000
     16 ****        -3.3542   2.1227  -1.0340 S.3            1 S1                 0.0000
     17 ****        -6.9071   1.0077  -0.9399 H              1 S1                 0.0000
     18 ****        -6.1951   2.4504  -1.6798 H              1 S1                 0.0000
     19 ****        -6.4676   2.3965   0.0706 H              1 S1                 0.0000
     20 ****        -0.6100   1.4990  -0.8271 H              1 S1                 0.0000
     21 ****         1.2313   0.9271  -0.6009 H              1 S1                 0.0000
     22 ****         3.1832  -2.6160  -0.6454 H              1 S1                 0.0000
     23 ****         2.3276  -1.7068  -1.8865 H              1 S1                 0.0000
     24 ****         1.4329  -2.6819  -0.7265 H              1 S1                 0.0000
     25 ****         4.2169  -0.4260  -0.6594 H              1 S1                 0.0000
     26 ****         3.2994   1.0494  -0.4338 H              1 S1                 0.0000
     27 ****         5.1188   0.2256   1.4300 H              1 S1                 0.0000
     28 ****         3.6068   0.9905   1.9399 H              1 S1                 0.0000
     29 ****         1.6169  -0.5755   2.2061 H              1 S1                 0.0000
     30 ****         1.8986  -2.2523   1.7476 H              1 S1                 0.0000
     31 ****        -5.3349  -0.5842   0.2234 LP             1 S1                 0.0000
     32 ****        -2.8967  -1.1349   0.3878 LP             1 S1                 0.0000
     33 ****        -1.6064  -1.5805   0.5166 LP             1 S1                 0.0000
     34 ****         0.0429  -2.0759   0.7019 LP             1 S1                 0.0000
     35 ****         3.6443  -1.0062   2.9899 LP             1 S1                 0.0000
     36 ****         4.1393  -1.8338   1.6721 LP             1 S1                 0.0000
@<TRIPOS>BOND
    1    1    2 1     
    2    1   17 1     
    3    1   18 1     
    4    1   19 1     
    5    2   16 1     
    6    2    3 2     
    7    3    4 1     
    8    4    5 2     
    9    5    6 1     
   10    5   16 1     
   11    6    7 am    
   12    6   20 1     
   13    7    8 2     
   14    7    9 am    
   15    9   10 1     
   16    9   21 1     
   17   10   15 1     
   18   10   11 1     
   19   10   12 1     
   20   11   22 1     
   21   11   23 1     
   22   11   24 1     
   23   12   13 1     
   24   12   25 1     
   25   12   26 1     
   26   13   14 1     
   27   13   27 1     
   28   13   28 1     
   29   14   15 1     
   30   15   29 1     
   31   15   30 1     
   32    3   31 1     
   33    4   32 1     
   34    8   33 1     
   35    8   34 1     
   36   14   35 1     
   37   14   36 1     
@<TRIPOS>SUBSTRUCTURE
      1 S1             1
@<TRIPOS>SET
LONE_PAIRS      STATIC     ATOMS    <user>   **** ""
6 31 32 33 34 35 36
DONOR_HYDROGENS      STATIC     ATOMS    <user>   **** ""
2 20 21
ATOM$BLUE        STATIC     ATOMS    COLORGROUP SYSTEM
6 31 32 33 34 35 36
ATOM$RED        STATIC     ATOMS    COLORGROUP SYSTEM
2 20 21
