AV-unprocessed.smi:1803|AV-procd|sdf|7286|dock2
  -GOLD-   22720 8543D 1   1.00000     0.00000
 Structure written by MMmdl.
 36 38  0  0  0  0  0  0  0  0  2 V2000
  146.4734  137.0523  153.8368 O   0  0  0  0  0  0  0  0  0  0  0  0
  145.5922  137.8047  153.4251 C   0  0  0  0  0  0  0  0  0  0  0  0
  145.7909  139.1388  153.3615 N   0  0  0  0  0  0  0  0  0  0  0  0
  146.9155  139.9477  153.6983 C   0  0  0  0  0  0  0  0  0  0  0  0
  148.1541  139.4772  153.9184 N   0  0  0  0  0  0  0  0  0  0  0  0
  149.0489  140.4888  154.2390 N   0  0  0  0  0  0  0  0  0  0  0  0
  148.4518  141.6835  154.2563 C   0  0  0  0  0  0  0  0  0  0  0  0
  146.7374  141.6873  153.8833 S   0  0  0  0  0  0  0  0  0  0  0  0
  144.3905  137.3600  153.0218 N   0  0  0  0  0  0  0  0  0  0  0  0
  143.9627  135.9653  152.9977 C   0  0  1  0  0  0  0  0  0  0  0  0
  142.4723  135.7943  153.2663 C   0  0  0  0  0  0  0  0  0  0  0  0
  142.2006  134.3990  152.7021 C   0  0  0  0  0  0  0  0  0  0  0  0
  143.1065  134.2460  151.5406 N   0  3  2  0  0  0  0  0  0  0  0  0
  143.6239  132.8704  151.3385 C   0  0  0  0  0  0  0  0  0  0  0  0
  144.5419  132.8086  150.1036 C   0  0  0  0  0  0  0  0  0  0  0  0
  145.6244  133.9085  150.0980 C   0  0  0  0  0  0  0  0  0  0  0  0
  145.5711  134.7905  151.3550 C   0  0  0  0  0  0  0  0  0  0  0  0
  144.1411  135.3167  151.6144 C   0  0  2  0  0  0  0  0  0  0  0  0
  144.9910  139.6616  153.0344 H   0  0  0  0  0  0  0  0  0  0  0  0
  149.0241  142.5684  154.4922 H   0  0  0  0  0  0  0  0  0  0  0  0
  143.7225  138.0472  152.7013 H   0  0  0  0  0  0  0  0  0  0  0  0
  144.5052  135.3887  153.7500 H   0  0  0  0  0  0  0  0  0  0  0  0
  142.2168  135.8804  154.3229 H   0  0  0  0  0  0  0  0  0  0  0  0
  141.8955  136.5391  152.7152 H   0  0  0  0  0  0  0  0  0  0  0  0
  142.4404  133.6531  153.4617 H   0  0  0  0  0  0  0  0  0  0  0  0
  141.1581  134.2591  152.4157 H   0  0  0  0  0  0  0  0  0  0  0  0
  144.1685  132.5474  152.2273 H   0  0  0  0  0  0  0  0  0  0  0  0
  142.7871  132.1817  151.2163 H   0  0  0  0  0  0  0  0  0  0  0  0
  145.0111  131.8256  150.0498 H   0  0  0  0  0  0  0  0  0  0  0  0
  143.9370  132.9009  149.2007 H   0  0  0  0  0  0  0  0  0  0  0  0
  146.6144  133.4614  150.0013 H   0  0  0  0  0  0  0  0  0  0  0  0
  145.4902  134.5366  149.2165 H   0  0  0  0  0  0  0  0  0  0  0  0
  145.9201  134.2144  152.2132 H   0  0  0  0  0  0  0  0  0  0  0  0
  146.2656  135.6243  151.2506 H   0  0  0  0  0  0  0  0  0  0  0  0
  143.8812  136.0390  150.8384 H   0  0  0  0  0  0  0  0  0  0  0  0
  142.5582  134.4624  150.7204 H   0  0  0  0  0  0  0  0  0  0  0  0
  1  2  2  0  0  0  0
  2  3  1  0  0  0  0
  2  9  1  0  0  0  0
  3  4  1  0  0  0  0
  3 19  1  0  0  0  0
  4  8  1  0  0  0  0
  4  5  2  0  0  0  0
  5  6  1  0  0  0  0
  6  7  2  0  0  0  0
  7  8  1  0  0  0  0
  7 20  1  0  0  0  0
  9 10  1  0  0  0  0
  9 21  1  0  0  0  0
 10 18  1  0  0  0  0
 10 11  1  0  0  0  0
 10 22  1  0  0  0  0
 11 12  1  0  0  0  0
 11 23  1  0  0  0  0
 11 24  1  0  0  0  0
 12 13  1  0  0  0  0
 12 25  1  0  0  0  0
 12 26  1  0  0  0  0
 13 18  1  0  0  0  0
 13 14  1  0  0  0  0
 13 36  1  0  0  0  0
 14 15  1  0  0  0  0
 14 27  1  0  0  0  0
 14 28  1  0  0  0  0
 15 16  1  0  0  0  0
 15 29  1  0  0  0  0
 15 30  1  0  0  0  0
 16 17  1  0  0  0  0
 16 31  1  0  0  0  0
 16 32  1  0  0  0  0
 17 18  1  0  0  0  0
 17 33  1  0  0  0  0
 17 34  1  0  0  0  0
 18 35  1  0  0  0  0
M  CHG  1  13   1
M  END
> <s_m_source_file>
AV-unprocessed.smi

> <i_m_source_file_index>
1803

> <i_lp_mmshare_version>
43012

> <i_f3d_flags>
0

> <s_epik_input>
czFbY0hdbm5jMVtOSF1DKD1PKVtOSF1bQ0BIXShbQ0gyXVtDSDJdMilbQ0BASF0oTjIzKVtDSDJdW0NIMl1bQ0gyXVtDSDJdMw==

> <s_epik_cmdline>
J2VwaWtfcHl0aG9uJywgJy1waCcsICc3LjAnLCAnLXRuJywgJzgnLCAnLW1hJywgJzIwMCcsICctbWV0YWxfYmluZGluZycsICctaW1hZScsICc8aW5maWxlLm1hZT4nLCAnLW9tYWUnLCAnPG91dGZpbGUubWFlPic=

> <r_lp_tautomer_probability>
1

> <r_epik_Ionization_Penalty>
0.00213286

> <r_epik_Ionization_Penalty_Charging>
0.00107044

> <r_epik_Ionization_Penalty_Neutral>
0.00106242

> <r_epik_State_Penalty>
-0

> <r_epik_Charging_Adjusted_Penalty>
0.00107044

> <i_epik_Tot_Q>
1

> <i_epik_Tot_abs_Q>
1

> <r_epik_Metal_State_Penalty>
0.292783

> <b_epik_Metal_Only>
0

> <s_lp_Force_Field>
OPLS_2005

> <r_lp_Energy>
41.2336

> <b_lp_Chiralities_Consistent>
1

> <s_lp_Variant>
AV-unprocessed.smi:1803-8

> <Gold.Version>
5.8.1

> <Gold.Id.Protein>
6NUR|6NUR_protein|mol2

> <Gold.PLP.Fitness>
38.4701

> <Gold.PLP.PLP>
-26.9729

> <Gold.PLP.part.hbond>
-2.4461

> <Gold.PLP.part.metal>
0.0000

> <Gold.PLP.part.buried>
-2.7342

> <Gold.PLP.part.nonpolar>
-21.9328

> <Gold.PLP.part.repulsive>
0.9059

> <Gold.PLP.ligand.clash>
0.0000

> <Gold.PLP.ligand.torsion>
0.4021

> <Gold.PLP.Chemscore.Hbond>
3.0978

> <Gold.PLP.Chemscore.CHOScore>
1.0000

> <Gold.PLP.Chemscore.Metal>
0.0000

> <Gold.Chemscore.Hbonds>
donor molecule, donor type, donor heavy atom, donor atom, acceptor molecule, acceptor atom, score
      L1  H     3    19       P1 10175  1.00
      L1  H     9    21       P1 10175  0.06
      L1  H    13    36       P1 10186  1.90
      L1  C     7    20       P1  8028  1.00

> <Gold.PLP.Chemscore.Internal.Correction>
0.0080

> <Gold.Rescore>
     Score         DG    S(hbond)    S(metal)    S(lipo)     H(rot)  DE(clash)    DE(int)     intcor
     13.17     -15.19       1.35        0.00      66.45       1.00       0.44       1.58       ----

> <Gold.Chemscore.Fitness>
13.1709

> <Gold.Chemscore.DG>
-15.1929

> <Gold.Chemscore.ZeroCoef>
-5.4800

> <Gold.Chemscore.Hbond>
1.3469

> <Gold.Chemscore.Metal>
0.0000

> <Gold.Chemscore.Lipo>
66.4459

> <Gold.Chemscore.Internal_Hbond>
0.0000

> <Gold.Chemscore.DEClash>
0.4416

> <Gold.Chemscore.DEInternal>
1.5803

> <Gold.Chemscore.Rot>
1.0000

> <Gold.Chemscore.Internal.Correction>
   9.000000E+99

> <Gold.Chemscore.Hbonds>
donor molecule, donor type, donor heavy atom, donor atom, acceptor molecule, acceptor atom, score
      L1  H     3    19       P1 10175  1.00
      L1  H     9    21       P1 10175  0.08
      L1  H    13    36       P1 10186  0.21

> <Gold.Chemscore.Hbond.Weighted>
-4.4987

> <Gold.Chemscore.Metal.Weighted>
-0.0000

> <Gold.Chemscore.Lipo.Weighted>
-7.7742

> <Gold.Chemscore.Internal_Hbond.Weighted>
0.0000

> <Gold.Chemscore.DEClash.Weighted>
0.4416

> <Gold.Chemscore.DEInternal.Weighted>
1.5803

> <Gold.Chemscore.Rot.Weighted>
2.5600

> <Gold.Chemscore.Internal.Correction.Weighted>
   9.000000E+99

> <Gold.Protein.RotatedTorsions>
[ 6907 6896 6895 6894 ] final  143.62 input  -60.11 | X-H torsion
[ 7974 7965 7964 7962 ] final -165.50 input  175.53 | X-H torsion
[ 8008 7997 7996 7995 ] final  119.11 input   59.86 | X-H torsion
[ 10167 10162 10161 10158 ] final  -22.38 input  -65.29 | X-H torsion
[ 10718 10713 10712 10709 ] final  146.46 input   66.30 | X-H torsion
[ 10763 10752 10751 10750 ] final -111.98 input  -60.55 | X-H torsion
[ 11005 11000 10999 10996 ] final -171.32 input  -57.11 | X-H torsion

> <Gold.Protein.ActiveResidues>
 VAL166  LYS551  ARG553  GLY616  TRP617  ASP618  TYR619  PRO620  LYS621  CYS622 
 ASP623  PHE694  ASN695  SER759  ASP760  ASP761  ALA762  ILE779  LEU786  VAL792 
 PHE793  MET794  SER795  GLU796  ALA797  LYS798  CYS799  TRP800  GLU811  SER814 

> <Gold.Protein.RotatedAtoms>
  152.2040  133.4862  159.5073 H   0  0  0  0  0  0  0  0  0  0  0  0  # atno 6907 bound_to 6896
  150.6975  134.1553  159.4165 H   0  0  0  0  0  0  0  0  0  0  0  0  # atno 6908 bound_to 6896
  151.9471  135.0186  160.0590 H   0  0  0  0  0  0  0  0  0  0  0  0  # atno 6909 bound_to 6896
  144.7268  140.2805  143.6236 H   0  0  0  0  0  0  0  0  0  0  0  0  # atno 7974 bound_to 7965
  156.2580  140.2860  156.0940 H   0  0  0  0  0  0  0  0  0  0  0  0  # atno 8008 bound_to 7997
  155.1432  140.0396  157.2821 H   0  0  0  0  0  0  0  0  0  0  0  0  # atno 8009 bound_to 7997
  154.6514  140.2545  155.7216 H   0  0  0  0  0  0  0  0  0  0  0  0  # atno 8010 bound_to 7997
  140.7285  143.4540  151.0475 H   0  0  0  0  0  0  0  0  0  0  0  0  # atno 10167 bound_to 10162
  157.3329  131.0923  151.1147 H   0  0  0  0  0  0  0  0  0  0  0  0  # atno 10718 bound_to 10713
  154.8327  135.4507  154.1122 H   0  0  0  0  0  0  0  0  0  0  0  0  # atno 10763 bound_to 10752
  153.2381  135.6913  153.7820 H   0  0  0  0  0  0  0  0  0  0  0  0  # atno 10764 bound_to 10752
  153.7177  135.3346  155.3236 H   0  0  0  0  0  0  0  0  0  0  0  0  # atno 10765 bound_to 10752
  140.5096  134.5814  157.5014 H   0  0  0  0  0  0  0  0  0  0  0  0  # atno 11005 bound_to 11000
  145.7954  139.1943  143.2079 LP  0  0  0  0  0  0  0  0  0  0  0  0  # atno 17320 bound_to 7965
  146.0721  140.7857  142.9683 LP  0  0  0  0  0  0  0  0  0  0  0  0  # atno 17321 bound_to 7965
  139.8219  143.7809  152.3177 LP  0  0  0  0  0  0  0  0  0  0  0  0  # atno 17342 bound_to 10162
  139.7894  144.7416  150.9976 LP  0  0  0  0  0  0  0  0  0  0  0  0  # atno 17343 bound_to 10162
  157.2389  130.6560  149.5881 LP  0  0  0  0  0  0  0  0  0  0  0  0  # atno 17370 bound_to 10713
  155.9698  130.4575  150.5963 LP  0  0  0  0  0  0  0  0  0  0  0  0  # atno 17371 bound_to 10713
  139.9666  134.7362  156.0125 LP  0  0  0  0  0  0  0  0  0  0  0  0  # atno 17394 bound_to 11000
  141.1392  133.6568  156.3682 LP  0  0  0  0  0  0  0  0  0  0  0  0  # atno 17395 bound_to 11000

$$$$
