AV-unprocessed.smi:255|AV-procd|sdf|1950|dock5
  -GOLD-   2262021 83D 1   1.00000     0.00000
 Structure written by MMmdl.
 44 47  0  0  0  0  0  0  0  0  1 V2000
  151.4162  144.8578  158.8343 O   0  0  0  0  0  0  0  0  0  0  0  0
  150.8931  143.5930  158.4905 C   0  0  0  0  0  0  0  0  0  0  0  0
  151.8851  142.4828  158.8832 C   0  0  1  0  0  0  0  0  0  0  0  0
  152.3092  142.5076  160.3522 C   0  0  0  0  0  0  0  0  0  0  0  0
  152.8610  141.0975  160.5558 C   0  0  2  0  0  0  0  0  0  0  0  0
  154.1468  141.0676  160.2029 F   0  0  0  0  0  0  0  0  0  0  0  0
  152.0525  140.2293  159.5808 C   0  0  0  0  0  0  0  0  0  0  0  0
  151.3267  141.1474  158.7080 N   0  0  0  0  0  0  0  0  0  0  0  0
  151.1797  140.7264  157.4329 C   0  0  0  0  0  0  0  0  0  0  0  0
  152.1862  140.0587  156.8101 N   0  0  0  0  0  0  0  0  0  0  0  0
  152.0285  139.6440  155.5493 C   0  0  0  0  0  0  0  0  0  0  0  0
  150.9714  139.7924  154.7471 N   0  0  0  0  0  0  0  0  0  0  0  0
  149.9653  140.4727  155.3695 C   0  0  0  0  0  0  0  0  0  0  0  0
  149.9865  140.9642  156.7040 C   0  0  0  0  0  0  0  0  0  0  0  0
  148.7837  141.5885  157.0045 N   0  0  0  0  0  0  0  0  0  0  0  0
  148.0860  141.4676  155.9084 C   0  0  0  0  0  0  0  0  0  0  0  0
  148.7254  140.8309  154.8668 N   0  0  0  0  0  0  0  0  0  0  0  0
  148.1793  140.5574  153.5448 C   0  0  0  0  0  0  0  0  0  0  0  0
  146.9464  139.6161  153.5208 C   0  0  1  0  0  0  0  0  0  0  0  0
  145.8371  140.3968  153.9277 O   0  0  0  0  0  0  0  0  0  0  0  0
  146.6141  139.0068  152.1582 C   0  0  0  0  0  0  0  0  0  0  0  0
  145.9604  137.6821  152.5267 C   0  0  0  0  0  0  0  0  0  0  0  0
  146.7473  137.2502  153.6223 O   0  0  0  0  0  0  0  0  0  0  0  0
  147.0255  138.3792  154.4432 C   0  0  0  0  0  0  0  0  0  0  0  0
  152.7797  142.5730  158.2640 H   0  0  0  0  0  0  0  0  0  0  0  0
  152.7968  140.7561  161.5892 H   0  0  0  0  0  0  0  0  0  0  0  0
  151.6322  144.8531  159.7540 H   0  0  0  0  0  0  0  0  0  0  0  0
  149.9308  143.4504  158.9833 H   0  0  0  0  0  0  0  0  0  0  0  0
  150.7090  143.5843  157.4157 H   0  0  0  0  0  0  0  0  0  0  0  0
  153.0360  143.2888  160.5770 H   0  0  0  0  0  0  0  0  0  0  0  0
  151.4396  142.6588  160.9938 H   0  0  0  0  0  0  0  0  0  0  0  0
  152.6960  139.5379  159.0341 H   0  0  0  0  0  0  0  0  0  0  0  0
  151.3213  139.6320  160.1263 H   0  0  0  0  0  0  0  0  0  0  0  0
  152.8695  139.1184  155.1219 H   0  0  0  0  0  0  0  0  0  0  0  0
  147.0771  141.8460  155.8294 H   0  0  0  0  0  0  0  0  0  0  0  0
  147.9237  141.5125  153.0835 H   0  0  0  0  0  0  0  0  0  0  0  0
  148.9794  140.1344  152.9356 H   0  0  0  0  0  0  0  0  0  0  0  0
  145.2749  140.5312  153.1802 H   0  0  0  0  0  0  0  0  0  0  0  0
  145.9797  139.6395  151.5361 H   0  0  0  0  0  0  0  0  0  0  0  0
  147.5152  138.7880  151.5894 H   0  0  0  0  0  0  0  0  0  0  0  0
  144.9266  137.8258  152.8453 H   0  0  0  0  0  0  0  0  0  0  0  0
  145.9763  136.9605  151.7099 H   0  0  0  0  0  0  0  0  0  0  0  0
  147.9986  138.2471  154.9102 H   0  0  0  0  0  0  0  0  0  0  0  0
  146.2910  138.4247  155.2491 H   0  0  0  0  0  0  0  0  0  0  0  0
  1  2  1  0  0  0  0
  1 27  1  0  0  0  0
  2  3  1  0  0  0  0
  2 28  1  0  0  0  0
  2 29  1  0  0  0  0
  3 25  1  0  0  0  0
  3  8  1  0  0  0  0
  3  4  1  0  0  0  0
  4  5  1  0  0  0  0
  4 30  1  0  0  0  0
  4 31  1  0  0  0  0
  5 26  1  0  0  0  0
  5  6  1  0  0  0  0
  5  7  1  0  0  0  0
  7  8  1  0  0  0  0
  7 32  1  0  0  0  0
  7 33  1  0  0  0  0
  8  9  1  0  0  0  0
  9 14  1  0  0  0  0
  9 10  2  0  0  0  0
 10 11  1  0  0  0  0
 11 12  2  0  0  0  0
 11 34  1  0  0  0  0
 12 13  1  0  0  0  0
 13 17  1  0  0  0  0
 13 14  2  0  0  0  0
 14 15  1  0  0  0  0
 15 16  2  0  0  0  0
 16 17  1  0  0  0  0
 16 35  1  0  0  0  0
 17 18  1  0  0  0  0
 18 19  1  0  0  0  0
 18 36  1  0  0  0  0
 18 37  1  0  0  0  0
 19 24  1  0  0  0  0
 19 20  1  0  0  0  0
 19 21  1  0  0  0  0
 20 38  1  0  0  0  0
 21 22  1  0  0  0  0
 21 39  1  0  0  0  0
 21 40  1  0  0  0  0
 22 23  1  0  0  0  0
 22 41  1  0  0  0  0
 22 42  1  0  0  0  0
 23 24  1  0  0  0  0
 24 43  1  0  0  0  0
 24 44  1  0  0  0  0
M  END
> <s_m_source_file>
AV-unprocessed.smi

> <i_m_source_file_index>
255

> <i_lp_mmshare_version>
43012

> <i_f3d_flags>
0

> <s_epik_input>
W09IXVtDSDJdW0NAQEhdMVtDSDJdW0NASF0oRilbQ0gyXU4xYyhuW2NIXW4yKWMoYzIzKW5bY0hdbjNbQ0gyXVtDQEBdNChbT0hdKVtDSDJdW0NIMl1PW0NIMl00

> <s_epik_cmdline>
J2VwaWtfcHl0aG9uJywgJy1waCcsICc3LjAnLCAnLXRuJywgJzgnLCAnLW1hJywgJzIwMCcsICctbWV0YWxfYmluZGluZycsICctaW1hZScsICc8aW5maWxlLm1hZT4nLCAnLW9tYWUnLCAnPG91dGZpbGUubWFlPic=

> <r_lp_tautomer_probability>
1

> <r_epik_Ionization_Penalty>
0.0058098

> <r_epik_Ionization_Penalty_Charging>
0

> <r_epik_Ionization_Penalty_Neutral>
0.0058098

> <r_epik_State_Penalty>
0.00411166

> <r_epik_Charging_Adjusted_Penalty>
0.00411166

> <i_epik_Tot_Q>
0

> <i_epik_Tot_abs_Q>
0

> <r_epik_Metal_State_Penalty>
-0

> <b_epik_Metal_Only>
0

> <s_lp_Force_Field>
OPLS_2005

> <r_lp_Energy>
51.0345

> <b_lp_Chiralities_Consistent>
1

> <s_lp_Variant>
AV-unprocessed.smi:255-2

> <Gold.Version>
5.8.1

> <Gold.Id.Protein>
6NUR|6NUR_protein|mol2

> <Gold.PLP.Fitness>
49.9291

> <Gold.PLP.PLP>
-42.7811

> <Gold.PLP.part.hbond>
-3.0000

> <Gold.PLP.part.metal>
0.0000

> <Gold.PLP.part.buried>
-2.7238

> <Gold.PLP.part.nonpolar>
-39.6337

> <Gold.PLP.part.repulsive>
0.6246

> <Gold.PLP.ligand.clash>
0.0000

> <Gold.PLP.ligand.torsion>
0.9374

> <Gold.PLP.Chemscore.Hbond>
2.9840

> <Gold.PLP.Chemscore.CHOScore>
0.0000

> <Gold.PLP.Chemscore.Metal>
0.0000

> <Gold.Chemscore.Hbonds>
donor molecule, donor type, donor heavy atom, donor atom, acceptor molecule, acceptor atom, score
      L1  H    20    38       P1 10175  0.99
      P1  H  7989  7998       L1    12  1.00
      P1  H  7997  8009       L1    10  0.39

> <Gold.PLP.Chemscore.Internal.Correction>
0.0709

> <Gold.Rescore>
     Score         DG    S(hbond)    S(metal)    S(lipo)     H(rot)  DE(clash)    DE(int)     intcor
     10.28     -11.69       1.54        0.00      82.01       3.33       0.46       0.94       ----

> <Gold.Chemscore.Fitness>
10.2769

> <Gold.Chemscore.DG>
-11.6859

> <Gold.Chemscore.ZeroCoef>
-5.4800

> <Gold.Chemscore.Hbond>
1.5357

> <Gold.Chemscore.Metal>
0.0000

> <Gold.Chemscore.Lipo>
82.0061

> <Gold.Chemscore.Internal_Hbond>
0.0000

> <Gold.Chemscore.DEClash>
0.4648

> <Gold.Chemscore.DEInternal>
0.9442

> <Gold.Chemscore.Rot>
3.3273

> <Gold.Chemscore.Internal.Correction>
   9.000000E+99

> <Gold.Chemscore.Hbonds>
donor molecule, donor type, donor heavy atom, donor atom, acceptor molecule, acceptor atom, score
      L1  H    20    38       P1 10175  0.88
      P1  H  7989  7998       L1    12  0.18
      P1  H  7997  8009       L1    10  0.05

> <Gold.Chemscore.Hbond.Weighted>
-5.1291

> <Gold.Chemscore.Metal.Weighted>
-0.0000

> <Gold.Chemscore.Lipo.Weighted>
-9.5947

> <Gold.Chemscore.Internal_Hbond.Weighted>
0.0000

> <Gold.Chemscore.DEClash.Weighted>
0.4648

> <Gold.Chemscore.DEInternal.Weighted>
0.9442

> <Gold.Chemscore.Rot.Weighted>
8.5179

> <Gold.Chemscore.Internal.Correction.Weighted>
   9.000000E+99

> <Gold.Protein.RotatedTorsions>
[ 6907 6896 6895 6894 ] final  126.50 input  -60.11 | X-H torsion
[ 7974 7965 7964 7962 ] final -107.77 input  175.53 | X-H torsion
[ 8008 7997 7996 7995 ] final  173.53 input   59.86 | X-H torsion
[ 10167 10162 10161 10158 ] final  128.96 input  -65.29 | X-H torsion
[ 10718 10713 10712 10709 ] final  -70.02 input   66.30 | X-H torsion
[ 10763 10752 10751 10750 ] final   40.14 input  -60.55 | X-H torsion
[ 11005 11000 10999 10996 ] final   55.60 input  -57.11 | X-H torsion

> <Gold.Protein.ActiveResidues>
 VAL166  LYS551  ARG553  GLY616  TRP617  ASP618  TYR619  PRO620  LYS621  CYS622 
 ASP623  PHE694  ASN695  SER759  ASP760  ASP761  ALA762  ILE779  LEU786  VAL792 
 PHE793  MET794  SER795  GLU796  ALA797  LYS798  CYS799  TRP800  GLU811  SER814 

> <Gold.Protein.RotatedAtoms>
  152.3898  133.6663  159.6228 H   0  0  0  0  0  0  0  0  0  0  0  0  # atno 6907 bound_to 6896
  150.7809  133.8973  159.3340 H   0  0  0  0  0  0  0  0  0  0  0  0  # atno 6908 bound_to 6896
  151.6762  135.0970  160.0259 H   0  0  0  0  0  0  0  0  0  0  0  0  # atno 6909 bound_to 6896
  145.2011  140.9057  143.3369 H   0  0  0  0  0  0  0  0  0  0  0  0  # atno 7974 bound_to 7965
  156.1066  140.1458  156.9395 H   0  0  0  0  0  0  0  0  0  0  0  0  # atno 8008 bound_to 7997
  154.4738  140.0901  156.7256 H   0  0  0  0  0  0  0  0  0  0  0  0  # atno 8009 bound_to 7997
  155.4668  140.3440  155.4322 H   0  0  0  0  0  0  0  0  0  0  0  0  # atno 8010 bound_to 7997
  139.5501  144.6806  151.4350 H   0  0  0  0  0  0  0  0  0  0  0  0  # atno 10167 bound_to 10162
  156.0427  130.4323  150.2233 H   0  0  0  0  0  0  0  0  0  0  0  0  # atno 10718 bound_to 10713
  152.9945  135.6200  154.2578 H   0  0  0  0  0  0  0  0  0  0  0  0  # atno 10763 bound_to 10752
  154.2315  135.2792  155.2890 H   0  0  0  0  0  0  0  0  0  0  0  0  # atno 10764 bound_to 10752
  154.5446  135.5751  153.6926 H   0  0  0  0  0  0  0  0  0  0  0  0  # atno 10765 bound_to 10752
  140.0595  134.5623  155.9169 H   0  0  0  0  0  0  0  0  0  0  0  0  # atno 11005 bound_to 11000
  144.9946  139.3656  143.6197 LP  0  0  0  0  0  0  0  0  0  0  0  0  # atno 17320 bound_to 7965
  146.3417  139.9144  142.8775 LP  0  0  0  0  0  0  0  0  0  0  0  0  # atno 17321 bound_to 7965
  140.6761  143.8186  150.7060 LP  0  0  0  0  0  0  0  0  0  0  0  0  # atno 17342 bound_to 10162
  140.1625  143.4263  152.2057 LP  0  0  0  0  0  0  0  0  0  0  0  0  # atno 17343 bound_to 10162
  157.0327  131.0012  151.3307 LP  0  0  0  0  0  0  0  0  0  0  0  0  # atno 17370 bound_to 10713
  157.5266  130.8032  149.7869 LP  0  0  0  0  0  0  0  0  0  0  0  0  # atno 17371 bound_to 10713
  141.1967  133.6592  156.5703 LP  0  0  0  0  0  0  0  0  0  0  0  0  # atno 17394 bound_to 11000
  140.3793  134.7537  157.4650 LP  0  0  0  0  0  0  0  0  0  0  0  0  # atno 17395 bound_to 11000

$$$$
