#       Name:                AV-unprocessed.smi:72
#       Creating user name   scv26
#       Creation time:       Thu Mar 26 16:59:03 2020


#       File generated by GOLD software.
#

@<TRIPOS>MOLECULE
AV-unprocessed.smi:72
    41    42     1
SMALL
NO_CHARGES


@<TRIPOS>ATOM
      1 ****        -4.0095   2.8411   1.8475 N.2            1 S1                 0.0000
      2 ****        -2.9916   2.2557   1.3266 C.2            1 S1                 0.0000
      3 ****        -1.9284   1.6859   2.0428 N.2            1 S1                 0.0000
      4 ****        -0.9623   1.1265   1.3813 C.2            1 S1                 0.0000
      5 ****        -0.9465   1.0750  -0.0741 N.am           1 S1                 0.0000
      6 ****         0.1808   0.4177  -0.8485 C.3            1 S1                 0.0000
      7 ****         1.3424   0.3968  -0.0654 O.3            1 S1                 0.0000
      8 ****         1.6766  -0.9471   0.2612 C.3            1 S1                 0.0000
      9 ****         3.1689  -1.0678   0.6198 C.3            1 S1                 0.0000
     10 ****         4.0002  -0.9713  -0.5183 O.3            1 S1                 0.0000
     11 ****         1.1769  -1.7499  -0.9403 C.3            1 S1                 0.0000
     12 ****         1.0255  -3.1302  -0.6654 O.3            1 S1                 0.0000
     13 ****        -0.1342  -1.0412  -1.2681 C.3            1 S1                 0.0000
     14 ****        -1.2391  -1.6041  -0.5755 O.3            1 S1                 0.0000
     15 ****        -2.0188   1.6359  -0.8096 C.2            1 S1                 0.0000
     16 ****        -2.0650   1.5979  -2.0389 O.2            1 S1                 0.0000
     17 ****        -2.9946   2.2097  -0.0733 N.am           1 S1                 0.0000
     18 ****         0.3782   1.0730  -1.6986 H              1 S1                 0.0000
     19 ****         1.0879  -1.2176   1.1395 H              1 S1                 0.0000
     20 ****         1.8548  -1.6311  -1.7861 H              1 S1                 0.0000
     21 ****        -0.3488  -1.0758  -2.3366 H              1 S1                 0.0000
     22 ****        -4.6327   3.1639   1.1210 H              1 S1                 0.0000
     23 ****        -0.1096   0.6617   1.8761 H              1 S1                 0.0000
     24 ****         3.4512  -0.3050   1.3458 H              1 S1                 0.0000
     25 ****         3.3562  -2.0353   1.0858 H              1 S1                 0.0000
     26 ****         4.9008  -1.0409  -0.2401 H              1 S1                 0.0000
     27 ****         1.8744  -3.4887  -0.4568 H              1 S1                 0.0000
     28 ****        -2.0182  -1.1283  -0.8193 H              1 S1                 0.0000
     29 ****        -3.7728   2.6230  -0.5661 H              1 S1                 0.0000
     30 ****        -4.1626   2.9599   2.8285 LP             1 S1                 0.0000
     31 ****        -1.9153   1.7104   3.0424 LP             1 S1                 0.0000
     32 ****         1.1855   0.9142   0.7759 LP             1 S1                 0.0000
     33 ****         2.0952   0.8118  -0.5764 LP             1 S1                 0.0000
     34 ****         3.8538  -0.0906  -0.9689 LP             1 S1                 0.0000
     35 ****         3.7862  -1.7115  -1.1557 LP             1 S1                 0.0000
     36 ****         0.6508  -3.5949  -1.4677 LP             1 S1                 0.0000
     37 ****         0.4070  -3.2538   0.1106 LP             1 S1                 0.0000
     38 ****        -1.0928  -1.5295   0.4109 LP             1 S1                 0.0000
     39 ****        -1.3394  -2.5670  -0.8258 LP             1 S1                 0.0000
     40 ****        -1.3282   1.1596  -2.5536 LP             1 S1                 0.0000
     41 ****        -2.8393   2.0054  -2.5230 LP             1 S1                 0.0000
@<TRIPOS>BOND
    1    1    2 2     
    2    1   22 1     
    3    2   17 1     
    4    2    3 1     
    5    3    4 2     
    6    4    5 1     
    7    4   23 1     
    8    5    6 1     
    9    5   15 am    
   10    6   18 1     
   11    6   13 1     
   12    6    7 1     
   13    7    8 1     
   14    8   19 1     
   15    8    9 1     
   16    8   11 1     
   17    9   10 1     
   18    9   24 1     
   19    9   25 1     
   20   10   26 1     
   21   11   20 1     
   22   11   12 1     
   23   11   13 1     
   24   12   27 1     
   25   13   21 1     
   26   13   14 1     
   27   14   28 1     
   28   15   16 2     
   29   15   17 am    
   30   17   29 1     
   31    1   30 1     
   32    3   31 1     
   33    7   32 1     
   34    7   33 1     
   35   10   34 1     
   36   10   35 1     
   37   12   36 1     
   38   12   37 1     
   39   14   38 1     
   40   14   39 1     
   41   16   40 1     
   42   16   41 1     
@<TRIPOS>SUBSTRUCTURE
      1 S1             1
@<TRIPOS>SET
LONE_PAIRS      STATIC     ATOMS    <user>   **** ""
12 30 31 32 33 34 35 36 37 38 39 40 41
DONOR_HYDROGENS      STATIC     ATOMS    <user>   **** ""
5 22 26 27 28 29
ATOM$BLUE        STATIC     ATOMS    COLORGROUP SYSTEM
12 30 31 32 33 34 35 36 37 38 39 40 41
ATOM$RED        STATIC     ATOMS    COLORGROUP SYSTEM
5 22 26 27 28 29
