AV-unprocessed.smi:1952|AV-procd|sdf|7884|dock5
  -GOLD-   2272010 33D 1   1.00000     0.00000
 Structure written by MMmdl.
 39 40  0  0  0  0  0  0  0  0  1 V2000
  144.1999  134.2127  151.0050 C   0  0  0  0  0  0  0  0  0  0  0  0
  144.7694  135.4439  151.6221 C   0  0  0  0  0  0  0  0  0  0  0  0
  145.7457  136.3155  151.2288 C   0  0  0  0  0  0  0  0  0  0  0  0
  145.7783  137.2591  152.2898 C   0  0  0  0  0  0  0  0  0  0  0  0
  146.6828  138.3510  152.2640 N   0  0  0  0  0  0  0  0  0  0  0  0
  146.8927  139.2639  153.2275 C   0  0  0  0  0  0  0  0  0  0  0  0
  146.3118  139.2934  154.3129 O   0  0  0  0  0  0  0  0  0  0  0  0
  147.8225  140.1565  152.8546 N   0  0  0  0  0  0  0  0  0  0  0  0
  148.2718  141.3039  153.6419 C   0  0  1  0  0  0  0  0  0  0  0  0
  147.0694  142.2114  153.9335 C   0  0  0  0  0  0  0  0  0  0  0  0
  148.9380  140.8260  154.9504 C   0  0  0  0  0  0  0  0  0  0  0  0
  150.2510  140.1970  154.8003 N   0  0  0  0  0  0  0  0  0  0  0  0
  151.0289  140.2126  156.0376 C   0  0  0  0  0  0  0  0  0  0  0  0
  152.3987  139.5353  155.8601 C   0  0  0  0  0  0  0  0  0  0  0  0
  152.2169  138.2033  155.3903 O   0  0  0  0  0  0  0  0  0  0  0  0
  151.4990  138.1478  154.1620 C   0  0  0  0  0  0  0  0  0  0  0  0
  150.1262  138.8194  154.3381 C   0  0  0  0  0  0  0  0  0  0  0  0
  144.9011  136.9883  153.2441 N   0  0  0  0  0  0  0  0  0  0  0  0
  144.2503  135.8233  152.8212 O   0  0  0  0  0  0  0  0  0  0  0  0
  144.6172  134.0456  150.0118 H   0  0  0  0  0  0  0  0  0  0  0  0
  143.1173  134.2942  150.9071 H   0  0  0  0  0  0  0  0  0  0  0  0
  144.4205  133.3372  151.6159 H   0  0  0  0  0  0  0  0  0  0  0  0
  146.3389  136.2806  150.3272 H   0  0  0  0  0  0  0  0  0  0  0  0
  147.2258  138.4498  151.4194 H   0  0  0  0  0  0  0  0  0  0  0  0
  148.2405  140.0473  151.9425 H   0  0  0  0  0  0  0  0  0  0  0  0
  148.9795  141.9016  153.0667 H   0  0  0  0  0  0  0  0  0  0  0  0
  147.3733  143.0933  154.4981 H   0  0  0  0  0  0  0  0  0  0  0  0
  146.3079  141.6905  154.5152 H   0  0  0  0  0  0  0  0  0  0  0  0
  146.6048  142.5577  153.0096 H   0  0  0  0  0  0  0  0  0  0  0  0
  149.0182  141.6657  155.6426 H   0  0  0  0  0  0  0  0  0  0  0  0
  148.2599  140.1160  155.4267 H   0  0  0  0  0  0  0  0  0  0  0  0
  151.1900  141.2353  156.3757 H   0  0  0  0  0  0  0  0  0  0  0  0
  150.4758  139.7057  156.8297 H   0  0  0  0  0  0  0  0  0  0  0  0
  153.0175  140.0960  155.1574 H   0  0  0  0  0  0  0  0  0  0  0  0
  152.9348  139.5093  156.8090 H   0  0  0  0  0  0  0  0  0  0  0  0
  152.0721  138.6406  153.3749 H   0  0  0  0  0  0  0  0  0  0  0  0
  151.3769  137.1058  153.8659 H   0  0  0  0  0  0  0  0  0  0  0  0
  149.5308  138.2430  155.0479 H   0  0  0  0  0  0  0  0  0  0  0  0
  149.5905  138.7942  153.3885 H   0  0  0  0  0  0  0  0  0  0  0  0
  1  2  1  0  0  0  0
  1 20  1  0  0  0  0
  1 21  1  0  0  0  0
  1 22  1  0  0  0  0
  2 19  1  0  0  0  0
  2  3  2  0  0  0  0
  3  4  1  0  0  0  0
  3 23  1  0  0  0  0
  4  5  1  0  0  0  0
  4 18  2  0  0  0  0
  5  6  1  0  0  0  0
  5 24  1  0  0  0  0
  6  7  2  0  0  0  0
  6  8  1  0  0  0  0
  8  9  1  0  0  0  0
  8 25  1  0  0  0  0
  9 10  1  0  0  0  0
  9 11  1  0  0  0  0
  9 26  1  0  0  0  0
 10 27  1  0  0  0  0
 10 28  1  0  0  0  0
 10 29  1  0  0  0  0
 11 12  1  0  0  0  0
 11 30  1  0  0  0  0
 11 31  1  0  0  0  0
 12 17  1  0  0  0  0
 12 13  1  0  0  0  0
 13 14  1  0  0  0  0
 13 32  1  0  0  0  0
 13 33  1  0  0  0  0
 14 15  1  0  0  0  0
 14 34  1  0  0  0  0
 14 35  1  0  0  0  0
 15 16  1  0  0  0  0
 16 17  1  0  0  0  0
 16 36  1  0  0  0  0
 16 37  1  0  0  0  0
 17 38  1  0  0  0  0
 17 39  1  0  0  0  0
 18 19  1  0  0  0  0
M  END
> <s_m_source_file>
AV-unprocessed.smi

> <i_m_source_file_index>
1952

> <i_lp_mmshare_version>
43012

> <i_f3d_flags>
0

> <s_epik_input>
W0NIM11jMVtjSF1jKG5vMSlbTkhdQyg9TylbTkhdW0NASF0oW0NIM10pW0NIMl1OMltDSDJdW0NIMl1PW0NIMl1bQ0gyXTI=

> <s_epik_cmdline>
J2VwaWtfcHl0aG9uJywgJy1waCcsICc3LjAnLCAnLXRuJywgJzgnLCAnLW1hJywgJzIwMCcsICctbWV0YWxfYmluZGluZycsICctaW1hZScsICc8aW5maWxlLm1hZT4nLCAnLW9tYWUnLCAnPG91dGZpbGUubWFlPic=

> <r_epik_Ionization_Penalty>
0.214075

> <r_epik_Ionization_Penalty_Charging>
0

> <r_epik_Ionization_Penalty_Neutral>
0.214075

> <r_epik_State_Penalty>
0.204211

> <r_epik_Charging_Adjusted_Penalty>
0.204211

> <i_epik_Tot_Q>
0

> <i_epik_Tot_abs_Q>
0

> <r_epik_Metal_State_Penalty>
0.218782

> <b_epik_Metal_Only>
0

> <s_lp_Force_Field>
OPLS_2005

> <r_lp_Energy>
23.1471

> <b_lp_Chiralities_Consistent>
1

> <s_lp_Variant>
AV-unprocessed.smi:1952-2

> <Gold.Version>
5.8.1

> <Gold.Id.Protein>
6NUR|6NUR_protein|mol2

> <Gold.PLP.Fitness>
38.6632

> <Gold.PLP.PLP>
-33.4849

> <Gold.PLP.part.hbond>
-2.4863

> <Gold.PLP.part.metal>
0.0000

> <Gold.PLP.part.buried>
-4.0388

> <Gold.PLP.part.nonpolar>
-27.8753

> <Gold.PLP.part.repulsive>
0.6178

> <Gold.PLP.ligand.clash>
0.0000

> <Gold.PLP.ligand.torsion>
0.2667

> <Gold.PLP.Chemscore.Hbond>
1.8960

> <Gold.PLP.Chemscore.CHOScore>
0.0000

> <Gold.PLP.Chemscore.Metal>
0.0000

> <Gold.Chemscore.Hbonds>
donor molecule, donor type, donor heavy atom, donor atom, acceptor molecule, acceptor atom, score
      L1  H     8    25       P1  7957  0.91
      P1  H  7989  7998       L1    12  1.00

> <Gold.PLP.Chemscore.Internal.Correction>
0.0236

> <Gold.Rescore>
     Score         DG    S(hbond)    S(metal)    S(lipo)     H(rot)  DE(clash)    DE(int)     intcor
     10.17     -12.67       0.98        0.00      67.68       1.56       0.06       2.44       ----

> <Gold.Chemscore.Fitness>
10.1738

> <Gold.Chemscore.DG>
-12.6735

> <Gold.Chemscore.ZeroCoef>
-5.4800

> <Gold.Chemscore.Hbond>
0.9783

> <Gold.Chemscore.Metal>
0.0000

> <Gold.Chemscore.Lipo>
67.6826

> <Gold.Chemscore.Internal_Hbond>
0.0000

> <Gold.Chemscore.DEClash>
0.0611

> <Gold.Chemscore.DEInternal>
2.4386

> <Gold.Chemscore.Rot>
1.5597

> <Gold.Chemscore.Internal.Correction>
   9.000000E+99

> <Gold.Chemscore.Hbonds>
donor molecule, donor type, donor heavy atom, donor atom, acceptor molecule, acceptor atom, score
      L1  H     8    25       P1  7957  0.85
      P1  H  7989  7998       L1    12  0.07

> <Gold.Chemscore.Hbond.Weighted>
-3.2674

> <Gold.Chemscore.Metal.Weighted>
-0.0000

> <Gold.Chemscore.Lipo.Weighted>
-7.9189

> <Gold.Chemscore.Internal_Hbond.Weighted>
0.0000

> <Gold.Chemscore.DEClash.Weighted>
0.0611

> <Gold.Chemscore.DEInternal.Weighted>
2.4386

> <Gold.Chemscore.Rot.Weighted>
3.9928

> <Gold.Chemscore.Internal.Correction.Weighted>
   9.000000E+99

> <Gold.Protein.RotatedTorsions>
[ 6907 6896 6895 6894 ] final  157.67 input  -60.11 | X-H torsion
[ 7974 7965 7964 7962 ] final  120.54 input  175.53 | X-H torsion
[ 8008 7997 7996 7995 ] final -153.64 input   59.86 | X-H torsion
[ 10167 10162 10161 10158 ] final  129.08 input  -65.29 | X-H torsion
[ 10718 10713 10712 10709 ] final  -78.61 input   66.30 | X-H torsion
[ 10763 10752 10751 10750 ] final -136.06 input  -60.55 | X-H torsion
[ 11005 11000 10999 10996 ] final   91.62 input  -57.11 | X-H torsion

> <Gold.Protein.ActiveResidues>
 VAL166  LYS551  ARG553  GLY616  TRP617  ASP618  TYR619  PRO620  LYS621  CYS622 
 ASP623  PHE694  ASN695  SER759  ASP760  ASP761  ALA762  ILE779  LEU786  VAL792 
 PHE793  MET794  SER795  GLU796  ALA797  LYS798  CYS799  TRP800  GLU811  SER814 

> <Gold.Protein.RotatedAtoms>
  152.0116  133.3863  159.4221 H   0  0  0  0  0  0  0  0  0  0  0  0  # atno 6907 bound_to 6896
  150.6899  134.3724  159.5007 H   0  0  0  0  0  0  0  0  0  0  0  0  # atno 6908 bound_to 6896
  152.1485  134.9006  160.0600 H   0  0  0  0  0  0  0  0  0  0  0  0  # atno 6909 bound_to 6896
  145.1300  139.3334  143.4670 H   0  0  0  0  0  0  0  0  0  0  0  0  # atno 7974 bound_to 7965
  155.6740  140.0736  157.2509 H   0  0  0  0  0  0  0  0  0  0  0  0  # atno 8008 bound_to 7997
  154.4118  140.1694  156.1962 H   0  0  0  0  0  0  0  0  0  0  0  0  # atno 8009 bound_to 7997
  155.9592  140.3371  155.6478 H   0  0  0  0  0  0  0  0  0  0  0  0  # atno 8010 bound_to 7997
  139.5495  144.6801  151.4367 H   0  0  0  0  0  0  0  0  0  0  0  0  # atno 10167 bound_to 10162
  156.0113  130.4523  150.3523 H   0  0  0  0  0  0  0  0  0  0  0  0  # atno 10718 bound_to 10713
  154.8691  135.3684  154.4999 H   0  0  0  0  0  0  0  0  0  0  0  0  # atno 10763 bound_to 10752
  153.5640  135.7022  153.5539 H   0  0  0  0  0  0  0  0  0  0  0  0  # atno 10764 bound_to 10752
  153.3602  135.4048  155.1675 H   0  0  0  0  0  0  0  0  0  0  0  0  # atno 10765 bound_to 10752
  139.8836  134.8685  156.3455 H   0  0  0  0  0  0  0  0  0  0  0  0  # atno 11005 bound_to 11000
  146.3514  140.1295  142.8597 LP  0  0  0  0  0  0  0  0  0  0  0  0  # atno 17320 bound_to 7965
  145.0646  140.9112  143.4918 LP  0  0  0  0  0  0  0  0  0  0  0  0  # atno 17321 bound_to 7965
  140.6754  143.8202  150.7051 LP  0  0  0  0  0  0  0  0  0  0  0  0  # atno 17342 bound_to 10162
  140.1639  143.4252  152.2048 LP  0  0  0  0  0  0  0  0  0  0  0  0  # atno 17343 bound_to 10162
  157.1615  131.0346  151.2838 LP  0  0  0  0  0  0  0  0  0  0  0  0  # atno 17370 bound_to 10713
  157.4307  130.7489  149.6988 LP  0  0  0  0  0  0  0  0  0  0  0  0  # atno 17371 bound_to 10713
  140.9630  133.7376  156.0427 LP  0  0  0  0  0  0  0  0  0  0  0  0  # atno 17394 bound_to 11000
  140.7966  134.3556  157.5450 LP  0  0  0  0  0  0  0  0  0  0  0  0  # atno 17395 bound_to 11000

$$$$
