AV-unprocessed.smi:113|AV-procd|sdf|1098|dock6
  -GOLD-   2262018203D 1   1.00000     0.00000
 Structure written by MMmdl.
 52 55  0  0  0  0  0  0  0  0  1 V2000
  152.3166  138.0460  159.2180 C   0  0  0  0  0  0  0  0  0  0  0  0
  152.0864  139.5087  158.8996 C   0  0  0  0  0  0  0  0  0  0  0  0
  151.3971  139.8905  157.7349 C   0  0  0  0  0  0  0  0  0  0  0  0
  151.2028  141.2660  157.4732 C   0  0  0  0  0  0  0  0  0  0  0  0
  150.4519  141.7364  156.2225 C   0  0  0  0  0  0  0  0  0  0  0  0
  149.1433  141.1463  155.9779 N   0  0  0  0  0  0  0  0  0  0  0  0
  148.8333  140.7566  154.6524 C   0  0  0  0  0  0  0  0  0  0  0  0
  149.6376  140.9100  153.7306 O   0  0  0  0  0  0  0  0  0  0  0  0
  147.4972  140.1853  154.4679 C   0  0  0  0  0  0  0  0  0  0  0  0
  147.0941  139.7435  153.0698 C   0  0  0  0  0  0  0  0  0  0  0  0
  146.6622  140.0690  155.5282 C   0  0  0  0  0  0  0  0  0  0  0  0
  146.9880  140.4667  156.8154 N   0  0  0  0  0  0  0  0  0  0  0  0
  146.0140  140.3302  157.9699 C   0  0  1  0  0  0  0  0  0  0  0  0
  144.6310  139.9225  157.4613 C   0  0  0  0  0  0  0  0  0  0  0  0
  144.7175  138.4118  157.5238 C   0  0  2  0  0  0  0  0  0  0  0  0
  143.4349  137.8208  157.5857 O   0  0  0  0  0  0  0  0  0  0  0  0
  145.6056  138.1709  158.7583 C   0  0  2  0  0  0  0  0  0  0  0  0
  144.8659  138.0585  160.1069 C   0  0  0  0  0  0  0  0  0  0  0  0
  145.7794  137.8457  161.1630 O   0  0  0  0  0  0  0  0  0  0  0  0
  146.4473  139.3248  158.8398 O   0  0  0  0  0  0  0  0  0  0  0  0
  148.2519  141.0393  157.0688 C   0  0  0  0  0  0  0  0  0  0  0  0
  148.5497  141.4423  158.1961 O   0  0  0  0  0  0  0  0  0  0  0  0
  151.7252  142.2015  158.4070 C   0  0  0  0  0  0  0  0  0  0  0  0
  151.5775  143.5971  158.2173 C   0  0  0  0  0  0  0  0  0  0  0  0
  152.1007  144.5064  159.1539 C   0  0  0  0  0  0  0  0  0  0  0  0
  152.7772  144.0311  160.2892 C   0  0  0  0  0  0  0  0  0  0  0  0
  152.9293  142.6466  160.4847 C   0  0  0  0  0  0  0  0  0  0  0  0
  152.4123  141.7154  159.5585 C   0  0  0  0  0  0  0  0  0  0  0  0
  152.5815  140.3944  159.7863 N   0  0  0  0  0  0  0  0  0  0  0  0
  151.5868  137.4163  158.7085 H   0  0  0  0  0  0  0  0  0  0  0  0
  152.2297  137.8624  160.2896 H   0  0  0  0  0  0  0  0  0  0  0  0
  153.3136  137.7441  158.8966 H   0  0  0  0  0  0  0  0  0  0  0  0
  151.0282  139.1290  157.0641 H   0  0  0  0  0  0  0  0  0  0  0  0
  150.3143  142.8183  156.2506 H   0  0  0  0  0  0  0  0  0  0  0  0
  151.0611  141.5657  155.3336 H   0  0  0  0  0  0  0  0  0  0  0  0
  146.0863  139.3274  153.0487 H   0  0  0  0  0  0  0  0  0  0  0  0
  147.7777  138.9786  152.6995 H   0  0  0  0  0  0  0  0  0  0  0  0
  147.1195  140.5891  152.3813 H   0  0  0  0  0  0  0  0  0  0  0  0
  145.6861  139.6475  155.3431 H   0  0  0  0  0  0  0  0  0  0  0  0
  146.0297  141.2887  158.4909 H   0  0  0  0  0  0  0  0  0  0  0  0
  143.8836  140.3026  158.1593 H   0  0  0  0  0  0  0  0  0  0  0  0
  144.4180  140.3172  156.4670 H   0  0  0  0  0  0  0  0  0  0  0  0
  145.2283  138.0437  156.6331 H   0  0  0  0  0  0  0  0  0  0  0  0
  142.8768  138.3693  158.1163 H   0  0  0  0  0  0  0  0  0  0  0  0
  146.2344  137.2908  158.6154 H   0  0  0  0  0  0  0  0  0  0  0  0
  144.3392  138.9895  160.3180 H   0  0  0  0  0  0  0  0  0  0  0  0
  144.1173  137.2658  160.0897 H   0  0  0  0  0  0  0  0  0  0  0  0
  146.0696  136.9468  161.1319 H   0  0  0  0  0  0  0  0  0  0  0  0
  151.0643  143.9956  157.3557 H   0  0  0  0  0  0  0  0  0  0  0  0
  151.9826  145.5690  159.0003 H   0  0  0  0  0  0  0  0  0  0  0  0
  153.1798  144.7271  161.0105 H   0  0  0  0  0  0  0  0  0  0  0  0
  153.4522  142.2936  161.3617 H   0  0  0  0  0  0  0  0  0  0  0  0
  1  2  1  0  0  0  0
  1 30  1  0  0  0  0
  1 31  1  0  0  0  0
  1 32  1  0  0  0  0
  2 29  1  0  0  0  0
  2  3  2  0  0  0  0
  3  4  1  0  0  0  0
  3 33  1  0  0  0  0
  4  5  1  0  0  0  0
  4 23  2  0  0  0  0
  5  6  1  0  0  0  0
  5 34  1  0  0  0  0
  5 35  1  0  0  0  0
  6 21  1  0  0  0  0
  6  7  1  0  0  0  0
  7  8  2  0  0  0  0
  7  9  1  0  0  0  0
  9 10  1  0  0  0  0
  9 11  2  0  0  0  0
 10 36  1  0  0  0  0
 10 37  1  0  0  0  0
 10 38  1  0  0  0  0
 11 12  1  0  0  0  0
 11 39  1  0  0  0  0
 12 13  1  0  0  0  0
 12 21  1  0  0  0  0
 13 20  1  0  0  0  0
 13 14  1  0  0  0  0
 13 40  1  0  0  0  0
 14 15  1  0  0  0  0
 14 41  1  0  0  0  0
 14 42  1  0  0  0  0
 15 16  1  0  0  0  0
 15 17  1  0  0  0  0
 15 43  1  0  0  0  0
 16 44  1  0  0  0  0
 17 18  1  0  0  0  0
 17 20  1  0  0  0  0
 17 45  1  0  0  0  0
 18 19  1  0  0  0  0
 18 46  1  0  0  0  0
 18 47  1  0  0  0  0
 19 48  1  0  0  0  0
 21 22  2  0  0  0  0
 23 28  1  0  0  0  0
 23 24  1  0  0  0  0
 24 25  2  0  0  0  0
 24 49  1  0  0  0  0
 25 26  1  0  0  0  0
 25 50  1  0  0  0  0
 26 27  2  0  0  0  0
 26 51  1  0  0  0  0
 27 28  1  0  0  0  0
 27 52  1  0  0  0  0
 28 29  2  0  0  0  0
M  END
> <s_m_source_file>
AV-unprocessed.smi

> <i_m_source_file_index>
113

> <i_lp_mmshare_version>
43012

> <i_f3d_flags>
0

> <s_epik_input>
W2NIXTFbY0hdW2NIXVtjSF1jKGMxMiluYyhbQ0gzXSlbY0hdYzJbQ0gyXW4zYyg9TyljKFtDSDNdKVtjSF1uKGMzPU8pW0NAQEhdNFtDSDJdW0NAQEhdKFtPSF0pW0NASF0oTzQpW0NIMl1bT0hd

> <s_epik_cmdline>
J2VwaWtfcHl0aG9uJywgJy1waCcsICc3LjAnLCAnLXRuJywgJzgnLCAnLW1hJywgJzIwMCcsICctbWV0YWxfYmluZGluZycsICctaW1hZScsICc8aW5maWxlLm1hZT4nLCAnLW9tYWUnLCAnPG91dGZpbGUubWFlPic=

> <r_lp_tautomer_probability>
1

> <r_epik_Ionization_Penalty>
0.214728

> <r_epik_Ionization_Penalty_Charging>
3.04883e-08

> <r_epik_Ionization_Penalty_Neutral>
0.214728

> <r_epik_State_Penalty>
0.204913

> <r_epik_Charging_Adjusted_Penalty>
0.204913

> <i_epik_Tot_Q>
0

> <i_epik_Tot_abs_Q>
0

> <r_epik_Metal_State_Penalty>
0.000244761

> <b_epik_Metal_Only>
0

> <s_epik_Chemistry_Notes>
This compound contains an acetal/aminal-like group ( X-CH(R)-Y where X, Y are N, S, or O) that may be acid/base labile, releasing an aldehyde.

> <s_lp_Force_Field>
OPLS_2005

> <r_lp_Energy>
41.6677

> <b_lp_Chiralities_Consistent>
1

> <s_lp_Variant>
AV-unprocessed.smi:113-8

> <Gold.Version>
5.8.1

> <Gold.Id.Protein>
6NUR|6NUR_protein|mol2

> <Gold.PLP.Fitness>
47.7287

> <Gold.PLP.PLP>
-41.7784

> <Gold.PLP.part.hbond>
-3.8600

> <Gold.PLP.part.metal>
0.0000

> <Gold.PLP.part.buried>
-6.3742

> <Gold.PLP.part.nonpolar>
-34.3759

> <Gold.PLP.part.repulsive>
2.9395

> <Gold.PLP.ligand.clash>
0.0000

> <Gold.PLP.ligand.torsion>
0.4722

> <Gold.PLP.Chemscore.Hbond>
2.2929

> <Gold.PLP.Chemscore.CHOScore>
0.0000

> <Gold.PLP.Chemscore.Metal>
0.0000

> <Gold.Chemscore.Hbonds>
donor molecule, donor type, donor heavy atom, donor atom, acceptor molecule, acceptor atom, score
      P1  H  6934  6947       L1    19  0.94
      P1  H  7989  7998       L1     8  0.38
      P1  H  8011  8017       L1     8  0.93

> <Gold.PLP.Chemscore.Internal.Correction>
0.0158

> <Gold.Rescore>
     Score         DG    S(hbond)    S(metal)    S(lipo)     H(rot)  DE(clash)    DE(int)     intcor
     12.45     -15.93       1.66        0.00     106.38       2.95       1.43       2.04       ----

> <Gold.Chemscore.Fitness>
12.4503

> <Gold.Chemscore.DG>
-15.9277

> <Gold.Chemscore.ZeroCoef>
-5.4800

> <Gold.Chemscore.Hbond>
1.6602

> <Gold.Chemscore.Metal>
0.0000

> <Gold.Chemscore.Lipo>
106.3800

> <Gold.Chemscore.Internal_Hbond>
0.0000

> <Gold.Chemscore.DEClash>
1.4349

> <Gold.Chemscore.DEInternal>
2.0425

> <Gold.Chemscore.Rot>
2.9469

> <Gold.Chemscore.Internal.Correction>
   9.000000E+99

> <Gold.Chemscore.Hbonds>
donor molecule, donor type, donor heavy atom, donor atom, acceptor molecule, acceptor atom, score
      P1  H  6934  6947       L1    19  0.47
      P1  H  7989  7998       L1     8  0.37
      P1  H  8011  8017       L1     8  0.84

> <Gold.Chemscore.Hbond.Weighted>
-5.5452

> <Gold.Chemscore.Metal.Weighted>
-0.0000

> <Gold.Chemscore.Lipo.Weighted>
-12.4465

> <Gold.Chemscore.Internal_Hbond.Weighted>
0.0000

> <Gold.Chemscore.DEClash.Weighted>
1.4349

> <Gold.Chemscore.DEInternal.Weighted>
2.0425

> <Gold.Chemscore.Rot.Weighted>
7.5439

> <Gold.Chemscore.Internal.Correction.Weighted>
   9.000000E+99

> <Gold.Protein.RotatedTorsions>
[ 6907 6896 6895 6894 ] final   90.95 input  -60.11 | X-H torsion
[ 7974 7965 7964 7962 ] final    6.30 input  175.53 | X-H torsion
[ 8008 7997 7996 7995 ] final   70.12 input   59.86 | X-H torsion
[ 10167 10162 10161 10158 ] final   29.77 input  -65.29 | X-H torsion
[ 10718 10713 10712 10709 ] final   59.88 input   66.30 | X-H torsion
[ 10763 10752 10751 10750 ] final   17.27 input  -60.55 | X-H torsion
[ 11005 11000 10999 10996 ] final   55.55 input  -57.11 | X-H torsion

> <Gold.Protein.ActiveResidues>
 VAL166  LYS551  ARG553  GLY616  TRP617  ASP618  TYR619  PRO620  LYS621  CYS622 
 ASP623  PHE694  ASN695  SER759  ASP760  ASP761  ALA762  ILE779  LEU786  VAL792 
 PHE793  MET794  SER795  GLU796  ALA797  LYS798  CYS799  TRP800  GLU811  SER814 

> <Gold.Protein.RotatedAtoms>
  152.5447  134.1732  159.8604 H   0  0  0  0  0  0  0  0  0  0  0  0  # atno 6907 bound_to 6896
  151.1740  133.4759  159.2601 H   0  0  0  0  0  0  0  0  0  0  0  0  # atno 6908 bound_to 6896
  151.1245  135.0109  159.8609 H   0  0  0  0  0  0  0  0  0  0  0  0  # atno 6909 bound_to 6896
  146.2435  140.0254  142.8394 H   0  0  0  0  0  0  0  0  0  0  0  0  # atno 7974 bound_to 7965
  155.7340  140.3491  155.5073 H   0  0  0  0  0  0  0  0  0  0  0  0  # atno 8008 bound_to 7997
  155.9156  140.1058  157.1267 H   0  0  0  0  0  0  0  0  0  0  0  0  # atno 8009 bound_to 7997
  154.4062  140.1259  156.4600 H   0  0  0  0  0  0  0  0  0  0  0  0  # atno 8010 bound_to 7997
  140.4736  144.0724  150.6244 H   0  0  0  0  0  0  0  0  0  0  0  0  # atno 10167 bound_to 10162
  157.5710  130.8907  149.9266 H   0  0  0  0  0  0  0  0  0  0  0  0  # atno 10718 bound_to 10713
  153.1354  135.6749  153.9110 H   0  0  0  0  0  0  0  0  0  0  0  0  # atno 10763 bound_to 10752
  153.8584  135.3084  155.3437 H   0  0  0  0  0  0  0  0  0  0  0  0  # atno 10764 bound_to 10752
  154.7743  135.4922  153.9795 H   0  0  0  0  0  0  0  0  0  0  0  0  # atno 10765 bound_to 10752
  140.0598  134.5619  155.9165 H   0  0  0  0  0  0  0  0  0  0  0  0  # atno 11005 bound_to 11000
  145.1203  140.9458  143.4604 LP  0  0  0  0  0  0  0  0  0  0  0  0  # atno 17320 bound_to 7965
  145.0488  139.3199  143.5939 LP  0  0  0  0  0  0  0  0  0  0  0  0  # atno 17321 bound_to 7965
  140.3946  143.2735  152.0020 LP  0  0  0  0  0  0  0  0  0  0  0  0  # atno 17342 bound_to 10162
  139.4822  144.6049  151.7539 LP  0  0  0  0  0  0  0  0  0  0  0  0  # atno 17343 bound_to 10162
  156.0755  130.3679  150.0686 LP  0  0  0  0  0  0  0  0  0  0  0  0  # atno 17370 bound_to 10713
  156.8839  130.9566  151.3596 LP  0  0  0  0  0  0  0  0  0  0  0  0  # atno 17371 bound_to 10713
  141.1968  133.6593  156.5709 LP  0  0  0  0  0  0  0  0  0  0  0  0  # atno 17394 bound_to 11000
  140.3788  134.7541  157.4647 LP  0  0  0  0  0  0  0  0  0  0  0  0  # atno 17395 bound_to 11000

$$$$
