AV-unprocessed.smi:682|AV-procd|sdf|3328|dock7
  -GOLD-   22720 0293D 1   1.00000     0.00000
 Structure written by MMmdl.
 41 42  0  0  0  0  0  0  0  0  1 V2000
  139.7227  140.4646  157.1426 C   0  0  0  0  0  0  0  0  0  0  0  0
  139.6871  139.3237  156.2938 O   0  0  0  0  0  0  0  0  0  0  0  0
  139.7558  139.5521  154.8795 C   0  0  1  0  0  0  0  0  0  0  0  0
  138.5748  140.4142  154.4164 C   0  0  0  0  0  0  0  0  0  0  0  0
  141.1877  139.9503  154.4720 C   0  0  0  0  0  0  0  0  0  0  0  0
  141.5165  138.4590  154.4531 C   0  0  2  0  0  0  0  0  0  0  0  0
  142.4269  138.0955  153.3726 N   0  0  0  0  0  0  0  0  0  0  0  0
  142.9003  136.8589  153.1702 C   0  0  0  0  0  0  0  0  0  0  0  0
  142.6148  135.8967  153.8831 O   0  0  0  0  0  0  0  0  0  0  0  0
  143.7102  136.8153  152.1007 N   0  0  0  0  0  0  0  0  0  0  0  0
  144.3784  135.6802  151.5784 C   0  0  0  0  0  0  0  0  0  0  0  0
  145.7507  135.5201  151.2345 C   0  0  0  0  0  0  0  0  0  0  0  0
  145.9863  134.2992  150.7775 N   0  0  0  0  0  0  0  0  0  0  0  0
  144.7873  133.6695  150.8210 N   0  0  0  0  0  0  0  0  0  0  0  0
  144.6938  132.2936  150.3820 C   0  0  0  0  0  0  0  0  0  0  0  0
  143.7845  134.4845  151.3069 C   0  0  0  0  0  0  0  0  0  0  0  0
  140.0172  138.1830  154.1700 C   0  0  0  0  0  0  0  0  0  0  0  0
  139.4268  136.9384  154.8419 C   0  0  0  0  0  0  0  0  0  0  0  0
  139.5950  138.0985  152.6908 C   0  0  0  0  0  0  0  0  0  0  0  0
  139.8196  140.1349  158.1769 H   0  0  0  0  0  0  0  0  0  0  0  0
  138.8023  141.0443  157.0755 H   0  0  0  0  0  0  0  0  0  0  0  0
  140.5658  141.1195  156.9256 H   0  0  0  0  0  0  0  0  0  0  0  0
  138.5478  140.5170  153.3321 H   0  0  0  0  0  0  0  0  0  0  0  0
  138.6296  141.4273  154.8134 H   0  0  0  0  0  0  0  0  0  0  0  0
  137.6234  139.9820  154.7268 H   0  0  0  0  0  0  0  0  0  0  0  0
  141.2319  140.4209  153.4882 H   0  0  0  0  0  0  0  0  0  0  0  0
  141.7564  140.5231  155.2034 H   0  0  0  0  0  0  0  0  0  0  0  0
  141.8355  138.1054  155.4367 H   0  0  0  0  0  0  0  0  0  0  0  0
  142.7109  138.8307  152.7418 H   0  0  0  0  0  0  0  0  0  0  0  0
  143.8627  137.6829  151.6078 H   0  0  0  0  0  0  0  0  0  0  0  0
  146.5696  136.2212  151.2962 H   0  0  0  0  0  0  0  0  0  0  0  0
  143.6504  131.9770  150.3634 H   0  0  0  0  0  0  0  0  0  0  0  0
  145.2481  131.6508  151.0663 H   0  0  0  0  0  0  0  0  0  0  0  0
  145.1110  132.1954  149.3792 H   0  0  0  0  0  0  0  0  0  0  0  0
  142.7630  134.1502  151.4136 H   0  0  0  0  0  0  0  0  0  0  0  0
  139.7168  136.0252  154.3211 H   0  0  0  0  0  0  0  0  0  0  0  0
  138.3374  136.9759  154.8621 H   0  0  0  0  0  0  0  0  0  0  0  0
  139.7678  136.8302  155.8716 H   0  0  0  0  0  0  0  0  0  0  0  0
  139.9609  137.1863  152.2188 H   0  0  0  0  0  0  0  0  0  0  0  0
  139.9770  138.9344  152.1045 H   0  0  0  0  0  0  0  0  0  0  0  0
  138.5098  138.1014  152.5850 H   0  0  0  0  0  0  0  0  0  0  0  0
  1  2  1  0  0  0  0
  1 20  1  0  0  0  0
  1 21  1  0  0  0  0
  1 22  1  0  0  0  0
  2  3  1  0  0  0  0
  3 17  1  0  0  0  0
  3  4  1  0  0  0  0
  3  5  1  0  0  0  0
  4 23  1  0  0  0  0
  4 24  1  0  0  0  0
  4 25  1  0  0  0  0
  5  6  1  0  0  0  0
  5 26  1  0  0  0  0
  5 27  1  0  0  0  0
  6  7  1  0  0  0  0
  6 17  1  0  0  0  0
  6 28  1  0  0  0  0
  7  8  1  0  0  0  0
  7 29  1  0  0  0  0
  8  9  2  0  0  0  0
  8 10  1  0  0  0  0
 10 11  1  0  0  0  0
 10 30  1  0  0  0  0
 11 16  2  0  0  0  0
 11 12  1  0  0  0  0
 12 13  2  0  0  0  0
 12 31  1  0  0  0  0
 13 14  1  0  0  0  0
 14 15  1  0  0  0  0
 14 16  1  0  0  0  0
 15 32  1  0  0  0  0
 15 33  1  0  0  0  0
 15 34  1  0  0  0  0
 16 35  1  0  0  0  0
 17 18  1  0  0  0  0
 17 19  1  0  0  0  0
 18 36  1  0  0  0  0
 18 37  1  0  0  0  0
 18 38  1  0  0  0  0
 19 39  1  0  0  0  0
 19 40  1  0  0  0  0
 19 41  1  0  0  0  0
M  END
> <s_m_source_file>
AV-unprocessed.smi

> <i_m_source_file_index>
682

> <i_lp_mmshare_version>
43012

> <i_f3d_flags>
0

> <s_epik_input>
W0NIM11PW0NAQF0xKFtDSDNdKVtDSDJdW0NASF0oQzEoW0NIM10pW0NIM10pW05IXUMoPU8pW05IXWMyW2NIXW5uKFtDSDNdKVtjSF0y

> <s_epik_cmdline>
J2VwaWtfcHl0aG9uJywgJy1waCcsICc3LjAnLCAnLXRuJywgJzgnLCAnLW1hJywgJzIwMCcsICctbWV0YWxfYmluZGluZycsICctaW1hZScsICc8aW5maWxlLm1hZT4nLCAnLW9tYWUnLCAnPG91dGZpbGUubWFlPic=

> <r_lp_tautomer_probability>
1

> <r_epik_Ionization_Penalty>
0.000192302

> <r_epik_Ionization_Penalty_Charging>
0

> <r_epik_Ionization_Penalty_Neutral>
0.000192302

> <r_epik_State_Penalty>
-0

> <r_epik_Charging_Adjusted_Penalty>
0

> <i_epik_Tot_Q>
0

> <i_epik_Tot_abs_Q>
0

> <r_epik_Metal_State_Penalty>
-0

> <b_epik_Metal_Only>
0

> <s_lp_Force_Field>
OPLS_2005

> <r_lp_Energy>
24.1869

> <b_lp_Chiralities_Consistent>
1

> <s_lp_Variant>
AV-unprocessed.smi:682-3

> <Gold.Version>
5.8.1

> <Gold.Id.Protein>
6NUR|6NUR_protein|mol2

> <Gold.PLP.Fitness>
36.7789

> <Gold.PLP.PLP>
-26.4993

> <Gold.PLP.part.hbond>
-2.0000

> <Gold.PLP.part.metal>
0.0000

> <Gold.PLP.part.buried>
-4.0834

> <Gold.PLP.part.nonpolar>
-20.7318

> <Gold.PLP.part.repulsive>
0.3320

> <Gold.PLP.ligand.clash>
0.0000

> <Gold.PLP.ligand.torsion>
0.6932

> <Gold.PLP.Chemscore.Hbond>
1.8880

> <Gold.PLP.Chemscore.CHOScore>
1.8761

> <Gold.PLP.Chemscore.Metal>
0.0000

> <Gold.Chemscore.Hbonds>
donor molecule, donor type, donor heavy atom, donor atom, acceptor molecule, acceptor atom, score
      L1  H     7    29       P1 10175  0.99
      L1  H    10    30       P1 10171  0.91
      L1  C    12    31       P1  7948  1.00
      L1  C    16    35       P1 10186  0.72

> <Gold.PLP.Chemscore.Internal.Correction>
0.3738

> <Gold.Rescore>
     Score         DG    S(hbond)    S(metal)    S(lipo)     H(rot)  DE(clash)    DE(int)     intcor
     15.20     -15.98       1.80        0.00      65.43       1.23       0.08       0.69       ----

> <Gold.Chemscore.Fitness>
15.2036

> <Gold.Chemscore.DG>
-15.9807

> <Gold.Chemscore.ZeroCoef>
-5.4800

> <Gold.Chemscore.Hbond>
1.7973

> <Gold.Chemscore.Metal>
0.0000

> <Gold.Chemscore.Lipo>
65.4344

> <Gold.Chemscore.Internal_Hbond>
0.0000

> <Gold.Chemscore.DEClash>
0.0843

> <Gold.Chemscore.DEInternal>
0.6929

> <Gold.Chemscore.Rot>
1.2336

> <Gold.Chemscore.Internal.Correction>
   9.000000E+99

> <Gold.Chemscore.Hbonds>
donor molecule, donor type, donor heavy atom, donor atom, acceptor molecule, acceptor atom, score
      L1  H     7    29       P1 10175  0.94
      L1  H    10    30       P1 10171  0.85

> <Gold.Chemscore.Hbond.Weighted>
-6.0030

> <Gold.Chemscore.Metal.Weighted>
-0.0000

> <Gold.Chemscore.Lipo.Weighted>
-7.6558

> <Gold.Chemscore.Internal_Hbond.Weighted>
0.0000

> <Gold.Chemscore.DEClash.Weighted>
0.0843

> <Gold.Chemscore.DEInternal.Weighted>
0.6929

> <Gold.Chemscore.Rot.Weighted>
3.1581

> <Gold.Chemscore.Internal.Correction.Weighted>
   9.000000E+99

> <Gold.Protein.RotatedTorsions>
[ 6907 6896 6895 6894 ] final -147.60 input  -60.11 | X-H torsion
[ 7974 7965 7964 7962 ] final  144.95 input  175.53 | X-H torsion
[ 8008 7997 7996 7995 ] final  -54.19 input   59.86 | X-H torsion
[ 10167 10162 10161 10158 ] final   -0.06 input  -65.29 | X-H torsion
[ 10718 10713 10712 10709 ] final    8.54 input   66.30 | X-H torsion
[ 10763 10752 10751 10750 ] final -148.20 input  -60.55 | X-H torsion
[ 11005 11000 10999 10996 ] final  -79.28 input  -57.11 | X-H torsion

> <Gold.Protein.ActiveResidues>
 VAL166  LYS551  ARG553  GLY616  TRP617  ASP618  TYR619  PRO620  LYS621  CYS622 
 ASP623  PHE694  ASN695  SER759  ASP760  ASP761  ALA762  ILE779  LEU786  VAL792 
 PHE793  MET794  SER795  GLU796  ALA797  LYS798  CYS799  TRP800  GLU811  SER814 

> <Gold.Protein.RotatedAtoms>
  151.1580  133.4863  159.2594 H   0  0  0  0  0  0  0  0  0  0  0  0  # atno 6907 bound_to 6896
  151.1484  135.0214  159.8667 H   0  0  0  0  0  0  0  0  0  0  0  0  # atno 6908 bound_to 6896
  152.5463  134.1467  159.8554 H   0  0  0  0  0  0  0  0  0  0  0  0  # atno 6909 bound_to 6896
  144.8793  139.5724  143.5850 H   0  0  0  0  0  0  0  0  0  0  0  0  # atno 7974 bound_to 7965
  154.4155  140.1182  156.5276 H   0  0  0  0  0  0  0  0  0  0  0  0  # atno 8008 bound_to 7997
  155.6639  140.3496  155.4773 H   0  0  0  0  0  0  0  0  0  0  0  0  # atno 8009 bound_to 7997
  155.9690  140.1137  157.0819 H   0  0  0  0  0  0  0  0  0  0  0  0  # atno 8010 bound_to 7997
  140.6751  143.6939  150.8005 H   0  0  0  0  0  0  0  0  0  0  0  0  # atno 10167 bound_to 10162
  156.9532  130.5904  149.5658 H   0  0  0  0  0  0  0  0  0  0  0  0  # atno 10718 bound_to 10713
  154.8246  135.3340  154.6936 H   0  0  0  0  0  0  0  0  0  0  0  0  # atno 10763 bound_to 10752
  153.7564  135.6935  153.4939 H   0  0  0  0  0  0  0  0  0  0  0  0  # atno 10764 bound_to 10752
  153.2140  135.4472  155.0363 H   0  0  0  0  0  0  0  0  0  0  0  0  # atno 10765 bound_to 10752
  141.1667  133.7099  156.8099 H   0  0  0  0  0  0  0  0  0  0  0  0  # atno 11005 bound_to 11000
  146.2984  139.7349  142.9110 LP  0  0  0  0  0  0  0  0  0  0  0  0  # atno 17320 bound_to 7965
  145.3984  141.0382  143.3084 LP  0  0  0  0  0  0  0  0  0  0  0  0  # atno 17321 bound_to 7965
  140.0631  143.5135  152.2618 LP  0  0  0  0  0  0  0  0  0  0  0  0  # atno 17342 bound_to 10162
  139.6039  144.7590  151.3108 LP  0  0  0  0  0  0  0  0  0  0  0  0  # atno 17343 bound_to 10162
  156.0354  130.5442  150.8640 LP  0  0  0  0  0  0  0  0  0  0  0  0  # atno 17370 bound_to 10713
  157.5708  131.0946  150.9420 LP  0  0  0  0  0  0  0  0  0  0  0  0  # atno 17371 bound_to 10713
  140.2195  134.8768  157.3361 LP  0  0  0  0  0  0  0  0  0  0  0  0  # atno 17394 bound_to 11000
  140.2003  134.4263  155.7666 LP  0  0  0  0  0  0  0  0  0  0  0  0  # atno 17395 bound_to 11000

$$$$
