#       Name:                AV-unprocessed.smi:281
#       Creating user name   scv26
#       Creation time:       Thu Mar 26 21:39:19 2020


#       File generated by GOLD software.
#

@<TRIPOS>MOLECULE
AV-unprocessed.smi:281
    67    71     1
SMALL
NO_CHARGES


@<TRIPOS>ATOM
      1 ****        -3.8313  -3.0343  -1.8476 C.3            1 S1                 0.0000
      2 ****        -3.2861  -2.2509  -0.6498 C.3            1 S1                 0.0000
      3 ****        -1.7668  -2.0449  -0.7364 C.3            1 S1                 0.0000
      4 ****        -1.3275  -1.2352   0.3892 N.3            1 S1                 0.0000
      5 ****         0.0101  -1.1475   0.5394 C.ar           1 S1                 0.0000
      6 ****         0.5219  -1.5467   1.7290 N.ar           1 S1                 0.0000
      7 ****         1.8398  -1.4859   1.9427 C.ar           1 S1                 0.0000
      8 ****         2.8012  -1.0638   1.1183 N.ar           1 S1                 0.0000
      9 ****         2.2861  -0.6511  -0.0757 C.ar           1 S1                 0.0000
     10 ****         0.9121  -0.6574  -0.4469 C.ar           1 S1                 0.0000
     11 ****         0.7673  -0.1601  -1.7365 N.2            1 S1                 0.0000
     12 ****         1.9871   0.1166  -2.1091 C.2            1 S1                 0.0000
     13 ****         2.9615  -0.1431  -1.1717 N.pl3          1 S1                 0.0000
     14 ****         4.3929   0.0689  -1.3229 C.3            1 S1                 0.0000
     15 ****         4.8323   1.5234  -1.0363 C.3            1 S1                 0.0000
     16 ****         4.2460   2.3797  -2.0017 O.3            1 S1                 0.0000
     17 ****         4.4553   2.0281   0.3532 C.3            1 S1                 0.0000
     18 ****         5.5762   3.0070   0.6726 C.3            1 S1                 0.0000
     19 ****         6.7187   2.3509   0.1498 O.3            1 S1                 0.0000
     20 ****         6.3608   1.7200  -1.0761 C.3            1 S1                 0.0000
     21 ****        -2.0023   0.0527   0.4468 C.3            1 S1                 0.0000
     22 ****        -3.5416  -0.1280   0.4638 C.3            1 S1                 0.0000
     23 ****        -4.2358   1.2140   0.2973 C.3            1 S1                 0.0000
     24 ****        -4.2334   1.7753   1.7150 C.3            1 S1                 0.0000
     25 ****        -4.2695   0.6442   2.5793 O.3            1 S1                 0.0000
     26 ****        -4.0856  -0.5647   1.8437 C.3            1 S1                 0.0000
     27 ****        -5.4635  -1.2538   1.8132 C.3            1 S1                 0.0000
     28 ****        -3.9371  -0.9789  -0.6182 O.3            1 S1                 0.0000
     29 ****        -3.3711  -4.0203  -1.9145 H              1 S1                 0.0000
     30 ****        -3.6374  -2.5090  -2.7832 H              1 S1                 0.0000
     31 ****        -4.9088  -3.1753  -1.7614 H              1 S1                 0.0000
     32 ****        -3.5143  -2.8077   0.2592 H              1 S1                 0.0000
     33 ****        -1.2538  -3.0076  -0.7235 H              1 S1                 0.0000
     34 ****        -1.5139  -1.5531  -1.6761 H              1 S1                 0.0000
     35 ****         2.1715  -1.8238   2.9135 H              1 S1                 0.0000
     36 ****         2.2117   0.5252  -3.0837 H              1 S1                 0.0000
     37 ****         4.9115  -0.6175  -0.6524 H              1 S1                 0.0000
     38 ****         4.6782  -0.2211  -2.3350 H              1 S1                 0.0000
     39 ****         4.5322   3.2639  -1.8295 H              1 S1                 0.0000
     40 ****         3.4615   2.4745   0.4071 H              1 S1                 0.0000
     41 ****         4.4917   1.2106   1.0740 H              1 S1                 0.0000
     42 ****         5.4276   3.9577   0.1583 H              1 S1                 0.0000
     43 ****         5.6763   3.2017   1.7405 H              1 S1                 0.0000
     44 ****         6.8977   0.7742  -1.1550 H              1 S1                 0.0000
     45 ****         6.6750   2.3424  -1.9157 H              1 S1                 0.0000
     46 ****        -1.6700   0.6054   1.3268 H              1 S1                 0.0000
     47 ****        -1.7088   0.6392  -0.4251 H              1 S1                 0.0000
     48 ****        -3.7495   1.8726  -0.4229 H              1 S1                 0.0000
     49 ****        -5.2640   1.0680  -0.0360 H              1 S1                 0.0000
     50 ****        -3.3157   2.3321   1.9068 H              1 S1                 0.0000
     51 ****        -5.0765   2.4417   1.8976 H              1 S1                 0.0000
     52 ****        -3.3776  -1.2109   2.3637 H              1 S1                 0.0000
     53 ****        -5.4354  -2.2048   1.2839 H              1 S1                 0.0000
     54 ****        -6.2172  -0.6311   1.3317 H              1 S1                 0.0000
     55 ****        -5.8099  -1.4605   2.8260 H              1 S1                 0.0000
     56 ****        -1.6206  -1.7457   1.1976 LP             1 S1                 0.0000
     57 ****        -0.0861  -1.8866   2.4465 LP             1 S1                 0.0000
     58 ****         3.7747  -1.0517   1.3468 LP             1 S1                 0.0000
     59 ****        -0.0772  -0.0416  -2.2588 LP             1 S1                 0.0000
     60 ****         3.2494   2.3288  -1.9374 LP             1 S1                 0.0000
     61 ****         4.5354   2.1035  -2.9182 LP             1 S1                 0.0000
     62 ****         7.0396   1.6633   0.8012 LP             1 S1                 0.0000
     63 ****         7.4446   3.0187  -0.0146 LP             1 S1                 0.0000
     64 ****        -5.1553   0.6141   3.0424 LP             1 S1                 0.0000
     65 ****        -3.5407   0.7280   3.2589 LP             1 S1                 0.0000
     66 ****        -4.9222  -1.1354  -0.5467 LP             1 S1                 0.0000
     67 ****        -3.7362  -0.5053  -1.4757 LP             1 S1                 0.0000
@<TRIPOS>BOND
    1    1    2 1     
    2    1   29 1     
    3    1   30 1     
    4    1   31 1     
    5    2   28 1     
    6    2    3 1     
    7    2   32 1     
    8    3    4 1     
    9    3   33 1     
   10    3   34 1     
   11    4    5 1     
   12    4   21 1     
   13    5   10 ar    
   14    5    6 ar    
   15    6    7 ar    
   16    7    8 ar    
   17    7   35 1     
   18    8    9 ar    
   19    9   13 1     
   20    9   10 ar    
   21   10   11 1     
   22   11   12 2     
   23   12   13 1     
   24   12   36 1     
   25   13   14 1     
   26   14   15 1     
   27   14   37 1     
   28   14   38 1     
   29   15   20 1     
   30   15   16 1     
   31   15   17 1     
   32   16   39 1     
   33   17   18 1     
   34   17   40 1     
   35   17   41 1     
   36   18   19 1     
   37   18   42 1     
   38   18   43 1     
   39   19   20 1     
   40   20   44 1     
   41   20   45 1     
   42   21   22 1     
   43   21   46 1     
   44   21   47 1     
   45   22   26 1     
   46   22   23 1     
   47   22   28 1     
   48   23   24 1     
   49   23   48 1     
   50   23   49 1     
   51   24   25 1     
   52   24   50 1     
   53   24   51 1     
   54   25   26 1     
   55   26   27 1     
   56   26   52 1     
   57   27   53 1     
   58   27   54 1     
   59   27   55 1     
   60    4   56 1     
   61    6   57 1     
   62    8   58 1     
   63   11   59 1     
   64   16   60 1     
   65   16   61 1     
   66   19   62 1     
   67   19   63 1     
   68   25   64 1     
   69   25   65 1     
   70   28   66 1     
   71   28   67 1     
@<TRIPOS>SUBSTRUCTURE
      1 S1             1
@<TRIPOS>SET
LONE_PAIRS      STATIC     ATOMS    <user>   **** ""
12 56 57 58 59 60 61 62 63 64 65 66 67
DONOR_HYDROGENS      STATIC     ATOMS    <user>   **** ""
1 39
ATOM$BLUE        STATIC     ATOMS    COLORGROUP SYSTEM
12 56 57 58 59 60 61 62 63 64 65 66 67
ATOM$RED        STATIC     ATOMS    COLORGROUP SYSTEM
1 39
