AV-unprocessed.smi:3076|AV-procd|sdf|11726|dock8
  -GOLD-   2272017123D 1   1.00000     0.00000
 Structure written by MMmdl.
 21 21  0  0  0  0  0  0  0  0  2 V2000
  147.8719  138.8824  152.4048 N   0  3  0  0  0  0  0  0  0  0  0  0
  147.9930  139.3595  153.7936 C   0  0  0  0  0  0  0  0  0  0  0  0
  148.3977  138.2254  154.7523 C   0  0  1  0  0  0  0  0  0  0  0  0
  147.8315  137.0147  154.2892 O   0  0  0  0  0  0  0  0  0  0  0  0
  149.9095  138.1291  154.8820 C   0  0  0  0  0  0  0  0  0  0  0  0
  150.6687  139.1747  155.4521 C   0  0  0  0  0  0  0  0  0  0  0  0
  152.0648  139.0243  155.5565 C   0  0  0  0  0  0  0  0  0  0  0  0
  152.6481  137.8309  155.0870 C   0  0  0  0  0  0  0  0  0  0  0  0
  151.9340  136.8226  154.5423 N   0  0  0  0  0  0  0  0  0  0  0  0
  150.5960  136.9747  154.4454 C   0  0  0  0  0  0  0  0  0  0  0  0
  146.9248  139.0174  152.0811 H   0  0  0  0  0  0  0  0  0  0  0  0
  148.1076  137.9014  152.3626 H   0  0  0  0  0  0  0  0  0  0  0  0
  148.7172  140.1747  153.8282 H   0  0  0  0  0  0  0  0  0  0  0  0
  147.0298  139.7757  154.0906 H   0  0  0  0  0  0  0  0  0  0  0  0
  147.9795  138.4226  155.7407 H   0  0  0  0  0  0  0  0  0  0  0  0
  148.1726  136.8331  153.4261 H   0  0  0  0  0  0  0  0  0  0  0  0
  150.1920  140.0770  155.8067 H   0  0  0  0  0  0  0  0  0  0  0  0
  152.6750  139.8048  155.9868 H   0  0  0  0  0  0  0  0  0  0  0  0
  153.7156  137.6816  155.1526 H   0  0  0  0  0  0  0  0  0  0  0  0
  150.0576  136.1466  154.0077 H   0  0  0  0  0  0  0  0  0  0  0  0
  148.5072  139.4058  151.8190 H   0  0  0  0  0  0  0  0  0  0  0  0
  1  2  1  0  0  0  0
  1 11  1  0  0  0  0
  1 12  1  0  0  0  0
  1 21  1  0  0  0  0
  2  3  1  0  0  0  0
  2 13  1  0  0  0  0
  2 14  1  0  0  0  0
  3  4  1  0  0  0  0
  3  5  1  0  0  0  0
  3 15  1  0  0  0  0
  4 16  1  0  0  0  0
  5 10  1  0  0  0  0
  5  6  2  0  0  0  0
  6  7  1  0  0  0  0
  6 17  1  0  0  0  0
  7  8  2  0  0  0  0
  7 18  1  0  0  0  0
  8  9  1  0  0  0  0
  8 19  1  0  0  0  0
  9 10  2  0  0  0  0
 10 20  1  0  0  0  0
M  CHG  1   1   1
M  END
> <s_m_source_file>
AV-unprocessed.smi

> <i_m_source_file_index>
3076

> <i_lp_mmshare_version>
43012

> <i_f3d_flags>
0

> <s_epik_input>
W05IMl1bQ0gyXVtDQEhdKFtPSF0pYzFbY0hdW2NIXVtjSF1uW2NIXTE=

> <s_epik_cmdline>
J2VwaWtfcHl0aG9uJywgJy1waCcsICc3LjAnLCAnLXRuJywgJzgnLCAnLW1hJywgJzIwMCcsICctbWV0YWxfYmluZGluZycsICctaW1hZScsICc8aW5maWxlLm1hZT4nLCAnLW9tYWUnLCAnPG91dGZpbGUubWFlPic=

> <r_epik_Ionization_Penalty>
0.0145342

> <r_epik_Ionization_Penalty_Charging>
0.0140431

> <r_epik_Ionization_Penalty_Neutral>
0.000491123

> <r_epik_State_Penalty>
0.0109628

> <r_epik_Charging_Adjusted_Penalty>
0.0250059

> <i_epik_Tot_Q>
1

> <i_epik_Tot_abs_Q>
1

> <r_epik_Metal_State_Penalty>
0.0109916

> <b_epik_Metal_Only>
0

> <s_lp_Force_Field>
OPLS_2005

> <r_lp_Energy>
5.00299

> <b_lp_Chiralities_Consistent>
1

> <s_lp_Variant>
AV-unprocessed.smi:3076-2

> <Gold.Version>
5.8.1

> <Gold.Id.Protein>
6NUR|6NUR_protein|mol2

> <Gold.PLP.Fitness>
36.5041

> <Gold.PLP.PLP>
-20.4641

> <Gold.PLP.part.hbond>
-3.8509

> <Gold.PLP.part.metal>
0.0000

> <Gold.PLP.part.buried>
-0.5519

> <Gold.PLP.part.nonpolar>
-16.6746

> <Gold.PLP.part.repulsive>
0.2021

> <Gold.PLP.ligand.clash>
0.0000

> <Gold.PLP.ligand.torsion>
0.4029

> <Gold.PLP.Chemscore.Hbond>
4.7360

> <Gold.PLP.Chemscore.CHOScore>
0.8769

> <Gold.PLP.Chemscore.Metal>
0.0000

> <Gold.Chemscore.Hbonds>
donor molecule, donor type, donor heavy atom, donor atom, acceptor molecule, acceptor atom, score
      L1  H     1    12       P1  7948  2.00
      L1  H     1    21       P1  7957  0.68
      L1  H     4    16       P1  7948  1.00
      P1  H 10752 10765       L1     9  1.00
      L1  C    10    20       P1  7948  0.74

> <Gold.PLP.Chemscore.Internal.Correction>
0.0070

> <Gold.Rescore>
     Score         DG    S(hbond)    S(metal)    S(lipo)     H(rot)  DE(clash)    DE(int)     intcor
     18.28     -18.70       3.81        0.00      45.84       1.90       0.06       0.36       ----

> <Gold.Chemscore.Fitness>
18.2820

> <Gold.Chemscore.DG>
-18.6995

> <Gold.Chemscore.ZeroCoef>
-5.4800

> <Gold.Chemscore.Hbond>
3.8069

> <Gold.Chemscore.Metal>
0.0000

> <Gold.Chemscore.Lipo>
45.8440

> <Gold.Chemscore.Internal_Hbond>
0.0000

> <Gold.Chemscore.DEClash>
0.0621

> <Gold.Chemscore.DEInternal>
0.3554

> <Gold.Chemscore.Rot>
1.8981

> <Gold.Chemscore.Internal.Correction>
   9.000000E+99

> <Gold.Chemscore.Hbonds>
donor molecule, donor type, donor heavy atom, donor atom, acceptor molecule, acceptor atom, score
      L1  H     1    12       P1  7948  0.99
      L1  H     1    21       P1  7957  0.69
      L1  H     4    16       P1  7948  1.00
      P1  H 10752 10765       L1     9  0.51

> <Gold.Chemscore.Hbond.Weighted>
-12.7149

> <Gold.Chemscore.Metal.Weighted>
-0.0000

> <Gold.Chemscore.Lipo.Weighted>
-5.3637

> <Gold.Chemscore.Internal_Hbond.Weighted>
0.0000

> <Gold.Chemscore.DEClash.Weighted>
0.0621

> <Gold.Chemscore.DEInternal.Weighted>
0.3554

> <Gold.Chemscore.Rot.Weighted>
4.8592

> <Gold.Chemscore.Internal.Correction.Weighted>
   9.000000E+99

> <Gold.Protein.RotatedTorsions>
[ 6907 6896 6895 6894 ] final   91.20 input  -60.11 | X-H torsion
[ 7974 7965 7964 7962 ] final  166.78 input  175.53 | X-H torsion
[ 8008 7997 7996 7995 ] final -104.57 input   59.86 | X-H torsion
[ 10167 10162 10161 10158 ] final   79.19 input  -65.29 | X-H torsion
[ 10718 10713 10712 10709 ] final -178.41 input   66.30 | X-H torsion
[ 10763 10752 10751 10750 ] final  155.38 input  -60.55 | X-H torsion
[ 11005 11000 10999 10996 ] final  177.45 input  -57.11 | X-H torsion

> <Gold.Protein.ActiveResidues>
 VAL166  LYS551  ARG553  GLY616  TRP617  ASP618  TYR619  PRO620  LYS621  CYS622 
 ASP623  PHE694  ASN695  SER759  ASP760  ASP761  ALA762  ILE779  LEU786  VAL792 
 PHE793  MET794  SER795  GLU796  ALA797  LYS798  CYS799  TRP800  GLU811  SER814 

> <Gold.Protein.RotatedAtoms>
  152.5449  134.1694  159.8590 H   0  0  0  0  0  0  0  0  0  0  0  0  # atno 6907 bound_to 6896
  151.1705  133.4780  159.2601 H   0  0  0  0  0  0  0  0  0  0  0  0  # atno 6908 bound_to 6896
  151.1279  135.0126  159.8624 H   0  0  0  0  0  0  0  0  0  0  0  0  # atno 6909 bound_to 6896
  144.7449  139.8664  143.6385 H   0  0  0  0  0  0  0  0  0  0  0  0  # atno 7974 bound_to 7965
  154.8872  140.0417  157.1817 H   0  0  0  0  0  0  0  0  0  0  0  0  # atno 8008 bound_to 7997
  154.8578  140.2939  155.5537 H   0  0  0  0  0  0  0  0  0  0  0  0  # atno 8009 bound_to 7997
  156.2997  140.2452  156.3547 H   0  0  0  0  0  0  0  0  0  0  0  0  # atno 8010 bound_to 7997
  139.9629  144.5948  150.8055 H   0  0  0  0  0  0  0  0  0  0  0  0  # atno 10167 bound_to 10162
  156.8439  130.9696  151.3098 H   0  0  0  0  0  0  0  0  0  0  0  0  # atno 10718 bound_to 10713
  154.1674  135.2806  155.3091 H   0  0  0  0  0  0  0  0  0  0  0  0  # atno 10763 bound_to 10752
  154.6101  135.5501  153.7468 H   0  0  0  0  0  0  0  0  0  0  0  0  # atno 10764 bound_to 10752
  153.0174  135.6413  154.1814 H   0  0  0  0  0  0  0  0  0  0  0  0  # atno 10765 bound_to 10752
  140.3842  134.6919  157.4469 H   0  0  0  0  0  0  0  0  0  0  0  0  # atno 11005 bound_to 11000
  146.1311  139.4347  143.0168 LP  0  0  0  0  0  0  0  0  0  0  0  0  # atno 17320 bound_to 7965
  145.7161  141.0090  143.1427 LP  0  0  0  0  0  0  0  0  0  0  0  0  # atno 17321 bound_to 7965
  140.7547  143.3032  151.3026 LP  0  0  0  0  0  0  0  0  0  0  0  0  # atno 17342 bound_to 10162
  139.6540  144.0310  152.2646 LP  0  0  0  0  0  0  0  0  0  0  0  0  # atno 17343 bound_to 10162
  157.6341  130.8752  149.9326 LP  0  0  0  0  0  0  0  0  0  0  0  0  # atno 17370 bound_to 10713
  156.0865  130.3667  150.0477 LP  0  0  0  0  0  0  0  0  0  0  0  0  # atno 17371 bound_to 10713
  140.0455  134.6205  155.8926 LP  0  0  0  0  0  0  0  0  0  0  0  0  # atno 17394 bound_to 11000
  141.1913  133.6571  156.5450 LP  0  0  0  0  0  0  0  0  0  0  0  0  # atno 17395 bound_to 11000

$$$$
