AV-unprocessed.smi:249|AV-procd|sdf|1907|dock1
  -GOLD-   2262020593D 1   1.00000     0.00000
 Structure written by MMmdl.
 64 67  0  0  0  0  0  0  0  0  2 V2000
  144.9830  132.2758  151.2297 C   0  0  0  0  0  0  0  0  0  0  0  0
  144.2703  133.5818  151.6130 C   0  0  0  0  0  0  0  0  0  0  0  0
  144.2097  133.8066  153.0874 N   0  3  1  0  0  0  0  0  0  0  0  0
  145.5404  133.8033  153.7593 C   0  0  0  0  0  0  0  0  0  0  0  0
  146.3440  135.0819  153.4526 C   0  0  0  0  0  0  0  0  0  0  0  0
  145.5399  136.3378  153.8384 C   0  0  1  0  0  0  0  0  0  0  0  0
  146.2682  137.5740  153.5426 N   0  0  0  0  0  0  0  0  0  0  0  0
  146.8336  137.8232  152.2185 C   0  0  0  0  0  0  0  0  0  0  0  0
  146.5780  138.4341  154.5482 C   0  0  0  0  0  0  0  0  0  0  0  0
  145.6419  138.6765  155.5034 N   0  0  0  0  0  0  0  0  0  0  0  0
  145.8960  139.5263  156.5023 C   0  0  0  0  0  0  0  0  0  0  0  0
  147.0064  140.2253  156.7397 N   0  0  0  0  0  0  0  0  0  0  0  0
  147.9601  139.9728  155.7991 C   0  0  0  0  0  0  0  0  0  0  0  0
  147.8322  139.1014  154.6792 C   0  0  0  0  0  0  0  0  0  0  0  0
  149.0188  139.0976  153.9529 N   0  0  0  0  0  0  0  0  0  0  0  0
  149.7936  139.9281  154.5949 C   0  0  0  0  0  0  0  0  0  0  0  0
  149.2440  140.4853  155.7267 N   0  0  0  0  0  0  0  0  0  0  0  0
  149.8782  141.4429  156.6162 C   0  0  0  0  0  0  0  0  0  0  0  0
  151.3842  141.1824  156.9013 C   0  0  2  0  0  0  0  0  0  0  0  0
  151.6009  139.6658  157.1246 C   0  0  0  0  0  0  0  0  0  0  0  0
  152.9711  139.3259  157.0638 O   0  0  0  0  0  0  0  0  0  0  0  0
  151.9370  142.0195  158.0937 C   0  0  1  0  0  0  0  0  0  0  0  0
  151.6469  143.5119  158.0237 C   0  0  0  0  0  0  0  0  0  0  0  0
  151.8667  143.9551  159.4623 C   0  0  0  0  0  0  0  0  0  0  0  0
  151.3453  142.8909  160.2412 O   0  0  0  0  0  0  0  0  0  0  0  0
  151.3425  141.6904  159.4743 C   0  0  0  0  0  0  0  0  0  0  0  0
  144.1454  136.3126  153.1836 C   0  0  0  0  0  0  0  0  0  0  0  0
  143.4121  134.9968  153.5165 C   0  0  1  0  0  0  0  0  0  0  0  0
  141.9600  134.9838  153.0067 C   0  0  0  0  0  0  0  0  0  0  0  0
  144.8659  132.0778  150.1639 H   0  0  0  0  0  0  0  0  0  0  0  0
  144.5676  131.4241  151.7692 H   0  0  0  0  0  0  0  0  0  0  0  0
  146.0536  132.3166  151.4273 H   0  0  0  0  0  0  0  0  0  0  0  0
  144.7384  134.4261  151.1074 H   0  0  0  0  0  0  0  0  0  0  0  0
  143.2619  133.5094  151.2106 H   0  0  0  0  0  0  0  0  0  0  0  0
  145.3791  133.7320  154.8358 H   0  0  0  0  0  0  0  0  0  0  0  0
  146.1171  132.9177  153.4974 H   0  0  0  0  0  0  0  0  0  0  0  0
  147.2838  135.0632  154.0056 H   0  0  0  0  0  0  0  0  0  0  0  0
  146.6149  135.1026  152.3971 H   0  0  0  0  0  0  0  0  0  0  0  0
  145.3957  136.2639  154.9155 H   0  0  0  0  0  0  0  0  0  0  0  0
  146.7482  138.8779  151.9542 H   0  0  0  0  0  0  0  0  0  0  0  0
  146.3192  137.2467  151.4503 H   0  0  0  0  0  0  0  0  0  0  0  0
  147.8882  137.5466  152.1964 H   0  0  0  0  0  0  0  0  0  0  0  0
  145.0949  139.6657  157.2131 H   0  0  0  0  0  0  0  0  0  0  0  0
  150.7984  140.1488  154.2647 H   0  0  0  0  0  0  0  0  0  0  0  0
  149.7499  142.4417  156.1969 H   0  0  0  0  0  0  0  0  0  0  0  0
  149.3061  141.4304  157.5441 H   0  0  0  0  0  0  0  0  0  0  0  0
  151.9586  141.4554  156.0152 H   0  0  0  0  0  0  0  0  0  0  0  0
  151.2516  139.3510  158.1070 H   0  0  0  0  0  0  0  0  0  0  0  0
  151.0510  139.0819  156.3859 H   0  0  0  0  0  0  0  0  0  0  0  0
  153.0753  138.5977  156.4705 H   0  0  0  0  0  0  0  0  0  0  0  0
  153.0201  141.8949  158.1446 H   0  0  0  0  0  0  0  0  0  0  0  0
  152.2954  144.0467  157.3294 H   0  0  0  0  0  0  0  0  0  0  0  0
  150.6099  143.6884  157.7333 H   0  0  0  0  0  0  0  0  0  0  0  0
  152.9320  144.0601  159.6723 H   0  0  0  0  0  0  0  0  0  0  0  0
  151.3762  144.9005  159.6939 H   0  0  0  0  0  0  0  0  0  0  0  0
  150.3096  141.3514  159.3906 H   0  0  0  0  0  0  0  0  0  0  0  0
  151.9113  140.9203  159.9937 H   0  0  0  0  0  0  0  0  0  0  0  0
  143.5603  137.1597  153.5441 H   0  0  0  0  0  0  0  0  0  0  0  0
  144.2214  136.4349  152.1031 H   0  0  0  0  0  0  0  0  0  0  0  0
  143.3412  134.9327  154.6037 H   0  0  0  0  0  0  0  0  0  0  0  0
  141.3699  135.7468  153.5152 H   0  0  0  0  0  0  0  0  0  0  0  0
  141.4819  134.0222  153.1960 H   0  0  0  0  0  0  0  0  0  0  0  0
  141.8941  135.1941  151.9393 H   0  0  0  0  0  0  0  0  0  0  0  0
  143.7149  133.0056  153.4535 H   0  0  0  0  0  0  0  0  0  0  0  0
  1  2  1  0  0  0  0
  1 30  1  0  0  0  0
  1 31  1  0  0  0  0
  1 32  1  0  0  0  0
  2  3  1  0  0  0  0
  2 33  1  0  0  0  0
  2 34  1  0  0  0  0
  3 28  1  0  0  0  0
  3  4  1  0  0  0  0
  3 64  1  0  0  0  0
  4  5  1  0  0  0  0
  4 35  1  0  0  0  0
  4 36  1  0  0  0  0
  5  6  1  0  0  0  0
  5 37  1  0  0  0  0
  5 38  1  0  0  0  0
  6  7  1  0  0  0  0
  6 27  1  0  0  0  0
  6 39  1  0  0  0  0
  7  8  1  0  0  0  0
  7  9  1  0  0  0  0
  8 40  1  0  0  0  0
  8 41  1  0  0  0  0
  8 42  1  0  0  0  0
  9 14  1  0  0  0  0
  9 10  2  0  0  0  0
 10 11  1  0  0  0  0
 11 12  2  0  0  0  0
 11 43  1  0  0  0  0
 12 13  1  0  0  0  0
 13 17  1  0  0  0  0
 13 14  2  0  0  0  0
 14 15  1  0  0  0  0
 15 16  2  0  0  0  0
 16 17  1  0  0  0  0
 16 44  1  0  0  0  0
 17 18  1  0  0  0  0
 18 19  1  0  0  0  0
 18 45  1  0  0  0  0
 18 46  1  0  0  0  0
 19 20  1  0  0  0  0
 19 22  1  0  0  0  0
 19 47  1  0  0  0  0
 20 21  1  0  0  0  0
 20 48  1  0  0  0  0
 20 49  1  0  0  0  0
 21 50  1  0  0  0  0
 22 26  1  0  0  0  0
 22 23  1  0  0  0  0
 22 51  1  0  0  0  0
 23 24  1  0  0  0  0
 23 52  1  0  0  0  0
 23 53  1  0  0  0  0
 24 25  1  0  0  0  0
 24 54  1  0  0  0  0
 24 55  1  0  0  0  0
 25 26  1  0  0  0  0
 26 56  1  0  0  0  0
 26 57  1  0  0  0  0
 27 28  1  0  0  0  0
 27 58  1  0  0  0  0
 27 59  1  0  0  0  0
 28 29  1  0  0  0  0
 28 60  1  0  0  0  0
 29 61  1  0  0  0  0
 29 62  1  0  0  0  0
 29 63  1  0  0  0  0
M  CHG  1   3   1
M  END
> <s_m_source_file>
AV-unprocessed.smi

> <i_m_source_file_index>
249

> <i_lp_mmshare_version>
43012

> <i_f3d_flags>
0

> <s_epik_input>
W0NIM11bQ0gyXU4xW0NIMl1bQ0gyXVtDQEhdKFtDSDJdW0NASF0xW0NIM10pTihbQ0gzXSljKG5bY0hdbjIpYyhjMjMpbltjSF1uM1tDSDJdW0NASF0oW0NIMl1bT0hdKVtDQEBIXTRbQ0gyXVtDSDJdT1tDSDJdNA==

> <s_epik_cmdline>
J2VwaWtfcHl0aG9uJywgJy1waCcsICc3LjAnLCAnLXRuJywgJzgnLCAnLW1hJywgJzIwMCcsICctbWV0YWxfYmluZGluZycsICctaW1hZScsICc8aW5maWxlLm1hZT4nLCAnLW9tYWUnLCAnPG91dGZpbGUubWFlPic=

> <r_lp_tautomer_probability>
1

> <r_epik_Ionization_Penalty>
0.00294688

> <r_epik_Ionization_Penalty_Charging>
0.00169971

> <r_epik_Ionization_Penalty_Neutral>
0.00124717

> <r_epik_State_Penalty>
-0

> <r_epik_Charging_Adjusted_Penalty>
0.00169971

> <i_epik_Tot_Q>
1

> <i_epik_Tot_abs_Q>
1

> <r_epik_Metal_State_Penalty>
-0

> <b_epik_Metal_Only>
0

> <s_lp_Force_Field>
OPLS_2005

> <r_lp_Energy>
54.7906

> <b_lp_Chiralities_Consistent>
1

> <s_lp_Variant>
AV-unprocessed.smi:249-10

> <Gold.Version>
5.8.1

> <Gold.Id.Protein>
6NUR|6NUR_protein|mol2

> <Gold.PLP.Fitness>
47.3424

> <Gold.PLP.PLP>
-39.9771

> <Gold.PLP.part.hbond>
-2.3126

> <Gold.PLP.part.metal>
0.0000

> <Gold.PLP.part.buried>
-8.5258

> <Gold.PLP.part.nonpolar>
-30.6987

> <Gold.PLP.part.repulsive>
1.6127

> <Gold.PLP.ligand.clash>
0.0000

> <Gold.PLP.ligand.torsion>
1.2129

> <Gold.PLP.Chemscore.Hbond>
3.0000

> <Gold.PLP.Chemscore.CHOScore>
0.0082

> <Gold.PLP.Chemscore.Metal>
0.0000

> <Gold.Chemscore.Hbonds>
donor molecule, donor type, donor heavy atom, donor atom, acceptor molecule, acceptor atom, score
      L1  H     3    64       P1 10957  1.69
      P1  H  7997  8009       L1    21  0.55

> <Gold.PLP.Chemscore.Internal.Correction>
0.7664

> <Gold.Rescore>
     Score         DG    S(hbond)    S(metal)    S(lipo)     H(rot)  DE(clash)    DE(int)     intcor
     14.97     -16.60       1.98        0.00      96.46       2.65       0.12       1.50       ----

> <Gold.Chemscore.Fitness>
14.9740

> <Gold.Chemscore.DG>
-16.5953

> <Gold.Chemscore.ZeroCoef>
-5.4800

> <Gold.Chemscore.Hbond>
1.9813

> <Gold.Chemscore.Metal>
0.0000

> <Gold.Chemscore.Lipo>
96.4578

> <Gold.Chemscore.Internal_Hbond>
0.0000

> <Gold.Chemscore.DEClash>
0.1207

> <Gold.Chemscore.DEInternal>
1.5006

> <Gold.Chemscore.Rot>
2.6515

> <Gold.Chemscore.Internal.Correction>
   9.000000E+99

> <Gold.Chemscore.Hbonds>
donor molecule, donor type, donor heavy atom, donor atom, acceptor molecule, acceptor atom, score
      L1  H     3    64       P1 10957  0.67
      P1  H  7997  8009       L1    21  0.03

> <Gold.Chemscore.Hbond.Weighted>
-6.6177

> <Gold.Chemscore.Metal.Weighted>
-0.0000

> <Gold.Chemscore.Lipo.Weighted>
-11.2856

> <Gold.Chemscore.Internal_Hbond.Weighted>
0.0000

> <Gold.Chemscore.DEClash.Weighted>
0.1207

> <Gold.Chemscore.DEInternal.Weighted>
1.5006

> <Gold.Chemscore.Rot.Weighted>
6.7880

> <Gold.Chemscore.Internal.Correction.Weighted>
   9.000000E+99

> <Gold.Protein.RotatedTorsions>
[ 6907 6896 6895 6894 ] final  119.08 input  -60.11 | X-H torsion
[ 7974 7965 7964 7962 ] final   48.17 input  175.53 | X-H torsion
[ 8008 7997 7996 7995 ] final -163.90 input   59.86 | X-H torsion
[ 10167 10162 10161 10158 ] final   55.32 input  -65.29 | X-H torsion
[ 10718 10713 10712 10709 ] final  -13.62 input   66.30 | X-H torsion
[ 10763 10752 10751 10750 ] final  -46.57 input  -60.55 | X-H torsion
[ 11005 11000 10999 10996 ] final  -80.39 input  -57.11 | X-H torsion

> <Gold.Protein.ActiveResidues>
 VAL166  LYS551  ARG553  GLY616  TRP617  ASP618  TYR619  PRO620  LYS621  CYS622 
 ASP623  PHE694  ASN695  SER759  ASP760  ASP761  ALA762  ILE779  LEU786  VAL792 
 PHE793  MET794  SER795  GLU796  ALA797  LYS798  CYS799  TRP800  GLU811  SER814 

> <Gold.Protein.RotatedAtoms>
  152.4497  133.7606  159.6743 H   0  0  0  0  0  0  0  0  0  0  0  0  # atno 6907 bound_to 6896
  150.8406  133.7932  159.3068 H   0  0  0  0  0  0  0  0  0  0  0  0  # atno 6908 bound_to 6896
  151.5558  135.1069  160.0012 H   0  0  0  0  0  0  0  0  0  0  0  0  # atno 6909 bound_to 6896
  146.0229  139.4672  142.9886 H   0  0  0  0  0  0  0  0  0  0  0  0  # atno 7974 bound_to 7965
  155.8279  140.0929  157.1810 H   0  0  0  0  0  0  0  0  0  0  0  0  # atno 8008 bound_to 7997
  154.3979  140.1424  156.3638 H   0  0  0  0  0  0  0  0  0  0  0  0  # atno 8009 bound_to 7997
  155.8197  140.3446  155.5509 H   0  0  0  0  0  0  0  0  0  0  0  0  # atno 8010 bound_to 7997
  140.2207  144.3792  150.6452 H   0  0  0  0  0  0  0  0  0  0  0  0  # atno 10167 bound_to 10162
  156.6276  130.4892  149.6141 H   0  0  0  0  0  0  0  0  0  0  0  0  # atno 10718 bound_to 10713
  154.0472  135.6636  153.4796 H   0  0  0  0  0  0  0  0  0  0  0  0  # atno 10763 bound_to 10752
  153.0478  135.5103  154.7785 H   0  0  0  0  0  0  0  0  0  0  0  0  # atno 10764 bound_to 10752
  154.6780  135.3040  154.9618 H   0  0  0  0  0  0  0  0  0  0  0  0  # atno 10765 bound_to 10752
  141.1668  133.7148  156.8265 H   0  0  0  0  0  0  0  0  0  0  0  0  # atno 11005 bound_to 11000
  145.7164  141.0089  143.1425 LP  0  0  0  0  0  0  0  0  0  0  0  0  # atno 17320 bound_to 7965
  144.6997  139.8819  143.7447 LP  0  0  0  0  0  0  0  0  0  0  0  0  # atno 17321 bound_to 7965
  140.6257  143.2181  151.6601 LP  0  0  0  0  0  0  0  0  0  0  0  0  # atno 17342 bound_to 10162
  139.5145  144.3407  152.0742 LP  0  0  0  0  0  0  0  0  0  0  0  0  # atno 17343 bound_to 10162
  156.2261  130.6766  151.1417 LP  0  0  0  0  0  0  0  0  0  0  0  0  # atno 17370 bound_to 10713
  157.7209  131.0682  150.6137 LP  0  0  0  0  0  0  0  0  0  0  0  0  # atno 17371 bound_to 10713
  140.2081  134.8847  157.3244 LP  0  0  0  0  0  0  0  0  0  0  0  0  # atno 17394 bound_to 11000
  140.2115  134.4132  155.7610 LP  0  0  0  0  0  0  0  0  0  0  0  0  # atno 17395 bound_to 11000

$$$$
