AV-unprocessed.smi:1976|AV-procd|sdf|7989|dock8
  -GOLD-   2272010173D 1   1.00000     0.00000
 Structure written by MMmdl.
 45 47  0  0  0  0  0  0  0  0  2 V2000
  147.8709  139.9906  156.9785 O   0  0  0  0  0  0  0  0  0  0  0  0
  148.3294  140.1726  155.8497 C   0  0  0  0  0  0  0  0  0  0  0  0
  149.5020  141.1348  155.6115 C   0  0  0  0  0  0  0  0  0  0  0  0
  150.4938  141.1355  156.7000 N   0  0  0  0  0  0  0  0  0  0  0  0
  150.8165  142.3845  157.2659 C   0  0  0  0  0  0  0  0  0  0  0  0
  151.7112  142.5288  158.2620 C   0  0  0  0  0  0  0  0  0  0  0  0
  151.9927  143.8834  158.8935 C   0  0  0  0  0  0  0  0  0  0  0  0
  152.5805  144.7057  158.0241 F   0  0  0  0  0  0  0  0  0  0  0  0
  150.8508  144.4445  159.2891 F   0  0  0  0  0  0  0  0  0  0  0  0
  152.7864  143.7630  159.9586 F   0  0  0  0  0  0  0  0  0  0  0  0
  152.3205  141.3123  158.7629 C   0  0  0  0  0  0  0  0  0  0  0  0
  152.0127  140.1082  158.2420 C   0  0  0  0  0  0  0  0  0  0  0  0
  151.0503  139.9698  157.1466 C   0  0  0  0  0  0  0  0  0  0  0  0
  150.7598  138.8753  156.6633 O   0  0  0  0  0  0  0  0  0  0  0  0
  147.8415  139.5666  154.7564 N   0  0  0  0  0  0  0  0  0  0  0  0
  146.7345  138.6120  154.7438 C   0  0  2  0  0  0  0  0  0  0  0  0
  147.0945  137.2654  155.4000 C   0  0  0  0  0  0  0  0  0  0  0  0
  146.4318  136.2104  154.5082 C   0  0  0  0  0  0  0  0  0  0  0  0
  146.5165  136.8116  153.1723 N   0  3  1  0  0  0  0  0  0  0  0  0
  145.7583  136.1908  152.0674 C   0  0  0  0  0  0  0  0  0  0  0  0
  146.1624  136.8857  150.7492 C   0  0  0  0  0  0  0  0  0  0  0  0
  146.0261  138.4231  150.8321 C   0  0  0  0  0  0  0  0  0  0  0  0
  146.7317  138.9956  152.0808 C   0  0  0  0  0  0  0  0  0  0  0  0
  146.2257  138.2476  153.3278 C   0  0  2  0  0  0  0  0  0  0  0  0
  149.9729  140.8841  154.6594 H   0  0  0  0  0  0  0  0  0  0  0  0
  149.1023  142.1407  155.4736 H   0  0  0  0  0  0  0  0  0  0  0  0
  150.2796  143.2207  156.8418 H   0  0  0  0  0  0  0  0  0  0  0  0
  153.0385  141.3666  159.5679 H   0  0  0  0  0  0  0  0  0  0  0  0
  152.4875  139.2229  158.6393 H   0  0  0  0  0  0  0  0  0  0  0  0
  148.2776  139.7733  153.8693 H   0  0  0  0  0  0  0  0  0  0  0  0
  145.9007  139.0396  155.3046 H   0  0  0  0  0  0  0  0  0  0  0  0
  148.1754  137.1156  155.3888 H   0  0  0  0  0  0  0  0  0  0  0  0
  146.7646  137.2013  156.4375 H   0  0  0  0  0  0  0  0  0  0  0  0
  146.9344  135.2437  154.5543 H   0  0  0  0  0  0  0  0  0  0  0  0
  145.3856  136.0730  154.7867 H   0  0  0  0  0  0  0  0  0  0  0  0
  145.9859  135.1255  152.0166 H   0  0  0  0  0  0  0  0  0  0  0  0
  144.6863  136.2857  152.2464 H   0  0  0  0  0  0  0  0  0  0  0  0
  147.1980  136.6340  150.5167 H   0  0  0  0  0  0  0  0  0  0  0  0
  145.5626  136.5009  149.9240 H   0  0  0  0  0  0  0  0  0  0  0  0
  146.4277  138.8848  149.9298 H   0  0  0  0  0  0  0  0  0  0  0  0
  144.9683  138.6872  150.8655 H   0  0  0  0  0  0  0  0  0  0  0  0
  147.8128  138.8878  151.9836 H   0  0  0  0  0  0  0  0  0  0  0  0
  146.5228  140.0627  152.1604 H   0  0  0  0  0  0  0  0  0  0  0  0
  145.1395  138.3579  153.3609 H   0  0  0  0  0  0  0  0  0  0  0  0
  147.4916  136.7521  152.9157 H   0  0  0  0  0  0  0  0  0  0  0  0
  1  2  2  0  0  0  0
  2  3  1  0  0  0  0
  2 15  1  0  0  0  0
  3  4  1  0  0  0  0
  3 25  1  0  0  0  0
  3 26  1  0  0  0  0
  4 13  1  0  0  0  0
  4  5  1  0  0  0  0
  5  6  2  0  0  0  0
  5 27  1  0  0  0  0
  6  7  1  0  0  0  0
  6 11  1  0  0  0  0
  7  8  1  0  0  0  0
  7  9  1  0  0  0  0
  7 10  1  0  0  0  0
 11 12  2  0  0  0  0
 11 28  1  0  0  0  0
 12 13  1  0  0  0  0
 12 29  1  0  0  0  0
 13 14  2  0  0  0  0
 15 16  1  0  0  0  0
 15 30  1  0  0  0  0
 16 24  1  0  0  0  0
 16 17  1  0  0  0  0
 16 31  1  0  0  0  0
 17 18  1  0  0  0  0
 17 32  1  0  0  0  0
 17 33  1  0  0  0  0
 18 19  1  0  0  0  0
 18 34  1  0  0  0  0
 18 35  1  0  0  0  0
 19 24  1  0  0  0  0
 19 20  1  0  0  0  0
 19 45  1  0  0  0  0
 20 21  1  0  0  0  0
 20 36  1  0  0  0  0
 20 37  1  0  0  0  0
 21 22  1  0  0  0  0
 21 38  1  0  0  0  0
 21 39  1  0  0  0  0
 22 23  1  0  0  0  0
 22 40  1  0  0  0  0
 22 41  1  0  0  0  0
 23 24  1  0  0  0  0
 23 42  1  0  0  0  0
 23 43  1  0  0  0  0
 24 44  1  0  0  0  0
M  CHG  1  19   1
M  END
> <s_m_source_file>
AV-unprocessed.smi

> <i_m_source_file_index>
1976

> <i_lp_mmshare_version>
43012

> <i_f3d_flags>
0

> <s_epik_input>
W0NIMl0xW0NIMl1bQ0gyXVtDSDJdW0NASF0oTjEyKVtDQEBIXShbQ0gyXVtDSDJdMilbTkhdQyg9TylbQ0gyXW4zW2NIXWMoQyhGKShGKUYpW2NIXVtjSF1jMz1P

> <s_epik_cmdline>
J2VwaWtfcHl0aG9uJywgJy1waCcsICc3LjAnLCAnLXRuJywgJzgnLCAnLW1hJywgJzIwMCcsICctbWV0YWxfYmluZGluZycsICctaW1hZScsICc8aW5maWxlLm1hZT4nLCAnLW9tYWUnLCAnPG91dGZpbGUubWFlPic=

> <r_lp_tautomer_probability>
1

> <r_epik_Ionization_Penalty>
0.00171506

> <r_epik_Ionization_Penalty_Charging>
0.00171498

> <r_epik_Ionization_Penalty_Neutral>
7.81737e-08

> <r_epik_State_Penalty>
0.00115937

> <r_epik_Charging_Adjusted_Penalty>
0.00287436

> <i_epik_Tot_Q>
1

> <i_epik_Tot_abs_Q>
1

> <r_epik_Metal_State_Penalty>
-0

> <b_epik_Metal_Only>
0

> <s_lp_Force_Field>
OPLS_2005

> <r_lp_Energy>
53.4145

> <b_lp_Chiralities_Consistent>
1

> <s_lp_Variant>
AV-unprocessed.smi:1976-7

> <Gold.Version>
5.8.1

> <Gold.Id.Protein>
6NUR|6NUR_protein|mol2

> <Gold.PLP.Fitness>
45.3598

> <Gold.PLP.PLP>
-37.4674

> <Gold.PLP.part.hbond>
-1.0000

> <Gold.PLP.part.metal>
0.0000

> <Gold.PLP.part.buried>
4.9789

> <Gold.PLP.part.nonpolar>
-41.5651

> <Gold.PLP.part.repulsive>
0.0061

> <Gold.PLP.ligand.clash>
0.0000

> <Gold.PLP.ligand.torsion>
0.5713

> <Gold.PLP.Chemscore.Hbond>
2.0000

> <Gold.PLP.Chemscore.CHOScore>
1.0000

> <Gold.PLP.Chemscore.Metal>
0.0000

> <Gold.Chemscore.Hbonds>
donor molecule, donor type, donor heavy atom, donor atom, acceptor molecule, acceptor atom, score
      L1  H    19    45       P1  7948  2.00
      L1  C     5    27       P1  8028  1.00

> <Gold.PLP.Chemscore.Internal.Correction>
0.0351

> <Gold.Rescore>
     Score         DG    S(hbond)    S(metal)    S(lipo)     H(rot)  DE(clash)    DE(int)     intcor
     11.92     -15.73       1.00        0.00      93.79       1.58       3.26       0.54       ----

> <Gold.Chemscore.Fitness>
11.9219

> <Gold.Chemscore.DG>
-15.7261

> <Gold.Chemscore.ZeroCoef>
-5.4800

> <Gold.Chemscore.Hbond>
0.9955

> <Gold.Chemscore.Metal>
0.0000

> <Gold.Chemscore.Lipo>
93.7906

> <Gold.Chemscore.Internal_Hbond>
0.0000

> <Gold.Chemscore.DEClash>
3.2636

> <Gold.Chemscore.DEInternal>
0.5405

> <Gold.Chemscore.Rot>
1.5830

> <Gold.Chemscore.Internal.Correction>
   9.000000E+99

> <Gold.Chemscore.Hbonds>
donor molecule, donor type, donor heavy atom, donor atom, acceptor molecule, acceptor atom, score
      L1  H    19    45       P1  7948  0.98

> <Gold.Chemscore.Hbond.Weighted>
-3.3249

> <Gold.Chemscore.Metal.Weighted>
-0.0000

> <Gold.Chemscore.Lipo.Weighted>
-10.9735

> <Gold.Chemscore.Internal_Hbond.Weighted>
0.0000

> <Gold.Chemscore.DEClash.Weighted>
3.2636

> <Gold.Chemscore.DEInternal.Weighted>
0.5405

> <Gold.Chemscore.Rot.Weighted>
4.0524

> <Gold.Chemscore.Internal.Correction.Weighted>
   9.000000E+99

> <Gold.Protein.RotatedTorsions>
[ 6907 6896 6895 6894 ] final  134.02 input  -60.11 | X-H torsion
[ 7974 7965 7964 7962 ] final   52.84 input  175.53 | X-H torsion
[ 8008 7997 7996 7995 ] final  156.76 input   59.86 | X-H torsion
[ 10167 10162 10161 10158 ] final  -22.98 input  -65.29 | X-H torsion
[ 10718 10713 10712 10709 ] final   34.32 input   66.30 | X-H torsion
[ 10763 10752 10751 10750 ] final  -13.85 input  -60.55 | X-H torsion
[ 11005 11000 10999 10996 ] final   -8.20 input  -57.11 | X-H torsion

> <Gold.Protein.ActiveResidues>
 VAL166  LYS551  ARG553  GLY616  TRP617  ASP618  TYR619  PRO620  LYS621  CYS622 
 ASP623  PHE694  ASN695  SER759  ASP760  ASP761  ALA762  ILE779  LEU786  VAL792 
 PHE793  MET794  SER795  GLU796  ALA797  LYS798  CYS799  TRP800  GLU811  SER814 

> <Gold.Protein.RotatedAtoms>
  152.3158  133.5801  159.5710 H   0  0  0  0  0  0  0  0  0  0  0  0  # atno 6907 bound_to 6896
  150.7346  134.0085  159.3670 H   0  0  0  0  0  0  0  0  0  0  0  0  # atno 6908 bound_to 6896
  151.7974  135.0719  160.0446 H   0  0  0  0  0  0  0  0  0  0  0  0  # atno 6909 bound_to 6896
  145.9773  139.4207  143.0154 H   0  0  0  0  0  0  0  0  0  0  0  0  # atno 7974 bound_to 7965
  156.2404  140.1904  156.7004 H   0  0  0  0  0  0  0  0  0  0  0  0  # atno 8008 bound_to 7997
  154.6186  140.0612  156.9612 H   0  0  0  0  0  0  0  0  0  0  0  0  # atno 8009 bound_to 7997
  155.1899  140.3283  155.4363 H   0  0  0  0  0  0  0  0  0  0  0  0  # atno 8010 bound_to 7997
  140.7287  143.4485  151.0551 H   0  0  0  0  0  0  0  0  0  0  0  0  # atno 10167 bound_to 10162
  157.3088  130.7389  149.6712 H   0  0  0  0  0  0  0  0  0  0  0  0  # atno 10718 bound_to 10713
  153.5195  135.7016  153.5739 H   0  0  0  0  0  0  0  0  0  0  0  0  # atno 10763 bound_to 10752
  153.3794  135.3924  155.1846 H   0  0  0  0  0  0  0  0  0  0  0  0  # atno 10764 bound_to 10752
  154.8696  135.3831  154.4682 H   0  0  0  0  0  0  0  0  0  0  0  0  # atno 10765 bound_to 10752
  140.7210  133.8828  155.8820 H   0  0  0  0  0  0  0  0  0  0  0  0  # atno 11005 bound_to 11000
  145.7821  140.9852  143.1094 LP  0  0  0  0  0  0  0  0  0  0  0  0  # atno 17320 bound_to 7965
  144.6852  139.9577  143.7479 LP  0  0  0  0  0  0  0  0  0  0  0  0  # atno 17321 bound_to 7965
  139.8159  143.7887  152.3174 LP  0  0  0  0  0  0  0  0  0  0  0  0  # atno 17342 bound_to 10162
  139.7952  144.7395  150.9900 LP  0  0  0  0  0  0  0  0  0  0  0  0  # atno 17343 bound_to 10162
  155.9676  130.4257  150.4667 LP  0  0  0  0  0  0  0  0  0  0  0  0  # atno 17370 bound_to 10713
  157.2662  131.0577  151.2289 LP  0  0  0  0  0  0  0  0  0  0  0  0  # atno 17371 bound_to 10713
  141.0003  134.1159  157.4323 LP  0  0  0  0  0  0  0  0  0  0  0  0  # atno 17394 bound_to 11000
  139.8848  135.0066  156.6394 LP  0  0  0  0  0  0  0  0  0  0  0  0  # atno 17395 bound_to 11000

$$$$
