#       Name:                AV-unprocessed.smi:1830
#       Creating user name   scv26
#       Creation time:       Fri Mar 27 09:12:20 2020


#       File generated by GOLD software.
#

@<TRIPOS>MOLECULE
AV-unprocessed.smi:1830
    59    62     1
SMALL
NO_CHARGES


@<TRIPOS>ATOM
      1 ****         0.1568   1.6907   1.5367 O.2            1 S1                 0.0000
      2 ****        -0.3446   0.5666   1.5371 C.2            1 S1                 0.0000
      3 ****         0.3736  -0.5651   1.5326 N.am           1 S1                 0.0000
      4 ****         1.8308  -0.6333   1.5059 C.3            1 S1                 0.0000
      5 ****         2.3730  -0.6444   0.0655 C.3            1 S1                 0.0000
      6 ****         3.8932  -0.8728   0.0295 C.3            1 S1                 0.0000
      7 ****         4.4176  -0.8402  -1.3597 N.4            1 S1                 1.0000
      8 ****         5.8942  -0.7594  -1.3995 C.3            1 S1                 0.0000
      9 ****         6.2489   0.7288  -1.5740 C.3            1 S1                 0.0000
     10 ****         4.9135   1.4531  -1.7806 C.3            1 S1                 0.0000
     11 ****         3.9408   0.3272  -2.1328 C.3            1 S1                 0.0000
     12 ****         2.4458   0.6334  -1.9129 C.3            1 S1                 0.0000
     13 ****         2.1219   0.6217  -0.5311 O.3            1 S1                 0.0000
     14 ****        -1.6618   0.3048   1.5172 N.am           1 S1                 0.0000
     15 ****        -2.7410   1.2308   1.4491 C.ar           1 S1                 0.0000
     16 ****        -2.6602   2.5118   2.0481 C.ar           1 S1                 0.0000
     17 ****        -3.7467   3.3960   1.9349 C.ar           1 S1                 0.0000
     18 ****        -4.8817   2.9668   1.2275 C.ar           1 S1                 0.0000
     19 ****        -4.9823   1.7441   0.6692 N.ar           1 S1                 0.0000
     20 ****        -3.9487   0.8740   0.7833 C.ar           1 S1                 0.0000
     21 ****        -4.1189  -0.4013   0.1974 N.3            1 S1                 0.0000
     22 ****        -5.1919  -0.6378  -0.7627 C.3            1 S1                 0.0000
     23 ****        -5.3125  -2.1563  -0.8542 C.3            1 S1                 0.0000
     24 ****        -5.0151  -2.5919   0.5770 C.3            1 S1                 0.0000
     25 ****        -3.9762  -1.5730   1.0564 C.3            1 S1                 0.0000
     26 ****        -0.1240  -1.4435   1.5353 H              1 S1                 0.0000
     27 ****         2.2694   0.1854   2.0790 H              1 S1                 0.0000
     28 ****         2.1220  -1.5531   2.0139 H              1 S1                 0.0000
     29 ****         1.8671  -1.4319  -0.4969 H              1 S1                 0.0000
     30 ****         4.3874  -0.1061   0.6291 H              1 S1                 0.0000
     31 ****         4.1432  -1.8345   0.4792 H              1 S1                 0.0000
     32 ****         6.3630  -1.2024  -0.5194 H              1 S1                 0.0000
     33 ****         6.2425  -1.3212  -2.2670 H              1 S1                 0.0000
     34 ****         6.7712   1.1222  -0.7014 H              1 S1                 0.0000
     35 ****         6.9031   0.8631  -2.4362 H              1 S1                 0.0000
     36 ****         4.6093   1.9387  -0.8523 H              1 S1                 0.0000
     37 ****         4.9654   2.2192  -2.5547 H              1 S1                 0.0000
     38 ****         4.0857   0.0921  -3.1886 H              1 S1                 0.0000
     39 ****         2.1926   1.6072  -2.3327 H              1 S1                 0.0000
     40 ****         1.8276  -0.0994  -2.4340 H              1 S1                 0.0000
     41 ****        -1.9209  -0.6661   1.4229 H              1 S1                 0.0000
     42 ****        -1.7865   2.8270   2.5978 H              1 S1                 0.0000
     43 ****        -3.7094   4.3799   2.3787 H              1 S1                 0.0000
     44 ****        -5.7350   3.6184   1.1128 H              1 S1                 0.0000
     45 ****        -6.1341  -0.2217  -0.4036 H              1 S1                 0.0000
     46 ****        -4.9652  -0.1897  -1.7306 H              1 S1                 0.0000
     47 ****        -6.2897  -2.4853  -1.2078 H              1 S1                 0.0000
     48 ****        -4.5534  -2.5522  -1.5303 H              1 S1                 0.0000
     49 ****        -5.9200  -2.5051   1.1801 H              1 S1                 0.0000
     50 ****        -4.6626  -3.6213   0.6458 H              1 S1                 0.0000
     51 ****        -2.9730  -1.9803   0.9288 H              1 S1                 0.0000
     52 ****        -4.1132  -1.3306   2.1111 H              1 S1                 0.0000
     53 ****         4.1116  -1.6857  -1.8198 H              1 S1                 0.0000
     54 ****         1.1513   1.7946   1.5329 LP             1 S1                 0.0000
     55 ****        -0.4305   2.5002   1.5402 LP             1 S1                 0.0000
     56 ****         2.6733   1.3133  -0.0646 LP             1 S1                 0.0000
     57 ****         1.1521   0.8417  -0.4252 LP             1 S1                 0.0000
     58 ****        -5.8113   1.4813   0.1756 LP             1 S1                 0.0000
     59 ****        -3.2911  -0.3010  -0.3545 LP             1 S1                 0.0000
@<TRIPOS>BOND
    1    1    2 2     
    2    2    3 am    
    3    2   14 am    
    4    3    4 1     
    5    3   26 1     
    6    4    5 1     
    7    4   27 1     
    8    4   28 1     
    9    5   13 1     
   10    5    6 1     
   11    5   29 1     
   12    6    7 1     
   13    6   30 1     
   14    6   31 1     
   15    7   11 1     
   16    7    8 1     
   17    7   53 1     
   18    8    9 1     
   19    8   32 1     
   20    8   33 1     
   21    9   10 1     
   22    9   34 1     
   23    9   35 1     
   24   10   11 1     
   25   10   36 1     
   26   10   37 1     
   27   11   12 1     
   28   11   38 1     
   29   12   13 1     
   30   12   39 1     
   31   12   40 1     
   32   14   15 1     
   33   14   41 1     
   34   15   20 ar    
   35   15   16 ar    
   36   16   17 ar    
   37   16   42 1     
   38   17   18 ar    
   39   17   43 1     
   40   18   19 ar    
   41   18   44 1     
   42   19   20 ar    
   43   20   21 1     
   44   21   25 1     
   45   21   22 1     
   46   22   23 1     
   47   22   45 1     
   48   22   46 1     
   49   23   24 1     
   50   23   47 1     
   51   23   48 1     
   52   24   25 1     
   53   24   49 1     
   54   24   50 1     
   55   25   51 1     
   56   25   52 1     
   57    1   54 1     
   58    1   55 1     
   59   13   56 1     
   60   13   57 1     
   61   19   58 1     
   62   21   59 1     
@<TRIPOS>SUBSTRUCTURE
      1 S1             1
@<TRIPOS>SET
LONE_PAIRS      STATIC     ATOMS    <user>   **** ""
6 54 55 56 57 58 59
DONOR_HYDROGENS      STATIC     ATOMS    <user>   **** ""
3 26 53 41
ATOM$BLUE        STATIC     ATOMS    COLORGROUP SYSTEM
6 54 55 56 57 58 59
ATOM$RED        STATIC     ATOMS    COLORGROUP SYSTEM
3 26 53 41
