AV-unprocessed.smi:1304|AV-procd|sdf|5431|dock4
  -GOLD-   22720 4593D 1   1.00000     0.00000
 Structure written by MMmdl.
 48 49  0  0  0  0  0  0  0  0  2 V2000
  148.9378  132.0266  154.6779 C   0  0  0  0  0  0  0  0  0  0  0  0
  148.3277  133.0734  153.7282 C   0  0  0  0  0  0  0  0  0  0  0  0
  147.4388  134.1595  154.4083 C   0  0  1  0  0  0  0  0  0  0  0  0
  146.2337  133.4319  155.0617 C   0  0  0  0  0  0  0  0  0  0  0  0
  148.2596  134.8727  155.5235 C   0  0  0  0  0  0  0  0  0  0  0  0
  147.4268  135.3616  156.6187 N   0  0  0  0  0  0  0  0  0  0  0  0
  147.7163  135.2082  157.9182 C   0  0  0  0  0  0  0  0  0  0  0  0
  148.7326  134.6362  158.3146 O   0  0  0  0  0  0  0  0  0  0  0  0
  146.7028  135.8051  158.9056 C   0  0  0  0  0  0  0  0  0  0  0  0
  146.9607  135.4378  160.3082 N   0  0  0  0  0  0  0  0  0  0  0  0
  146.1192  134.4622  160.8789 C   0  0  0  0  0  0  0  0  0  0  0  0
  146.2605  134.0587  162.1513 C   0  0  0  0  0  0  0  0  0  0  0  0
  147.3115  134.6532  162.9429 C   0  0  0  0  0  0  0  0  0  0  0  0
  148.1201  135.5897  162.4081 C   0  0  0  0  0  0  0  0  0  0  0  0
  147.9680  136.0349  161.0178 C   0  0  0  0  0  0  0  0  0  0  0  0
  148.6994  136.8924  160.5217 O   0  0  0  0  0  0  0  0  0  0  0  0
  146.9585  135.1539  153.3798 N   0  3  0  0  0  0  0  0  0  0  0  0
  146.2003  134.5909  152.2263 C   0  0  0  0  0  0  0  0  0  0  0  0
  145.9391  135.6775  151.1690 C   0  0  0  0  0  0  0  0  0  0  0  0
  145.2401  136.7661  151.7558 O   0  0  0  0  0  0  0  0  0  0  0  0
  145.9906  137.3708  152.7992 C   0  0  0  0  0  0  0  0  0  0  0  0
  146.2360  136.3427  153.9149 C   0  0  0  0  0  0  0  0  0  0  0  0
  149.5442  131.3141  154.1186 H   0  0  0  0  0  0  0  0  0  0  0  0
  148.1709  131.4560  155.2017 H   0  0  0  0  0  0  0  0  0  0  0  0
  149.5863  132.4848  155.4243 H   0  0  0  0  0  0  0  0  0  0  0  0
  149.1509  133.5533  153.1978 H   0  0  0  0  0  0  0  0  0  0  0  0
  147.7702  132.5577  152.9467 H   0  0  0  0  0  0  0  0  0  0  0  0
  146.5496  132.5579  155.6324 H   0  0  0  0  0  0  0  0  0  0  0  0
  145.5161  133.0860  154.3174 H   0  0  0  0  0  0  0  0  0  0  0  0
  145.6990  134.0747  155.7614 H   0  0  0  0  0  0  0  0  0  0  0  0
  148.9968  134.1979  155.9592 H   0  0  0  0  0  0  0  0  0  0  0  0
  148.8129  135.7147  155.1062 H   0  0  0  0  0  0  0  0  0  0  0  0
  146.5740  135.8427  156.3723 H   0  0  0  0  0  0  0  0  0  0  0  0
  146.7121  136.8899  158.7908 H   0  0  0  0  0  0  0  0  0  0  0  0
  145.6973  135.4965  158.6133 H   0  0  0  0  0  0  0  0  0  0  0  0
  145.3542  134.0732  160.2227 H   0  0  0  0  0  0  0  0  0  0  0  0
  145.6028  133.3128  162.5729 H   0  0  0  0  0  0  0  0  0  0  0  0
  147.4483  134.3472  163.9697 H   0  0  0  0  0  0  0  0  0  0  0  0
  148.8991  136.0249  163.0167 H   0  0  0  0  0  0  0  0  0  0  0  0
  146.7474  133.7867  151.7380 H   0  0  0  0  0  0  0  0  0  0  0  0
  145.2507  134.1762  152.5653 H   0  0  0  0  0  0  0  0  0  0  0  0
  146.8754  136.0254  150.7293 H   0  0  0  0  0  0  0  0  0  0  0  0
  145.3382  135.2717  150.3550 H   0  0  0  0  0  0  0  0  0  0  0  0
  146.9331  137.7616  152.4121 H   0  0  0  0  0  0  0  0  0  0  0  0
  145.4293  138.2202  153.1888 H   0  0  0  0  0  0  0  0  0  0  0  0
  145.2765  136.0444  154.3377 H   0  0  0  0  0  0  0  0  0  0  0  0
  146.7989  136.8314  154.7075 H   0  0  0  0  0  0  0  0  0  0  0  0
  147.8073  135.5221  152.9746 H   0  0  0  0  0  0  0  0  0  0  0  0
  1  2  1  0  0  0  0
  1 23  1  0  0  0  0
  1 24  1  0  0  0  0
  1 25  1  0  0  0  0
  2  3  1  0  0  0  0
  2 26  1  0  0  0  0
  2 27  1  0  0  0  0
  3  4  1  0  0  0  0
  3  5  1  0  0  0  0
  3 17  1  0  0  0  0
  4 28  1  0  0  0  0
  4 29  1  0  0  0  0
  4 30  1  0  0  0  0
  5  6  1  0  0  0  0
  5 31  1  0  0  0  0
  5 32  1  0  0  0  0
  6  7  1  0  0  0  0
  6 33  1  0  0  0  0
  7  8  2  0  0  0  0
  7  9  1  0  0  0  0
  9 10  1  0  0  0  0
  9 34  1  0  0  0  0
  9 35  1  0  0  0  0
 10 15  1  0  0  0  0
 10 11  1  0  0  0  0
 11 12  2  0  0  0  0
 11 36  1  0  0  0  0
 12 13  1  0  0  0  0
 12 37  1  0  0  0  0
 13 14  2  0  0  0  0
 13 38  1  0  0  0  0
 14 15  1  0  0  0  0
 14 39  1  0  0  0  0
 15 16  2  0  0  0  0
 17 22  1  0  0  0  0
 17 18  1  0  0  0  0
 17 48  1  0  0  0  0
 18 19  1  0  0  0  0
 18 40  1  0  0  0  0
 18 41  1  0  0  0  0
 19 20  1  0  0  0  0
 19 42  1  0  0  0  0
 19 43  1  0  0  0  0
 20 21  1  0  0  0  0
 21 22  1  0  0  0  0
 21 44  1  0  0  0  0
 21 45  1  0  0  0  0
 22 46  1  0  0  0  0
 22 47  1  0  0  0  0
M  CHG  1  17   1
M  END
> <s_m_source_file>
AV-unprocessed.smi

> <i_m_source_file_index>
1304

> <i_lp_mmshare_version>
43012

> <i_f3d_flags>
0

> <s_epik_input>
W0NIMl0xW0NIMl1PW0NIMl1bQ0gyXU4xW0NAQF0oW0NIM10pKFtDSDJdW0NIM10pW0NIMl1bTkhdQyg9TylbQ0gyXW4yW2NIXVtjSF1bY0hdW2NIXWMyPU8=

> <s_epik_cmdline>
J2VwaWtfcHl0aG9uJywgJy1waCcsICc3LjAnLCAnLXRuJywgJzgnLCAnLW1hJywgJzIwMCcsICctbWV0YWxfYmluZGluZycsICctaW1hZScsICc8aW5maWxlLm1hZT4nLCAnLW9tYWUnLCAnPG91dGZpbGUubWFlPic=

> <r_lp_tautomer_probability>
1

> <r_epik_Ionization_Penalty>
0.519658

> <r_epik_Ionization_Penalty_Charging>
0.519658

> <r_epik_Ionization_Penalty_Neutral>
8.70177e-08

> <r_epik_State_Penalty>
0.527569

> <r_epik_Charging_Adjusted_Penalty>
1.04723

> <i_epik_Tot_Q>
1

> <i_epik_Tot_abs_Q>
1

> <r_epik_Metal_State_Penalty>
0.527613

> <b_epik_Metal_Only>
0

> <s_lp_Force_Field>
OPLS_2005

> <r_lp_Energy>
38.623

> <b_lp_Chiralities_Consistent>
1

> <s_lp_Variant>
AV-unprocessed.smi:1304-3

> <Gold.Version>
5.8.1

> <Gold.Id.Protein>
6NUR|6NUR_protein|mol2

> <Gold.PLP.Fitness>
45.9094

> <Gold.PLP.PLP>
-34.2804

> <Gold.PLP.part.hbond>
-4.0000

> <Gold.PLP.part.metal>
0.0000

> <Gold.PLP.part.buried>
-3.6978

> <Gold.PLP.part.nonpolar>
-27.1972

> <Gold.PLP.part.repulsive>
0.1417

> <Gold.PLP.ligand.clash>
0.0000

> <Gold.PLP.ligand.torsion>
0.9350

> <Gold.PLP.Chemscore.Hbond>
4.4433

> <Gold.PLP.Chemscore.CHOScore>
0.0000

> <Gold.PLP.Chemscore.Metal>
0.0000

> <Gold.Chemscore.Hbonds>
donor molecule, donor type, donor heavy atom, donor atom, acceptor molecule, acceptor atom, score
      L1  H    17    48       P1  7948  2.00
      P1  H  6896  6907       L1     8  0.49
      P1  H  6931  6943       L1    16  0.82

> <Gold.PLP.Chemscore.Internal.Correction>
0.1693

> <Gold.Rescore>
     Score         DG    S(hbond)    S(metal)    S(lipo)     H(rot)  DE(clash)    DE(int)     intcor
     19.32     -20.62       3.55        0.00      72.64       2.03       0.24       1.07       ----

> <Gold.Chemscore.Fitness>
19.3181

> <Gold.Chemscore.DG>
-20.6241

> <Gold.Chemscore.ZeroCoef>
-5.4800

> <Gold.Chemscore.Hbond>
3.5452

> <Gold.Chemscore.Metal>
0.0000

> <Gold.Chemscore.Lipo>
72.6437

> <Gold.Chemscore.Internal_Hbond>
0.0000

> <Gold.Chemscore.DEClash>
0.2405

> <Gold.Chemscore.DEInternal>
1.0655

> <Gold.Chemscore.Rot>
2.0298

> <Gold.Chemscore.Internal.Correction>
   9.000000E+99

> <Gold.Chemscore.Hbonds>
donor molecule, donor type, donor heavy atom, donor atom, acceptor molecule, acceptor atom, score
      L1  H    17    48       P1  7948  1.00
      P1  H  6896  6907       L1     8  0.48
      P1  H  6931  6943       L1    16  0.52

> <Gold.Chemscore.Hbond.Weighted>
-11.8410

> <Gold.Chemscore.Metal.Weighted>
-0.0000

> <Gold.Chemscore.Lipo.Weighted>
-8.4993

> <Gold.Chemscore.Internal_Hbond.Weighted>
0.0000

> <Gold.Chemscore.DEClash.Weighted>
0.2405

> <Gold.Chemscore.DEInternal.Weighted>
1.0655

> <Gold.Chemscore.Rot.Weighted>
5.1962

> <Gold.Chemscore.Internal.Correction.Weighted>
   9.000000E+99

> <Gold.Protein.RotatedTorsions>
[ 6907 6896 6895 6894 ] final  -96.76 input  -60.11 | X-H torsion
[ 7974 7965 7964 7962 ] final  119.96 input  175.53 | X-H torsion
[ 8008 7997 7996 7995 ] final  146.60 input   59.86 | X-H torsion
[ 10167 10162 10161 10158 ] final  -59.25 input  -65.29 | X-H torsion
[ 10718 10713 10712 10709 ] final -157.01 input   66.30 | X-H torsion
[ 10763 10752 10751 10750 ] final  172.98 input  -60.55 | X-H torsion
[ 11005 11000 10999 10996 ] final -154.08 input  -57.11 | X-H torsion

> <Gold.Protein.ActiveResidues>
 VAL166  LYS551  ARG553  GLY616  TRP617  ASP618  TYR619  PRO620  LYS621  CYS622 
 ASP623  PHE694  ASN695  SER759  ASP760  ASP761  ALA762  ILE779  LEU786  VAL792 
 PHE793  MET794  SER795  GLU796  ALA797  LYS798  CYS799  TRP800  GLU811  SER814 

> <Gold.Protein.RotatedAtoms>
  150.6997  134.1454  159.4120 H   0  0  0  0  0  0  0  0  0  0  0  0  # atno 6907 bound_to 6896
  151.9437  135.0199  160.0547 H   0  0  0  0  0  0  0  0  0  0  0  0  # atno 6908 bound_to 6896
  152.2071  133.4848  159.5126 H   0  0  0  0  0  0  0  0  0  0  0  0  # atno 6909 bound_to 6896
  145.1369  139.3292  143.4636 H   0  0  0  0  0  0  0  0  0  0  0  0  # atno 7974 bound_to 7965
  156.2850  140.2178  156.5402 H   0  0  0  0  0  0  0  0  0  0  0  0  # atno 8008 bound_to 7997
  154.7376  140.0490  157.0804 H   0  0  0  0  0  0  0  0  0  0  0  0  # atno 8009 bound_to 7997
  155.0273  140.3131  155.4774 H   0  0  0  0  0  0  0  0  0  0  0  0  # atno 8010 bound_to 7997
  140.6147  143.2398  151.5626 H   0  0  0  0  0  0  0  0  0  0  0  0  # atno 10167 bound_to 10162
  156.5344  130.8535  151.2727 H   0  0  0  0  0  0  0  0  0  0  0  0  # atno 10718 bound_to 10713
  154.4337  135.2760  155.1895 H   0  0  0  0  0  0  0  0  0  0  0  0  # atno 10763 bound_to 10752
  154.3791  135.6091  153.5784 H   0  0  0  0  0  0  0  0  0  0  0  0  # atno 10764 bound_to 10752
  152.9837  135.5876  154.4652 H   0  0  0  0  0  0  0  0  0  0  0  0  # atno 10765 bound_to 10752
  140.7012  134.3935  157.5209 H   0  0  0  0  0  0  0  0  0  0  0  0  # atno 11005 bound_to 11000
  146.3509  140.1391  142.8595 LP  0  0  0  0  0  0  0  0  0  0  0  0  # atno 17320 bound_to 7965
  145.0574  140.9063  143.4959 LP  0  0  0  0  0  0  0  0  0  0  0  0  # atno 17321 bound_to 7965
  139.5389  144.2703  152.1309 LP  0  0  0  0  0  0  0  0  0  0  0  0  # atno 17342 bound_to 10162
  140.1910  144.4752  150.6479 LP  0  0  0  0  0  0  0  0  0  0  0  0  # atno 17343 bound_to 10162
  157.7416  130.9873  150.2458 LP  0  0  0  0  0  0  0  0  0  0  0  0  # atno 17370 bound_to 10713
  156.3030  130.3761  149.7733 LP  0  0  0  0  0  0  0  0  0  0  0  0  # atno 17371 bound_to 10713
  139.8896  134.8825  156.2411 LP  0  0  0  0  0  0  0  0  0  0  0  0  # atno 17394 bound_to 11000
  141.0162  133.7067  156.1192 LP  0  0  0  0  0  0  0  0  0  0  0  0  # atno 17395 bound_to 11000

$$$$
