AV-unprocessed.smi:2099|AV-procd|sdf|8572|dock7
  -GOLD-   2272011303D 1   1.00000     0.00000
 Structure written by MMmdl.
 31 32  0  0  0  0  0  0  0  0  2 V2000
  153.5324  141.9397  159.5816 C   0  0  0  0  0  0  0  0  0  0  0  0
  152.8865  143.3324  159.5767 C   0  0  2  0  0  0  0  0  0  0  0  0
  152.3917  143.7275  160.9812 C   0  0  0  0  0  0  0  0  0  0  0  0
  151.7377  145.1203  160.9807 C   0  0  0  0  0  0  0  0  0  0  0  0
  150.5884  145.2240  159.9552 C   0  0  2  0  0  0  0  0  0  0  0  0
  149.4379  144.4125  160.3525 N   0  0  0  0  0  0  0  0  0  0  0  0
  148.2339  144.8682  160.7269 C   0  0  0  0  0  0  0  0  0  0  0  0
  148.0140  146.0814  160.7513 O   0  0  0  0  0  0  0  0  0  0  0  0
  147.3607  143.8889  161.0556 N   0  5  0  0  0  0  0  0  0  0  0  0
  146.0593  144.0194  160.7505 C   0  0  0  0  0  0  0  0  0  0  0  0
  145.6159  144.9227  159.8613 N   0  0  0  0  0  0  0  0  0  0  0  0
  144.2389  144.8867  159.6871 N   0  0  0  0  0  0  0  0  0  0  0  0
  143.6776  143.9469  160.4475 C   0  0  0  0  0  0  0  0  0  0  0  0
  144.7792  143.0192  161.4431 S   0  0  0  0  0  0  0  0  0  0  0  0
  151.0736  144.8057  158.5535 C   0  0  0  0  0  0  0  0  0  0  0  0
  151.7352  143.4153  158.5561 C   0  0  0  0  0  0  0  0  0  0  0  0
  152.8146  141.1715  159.8716 H   0  0  0  0  0  0  0  0  0  0  0  0
  154.3677  141.8966  160.2811 H   0  0  0  0  0  0  0  0  0  0  0  0
  153.9162  141.6812  158.5943 H   0  0  0  0  0  0  0  0  0  0  0  0
  153.6529  144.0488  159.2774 H   0  0  0  0  0  0  0  0  0  0  0  0
  151.6763  142.9879  161.3438 H   0  0  0  0  0  0  0  0  0  0  0  0
  153.2240  143.7183  161.6856 H   0  0  0  0  0  0  0  0  0  0  0  0
  151.3823  145.3646  161.9821 H   0  0  0  0  0  0  0  0  0  0  0  0
  152.4952  145.8677  160.7419 H   0  0  0  0  0  0  0  0  0  0  0  0
  150.2623  146.2640  159.8990 H   0  0  0  0  0  0  0  0  0  0  0  0
  149.5683  143.4116  160.3474 H   0  0  0  0  0  0  0  0  0  0  0  0
  142.6086  143.7966  160.4195 H   0  0  0  0  0  0  0  0  0  0  0  0
  150.2433  144.8229  157.8464 H   0  0  0  0  0  0  0  0  0  0  0  0
  151.7937  145.5407  158.1915 H   0  0  0  0  0  0  0  0  0  0  0  0
  152.1077  143.1893  157.5565 H   0  0  0  0  0  0  0  0  0  0  0  0
  150.9869  142.6544  158.7814 H   0  0  0  0  0  0  0  0  0  0  0  0
  1  2  1  0  0  0  0
  1 17  1  0  0  0  0
  1 18  1  0  0  0  0
  1 19  1  0  0  0  0
  2 16  1  0  0  0  0
  2  3  1  0  0  0  0
  2 20  1  0  0  0  0
  3  4  1  0  0  0  0
  3 21  1  0  0  0  0
  3 22  1  0  0  0  0
  4  5  1  0  0  0  0
  4 23  1  0  0  0  0
  4 24  1  0  0  0  0
  5  6  1  0  0  0  0
  5 15  1  0  0  0  0
  5 25  1  0  0  0  0
  6  7  1  0  0  0  0
  6 26  1  0  0  0  0
  7  8  2  0  0  0  0
  7  9  1  0  0  0  0
  9 10  1  0  0  0  0
 10 14  1  0  0  0  0
 10 11  2  0  0  0  0
 11 12  1  0  0  0  0
 12 13  2  0  0  0  0
 13 14  1  0  0  0  0
 13 27  1  0  0  0  0
 15 16  1  0  0  0  0
 15 28  1  0  0  0  0
 15 29  1  0  0  0  0
 16 30  1  0  0  0  0
 16 31  1  0  0  0  0
M  CHG  1   9  -1
M  END
> <s_m_source_file>
AV-unprocessed.smi

> <i_m_source_file_index>
2099

> <i_lp_mmshare_version>
43012

> <i_f3d_flags>
0

> <s_epik_input>
W0NIM11bQ0BASF0xW0NIMl1bQ0gyXVtDQEhdKFtDSDJdW0NIMl0xKVtOSF1DKD1PKVtOSF1jMm5uW2NIXXMy

> <s_epik_cmdline>
J2VwaWtfcHl0aG9uJywgJy1waCcsICc3LjAnLCAnLXRuJywgJzgnLCAnLW1hJywgJzIwMCcsICctbWV0YWxfYmluZGluZycsICctaW1hZScsICc8aW5maWxlLm1hZT4nLCAnLW9tYWUnLCAnPG91dGZpbGUubWFlPic=

> <r_lp_tautomer_probability>
1

> <r_epik_Ionization_Penalty>
4.54895

> <r_epik_Ionization_Penalty_Charging>
4.4996

> <r_epik_Ionization_Penalty_Neutral>
0.0493438

> <r_epik_State_Penalty>
4.4993

> <r_epik_Charging_Adjusted_Penalty>
8.99891

> <i_epik_Tot_Q>
-1

> <i_epik_Tot_abs_Q>
1

> <r_epik_Metal_State_Penalty>
0.819079

> <b_epik_Metal_Only>
1

> <s_lp_Force_Field>
OPLS_2005

> <r_lp_Energy>
5.8403

> <b_lp_Chiralities_Consistent>
1

> <s_lp_Variant>
AV-unprocessed.smi:2099-4

> <Gold.Version>
5.8.1

> <Gold.Id.Protein>
6NUR|6NUR_protein|mol2

> <Gold.PLP.Fitness>
42.6133

> <Gold.PLP.PLP>
-37.3133

> <Gold.PLP.part.hbond>
-3.0000

> <Gold.PLP.part.metal>
0.0000

> <Gold.PLP.part.buried>
-5.7746

> <Gold.PLP.part.nonpolar>
-29.8360

> <Gold.PLP.part.repulsive>
0.8078

> <Gold.PLP.ligand.clash>
0.0000

> <Gold.PLP.ligand.torsion>
0.3536

> <Gold.PLP.Chemscore.Hbond>
2.0000

> <Gold.PLP.Chemscore.CHOScore>
0.0000

> <Gold.PLP.Chemscore.Metal>
0.0000

> <Gold.Chemscore.Hbonds>
donor molecule, donor type, donor heavy atom, donor atom, acceptor molecule, acceptor atom, score
      P1  H  6933  6944       L1     9  2.00

> <Gold.PLP.Chemscore.Internal.Correction>
0.0072

> <Gold.Rescore>
     Score         DG    S(hbond)    S(metal)    S(lipo)     H(rot)  DE(clash)    DE(int)     intcor
     13.45     -16.76       0.88        0.00      93.11       1.00       1.56       1.75       ----

> <Gold.Chemscore.Fitness>
13.4455

> <Gold.Chemscore.DG>
-16.7583

> <Gold.Chemscore.ZeroCoef>
-5.4800

> <Gold.Chemscore.Hbond>
0.8816

> <Gold.Chemscore.Metal>
0.0000

> <Gold.Chemscore.Lipo>
93.1087

> <Gold.Chemscore.Internal_Hbond>
0.0000

> <Gold.Chemscore.DEClash>
1.5602

> <Gold.Chemscore.DEInternal>
1.7526

> <Gold.Chemscore.Rot>
1.0000

> <Gold.Chemscore.Internal.Correction>
   9.000000E+99

> <Gold.Chemscore.Hbonds>
donor molecule, donor type, donor heavy atom, donor atom, acceptor molecule, acceptor atom, score
      P1  H  6933  6944       L1     9  0.44

> <Gold.Chemscore.Hbond.Weighted>
-2.9446

> <Gold.Chemscore.Metal.Weighted>
-0.0000

> <Gold.Chemscore.Lipo.Weighted>
-10.8937

> <Gold.Chemscore.Internal_Hbond.Weighted>
0.0000

> <Gold.Chemscore.DEClash.Weighted>
1.5602

> <Gold.Chemscore.DEInternal.Weighted>
1.7526

> <Gold.Chemscore.Rot.Weighted>
2.5600

> <Gold.Chemscore.Internal.Correction.Weighted>
   9.000000E+99

> <Gold.Protein.RotatedTorsions>
[ 6907 6896 6895 6894 ] final   53.84 input  -60.11 | X-H torsion
[ 7974 7965 7964 7962 ] final  -10.56 input  175.53 | X-H torsion
[ 8008 7997 7996 7995 ] final  -18.18 input   59.86 | X-H torsion
[ 10167 10162 10161 10158 ] final  176.25 input  -65.29 | X-H torsion
[ 10718 10713 10712 10709 ] final -142.99 input   66.30 | X-H torsion
[ 10763 10752 10751 10750 ] final   95.29 input  -60.55 | X-H torsion
[ 11005 11000 10999 10996 ] final   15.67 input  -57.11 | X-H torsion

> <Gold.Protein.ActiveResidues>
 VAL166  LYS551  ARG553  GLY616  TRP617  ASP618  TYR619  PRO620  LYS621  CYS622 
 ASP623  PHE694  ASN695  SER759  ASP760  ASP761  ALA762  ILE779  LEU786  VAL792 
 PHE793  MET794  SER795  GLU796  ALA797  LYS798  CYS799  TRP800  GLU811  SER814 

> <Gold.Protein.RotatedAtoms>
  152.3378  134.7174  160.0271 H   0  0  0  0  0  0  0  0  0  0  0  0  # atno 6907 bound_to 6896
  151.7569  133.3325  159.3415 H   0  0  0  0  0  0  0  0  0  0  0  0  # atno 6908 bound_to 6896
  150.7461  134.6073  159.6112 H   0  0  0  0  0  0  0  0  0  0  0  0  # atno 6909 bound_to 6896
  146.2217  140.2782  142.8360 H   0  0  0  0  0  0  0  0  0  0  0  0  # atno 7974 bound_to 7965
  154.4925  140.2123  155.9518 H   0  0  0  0  0  0  0  0  0  0  0  0  # atno 8008 bound_to 7997
  156.1324  140.3194  155.8338 H   0  0  0  0  0  0  0  0  0  0  0  0  # atno 8009 bound_to 7997
  155.4271  140.0501  157.3012 H   0  0  0  0  0  0  0  0  0  0  0  0  # atno 8010 bound_to 7997
  139.5207  144.2937  152.0441 H   0  0  0  0  0  0  0  0  0  0  0  0  # atno 10167 bound_to 10162
  156.3525  130.7696  151.1851 H   0  0  0  0  0  0  0  0  0  0  0  0  # atno 10718 bound_to 10713
  153.2515  135.4259  155.0802 H   0  0  0  0  0  0  0  0  0  0  0  0  # atno 10763 bound_to 10752
  154.8383  135.3427  154.6507 H   0  0  0  0  0  0  0  0  0  0  0  0  # atno 10764 bound_to 10752
  153.6928  135.7033  153.5142 H   0  0  0  0  0  0  0  0  0  0  0  0  # atno 10765 bound_to 10752
  140.4557  134.1179  155.7709 H   0  0  0  0  0  0  0  0  0  0  0  0  # atno 11005 bound_to 11000
  144.9217  140.7875  143.5744 LP  0  0  0  0  0  0  0  0  0  0  0  0  # atno 17320 bound_to 7965
  145.2719  139.1951  143.4837 LP  0  0  0  0  0  0  0  0  0  0  0  0  # atno 17321 bound_to 7965
  140.2387  144.4292  150.6269 LP  0  0  0  0  0  0  0  0  0  0  0  0  # atno 17342 bound_to 10162
  140.6306  143.2187  151.6504 LP  0  0  0  0  0  0  0  0  0  0  0  0  # atno 17343 bound_to 10162
  157.7463  131.0423  150.4689 LP  0  0  0  0  0  0  0  0  0  0  0  0  # atno 17370 bound_to 10713
  156.4887  130.4090  149.6419 LP  0  0  0  0  0  0  0  0  0  0  0  0  # atno 17371 bound_to 10713
  141.1644  133.8731  157.1757 LP  0  0  0  0  0  0  0  0  0  0  0  0  # atno 17394 bound_to 11000
  139.9978  135.0040  157.0121 LP  0  0  0  0  0  0  0  0  0  0  0  0  # atno 17395 bound_to 11000

$$$$
