#       Name:                AV-unprocessed.smi:646
#       Creating user name   scv26
#       Creation time:       Fri Mar 27 00:09:07 2020


#       File generated by GOLD software.
#

@<TRIPOS>MOLECULE
AV-unprocessed.smi:646
    51    52     1
SMALL
NO_CHARGES


@<TRIPOS>ATOM
      1 ****        -3.5872  -2.0163  -1.8260 C.3            1 S1                 0.0000
      2 ****        -2.9349  -1.5214  -0.6637 O.3            1 S1                 0.0000
      3 ****        -2.6349  -0.1250  -0.6512 C.3            1 S1                 0.0000
      4 ****        -3.9359   0.6915  -0.6044 C.3            1 S1                 0.0000
      5 ****        -1.5828   0.2556  -1.7092 C.3            1 S1                 0.0000
      6 ****        -0.9343   1.1157  -0.6266 C.3            1 S1                 0.0000
      7 ****         0.5214   1.1059  -0.6992 N.am           1 S1                 0.0000
      8 ****         1.3263   1.8214   0.1001 C.2            1 S1                 0.0000
      9 ****         0.9136   2.6277   0.9332 O.2            1 S1                 0.0000
     10 ****         2.8266   1.5686  -0.0452 C.3            1 S1                 0.0000
     11 ****         3.1486   0.1724   0.4249 C.2            1 S1                 0.0000
     12 ****         3.2377  -0.3024   1.7651 C.2            1 S1                 0.0000
     13 ****         3.0372   0.4630   3.0414 C.3            1 S1                 0.0000
     14 ****         3.5220  -1.5930   1.8142 N.2            1 S1                 0.0000
     15 ****         3.6330  -2.0116   0.4848 O.3            1 S1                 0.0000
     16 ****         3.4049  -0.9444  -0.3220 C.2            1 S1                 0.0000
     17 ****         3.4701  -1.1907  -1.7911 C.3            1 S1                 0.0000
     18 ****        -1.5335   0.1460   0.4248 C.3            1 S1                 0.0000
     19 ****        -1.9936   0.7855   1.7385 C.3            1 S1                 0.0000
     20 ****        -0.6653  -1.0644   0.8286 C.3            1 S1                 0.0000
     21 ****        -3.6693  -3.1005  -1.7529 H              1 S1                 0.0000
     22 ****        -3.0309  -1.7892  -2.7355 H              1 S1                 0.0000
     23 ****        -4.5982  -1.6223  -1.9245 H              1 S1                 0.0000
     24 ****        -3.7433   1.7540  -0.4567 H              1 S1                 0.0000
     25 ****        -4.5819   0.3610   0.2091 H              1 S1                 0.0000
     26 ****        -4.5015   0.6093  -1.5319 H              1 S1                 0.0000
     27 ****        -0.9633  -0.5826  -2.0340 H              1 S1                 0.0000
     28 ****        -1.9717   0.8166  -2.5593 H              1 S1                 0.0000
     29 ****        -1.3700   2.1167  -0.5862 H              1 S1                 0.0000
     30 ****         0.9452   0.4664  -1.3555 H              1 S1                 0.0000
     31 ****         3.1108   1.7194  -1.0870 H              1 S1                 0.0000
     32 ****         3.3751   2.3152   0.5303 H              1 S1                 0.0000
     33 ****         3.5168   1.4405   2.9901 H              1 S1                 0.0000
     34 ****         3.4561  -0.0651   3.8987 H              1 S1                 0.0000
     35 ****         1.9763   0.6243   3.2340 H              1 S1                 0.0000
     36 ****         2.7793  -0.5388  -2.3260 H              1 S1                 0.0000
     37 ****         3.2078  -2.2225  -2.0266 H              1 S1                 0.0000
     38 ****         4.4753  -1.0016  -2.1681 H              1 S1                 0.0000
     39 ****        -1.1503   1.0087   2.3931 H              1 S1                 0.0000
     40 ****        -2.6705   0.1281   2.2850 H              1 S1                 0.0000
     41 ****        -2.5171   1.7268   1.5734 H              1 S1                 0.0000
     42 ****         0.1898  -0.7638   1.4348 H              1 S1                 0.0000
     43 ****        -0.2695  -1.5984  -0.0353 H              1 S1                 0.0000
     44 ****        -1.2358  -1.7855   1.4148 H              1 S1                 0.0000
     45 ****        -2.0732  -2.0189  -0.5631 LP             1 S1                 0.0000
     46 ****        -3.5241  -1.7133   0.1211 LP             1 S1                 0.0000
     47 ****        -0.0693   2.7767   1.0406 LP             1 S1                 0.0000
     48 ****         1.5613   3.1339   1.5027 LP             1 S1                 0.0000
     49 ****         3.6346  -2.1544   2.6340 LP             1 S1                 0.0000
     50 ****         2.9585  -2.7259   0.2984 LP             1 S1                 0.0000
     51 ****         4.5520  -2.3696   0.3192 LP             1 S1                 0.0000
@<TRIPOS>BOND
    1    1    2 1     
    2    1   21 1     
    3    1   22 1     
    4    1   23 1     
    5    2    3 1     
    6    3   18 1     
    7    3    4 1     
    8    3    5 1     
    9    4   24 1     
   10    4   25 1     
   11    4   26 1     
   12    5    6 1     
   13    5   27 1     
   14    5   28 1     
   15    6    7 1     
   16    6   18 1     
   17    6   29 1     
   18    7    8 am    
   19    7   30 1     
   20    8    9 2     
   21    8   10 1     
   22   10   11 1     
   23   10   31 1     
   24   10   32 1     
   25   11   16 2     
   26   11   12 1     
   27   12   13 1     
   28   12   14 2     
   29   13   33 1     
   30   13   34 1     
   31   13   35 1     
   32   14   15 1     
   33   15   16 1     
   34   16   17 1     
   35   17   36 1     
   36   17   37 1     
   37   17   38 1     
   38   18   19 1     
   39   18   20 1     
   40   19   39 1     
   41   19   40 1     
   42   19   41 1     
   43   20   42 1     
   44   20   43 1     
   45   20   44 1     
   46    2   45 1     
   47    2   46 1     
   48    9   47 1     
   49    9   48 1     
   50   14   49 1     
   51   15   50 1     
   52   15   51 1     
@<TRIPOS>SUBSTRUCTURE
      1 S1             1
@<TRIPOS>SET
LONE_PAIRS      STATIC     ATOMS    <user>   **** ""
7 45 46 47 48 49 50 51
DONOR_HYDROGENS      STATIC     ATOMS    <user>   **** ""
1 30
ATOM$BLUE        STATIC     ATOMS    COLORGROUP SYSTEM
7 45 46 47 48 49 50 51
ATOM$RED        STATIC     ATOMS    COLORGROUP SYSTEM
1 30
