#       Name:                AV-unprocessed.smi:2713
#       Creating user name   scv26
#       Creation time:       Fri Mar 27 14:52:02 2020


#       File generated by GOLD software.
#

@<TRIPOS>MOLECULE
AV-unprocessed.smi:2713
    57    58     1
SMALL
NO_CHARGES


@<TRIPOS>ATOM
      1 ****        -4.2285   1.9917   2.4390 C.3            1 S1                 0.0000
      2 ****        -3.2553   2.1572   1.2509 C.3            1 S1                 0.0000
      3 ****        -3.4305   3.5987   0.7273 C.3            1 S1                 0.0000
      4 ****        -1.8037   2.0189   1.7509 C.3            1 S1                 0.0000
      5 ****        -3.6039   1.1927   0.0687 C.3            1 S1                 0.0000
      6 ****        -3.2089  -0.3214   0.0827 C.3            1 S1                 0.0000
      7 ****        -3.7220  -1.0509   1.3382 C.3            1 S1                 0.0000
      8 ****        -3.8784  -1.0027  -1.1321 C.3            1 S1                 0.0000
      9 ****        -1.7357  -0.5272   0.0182 N.4            1 S1                 1.0000
     10 ****        -1.0042  -0.0130  -1.1632 C.3            1 S1                 0.0000
     11 ****         0.4677  -0.3531  -1.0557 C.ar           1 S1                 0.0000
     12 ****         1.0033  -1.5288  -1.6186 C.ar           1 S1                 0.0000
     13 ****         2.3147  -1.8292  -1.5147 N.ar           1 S1                 0.0000
     14 ****         3.1063  -0.9705  -0.8564 C.ar           1 S1                 0.0000
     15 ****         4.4660  -1.2899  -0.7505 N.pl3          1 S1                 0.0000
     16 ****         5.3455  -0.6199   0.2110 C.3            1 S1                 0.0000
     17 ****         6.7848  -0.5400  -0.3251 C.3            1 S1                 0.0000
     18 ****         7.2445  -1.8413  -0.6675 O.3            1 S1                 0.0000
     19 ****         6.4524  -2.4199  -1.6970 C.3            1 S1                 0.0000
     20 ****         5.0007  -2.5736  -1.2127 C.3            1 S1                 0.0000
     21 ****         2.6905   0.1717  -0.2911 N.ar           1 S1                 0.0000
     22 ****         1.3821   0.4866  -0.3888 C.ar           1 S1                 0.0000
     23 ****        -4.0863   2.7853   3.1736 H              1 S1                 0.0000
     24 ****        -4.0923   1.0564   2.9755 H              1 S1                 0.0000
     25 ****        -5.2684   2.0384   2.1142 H              1 S1                 0.0000
     26 ****        -4.4450   3.7701   0.3648 H              1 S1                 0.0000
     27 ****        -2.7484   3.8129  -0.0965 H              1 S1                 0.0000
     28 ****        -3.2350   4.3371   1.5062 H              1 S1                 0.0000
     29 ****        -1.5779   2.7692   2.5096 H              1 S1                 0.0000
     30 ****        -1.0874   2.1572   0.9415 H              1 S1                 0.0000
     31 ****        -1.6175   1.0477   2.2077 H              1 S1                 0.0000
     32 ****        -4.6848   1.2465  -0.0707 H              1 S1                 0.0000
     33 ****        -3.2127   1.6259  -0.8516 H              1 S1                 0.0000
     34 ****        -4.7797  -0.8519   1.5140 H              1 S1                 0.0000
     35 ****        -3.1669  -0.7668   2.2308 H              1 S1                 0.0000
     36 ****        -3.6079  -2.1313   1.2396 H              1 S1                 0.0000
     37 ****        -4.9648  -1.0033  -1.0336 H              1 S1                 0.0000
     38 ****        -3.5621  -2.0417  -1.2352 H              1 S1                 0.0000
     39 ****        -3.6506  -0.4933  -2.0686 H              1 S1                 0.0000
     40 ****        -1.3332  -0.0986   0.8396 H              1 S1                 0.0000
     41 ****        -1.3936  -0.4477  -2.0833 H              1 S1                 0.0000
     42 ****        -1.1054   1.0685  -1.2455 H              1 S1                 0.0000
     43 ****         0.3795  -2.2333  -2.1486 H              1 S1                 0.0000
     44 ****         5.0115   0.3911   0.4421 H              1 S1                 0.0000
     45 ****         5.3263  -1.1794   1.1468 H              1 S1                 0.0000
     46 ****         6.8410   0.1191  -1.1929 H              1 S1                 0.0000
     47 ****         7.4441  -0.1204   0.4349 H              1 S1                 0.0000
     48 ****         6.4997  -1.8052  -2.5975 H              1 S1                 0.0000
     49 ****         6.8659  -3.3946  -1.9561 H              1 S1                 0.0000
     50 ****         4.9535  -3.2888  -0.3908 H              1 S1                 0.0000
     51 ****         4.4128  -2.9908  -2.0300 H              1 S1                 0.0000
     52 ****         1.0652   1.4097   0.0735 H              1 S1                 0.0000
     53 ****        -1.5672  -1.5217   0.0713 H              1 S1                 0.0000
     54 ****         2.6848  -2.6668  -1.9165 LP             1 S1                 0.0000
     55 ****         7.2006  -2.4252   0.1432 LP             1 S1                 0.0000
     56 ****         8.1916  -1.7790  -0.9824 LP             1 S1                 0.0000
     57 ****         3.3305   0.7720   0.1884 LP             1 S1                 0.0000
@<TRIPOS>BOND
    1    1    2 1     
    2    1   23 1     
    3    1   24 1     
    4    1   25 1     
    5    2    3 1     
    6    2    4 1     
    7    2    5 1     
    8    3   26 1     
    9    3   27 1     
   10    3   28 1     
   11    4   29 1     
   12    4   30 1     
   13    4   31 1     
   14    5    6 1     
   15    5   32 1     
   16    5   33 1     
   17    6    7 1     
   18    6    8 1     
   19    6    9 1     
   20    7   34 1     
   21    7   35 1     
   22    7   36 1     
   23    8   37 1     
   24    8   38 1     
   25    8   39 1     
   26    9   10 1     
   27    9   40 1     
   28    9   53 1     
   29   10   11 1     
   30   10   41 1     
   31   10   42 1     
   32   11   22 ar    
   33   11   12 ar    
   34   12   13 ar    
   35   12   43 1     
   36   13   14 ar    
   37   14   15 1     
   38   14   21 ar    
   39   15   20 1     
   40   15   16 1     
   41   16   17 1     
   42   16   44 1     
   43   16   45 1     
   44   17   18 1     
   45   17   46 1     
   46   17   47 1     
   47   18   19 1     
   48   19   20 1     
   49   19   48 1     
   50   19   49 1     
   51   20   50 1     
   52   20   51 1     
   53   21   22 ar    
   54   22   52 1     
   55   13   54 1     
   56   18   55 1     
   57   18   56 1     
   58   21   57 1     
@<TRIPOS>SUBSTRUCTURE
      1 S1             1
@<TRIPOS>SET
LONE_PAIRS      STATIC     ATOMS    <user>   **** ""
4 54 55 56 57
DONOR_HYDROGENS      STATIC     ATOMS    <user>   **** ""
2 40 53
ATOM$BLUE        STATIC     ATOMS    COLORGROUP SYSTEM
4 54 55 56 57
ATOM$RED        STATIC     ATOMS    COLORGROUP SYSTEM
2 40 53
