AV-unprocessed.smi:1443|AV-procd|sdf|5879|dock2
  -GOLD-   22720 5553D 1   1.00000     0.00000
 Structure written by MMmdl.
 27 28  0  0  0  0  0  0  0  0  1 V2000
  141.2195  144.3667  161.1679 C   0  0  0  0  0  0  0  0  0  0  0  0
  142.2582  145.8425  161.0010 S   0  0  0  0  0  0  0  0  0  0  0  0
  143.9192  145.3086  161.2619 C   0  0  0  0  0  0  0  0  0  0  0  0
  144.2443  144.6235  162.3730 N   0  0  0  0  0  0  0  0  0  0  0  0
  145.8966  144.2736  162.3265 S   0  0  0  0  0  0  0  0  0  0  0  0
  146.0563  145.0849  160.7969 C   0  0  0  0  0  0  0  0  0  0  0  0
  147.3062  145.1906  160.1210 N   0  0  0  0  0  0  0  0  0  0  0  0
  148.5734  145.0282  160.5577 C   0  0  0  0  0  0  0  0  0  0  0  0
  148.8058  144.7361  161.7295 O   0  0  0  0  0  0  0  0  0  0  0  0
  149.5416  145.2036  159.6451 N   0  0  0  0  0  0  0  0  0  0  0  0
  150.9452  145.1103  159.8876 C   0  0  2  0  0  0  0  0  0  0  0  0
  151.8643  145.3210  158.7038 C   0  0  0  0  0  0  0  0  0  0  0  0
  151.7189  143.9453  159.2978 C   0  0  2  0  0  0  0  0  0  0  0  0
  151.0365  142.8355  158.5231 C   0  0  0  0  0  0  0  0  0  0  0  0
  144.8921  145.5772  160.3719 N   0  0  0  0  0  0  0  0  0  0  0  0
  140.1781  144.6153  160.9646 H   0  0  0  0  0  0  0  0  0  0  0  0
  141.2875  143.9718  162.1810 H   0  0  0  0  0  0  0  0  0  0  0  0
  141.5340  143.5935  160.4669 H   0  0  0  0  0  0  0  0  0  0  0  0
  147.2292  145.3940  159.1350 H   0  0  0  0  0  0  0  0  0  0  0  0
  149.2588  145.4372  158.7039 H   0  0  0  0  0  0  0  0  0  0  0  0
  151.3090  145.4920  160.8406 H   0  0  0  0  0  0  0  0  0  0  0  0
  151.4070  145.5048  157.7331 H   0  0  0  0  0  0  0  0  0  0  0  0
  152.7991  145.8483  158.8828 H   0  0  0  0  0  0  0  0  0  0  0  0
  152.5584  143.5951  159.8956 H   0  0  0  0  0  0  0  0  0  0  0  0
  150.2412  143.2298  157.8915 H   0  0  0  0  0  0  0  0  0  0  0  0
  150.6050  142.1097  159.2123 H   0  0  0  0  0  0  0  0  0  0  0  0
  151.7600  142.3247  157.8876 H   0  0  0  0  0  0  0  0  0  0  0  0
  1  2  1  0  0  0  0
  1 16  1  0  0  0  0
  1 17  1  0  0  0  0
  1 18  1  0  0  0  0
  2  3  1  0  0  0  0
  3 15  1  0  0  0  0
  3  4  2  0  0  0  0
  4  5  1  0  0  0  0
  5  6  1  0  0  0  0
  6  7  1  0  0  0  0
  6 15  2  0  0  0  0
  7  8  1  0  0  0  0
  7 19  1  0  0  0  0
  8  9  2  0  0  0  0
  8 10  1  0  0  0  0
 10 11  1  0  0  0  0
 10 20  1  0  0  0  0
 11 13  1  0  0  0  0
 11 12  1  0  0  0  0
 11 21  1  0  0  0  0
 12 13  1  0  0  0  0
 12 22  1  0  0  0  0
 12 23  1  0  0  0  0
 13 14  1  0  0  0  0
 13 24  1  0  0  0  0
 14 25  1  0  0  0  0
 14 26  1  0  0  0  0
 14 27  1  0  0  0  0
M  END
> <s_m_source_file>
AV-unprocessed.smi

> <i_m_source_file_index>
1443

> <i_lp_mmshare_version>
43012

> <i_f3d_flags>
0

> <s_epik_input>
W0NIM11TYzFuc2MobjEpW05IXUMoPU8pW05IXVtDQEBIXTJbQ0gyXVtDQEhdMltDSDNd

> <s_epik_cmdline>
J2VwaWtfcHl0aG9uJywgJy1waCcsICc3LjAnLCAnLXRuJywgJzgnLCAnLW1hJywgJzIwMCcsICctbWV0YWxfYmluZGluZycsICctaW1hZScsICc8aW5maWxlLm1hZT4nLCAnLW9tYWUnLCAnPG91dGZpbGUubWFlPic=

> <r_lp_tautomer_probability>
1

> <r_epik_Ionization_Penalty>
2.74658e-05

> <r_epik_Ionization_Penalty_Charging>
0

> <r_epik_Ionization_Penalty_Neutral>
2.74658e-05

> <r_epik_State_Penalty>
-0

> <r_epik_Charging_Adjusted_Penalty>
0

> <i_epik_Tot_Q>
0

> <i_epik_Tot_abs_Q>
0

> <r_epik_Metal_State_Penalty>
-0

> <b_epik_Metal_Only>
0

> <s_lp_Force_Field>
OPLS_2005

> <r_lp_Energy>
21.2108

> <b_lp_Chiralities_Consistent>
1

> <s_lp_Variant>
AV-unprocessed.smi:1443-3

> <Gold.Version>
5.8.1

> <Gold.Id.Protein>
6NUR|6NUR_protein|mol2

> <Gold.PLP.Fitness>
35.9032

> <Gold.PLP.PLP>
-27.9224

> <Gold.PLP.part.hbond>
-3.0000

> <Gold.PLP.part.metal>
0.0000

> <Gold.PLP.part.buried>
-5.5255

> <Gold.PLP.part.nonpolar>
-20.3363

> <Gold.PLP.part.repulsive>
0.7707

> <Gold.PLP.ligand.clash>
0.0000

> <Gold.PLP.ligand.torsion>
0.1565

> <Gold.PLP.Chemscore.Hbond>
2.7520

> <Gold.PLP.Chemscore.CHOScore>
0.0000

> <Gold.PLP.Chemscore.Metal>
0.0000

> <Gold.Chemscore.Hbonds>
donor molecule, donor type, donor heavy atom, donor atom, acceptor molecule, acceptor atom, score
      L1  H     7    19       P1  8029  0.99
      L1  H    10    20       P1  8029  0.99
      P1  H  6933  6944       L1     9  0.07

> <Gold.PLP.Chemscore.Internal.Correction>
0.0377

> <Gold.Rescore>
     Score         DG    S(hbond)    S(metal)    S(lipo)     H(rot)  DE(clash)    DE(int)     intcor
     17.00     -18.22       2.73        0.00      58.61       1.27       0.01       1.21       ----

> <Gold.Chemscore.Fitness>
16.9962

> <Gold.Chemscore.DG>
-18.2158

> <Gold.Chemscore.ZeroCoef>
-5.4800

> <Gold.Chemscore.Hbond>
2.7334

> <Gold.Chemscore.Metal>
0.0000

> <Gold.Chemscore.Lipo>
58.6089

> <Gold.Chemscore.Internal_Hbond>
0.0000

> <Gold.Chemscore.DEClash>
0.0082

> <Gold.Chemscore.DEInternal>
1.2114

> <Gold.Chemscore.Rot>
1.2699

> <Gold.Chemscore.Internal.Correction>
   9.000000E+99

> <Gold.Chemscore.Hbonds>
donor molecule, donor type, donor heavy atom, donor atom, acceptor molecule, acceptor atom, score
      L1  H     7    19       P1  8029  0.91
      L1  H    10    20       P1  8029  0.88
      P1  H  6933  6944       L1     9  0.01

> <Gold.Chemscore.Hbond.Weighted>
-9.1295

> <Gold.Chemscore.Metal.Weighted>
-0.0000

> <Gold.Chemscore.Lipo.Weighted>
-6.8572

> <Gold.Chemscore.Internal_Hbond.Weighted>
0.0000

> <Gold.Chemscore.DEClash.Weighted>
0.0082

> <Gold.Chemscore.DEInternal.Weighted>
1.2114

> <Gold.Chemscore.Rot.Weighted>
3.2509

> <Gold.Chemscore.Internal.Correction.Weighted>
   9.000000E+99

> <Gold.Protein.RotatedTorsions>
[ 6907 6896 6895 6894 ] final  105.07 input  -60.11 | X-H torsion
[ 7974 7965 7964 7962 ] final -125.13 input  175.53 | X-H torsion
[ 8008 7997 7996 7995 ] final -106.85 input   59.86 | X-H torsion
[ 10167 10162 10161 10158 ] final  151.93 input  -65.29 | X-H torsion
[ 10718 10713 10712 10709 ] final  173.77 input   66.30 | X-H torsion
[ 10763 10752 10751 10750 ] final  -39.16 input  -60.55 | X-H torsion
[ 11005 11000 10999 10996 ] final  137.76 input  -57.11 | X-H torsion

> <Gold.Protein.ActiveResidues>
 VAL166  LYS551  ARG553  GLY616  TRP617  ASP618  TYR619  PRO620  LYS621  CYS622 
 ASP623  PHE694  ASN695  SER759  ASP760  ASP761  ALA762  ILE779  LEU786  VAL792 
 PHE793  MET794  SER795  GLU796  ALA797  LYS798  CYS799  TRP800  GLU811  SER814 

> <Gold.Protein.RotatedAtoms>
  152.5243  133.9583  159.7704 H   0  0  0  0  0  0  0  0  0  0  0  0  # atno 6907 bound_to 6896
  150.9879  133.6171  159.2719 H   0  0  0  0  0  0  0  0  0  0  0  0  # atno 6908 bound_to 6896
  151.3325  135.0851  159.9396 H   0  0  0  0  0  0  0  0  0  0  0  0  # atno 6909 bound_to 6896
  145.0008  140.7818  143.4497 H   0  0  0  0  0  0  0  0  0  0  0  0  # atno 7974 bound_to 7965
  154.9207  140.0407  157.1996 H   0  0  0  0  0  0  0  0  0  0  0  0  # atno 8008 bound_to 7997
  154.8257  140.2891  155.5735 H   0  0  0  0  0  0  0  0  0  0  0  0  # atno 8009 bound_to 7997
  156.2983  140.2510  156.3173 H   0  0  0  0  0  0  0  0  0  0  0  0  # atno 8010 bound_to 7997
  139.4836  144.5400  151.7581 H   0  0  0  0  0  0  0  0  0  0  0  0  # atno 10167 bound_to 10162
  156.9594  131.0056  151.2931 H   0  0  0  0  0  0  0  0  0  0  0  0  # atno 10718 bound_to 10713
  153.9248  135.6778  153.4747 H   0  0  0  0  0  0  0  0  0  0  0  0  # atno 10763 bound_to 10752
  153.1010  135.4828  154.8864 H   0  0  0  0  0  0  0  0  0  0  0  0  # atno 10764 bound_to 10752
  154.7459  135.3172  154.8602 H   0  0  0  0  0  0  0  0  0  0  0  0  # atno 10765 bound_to 10752
  140.0136  134.9428  157.0330 H   0  0  0  0  0  0  0  0  0  0  0  0  # atno 11005 bound_to 11000
  145.2156  139.2183  143.5120 LP  0  0  0  0  0  0  0  0  0  0  0  0  # atno 17320 bound_to 7965
  146.3451  140.2003  142.8589 LP  0  0  0  0  0  0  0  0  0  0  0  0  # atno 17321 bound_to 7965
  140.4938  144.1271  150.5956 LP  0  0  0  0  0  0  0  0  0  0  0  0  # atno 17342 bound_to 10162
  140.4141  143.2643  151.9797 LP  0  0  0  0  0  0  0  0  0  0  0  0  # atno 17343 bound_to 10162
  157.5668  130.8283  149.8338 LP  0  0  0  0  0  0  0  0  0  0  0  0  # atno 17370 bound_to 10713
  156.0328  130.3759  150.1640 LP  0  0  0  0  0  0  0  0  0  0  0  0  # atno 17371 bound_to 10713
  140.4510  134.1583  155.7181 LP  0  0  0  0  0  0  0  0  0  0  0  0  # atno 17394 bound_to 11000
  141.1728  133.8575  157.1517 LP  0  0  0  0  0  0  0  0  0  0  0  0  # atno 17395 bound_to 11000

$$$$
