AV-unprocessed.smi:15|AV-procd|sdf|81|dock4
  -GOLD-   2262015213D 1   1.00000     0.00000
 Structure written by MMmdl.
 53 56  0  0  0  0  0  0  0  0  1 V2000
  148.5414  141.9729  154.1840 C   0  0  0  0  0  0  0  0  0  0  0  0
  148.5740  141.1620  155.4867 C   0  0  0  0  0  0  0  0  0  0  0  0
  149.9334  140.8774  155.9557 N   0  0  0  0  0  0  0  0  0  0  0  0
  150.8573  141.9891  156.1974 C   0  0  0  0  0  0  0  0  0  0  0  0
  151.0890  142.2746  157.6926 C   0  0  2  0  0  0  0  0  0  0  0  0
  151.8616  143.5655  157.9496 C   0  0  0  0  0  0  0  0  0  0  0  0
  152.4681  143.3432  159.3255 C   0  0  0  0  0  0  0  0  0  0  0  0
  152.3979  141.8255  159.5198 C   0  0  0  0  0  0  0  0  0  0  0  0
  151.9502  141.3089  158.2742 O   0  0  0  0  0  0  0  0  0  0  0  0
  150.5243  139.7540  155.4697 C   0  0  0  0  0  0  0  0  0  0  0  0
  151.8443  139.7764  155.1412 N   0  0  0  0  0  0  0  0  0  0  0  0
  152.4486  138.6725  154.6928 C   0  0  0  0  0  0  0  0  0  0  0  0
  151.9303  137.4592  154.4972 N   0  0  0  0  0  0  0  0  0  0  0  0
  150.6039  137.4311  154.8126 C   0  0  0  0  0  0  0  0  0  0  0  0
  149.8309  138.5212  155.3045 C   0  0  0  0  0  0  0  0  0  0  0  0
  148.5188  138.1117  155.5130 N   0  0  0  0  0  0  0  0  0  0  0  0
  148.5199  136.8511  155.1763 C   0  0  0  0  0  0  0  0  0  0  0  0
  149.7275  136.3630  154.7309 N   0  0  0  0  0  0  0  0  0  0  0  0
  150.0093  135.0043  154.2930 C   0  0  0  0  0  0  0  0  0  0  0  0
  148.7481  134.1215  154.0883 C   0  0  2  0  0  0  0  0  0  0  0  0
  147.9245  134.7336  153.1115 O   0  0  0  0  0  0  0  0  0  0  0  0
  147.9287  133.9059  155.3560 C   0  0  0  0  0  0  0  0  0  0  0  0
  148.6424  132.7290  156.0016 C   0  0  0  0  0  0  0  0  0  0  0  0
  148.9701  131.8917  154.9029 O   0  0  0  0  0  0  0  0  0  0  0  0
  149.1422  132.6687  153.7164 C   0  0  1  0  0  0  0  0  0  0  0  0
  148.2859  132.0019  152.6258 C   0  0  0  0  0  0  0  0  0  0  0  0
  147.5157  142.2346  153.9236 H   0  0  0  0  0  0  0  0  0  0  0  0
  148.9531  141.4103  153.3464 H   0  0  0  0  0  0  0  0  0  0  0  0
  149.1060  142.9004  154.2825 H   0  0  0  0  0  0  0  0  0  0  0  0
  148.0443  141.7336  156.2503 H   0  0  0  0  0  0  0  0  0  0  0  0
  148.0242  140.2292  155.3597 H   0  0  0  0  0  0  0  0  0  0  0  0
  151.8081  141.7977  155.7014 H   0  0  0  0  0  0  0  0  0  0  0  0
  150.4718  142.8919  155.7259 H   0  0  0  0  0  0  0  0  0  0  0  0
  150.1457  142.3017  158.2416 H   0  0  0  0  0  0  0  0  0  0  0  0
  152.6585  143.6791  157.2130 H   0  0  0  0  0  0  0  0  0  0  0  0
  151.2291  144.4525  157.9014 H   0  0  0  0  0  0  0  0  0  0  0  0
  153.4919  143.7155  159.3706 H   0  0  0  0  0  0  0  0  0  0  0  0
  151.8903  143.8514  160.0983 H   0  0  0  0  0  0  0  0  0  0  0  0
  153.3597  141.3933  159.7966 H   0  0  0  0  0  0  0  0  0  0  0  0
  151.6743  141.5713  160.2956 H   0  0  0  0  0  0  0  0  0  0  0  0
  153.4979  138.7759  154.4597 H   0  0  0  0  0  0  0  0  0  0  0  0
  147.6309  136.2399  155.2352 H   0  0  0  0  0  0  0  0  0  0  0  0
  150.5793  135.0596  153.3645 H   0  0  0  0  0  0  0  0  0  0  0  0
  150.6778  134.5495  155.0249 H   0  0  0  0  0  0  0  0  0  0  0  0
  148.3649  135.5046  152.7885 H   0  0  0  0  0  0  0  0  0  0  0  0
  147.8566  134.7752  156.0075 H   0  0  0  0  0  0  0  0  0  0  0  0
  146.9106  133.6039  155.1043 H   0  0  0  0  0  0  0  0  0  0  0  0
  149.5572  133.0519  156.4998 H   0  0  0  0  0  0  0  0  0  0  0  0
  148.0221  132.2073  156.7304 H   0  0  0  0  0  0  0  0  0  0  0  0
  150.1894  132.6204  153.4146 H   0  0  0  0  0  0  0  0  0  0  0  0
  148.3942  132.5111  151.6676 H   0  0  0  0  0  0  0  0  0  0  0  0
  147.2289  132.0034  152.8938 H   0  0  0  0  0  0  0  0  0  0  0  0
  148.5870  130.9646  152.4787 H   0  0  0  0  0  0  0  0  0  0  0  0
  1  2  1  0  0  0  0
  1 27  1  0  0  0  0
  1 28  1  0  0  0  0
  1 29  1  0  0  0  0
  2  3  1  0  0  0  0
  2 30  1  0  0  0  0
  2 31  1  0  0  0  0
  3  4  1  0  0  0  0
  3 10  1  0  0  0  0
  4  5  1  0  0  0  0
  4 32  1  0  0  0  0
  4 33  1  0  0  0  0
  5  9  1  0  0  0  0
  5  6  1  0  0  0  0
  5 34  1  0  0  0  0
  6  7  1  0  0  0  0
  6 35  1  0  0  0  0
  6 36  1  0  0  0  0
  7  8  1  0  0  0  0
  7 37  1  0  0  0  0
  7 38  1  0  0  0  0
  8  9  1  0  0  0  0
  8 39  1  0  0  0  0
  8 40  1  0  0  0  0
 10 15  1  0  0  0  0
 10 11  2  0  0  0  0
 11 12  1  0  0  0  0
 12 13  2  0  0  0  0
 12 41  1  0  0  0  0
 13 14  1  0  0  0  0
 14 18  1  0  0  0  0
 14 15  2  0  0  0  0
 15 16  1  0  0  0  0
 16 17  2  0  0  0  0
 17 18  1  0  0  0  0
 17 42  1  0  0  0  0
 18 19  1  0  0  0  0
 19 20  1  0  0  0  0
 19 43  1  0  0  0  0
 19 44  1  0  0  0  0
 20 25  1  0  0  0  0
 20 21  1  0  0  0  0
 20 22  1  0  0  0  0
 21 45  1  0  0  0  0
 22 23  1  0  0  0  0
 22 46  1  0  0  0  0
 22 47  1  0  0  0  0
 23 24  1  0  0  0  0
 23 48  1  0  0  0  0
 23 49  1  0  0  0  0
 24 25  1  0  0  0  0
 25 26  1  0  0  0  0
 25 50  1  0  0  0  0
 26 51  1  0  0  0  0
 26 52  1  0  0  0  0
 26 53  1  0  0  0  0
M  END
> <s_m_source_file>
AV-unprocessed.smi

> <i_m_source_file_index>
15

> <i_lp_mmshare_version>
43012

> <i_f3d_flags>
0

> <s_epik_input>
TzFbQ0gyXVtDSDJdW0NIMl1bQ0BIXTFbQ0gyXU4oW0NIMl1bQ0gzXSljKG5bY0hdbjIpYyhjMjMpbltjSF1uM1tDSDJdW0NAQF00KFtPSF0pW0NIMl1bQ0gyXU9bQ0BIXTRbQ0gzXQ==

> <s_epik_cmdline>
J2VwaWtfcHl0aG9uJywgJy1waCcsICc3LjAnLCAnLXRuJywgJzgnLCAnLW1hJywgJzIwMCcsICctbWV0YWxfYmluZGluZycsICctaW1hZScsICc8aW5maWxlLm1hZT4nLCAnLW9tYWUnLCAnPG91dGZpbGUubWFlPic=

> <r_lp_tautomer_probability>
1

> <r_epik_Ionization_Penalty>
0.00360814

> <r_epik_Ionization_Penalty_Charging>
0

> <r_epik_Ionization_Penalty_Neutral>
0.00360814

> <r_epik_State_Penalty>
0.00237482

> <r_epik_Charging_Adjusted_Penalty>
0.00237482

> <i_epik_Tot_Q>
0

> <i_epik_Tot_abs_Q>
0

> <r_epik_Metal_State_Penalty>
-0

> <b_epik_Metal_Only>
0

> <s_lp_Force_Field>
OPLS_2005

> <r_lp_Energy>
47.2651

> <b_lp_Chiralities_Consistent>
1

> <s_lp_Variant>
AV-unprocessed.smi:15-3

> <Gold.Version>
5.8.1

> <Gold.Id.Protein>
6NUR|6NUR_protein|mol2

> <Gold.PLP.Fitness>
54.3981

> <Gold.PLP.PLP>
-46.8172

> <Gold.PLP.part.hbond>
-3.0000

> <Gold.PLP.part.metal>
0.0000

> <Gold.PLP.part.buried>
-6.3077

> <Gold.PLP.part.nonpolar>
-37.7665

> <Gold.PLP.part.repulsive>
0.1810

> <Gold.PLP.ligand.clash>
0.0000

> <Gold.PLP.ligand.torsion>
0.8448

> <Gold.PLP.Chemscore.Hbond>
2.7760

> <Gold.PLP.Chemscore.CHOScore>
0.0000

> <Gold.PLP.Chemscore.Metal>
0.0000

> <Gold.Chemscore.Hbonds>
donor molecule, donor type, donor heavy atom, donor atom, acceptor molecule, acceptor atom, score
      L1  H    21    45       P1  7948  0.41
      P1  H  7989  7998       L1    11  0.83
      P1  H 10752 10764       L1    13  0.82

> <Gold.PLP.Chemscore.Internal.Correction>
0.9425

> <Gold.Rescore>
     Score         DG    S(hbond)    S(metal)    S(lipo)     H(rot)  DE(clash)    DE(int)     intcor
     14.73     -17.68       2.31        0.00      91.90       2.44       0.09       2.86       ----

> <Gold.Chemscore.Fitness>
14.7334

> <Gold.Chemscore.DG>
-17.6822

> <Gold.Chemscore.ZeroCoef>
-5.4800

> <Gold.Chemscore.Hbond>
2.3066

> <Gold.Chemscore.Metal>
0.0000

> <Gold.Chemscore.Lipo>
91.9034

> <Gold.Chemscore.Internal_Hbond>
0.0000

> <Gold.Chemscore.DEClash>
0.0927

> <Gold.Chemscore.DEInternal>
2.8561

> <Gold.Chemscore.Rot>
2.4431

> <Gold.Chemscore.Internal.Correction>
   9.000000E+99

> <Gold.Chemscore.Hbonds>
donor molecule, donor type, donor heavy atom, donor atom, acceptor molecule, acceptor atom, score
      L1  H    21    45       P1  7948  0.40
      P1  H  7989  7998       L1    11  0.05
      P1  H 10752 10764       L1    13  0.75

> <Gold.Chemscore.Hbond.Weighted>
-7.7040

> <Gold.Chemscore.Metal.Weighted>
-0.0000

> <Gold.Chemscore.Lipo.Weighted>
-10.7527

> <Gold.Chemscore.Internal_Hbond.Weighted>
0.0000

> <Gold.Chemscore.DEClash.Weighted>
0.0927

> <Gold.Chemscore.DEInternal.Weighted>
2.8561

> <Gold.Chemscore.Rot.Weighted>
6.2544

> <Gold.Chemscore.Internal.Correction.Weighted>
   9.000000E+99

> <Gold.Protein.RotatedTorsions>
[ 6907 6896 6895 6894 ] final -147.40 input  -60.11 | X-H torsion
[ 7974 7965 7964 7962 ] final   95.29 input  175.53 | X-H torsion
[ 8008 7997 7996 7995 ] final  -70.06 input   59.86 | X-H torsion
[ 10167 10162 10161 10158 ] final  -11.53 input  -65.29 | X-H torsion
[ 10718 10713 10712 10709 ] final  -48.01 input   66.30 | X-H torsion
[ 10763 10752 10751 10750 ] final  -79.62 input  -60.55 | X-H torsion
[ 11005 11000 10999 10996 ] final   -7.18 input  -57.11 | X-H torsion

> <Gold.Protein.ActiveResidues>
 VAL166  LYS551  ARG553  GLY616  TRP617  ASP618  TYR619  PRO620  LYS621  CYS622 
 ASP623  PHE694  ASN695  SER759  ASP760  ASP761  ALA762  ILE779  LEU786  VAL792 
 PHE793  MET794  SER795  GLU796  ALA797  LYS798  CYS799  TRP800  GLU811  SER814 

> <Gold.Protein.RotatedAtoms>
  151.1551  133.4882  159.2594 H   0  0  0  0  0  0  0  0  0  0  0  0  # atno 6907 bound_to 6896
  151.1513  135.0228  159.8679 H   0  0  0  0  0  0  0  0  0  0  0  0  # atno 6908 bound_to 6896
  152.5463  134.1435  159.8542 H   0  0  0  0  0  0  0  0  0  0  0  0  # atno 6909 bound_to 6896
  145.4542  139.2291  143.3023 H   0  0  0  0  0  0  0  0  0  0  0  0  # atno 7974 bound_to 7965
  154.4984  140.0841  156.7745 H   0  0  0  0  0  0  0  0  0  0  0  0  # atno 8008 bound_to 7997
  155.4062  140.3439  155.4242 H   0  0  0  0  0  0  0  0  0  0  0  0  # atno 8009 bound_to 7997
  156.1424  140.1533  156.8888 H   0  0  0  0  0  0  0  0  0  0  0  0  # atno 8010 bound_to 7997
  140.7140  143.5629  150.9175 H   0  0  0  0  0  0  0  0  0  0  0  0  # atno 10167 bound_to 10162
  156.2029  130.4157  149.9217 H   0  0  0  0  0  0  0  0  0  0  0  0  # atno 10718 bound_to 10713
  154.5409  135.5689  153.6838 H   0  0  0  0  0  0  0  0  0  0  0  0  # atno 10763 bound_to 10752
  152.9963  135.6227  154.2503 H   0  0  0  0  0  0  0  0  0  0  0  0  # atno 10764 bound_to 10752
  154.2434  135.2861  155.2824 H   0  0  0  0  0  0  0  0  0  0  0  0  # atno 10765 bound_to 10752
  140.7100  133.8917  155.8744 H   0  0  0  0  0  0  0  0  0  0  0  0  # atno 11005 bound_to 11000
  146.2487  140.5304  142.8902 LP  0  0  0  0  0  0  0  0  0  0  0  0  # atno 17320 bound_to 7965
  144.8043  140.6270  143.6458 LP  0  0  0  0  0  0  0  0  0  0  0  0  # atno 17321 bound_to 7965
  139.9355  143.6443  152.3066 LP  0  0  0  0  0  0  0  0  0  0  0  0  # atno 17342 bound_to 10162
  139.6909  144.7647  151.1440 LP  0  0  0  0  0  0  0  0  0  0  0  0  # atno 17343 bound_to 10162
  156.6920  130.8899  151.3589 LP  0  0  0  0  0  0  0  0  0  0  0  0  # atno 17370 bound_to 10713
  157.6996  130.9318  150.0745 LP  0  0  0  0  0  0  0  0  0  0  0  0  # atno 17371 bound_to 10713
  141.0092  134.1043  157.4238 LP  0  0  0  0  0  0  0  0  0  0  0  0  # atno 17394 bound_to 11000
  139.8874  135.0089  156.6559 LP  0  0  0  0  0  0  0  0  0  0  0  0  # atno 17395 bound_to 11000

$$$$
