AV-unprocessed.smi:197|AV-procd|sdf|1551|dock1
  -GOLD-   2262019413D 1   1.00000     0.00000
 Structure written by MMmdl.
 54 57  0  0  0  0  0  0  0  0  1 V2000
  148.5763  136.8131  159.3740 C   0  0  0  0  0  0  0  0  0  0  0  0
  148.9480  138.1829  159.3907 O   0  0  0  0  0  0  0  0  0  0  0  0
  150.1161  138.4800  158.6381 C   0  0  0  0  0  0  0  0  0  0  0  0
  150.4957  139.9692  158.7363 C   0  0  0  0  0  0  0  0  0  0  0  0
  151.6574  140.3795  157.7979 C   0  0  1  0  0  0  0  0  0  0  0  0
  151.2886  140.2821  156.3012 C   0  0  0  0  0  0  0  0  0  0  0  0
  150.3328  141.2831  155.9645 O   0  0  0  0  0  0  0  0  0  0  0  0
  150.8485  142.5962  156.1550 C   0  0  0  0  0  0  0  0  0  0  0  0
  151.2218  142.7994  157.6319 C   0  0  0  0  0  0  0  0  0  0  0  0
  152.1300  141.7407  158.0713 N   0  0  0  0  0  0  0  0  0  0  0  0
  152.8179  141.9261  159.2297 C   0  0  0  0  0  0  0  0  0  0  0  0
  152.5400  143.0051  160.0103 N   0  0  0  0  0  0  0  0  0  0  0  0
  153.1864  143.1922  161.1641 C   0  0  0  0  0  0  0  0  0  0  0  0
  154.1342  142.4367  161.7206 N   0  0  0  0  0  0  0  0  0  0  0  0
  154.4263  141.3568  160.9410 C   0  0  0  0  0  0  0  0  0  0  0  0
  153.8257  141.0309  159.6912 C   0  0  0  0  0  0  0  0  0  0  0  0
  154.3974  139.8687  159.1857 N   0  0  0  0  0  0  0  0  0  0  0  0
  155.2707  139.5199  160.0900 C   0  0  0  0  0  0  0  0  0  0  0  0
  155.3480  140.3532  161.1825 N   0  0  0  0  0  0  0  0  0  0  0  0
  156.2261  140.2000  162.3324 C   0  0  0  0  0  0  0  0  0  0  0  0
  156.0199  138.8617  163.0894 C   0  0  2  0  0  0  0  0  0  0  0  0
  156.8740  137.8945  162.5003 O   0  0  0  0  0  0  0  0  0  0  0  0
  154.5924  138.3296  163.0181 C   0  0  0  0  0  0  0  0  0  0  0  0
  154.4751  137.5011  164.2881 C   0  0  0  0  0  0  0  0  0  0  0  0
  155.1698  138.2909  165.2371 O   0  0  0  0  0  0  0  0  0  0  0  0
  156.3120  138.8774  164.6165 C   0  0  2  0  0  0  0  0  0  0  0  0
  156.5251  140.2551  165.2635 C   0  0  0  0  0  0  0  0  0  0  0  0
  147.6434  136.6857  159.9227 H   0  0  0  0  0  0  0  0  0  0  0  0
  149.3253  136.1797  159.8487 H   0  0  0  0  0  0  0  0  0  0  0  0
  148.4140  136.4600  158.3550 H   0  0  0  0  0  0  0  0  0  0  0  0
  150.9460  137.8406  158.9433 H   0  0  0  0  0  0  0  0  0  0  0  0
  149.8943  138.2246  157.6027 H   0  0  0  0  0  0  0  0  0  0  0  0
  149.6156  140.5818  158.5387 H   0  0  0  0  0  0  0  0  0  0  0  0
  150.7848  140.1844  159.7641 H   0  0  0  0  0  0  0  0  0  0  0  0
  152.4733  139.6795  157.9661 H   0  0  0  0  0  0  0  0  0  0  0  0
  152.1794  140.4060  155.6829 H   0  0  0  0  0  0  0  0  0  0  0  0
  150.8827  139.3025  156.0535 H   0  0  0  0  0  0  0  0  0  0  0  0
  151.7157  142.7532  155.5115 H   0  0  0  0  0  0  0  0  0  0  0  0
  150.0937  143.3230  155.8547 H   0  0  0  0  0  0  0  0  0  0  0  0
  151.6925  143.7761  157.7532 H   0  0  0  0  0  0  0  0  0  0  0  0
  150.3237  142.7939  158.2508 H   0  0  0  0  0  0  0  0  0  0  0  0
  152.9016  144.0719  161.7221 H   0  0  0  0  0  0  0  0  0  0  0  0
  155.8839  138.6362  159.9877 H   0  0  0  0  0  0  0  0  0  0  0  0
  157.2566  140.2858  161.9854 H   0  0  0  0  0  0  0  0  0  0  0  0
  156.0522  141.0473  162.9960 H   0  0  0  0  0  0  0  0  0  0  0  0
  157.3390  137.4471  163.1907 H   0  0  0  0  0  0  0  0  0  0  0  0
  153.8819  139.1549  163.0732 H   0  0  0  0  0  0  0  0  0  0  0  0
  154.3751  137.7634  162.1113 H   0  0  0  0  0  0  0  0  0  0  0  0
  153.4412  137.3289  164.5876 H   0  0  0  0  0  0  0  0  0  0  0  0
  154.9707  136.5356  164.1773 H   0  0  0  0  0  0  0  0  0  0  0  0
  157.1771  138.2522  164.8467 H   0  0  0  0  0  0  0  0  0  0  0  0
  157.3941  140.7631  164.8451 H   0  0  0  0  0  0  0  0  0  0  0  0
  156.6937  140.1531  166.3358 H   0  0  0  0  0  0  0  0  0  0  0  0
  155.6550  140.8985  165.1306 H   0  0  0  0  0  0  0  0  0  0  0  0
  1  2  1  0  0  0  0
  1 28  1  0  0  0  0
  1 29  1  0  0  0  0
  1 30  1  0  0  0  0
  2  3  1  0  0  0  0
  3  4  1  0  0  0  0
  3 31  1  0  0  0  0
  3 32  1  0  0  0  0
  4  5  1  0  0  0  0
  4 33  1  0  0  0  0
  4 34  1  0  0  0  0
  5 10  1  0  0  0  0
  5  6  1  0  0  0  0
  5 35  1  0  0  0  0
  6  7  1  0  0  0  0
  6 36  1  0  0  0  0
  6 37  1  0  0  0  0
  7  8  1  0  0  0  0
  8  9  1  0  0  0  0
  8 38  1  0  0  0  0
  8 39  1  0  0  0  0
  9 10  1  0  0  0  0
  9 40  1  0  0  0  0
  9 41  1  0  0  0  0
 10 11  1  0  0  0  0
 11 16  1  0  0  0  0
 11 12  2  0  0  0  0
 12 13  1  0  0  0  0
 13 14  2  0  0  0  0
 13 42  1  0  0  0  0
 14 15  1  0  0  0  0
 15 19  1  0  0  0  0
 15 16  2  0  0  0  0
 16 17  1  0  0  0  0
 17 18  2  0  0  0  0
 18 19  1  0  0  0  0
 18 43  1  0  0  0  0
 19 20  1  0  0  0  0
 20 21  1  0  0  0  0
 20 44  1  0  0  0  0
 20 45  1  0  0  0  0
 21 26  1  0  0  0  0
 21 22  1  0  0  0  0
 21 23  1  0  0  0  0
 22 46  1  0  0  0  0
 23 24  1  0  0  0  0
 23 47  1  0  0  0  0
 23 48  1  0  0  0  0
 24 25  1  0  0  0  0
 24 49  1  0  0  0  0
 24 50  1  0  0  0  0
 25 26  1  0  0  0  0
 26 27  1  0  0  0  0
 26 51  1  0  0  0  0
 27 52  1  0  0  0  0
 27 53  1  0  0  0  0
 27 54  1  0  0  0  0
M  END
> <s_m_source_file>
AV-unprocessed.smi

> <i_m_source_file_index>
197

> <i_lp_mmshare_version>
43012

> <i_f3d_flags>
0

> <s_epik_input>
W0NIM11PW0NIMl1bQ0gyXVtDQEBIXTFbQ0gyXU9bQ0gyXVtDSDJdTjFjKG5bY0hdbjIpYyhjMjMpbltjSF1uM1tDSDJdW0NAQF00KFtPSF0pW0NIMl1bQ0gyXU9bQ0BIXTRbQ0gzXQ==

> <s_epik_cmdline>
J2VwaWtfcHl0aG9uJywgJy1waCcsICc3LjAnLCAnLXRuJywgJzgnLCAnLW1hJywgJzIwMCcsICctbWV0YWxfYmluZGluZycsICctaW1hZScsICc8aW5maWxlLm1hZT4nLCAnLW9tYWUnLCAnPG91dGZpbGUubWFlPic=

> <r_lp_tautomer_probability>
1

> <r_epik_Ionization_Penalty>
0.000106218

> <r_epik_Ionization_Penalty_Charging>
0

> <r_epik_Ionization_Penalty_Neutral>
0.000106218

> <r_epik_State_Penalty>
-0

> <r_epik_Charging_Adjusted_Penalty>
0

> <i_epik_Tot_Q>
0

> <i_epik_Tot_abs_Q>
0

> <r_epik_Metal_State_Penalty>
-0

> <b_epik_Metal_Only>
0

> <s_lp_Force_Field>
OPLS_2005

> <r_lp_Energy>
41.9523

> <b_lp_Chiralities_Consistent>
1

> <s_lp_Variant>
AV-unprocessed.smi:197-8

> <Gold.Version>
5.8.1

> <Gold.Id.Protein>
6NUR|6NUR_protein|mol2

> <Gold.PLP.Fitness>
45.7657

> <Gold.PLP.PLP>
-43.9501

> <Gold.PLP.part.hbond>
-1.0000

> <Gold.PLP.part.metal>
0.0000

> <Gold.PLP.part.buried>
-5.9518

> <Gold.PLP.part.nonpolar>
-36.7088

> <Gold.PLP.part.repulsive>
0.2182

> <Gold.PLP.ligand.clash>
0.0000

> <Gold.PLP.ligand.torsion>
0.8437

> <Gold.PLP.Chemscore.Hbond>
0.9913

> <Gold.PLP.Chemscore.CHOScore>
0.0000

> <Gold.PLP.Chemscore.Metal>
0.0000

> <Gold.Chemscore.Hbonds>
donor molecule, donor type, donor heavy atom, donor atom, acceptor molecule, acceptor atom, score
      P1  H  7997  8009       L1    17  1.00

> <Gold.PLP.Chemscore.Internal.Correction>
0.5293

> <Gold.Rescore>
     Score         DG    S(hbond)    S(metal)    S(lipo)     H(rot)  DE(clash)    DE(int)     intcor
      9.60     -10.31       1.01        0.00      74.56       2.84       0.17       0.53       ----

> <Gold.Chemscore.Fitness>
9.6030

> <Gold.Chemscore.DG>
-10.3054

> <Gold.Chemscore.ZeroCoef>
-5.4800

> <Gold.Chemscore.Hbond>
1.0065

> <Gold.Chemscore.Metal>
0.0000

> <Gold.Chemscore.Lipo>
74.5589

> <Gold.Chemscore.Internal_Hbond>
0.0000

> <Gold.Chemscore.DEClash>
0.1739

> <Gold.Chemscore.DEInternal>
0.5285

> <Gold.Chemscore.Rot>
2.8358

> <Gold.Chemscore.Internal.Correction>
   9.000000E+99

> <Gold.Chemscore.Hbonds>
donor molecule, donor type, donor heavy atom, donor atom, acceptor molecule, acceptor atom, score
      P1  H  7997  8009       L1    17  0.80

> <Gold.Chemscore.Hbond.Weighted>
-3.3616

> <Gold.Chemscore.Metal.Weighted>
-0.0000

> <Gold.Chemscore.Lipo.Weighted>
-8.7234

> <Gold.Chemscore.Internal_Hbond.Weighted>
0.0000

> <Gold.Chemscore.DEClash.Weighted>
0.1739

> <Gold.Chemscore.DEInternal.Weighted>
0.5285

> <Gold.Chemscore.Rot.Weighted>
7.2596

> <Gold.Chemscore.Internal.Correction.Weighted>
   9.000000E+99

> <Gold.Protein.RotatedTorsions>
[ 6907 6896 6895 6894 ] final -170.86 input  -60.11 | X-H torsion
[ 7974 7965 7964 7962 ] final  -85.92 input  175.53 | X-H torsion
[ 8008 7997 7996 7995 ] final  130.44 input   59.86 | X-H torsion
[ 10167 10162 10161 10158 ] final   18.48 input  -65.29 | X-H torsion
[ 10718 10713 10712 10709 ] final  -81.76 input   66.30 | X-H torsion
[ 10763 10752 10751 10750 ] final   60.45 input  -60.55 | X-H torsion
[ 11005 11000 10999 10996 ] final  122.36 input  -57.11 | X-H torsion

> <Gold.Protein.ActiveResidues>
 VAL166  LYS551  ARG553  GLY616  TRP617  ASP618  TYR619  PRO620  LYS621  CYS622 
 ASP623  PHE694  ASN695  SER759  ASP760  ASP761  ALA762  ILE779  LEU786  VAL792 
 PHE793  MET794  SER795  GLU796  ALA797  LYS798  CYS799  TRP800  GLU811  SER814 

> <Gold.Protein.RotatedAtoms>
  151.5146  133.3478  159.2890 H   0  0  0  0  0  0  0  0  0  0  0  0  # atno 6907 bound_to 6896
  150.8691  134.8063  159.7152 H   0  0  0  0  0  0  0  0  0  0  0  0  # atno 6908 bound_to 6896
  152.4685  134.5027  159.9781 H   0  0  0  0  0  0  0  0  0  0  0  0  # atno 6909 bound_to 6896
  145.4867  140.9554  143.1834 H   0  0  0  0  0  0  0  0  0  0  0  0  # atno 7974 bound_to 7965
  156.2954  140.2596  156.2763 H   0  0  0  0  0  0  0  0  0  0  0  0  # atno 8008 bound_to 7997
  154.9646  140.0392  157.2224 H   0  0  0  0  0  0  0  0  0  0  0  0  # atno 8009 bound_to 7997
  154.7915  140.2812  155.5993 H   0  0  0  0  0  0  0  0  0  0  0  0  # atno 8010 bound_to 7997
  140.5650  143.9267  150.6670 H   0  0  0  0  0  0  0  0  0  0  0  0  # atno 10167 bound_to 10162
  156.0044  130.4613  150.4002 H   0  0  0  0  0  0  0  0  0  0  0  0  # atno 10718 bound_to 10713
  152.9921  135.5536  154.5876 H   0  0  0  0  0  0  0  0  0  0  0  0  # atno 10763 bound_to 10752
  154.5244  135.2809  155.1237 H   0  0  0  0  0  0  0  0  0  0  0  0  # atno 10764 bound_to 10752
  154.2577  135.6387  153.5316 H   0  0  0  0  0  0  0  0  0  0  0  0  # atno 10765 bound_to 10752
  139.9265  134.9641  156.8098 H   0  0  0  0  0  0  0  0  0  0  0  0  # atno 11005 bound_to 11000
  144.7857  139.6432  143.7135 LP  0  0  0  0  0  0  0  0  0  0  0  0  # atno 17320 bound_to 7965
  146.2308  139.5811  142.9556 LP  0  0  0  0  0  0  0  0  0  0  0  0  # atno 17321 bound_to 7965
  140.2728  143.3444  152.1223 LP  0  0  0  0  0  0  0  0  0  0  0  0  # atno 17342 bound_to 10162
  139.5088  144.6857  151.5893 LP  0  0  0  0  0  0  0  0  0  0  0  0  # atno 17343 bound_to 10162
  157.2071  131.0452  151.2619 LP  0  0  0  0  0  0  0  0  0  0  0  0  # atno 17370 bound_to 10713
  157.3922  130.7288  149.6706 LP  0  0  0  0  0  0  0  0  0  0  0  0  # atno 17371 bound_to 10713
  140.6321  133.9896  155.7667 LP  0  0  0  0  0  0  0  0  0  0  0  0  # atno 17394 bound_to 11000
  141.0826  134.0039  157.3363 LP  0  0  0  0  0  0  0  0  0  0  0  0  # atno 17395 bound_to 11000

$$$$
