#       Name:                AV-unprocessed.smi:2613
#       Creating user name   scv26
#       Creation time:       Fri Mar 27 14:22:05 2020


#       File generated by GOLD software.
#

@<TRIPOS>MOLECULE
AV-unprocessed.smi:2613
    34    35     1
SMALL
NO_CHARGES


@<TRIPOS>ATOM
      1 ****         0.3670   3.2886  -0.3535 C.3            1 S1                 0.0000
      2 ****        -0.1122   1.8763  -0.3313 C.2            1 S1                 0.0000
      3 ****        -1.4127   1.4687  -0.3416 N.pl3          1 S1                 1.0000
      4 ****        -1.4704   0.0745  -0.3086 C.ar           1 S1                 0.0000
      5 ****        -2.5585  -0.7908  -0.3032 C.ar           1 S1                 0.0000
      6 ****        -2.2826  -2.1791  -0.2605 C.ar           1 S1                 0.0000
      7 ****        -3.4186  -3.1658  -0.2482 C.2            1 S1                 0.0000
      8 ****        -3.1574  -4.3885  -0.2093 O.co2          1 S1                 0.0000
      9 ****        -4.5919  -2.7321  -0.2758 O.co2          1 S1                -1.0000
     10 ****        -0.9432  -2.6385  -0.2272 C.ar           1 S1                 0.0000
     11 ****         0.1528  -1.7509  -0.2342 C.ar           1 S1                 0.0000
     12 ****        -0.1416  -0.3905  -0.2764 C.ar           1 S1                 0.0000
     13 ****         0.6619   0.7546  -0.2945 N.pl3          1 S1                 0.0000
     14 ****         2.1225   0.6090  -0.2671 C.3            1 S1                 0.0000
     15 ****         2.6544   0.4490   1.1637 C.3            1 S1                 0.0000
     16 ****         4.0599   0.3353   1.1345 O.3            1 S1                 0.0000
     17 ****        -0.4745   3.9800  -0.3037 H              1 S1                 0.0000
     18 ****         0.9222   3.4822  -1.2714 H              1 S1                 0.0000
     19 ****         1.0225   3.4768   0.4970 H              1 S1                 0.0000
     20 ****        -3.5719  -0.4168  -0.3289 H              1 S1                 0.0000
     21 ****        -0.7389  -3.6992  -0.1946 H              1 S1                 0.0000
     22 ****         1.1662  -2.1225  -0.2064 H              1 S1                 0.0000
     23 ****         2.4041  -0.2389  -0.8927 H              1 S1                 0.0000
     24 ****         2.5536   1.4953  -0.7342 H              1 S1                 0.0000
     25 ****         2.3802   1.3096   1.7747 H              1 S1                 0.0000
     26 ****         2.2358  -0.4382   1.6396 H              1 S1                 0.0000
     27 ****         4.3752   0.2534   2.0218 H              1 S1                 0.0000
     28 ****        -2.2037   2.0992  -0.3678 H              1 S1                 0.0000
     29 ****        -3.8999  -5.0583  -0.1993 LP             1 S1                 0.0000
     30 ****        -2.2061  -4.6962  -0.1882 LP             1 S1                 0.0000
     31 ****        -5.3614  -3.3708  -0.2671 LP             1 S1                 0.0000
     32 ****        -4.7602  -1.7469  -0.3066 LP             1 S1                 0.0000
     33 ****         4.4549   1.1504   0.7107 LP             1 S1                 0.0000
     34 ****         4.3213  -0.4739   0.6083 LP             1 S1                 0.0000
@<TRIPOS>BOND
    1    1    2 1     
    2    1   17 1     
    3    1   18 1     
    4    1   19 1     
    5    2   13 1     
    6    2    3 2     
    7    3    4 1     
    8    3   28 1     
    9    4   12 ar    
   10    4    5 ar    
   11    5    6 ar    
   12    5   20 1     
   13    6    7 1     
   14    6   10 ar    
   15    7    8 ar    
   16    7    9 ar    
   17   10   11 ar    
   18   10   21 1     
   19   11   12 ar    
   20   11   22 1     
   21   12   13 1     
   22   13   14 1     
   23   14   15 1     
   24   14   23 1     
   25   14   24 1     
   26   15   16 1     
   27   15   25 1     
   28   15   26 1     
   29   16   27 1     
   30    8   29 1     
   31    8   30 1     
   32    9   31 1     
   33    9   32 1     
   34   16   33 1     
   35   16   34 1     
@<TRIPOS>SUBSTRUCTURE
      1 S1             1
@<TRIPOS>SET
LONE_PAIRS      STATIC     ATOMS    <user>   **** ""
6 29 30 31 32 33 34
DONOR_HYDROGENS      STATIC     ATOMS    <user>   **** ""
2 28 27
ATOM$BLUE        STATIC     ATOMS    COLORGROUP SYSTEM
6 29 30 31 32 33 34
ATOM$RED        STATIC     ATOMS    COLORGROUP SYSTEM
2 28 27
