AV-unprocessed.smi:2716|AV-procd|sdf|10483|dock2
  -GOLD-   2272014523D 1   1.00000     0.00000
 Structure written by MMmdl.
 19 19  0  0  0  0  0  0  0  0  1 V2000
  143.6094  137.9316  152.1499 N   0  0  0  0  0  0  0  0  0  0  0  0
  143.3925  136.8535  152.9082 C   0  0  0  0  0  0  0  0  0  0  0  0
  142.9788  136.9329  154.0632 O   0  0  0  0  0  0  0  0  0  0  0  0
  143.6936  135.5525  152.2503 C   0  0  0  0  0  0  0  0  0  0  0  0
  144.0942  135.3820  150.9548 C   0  0  0  0  0  0  0  0  0  0  0  0
  144.2360  134.0149  150.8379 N   0  0  0  0  0  0  0  0  0  0  0  0
  144.6441  133.2434  149.6777 C   0  0  0  0  0  0  0  0  0  0  0  0
  143.5367  133.1395  148.6155 C   0  0  0  0  0  0  0  0  0  0  0  0
  143.5579  134.2575  147.7519 O   0  0  0  0  0  0  0  0  0  0  0  0
  143.9447  133.3837  152.0004 N   0  0  0  0  0  0  0  0  0  0  0  0
  143.6147  134.2968  152.8591 N   0  0  0  0  0  0  0  0  0  0  0  0
  143.4311  138.8532  152.5213 H   0  0  0  0  0  0  0  0  0  0  0  0
  143.9525  137.8165  151.2072 H   0  0  0  0  0  0  0  0  0  0  0  0
  144.2767  136.0766  150.1481 H   0  0  0  0  0  0  0  0  0  0  0  0
  145.5350  133.7048  149.2493 H   0  0  0  0  0  0  0  0  0  0  0  0
  144.9380  132.2473  150.0110 H   0  0  0  0  0  0  0  0  0  0  0  0
  143.6710  132.2353  148.0216 H   0  0  0  0  0  0  0  0  0  0  0  0
  142.5555  133.0712  149.0864 H   0  0  0  0  0  0  0  0  0  0  0  0
  144.4540  134.4317  147.5070 H   0  0  0  0  0  0  0  0  0  0  0  0
  1  2  1  0  0  0  0
  1 12  1  0  0  0  0
  1 13  1  0  0  0  0
  2  3  2  0  0  0  0
  2  4  1  0  0  0  0
  4 11  1  0  0  0  0
  4  5  2  0  0  0  0
  5  6  1  0  0  0  0
  5 14  1  0  0  0  0
  6  7  1  0  0  0  0
  6 10  1  0  0  0  0
  7  8  1  0  0  0  0
  7 15  1  0  0  0  0
  7 16  1  0  0  0  0
  8  9  1  0  0  0  0
  8 17  1  0  0  0  0
  8 18  1  0  0  0  0
  9 19  1  0  0  0  0
 10 11  2  0  0  0  0
M  END
> <s_m_source_file>
AV-unprocessed.smi

> <i_m_source_file_index>
2716

> <i_lp_mmshare_version>
43012

> <i_f3d_flags>
0

> <s_epik_input>
W05IMl1DKD1PKWMxW2NIXW4obm4xKVtDSDJdW0NIMl1bT0hd

> <s_epik_cmdline>
J2VwaWtfcHl0aG9uJywgJy1waCcsICc3LjAnLCAnLXRuJywgJzgnLCAnLW1hJywgJzIwMCcsICctbWV0YWxfYmluZGluZycsICctaW1hZScsICc8aW5maWxlLm1hZT4nLCAnLW9tYWUnLCAnPG91dGZpbGUubWFlPic=

> <r_lp_tautomer_probability>
1

> <r_epik_Ionization_Penalty>
2.94119e-06

> <r_epik_Ionization_Penalty_Charging>
0

> <r_epik_Ionization_Penalty_Neutral>
2.94119e-06

> <r_epik_State_Penalty>
-0

> <r_epik_Charging_Adjusted_Penalty>
0

> <i_epik_Tot_Q>
0

> <i_epik_Tot_abs_Q>
0

> <r_epik_Metal_State_Penalty>
-0

> <b_epik_Metal_Only>
0

> <s_lp_Force_Field>
OPLS_2005

> <r_lp_Energy>
2.94202

> <b_lp_Chiralities_Consistent>
1

> <s_lp_Variant>
AV-unprocessed.smi:2716-1

> <Gold.Version>
5.8.1

> <Gold.Id.Protein>
6NUR|6NUR_protein|mol2

> <Gold.PLP.Fitness>
34.0215

> <Gold.PLP.PLP>
-20.4722

> <Gold.PLP.part.hbond>
-5.5575

> <Gold.PLP.part.metal>
0.0000

> <Gold.PLP.part.buried>
-0.1741

> <Gold.PLP.part.nonpolar>
-14.5475

> <Gold.PLP.part.repulsive>
0.4047

> <Gold.PLP.ligand.clash>
0.0000

> <Gold.PLP.ligand.torsion>
0.3307

> <Gold.PLP.Chemscore.Hbond>
3.7680

> <Gold.PLP.Chemscore.CHOScore>
0.9685

> <Gold.PLP.Chemscore.Metal>
0.0000

> <Gold.Chemscore.Hbonds>
donor molecule, donor type, donor heavy atom, donor atom, acceptor molecule, acceptor atom, score
      L1  H     1    12       P1 10175  1.00
      L1  H     1    13       P1 10171  0.75
      L1  H     9    19       P1  7921  1.00
      P1  H 10192 10197       L1     9  1.00
      L1  C     5    14       P1 10171  0.97

> <Gold.PLP.Chemscore.Internal.Correction>
0.0011

> <Gold.Rescore>
     Score         DG    S(hbond)    S(metal)    S(lipo)     H(rot)  DE(clash)    DE(int)     intcor
     15.43     -16.04       3.67        0.00      32.26       2.14       0.31       0.30       ----

> <Gold.Chemscore.Fitness>
15.4340

> <Gold.Chemscore.DG>
-16.0390

> <Gold.Chemscore.ZeroCoef>
-5.4800

> <Gold.Chemscore.Hbond>
3.6715

> <Gold.Chemscore.Metal>
0.0000

> <Gold.Chemscore.Lipo>
32.2553

> <Gold.Chemscore.Internal_Hbond>
0.0000

> <Gold.Chemscore.DEClash>
0.3057

> <Gold.Chemscore.DEInternal>
0.2993

> <Gold.Chemscore.Rot>
2.1398

> <Gold.Chemscore.Internal.Correction>
   9.000000E+99

> <Gold.Chemscore.Hbonds>
donor molecule, donor type, donor heavy atom, donor atom, acceptor molecule, acceptor atom, score
      L1  H     1    12       P1 10175  0.93
      L1  H     1    13       P1 10171  0.73
      L1  H     9    19       P1  7921  1.00
      P1  H 10192 10197       L1     9  1.00

> <Gold.Chemscore.Hbond.Weighted>
-12.2629

> <Gold.Chemscore.Metal.Weighted>
-0.0000

> <Gold.Chemscore.Lipo.Weighted>
-3.7739

> <Gold.Chemscore.Internal_Hbond.Weighted>
0.0000

> <Gold.Chemscore.DEClash.Weighted>
0.3057

> <Gold.Chemscore.DEInternal.Weighted>
0.2993

> <Gold.Chemscore.Rot.Weighted>
5.4778

> <Gold.Chemscore.Internal.Correction.Weighted>
   9.000000E+99

> <Gold.Protein.RotatedTorsions>
[ 6907 6896 6895 6894 ] final -166.86 input  -60.11 | X-H torsion
[ 7974 7965 7964 7962 ] final   86.13 input  175.53 | X-H torsion
[ 8008 7997 7996 7995 ] final   78.68 input   59.86 | X-H torsion
[ 10167 10162 10161 10158 ] final -154.46 input  -65.29 | X-H torsion
[ 10718 10713 10712 10709 ] final  -68.60 input   66.30 | X-H torsion
[ 10763 10752 10751 10750 ] final  -66.32 input  -60.55 | X-H torsion
[ 11005 11000 10999 10996 ] final  -61.19 input  -57.11 | X-H torsion

> <Gold.Protein.ActiveResidues>
 VAL166  LYS551  ARG553  GLY616  TRP617  ASP618  TYR619  PRO620  LYS621  CYS622 
 ASP623  PHE694  ASN695  SER759  ASP760  ASP761  ALA762  ILE779  LEU786  VAL792 
 PHE793  MET794  SER795  GLU796  ALA797  LYS798  CYS799  TRP800  GLU811  SER814 

> <Gold.Protein.RotatedAtoms>
  151.4503  133.3619  159.2794 H   0  0  0  0  0  0  0  0  0  0  0  0  # atno 6907 bound_to 6896
  150.9095  134.8513  159.7426 H   0  0  0  0  0  0  0  0  0  0  0  0  # atno 6908 bound_to 6896
  152.4924  134.4432  159.9602 H   0  0  0  0  0  0  0  0  0  0  0  0  # atno 6909 bound_to 6896
  145.5764  139.2320  143.2377 H   0  0  0  0  0  0  0  0  0  0  0  0  # atno 7974 bound_to 7965
  155.8591  140.3454  155.5744 H   0  0  0  0  0  0  0  0  0  0  0  0  # atno 8008 bound_to 7997
  155.7953  140.0877  157.2006 H   0  0  0  0  0  0  0  0  0  0  0  0  # atno 8009 bound_to 7997
  154.4011  140.1475  156.3198 H   0  0  0  0  0  0  0  0  0  0  0  0  # atno 8010 bound_to 7997
  139.7011  143.9261  152.2429 H   0  0  0  0  0  0  0  0  0  0  0  0  # atno 10167 bound_to 10162
  156.0497  130.4297  150.2024 H   0  0  0  0  0  0  0  0  0  0  0  0  # atno 10718 bound_to 10713
  154.3581  135.6122  153.5677 H   0  0  0  0  0  0  0  0  0  0  0  0  # atno 10763 bound_to 10752
  152.9795  135.5808  154.4665 H   0  0  0  0  0  0  0  0  0  0  0  0  # atno 10764 bound_to 10752
  154.4397  135.2850  155.1833 H   0  0  0  0  0  0  0  0  0  0  0  0  # atno 10765 bound_to 10752
  141.1315  133.6628  156.5338 H   0  0  0  0  0  0  0  0  0  0  0  0  # atno 11005 bound_to 11000
  146.1748  140.6590  142.9216 LP  0  0  0  0  0  0  0  0  0  0  0  0  # atno 17320 bound_to 7965
  144.7414  140.4952  143.6866 LP  0  0  0  0  0  0  0  0  0  0  0  0  # atno 17321 bound_to 7965
  139.9104  144.6860  150.8569 LP  0  0  0  0  0  0  0  0  0  0  0  0  # atno 17342 bound_to 10162
  140.7710  143.3448  151.2134 LP  0  0  0  0  0  0  0  0  0  0  0  0  # atno 17343 bound_to 10162
  157.0109  130.9951  151.3366 LP  0  0  0  0  0  0  0  0  0  0  0  0  # atno 17370 bound_to 10713
  157.5410  130.8120  149.8029 LP  0  0  0  0  0  0  0  0  0  0  0  0  # atno 17371 bound_to 10713
  140.4194  134.7201  157.4881 LP  0  0  0  0  0  0  0  0  0  0  0  0  # atno 17394 bound_to 11000
  140.0370  134.6322  155.9030 LP  0  0  0  0  0  0  0  0  0  0  0  0  # atno 17395 bound_to 11000

$$$$
