AV-unprocessed.smi:72|AV-procd|sdf|696|dock6
  -GOLD-   2262017 13D 1   1.00000     0.00000
 Structure written by MMmdl.
 30 31  0  0  0  0  0  0  0  0  2 V2000
  152.1517  144.6744  158.2834 N   0  0  0  0  0  0  0  0  0  0  0  0
  151.7205  143.4144  157.9245 C   0  0  0  0  0  0  0  0  0  0  0  0
  150.6505  143.3248  157.0521 N   0  3  0  0  0  0  0  0  0  0  0  0
  150.1104  142.1809  156.6100 C   0  0  0  0  0  0  0  0  0  0  0  0
  150.6139  141.0349  157.0210 N   0  0  0  0  0  0  0  0  0  0  0  0
  150.0615  139.7131  156.5468 C   0  0  1  0  0  0  0  0  0  0  0  0
  148.8593  139.9524  155.8768 O   0  0  0  0  0  0  0  0  0  0  0  0
  149.0177  139.7271  154.4779 C   0  0  2  0  0  0  0  0  0  0  0  0
  147.6608  139.3669  153.8546 C   0  0  0  0  0  0  0  0  0  0  0  0
  147.8576  138.7704  152.5905 O   0  0  0  0  0  0  0  0  0  0  0  0
  150.0287  138.5818  154.4601 C   0  0  1  0  0  0  0  0  0  0  0  0
  150.6484  138.4001  153.2006 O   0  0  0  0  0  0  0  0  0  0  0  0
  151.0038  138.9895  155.5588 C   0  0  1  0  0  0  0  0  0  0  0  0
  152.0445  139.8200  155.0629 O   0  0  0  0  0  0  0  0  0  0  0  0
  151.7222  141.0253  157.9061 C   0  0  0  0  0  0  0  0  0  0  0  0
  152.2152  139.9600  158.2756 O   0  0  0  0  0  0  0  0  0  0  0  0
  152.2135  142.2726  158.3181 N   0  0  0  0  0  0  0  0  0  0  0  0
  149.8344  139.1336  157.4431 H   0  0  0  0  0  0  0  0  0  0  0  0
  149.4526  140.6053  153.9973 H   0  0  0  0  0  0  0  0  0  0  0  0
  149.5312  137.6536  154.7466 H   0  0  0  0  0  0  0  0  0  0  0  0
  151.4511  138.1211  156.0437 H   0  0  0  0  0  0  0  0  0  0  0  0
  152.9252  144.8347  158.9135 H   0  0  0  0  0  0  0  0  0  0  0  0
  151.7379  145.5308  157.9441 H   0  0  0  0  0  0  0  0  0  0  0  0
  149.2747  142.2206  155.9249 H   0  0  0  0  0  0  0  0  0  0  0  0
  147.1392  138.6427  154.4811 H   0  0  0  0  0  0  0  0  0  0  0  0
  147.0175  140.2428  153.7668 H   0  0  0  0  0  0  0  0  0  0  0  0
  148.6034  139.1795  152.1783 H   0  0  0  0  0  0  0  0  0  0  0  0
  150.1932  138.9274  152.5619 H   0  0  0  0  0  0  0  0  0  0  0  0
  152.8003  139.2797  154.8868 H   0  0  0  0  0  0  0  0  0  0  0  0
  150.2477  144.1906  156.7233 H   0  0  0  0  0  0  0  0  0  0  0  0
  1  2  1  0  0  0  0
  1 22  1  0  0  0  0
  1 23  1  0  0  0  0
  2 17  2  0  0  0  0
  2  3  1  0  0  0  0
  3  4  2  0  0  0  0
  3 30  1  0  0  0  0
  4  5  1  0  0  0  0
  4 24  1  0  0  0  0
  5  6  1  0  0  0  0
  5 15  1  0  0  0  0
  6 18  1  0  0  0  0
  6 13  1  0  0  0  0
  6  7  1  0  0  0  0
  7  8  1  0  0  0  0
  8 19  1  0  0  0  0
  8  9  1  0  0  0  0
  8 11  1  0  0  0  0
  9 10  1  0  0  0  0
  9 25  1  0  0  0  0
  9 26  1  0  0  0  0
 10 27  1  0  0  0  0
 11 20  1  0  0  0  0
 11 12  1  0  0  0  0
 11 13  1  0  0  0  0
 12 28  1  0  0  0  0
 13 21  1  0  0  0  0
 13 14  1  0  0  0  0
 14 29  1  0  0  0  0
 15 16  2  0  0  0  0
 15 17  1  0  0  0  0
M  CHG  1   3   1
M  END
> <s_m_source_file>
AV-unprocessed.smi

> <i_m_source_file_index>
72

> <i_lp_mmshare_version>
43012

> <i_f3d_flags>
0

> <s_epik_input>
W05IMl1jMW5bY0hdbihjKD1PKW4xKVtDQEBIXTJPW0NASF0oW0NIMl1bT0hdKVtDQEBIXShbT0hdKVtDQEhdMltPSF0=

> <s_epik_cmdline>
J2VwaWtfcHl0aG9uJywgJy1waCcsICc3LjAnLCAnLXRuJywgJzgnLCAnLW1hJywgJzIwMCcsICctbWV0YWxfYmluZGluZycsICctaW1hZScsICc8aW5maWxlLm1hZT4nLCAnLW9tYWUnLCAnPG91dGZpbGUubWFlPic=

> <r_lp_tautomer_probability>
4.77166e-05

> <r_epik_Ionization_Penalty>
0.104979

> <r_epik_Ionization_Penalty_Charging>
0.0999619

> <r_epik_Ionization_Penalty_Neutral>
0.00501745

> <r_epik_State_Penalty>
2.51541

> <r_epik_Charging_Adjusted_Penalty>
2.61537

> <i_epik_Tot_Q>
1

> <i_epik_Tot_abs_Q>
1

> <r_epik_Metal_State_Penalty>
3.53763

> <b_epik_Metal_Only>
0

> <s_epik_Chemistry_Notes>
This compound contains an acetal/aminal-like group ( X-CH(R)-Y where X, Y are N, S, or O) that may be acid/base labile, releasing an aldehyde.

> <s_lp_Force_Field>
OPLS_2005

> <r_lp_Energy>
36.6563

> <b_lp_Chiralities_Consistent>
1

> <s_lp_Variant>
AV-unprocessed.smi:72-34

> <Gold.Version>
5.8.1

> <Gold.Id.Protein>
6NUR|6NUR_protein|mol2

> <Gold.PLP.Fitness>
37.8676

> <Gold.PLP.PLP>
-23.6497

> <Gold.PLP.part.hbond>
-7.0000

> <Gold.PLP.part.metal>
0.0000

> <Gold.PLP.part.buried>
0.1039

> <Gold.PLP.part.nonpolar>
-15.7650

> <Gold.PLP.part.repulsive>
0.0877

> <Gold.PLP.ligand.clash>
0.0000

> <Gold.PLP.ligand.torsion>
0.3181

> <Gold.PLP.Chemscore.Hbond>
4.4640

> <Gold.PLP.Chemscore.CHOScore>
0.4484

> <Gold.PLP.Chemscore.Metal>
0.0000

> <Gold.Chemscore.Hbonds>
donor molecule, donor type, donor heavy atom, donor atom, acceptor molecule, acceptor atom, score
      L1  H     3    30       P1  8028  1.60
      L1  H    10    27       P1  7957  1.00
      L1  H    12    28       P1  7957  1.00
      P1  H  7989  7998       L1    14  0.86
      L1  C     4    24       P1  8028  0.45

> <Gold.PLP.Chemscore.Internal.Correction>
0.1170

> <Gold.Rescore>
     Score         DG    S(hbond)    S(metal)    S(lipo)     H(rot)  DE(clash)    DE(int)     intcor
      6.64      -7.98       3.09        0.00      22.27       4.08       0.91       0.43       ----

> <Gold.Chemscore.Fitness>
6.6442

> <Gold.Chemscore.DG>
-7.9778

> <Gold.Chemscore.ZeroCoef>
-5.4800

> <Gold.Chemscore.Hbond>
3.0935

> <Gold.Chemscore.Metal>
0.0000

> <Gold.Chemscore.Lipo>
22.2734

> <Gold.Chemscore.Internal_Hbond>
0.0000

> <Gold.Chemscore.DEClash>
0.9086

> <Gold.Chemscore.DEInternal>
0.4251

> <Gold.Chemscore.Rot>
4.0783

> <Gold.Chemscore.Internal.Correction>
   9.000000E+99

> <Gold.Chemscore.Hbonds>
donor molecule, donor type, donor heavy atom, donor atom, acceptor molecule, acceptor atom, score
      L1  H     3    30       P1  8028  0.79
      L1  H    10    27       P1  7957  1.00
      L1  H    12    28       P1  7957  0.40
      P1  H  7989  7998       L1    14  0.53

> <Gold.Chemscore.Hbond.Weighted>
-10.3323

> <Gold.Chemscore.Metal.Weighted>
-0.0000

> <Gold.Chemscore.Lipo.Weighted>
-2.6060

> <Gold.Chemscore.Internal_Hbond.Weighted>
0.0000

> <Gold.Chemscore.DEClash.Weighted>
0.9086

> <Gold.Chemscore.DEInternal.Weighted>
0.4251

> <Gold.Chemscore.Rot.Weighted>
10.4404

> <Gold.Chemscore.Internal.Correction.Weighted>
   9.000000E+99

> <Gold.Protein.RotatedTorsions>
[ 6907 6896 6895 6894 ] final -168.22 input  -60.11 | X-H torsion
[ 7974 7965 7964 7962 ] final  -34.61 input  175.53 | X-H torsion
[ 8008 7997 7996 7995 ] final   44.80 input   59.86 | X-H torsion
[ 10167 10162 10161 10158 ] final   11.93 input  -65.29 | X-H torsion
[ 10718 10713 10712 10709 ] final  -91.53 input   66.30 | X-H torsion
[ 10763 10752 10751 10750 ] final  -54.51 input  -60.55 | X-H torsion
[ 11005 11000 10999 10996 ] final   69.96 input  -57.11 | X-H torsion

> <Gold.Protein.ActiveResidues>
 VAL166  LYS551  ARG553  GLY616  TRP617  ASP618  TYR619  PRO620  LYS621  CYS622 
 ASP623  PHE694  ASN695  SER759  ASP760  ASP761  ALA762  ILE779  LEU786  VAL792 
 PHE793  MET794  SER795  GLU796  ALA797  LYS798  CYS799  TRP800  GLU811  SER814 

> <Gold.Protein.RotatedAtoms>
  151.4720  133.3566  159.2824 H   0  0  0  0  0  0  0  0  0  0  0  0  # atno 6907 bound_to 6896
  150.8954  134.8364  159.7334 H   0  0  0  0  0  0  0  0  0  0  0  0  # atno 6908 bound_to 6896
  152.4848  134.4635  159.9664 H   0  0  0  0  0  0  0  0  0  0  0  0  # atno 6909 bound_to 6896
  146.0815  140.6059  142.8906 H   0  0  0  0  0  0  0  0  0  0  0  0  # atno 7974 bound_to 7965
  155.3254  140.3399  155.4240 H   0  0  0  0  0  0  0  0  0  0  0  0  # atno 8008 bound_to 7997
  156.1888  140.1690  156.8169 H   0  0  0  0  0  0  0  0  0  0  0  0  # atno 8009 bound_to 7997
  154.5418  140.0723  156.8505 H   0  0  0  0  0  0  0  0  0  0  0  0  # atno 8010 bound_to 7997
  140.6101  143.8426  150.7056 H   0  0  0  0  0  0  0  0  0  0  0  0  # atno 10167 bound_to 10162
  155.9994  130.4952  150.5488 H   0  0  0  0  0  0  0  0  0  0  0  0  # atno 10718 bound_to 10713
  154.1759  135.6451  153.5021 H   0  0  0  0  0  0  0  0  0  0  0  0  # atno 10763 bound_to 10752
  153.0072  135.5394  154.6564 H   0  0  0  0  0  0  0  0  0  0  0  0  # atno 10764 bound_to 10752
  154.5916  135.2934  155.0602 H   0  0  0  0  0  0  0  0  0  0  0  0  # atno 10765 bound_to 10752
  139.9624  134.7038  156.0617 H   0  0  0  0  0  0  0  0  0  0  0  0  # atno 11005 bound_to 11000
  144.7296  140.4632  143.6947 LP  0  0  0  0  0  0  0  0  0  0  0  0  # atno 17320 bound_to 7965
  145.6209  139.1524  143.3023 LP  0  0  0  0  0  0  0  0  0  0  0  0  # atno 17321 bound_to 7965
  140.1993  143.3973  152.1804 LP  0  0  0  0  0  0  0  0  0  0  0  0  # atno 17342 bound_to 10162
  139.5354  144.7204  151.4910 LP  0  0  0  0  0  0  0  0  0  0  0  0  # atno 17343 bound_to 10162
  157.3414  131.0717  151.1785 LP  0  0  0  0  0  0  0  0  0  0  0  0  # atno 17370 bound_to 10713
  157.2632  130.6669  149.5984 LP  0  0  0  0  0  0  0  0  0  0  0  0  # atno 17371 bound_to 10713
  141.1302  133.6588  156.3444 LP  0  0  0  0  0  0  0  0  0  0  0  0  # atno 17394 bound_to 11000
  140.5470  134.6064  157.5397 LP  0  0  0  0  0  0  0  0  0  0  0  0  # atno 17395 bound_to 11000

$$$$
