AV-unprocessed.smi:20|AV-procd|sdf|117|dock1
  -GOLD-   2262015283D 1   1.00000     0.00000
 Structure written by MMmdl.
 57 61  0  0  0  0  0  0  0  0  1 V2000
  145.5015  143.4030  156.3609 O   0  0  0  0  0  0  0  0  0  0  0  0
  146.3157  142.9569  155.5559 C   0  0  0  0  0  0  0  0  0  0  0  0
  147.0864  141.6643  155.7630 C   0  0  0  0  0  0  0  0  0  0  0  0
  147.6611  141.3597  154.3582 C   0  0  2  0  0  0  0  0  0  0  0  0
  146.7402  140.3996  153.5581 C   0  0  0  0  0  0  0  0  0  0  0  0
  146.8076  138.9562  154.0871 C   0  0  0  0  0  0  0  0  0  0  0  0
  148.2588  138.4611  154.1600 C   0  0  0  0  0  0  0  0  0  0  0  0
  149.0865  139.3951  154.9201 N   0  0  0  0  0  0  0  0  0  0  0  0
  150.2660  138.8806  155.3511 C   0  0  0  0  0  0  0  0  0  0  0  0
  151.3289  138.8155  154.5046 N   0  0  0  0  0  0  0  0  0  0  0  0
  152.4917  138.3038  154.9185 C   0  0  0  0  0  0  0  0  0  0  0  0
  152.8070  137.8106  156.1174 N   0  0  0  0  0  0  0  0  0  0  0  0
  151.7469  137.8774  156.9720 C   0  0  0  0  0  0  0  0  0  0  0  0
  150.4535  138.3923  156.6750 C   0  0  0  0  0  0  0  0  0  0  0  0
  149.6417  138.3075  157.8007 N   0  0  0  0  0  0  0  0  0  0  0  0
  150.4086  137.7659  158.7076 C   0  0  0  0  0  0  0  0  0  0  0  0
  151.6876  137.4704  158.2926 N   0  0  0  0  0  0  0  0  0  0  0  0
  152.7490  136.8744  159.0843 C   0  0  0  0  0  0  0  0  0  0  0  0
  153.1990  137.7421  160.2898 C   0  0  2  0  0  0  0  0  0  0  0  0
  153.9627  139.0154  159.8440 C   0  0  0  0  0  0  0  0  0  0  0  0
  154.9608  138.7263  158.8869 O   0  0  0  0  0  0  0  0  0  0  0  0
  154.0509  136.9014  161.2766 C   0  0  1  0  0  0  0  0  0  0  0  0
  154.0410  137.4019  162.7202 C   0  0  0  0  0  0  0  0  0  0  0  0
  154.1456  136.1360  163.5765 C   0  0  0  0  0  0  0  0  0  0  0  0
  154.2331  135.0567  162.6584 O   0  0  0  0  0  0  0  0  0  0  0  0
  153.5885  135.4541  161.4614 C   0  0  0  0  0  0  0  0  0  0  0  0
  149.0885  140.7695  154.4152 C   0  0  0  0  0  0  0  0  0  0  0  0
  147.6657  142.7539  153.6872 C   0  0  0  0  0  0  0  0  0  0  0  0
  146.6541  143.5135  154.3956 N   0  0  0  0  0  0  0  0  0  0  0  0
  147.8765  141.8464  156.4923 H   0  0  0  0  0  0  0  0  0  0  0  0
  146.4414  140.8780  156.1537 H   0  0  0  0  0  0  0  0  0  0  0  0
  145.7080  140.7523  153.5705 H   0  0  0  0  0  0  0  0  0  0  0  0
  147.0458  140.3938  152.5108 H   0  0  0  0  0  0  0  0  0  0  0  0
  146.3515  138.8924  155.0749 H   0  0  0  0  0  0  0  0  0  0  0  0
  146.2250  138.2978  153.4424 H   0  0  0  0  0  0  0  0  0  0  0  0
  148.2782  137.4619  154.5938 H   0  0  0  0  0  0  0  0  0  0  0  0
  148.6697  138.3716  153.1535 H   0  0  0  0  0  0  0  0  0  0  0  0
  153.2828  138.2866  154.1835 H   0  0  0  0  0  0  0  0  0  0  0  0
  150.0590  137.5615  159.7092 H   0  0  0  0  0  0  0  0  0  0  0  0
  152.3833  135.9051  159.4218 H   0  0  0  0  0  0  0  0  0  0  0  0
  153.5979  136.6713  158.4304 H   0  0  0  0  0  0  0  0  0  0  0  0
  152.3060  138.0585  160.8311 H   0  0  0  0  0  0  0  0  0  0  0  0
  153.2933  139.7363  159.3765 H   0  0  0  0  0  0  0  0  0  0  0  0
  154.4120  139.5175  160.7011 H   0  0  0  0  0  0  0  0  0  0  0  0
  155.7852  138.6153  159.3356 H   0  0  0  0  0  0  0  0  0  0  0  0
  155.0859  136.8800  160.9306 H   0  0  0  0  0  0  0  0  0  0  0  0
  154.8659  138.0887  162.9124 H   0  0  0  0  0  0  0  0  0  0  0  0
  153.1123  137.9250  162.9524 H   0  0  0  0  0  0  0  0  0  0  0  0
  155.0167  136.1493  164.2320 H   0  0  0  0  0  0  0  0  0  0  0  0
  153.2561  136.0162  164.1961 H   0  0  0  0  0  0  0  0  0  0  0  0
  152.5061  135.3944  161.5895 H   0  0  0  0  0  0  0  0  0  0  0  0
  153.8771  134.8048  160.6347 H   0  0  0  0  0  0  0  0  0  0  0  0
  149.5293  140.7743  153.4171 H   0  0  0  0  0  0  0  0  0  0  0  0
  149.7212  141.3992  155.0430 H   0  0  0  0  0  0  0  0  0  0  0  0
  148.6243  143.2584  153.8183 H   0  0  0  0  0  0  0  0  0  0  0  0
  147.4547  142.7162  152.6181 H   0  0  0  0  0  0  0  0  0  0  0  0
  146.2712  144.3792  154.0441 H   0  0  0  0  0  0  0  0  0  0  0  0
  1  2  2  0  0  0  0
  2 29  1  0  0  0  0
  2  3  1  0  0  0  0
  3  4  1  0  0  0  0
  3 30  1  0  0  0  0
  3 31  1  0  0  0  0
  4 27  1  0  0  0  0
  4  5  1  0  0  0  0
  4 28  1  0  0  0  0
  5  6  1  0  0  0  0
  5 32  1  0  0  0  0
  5 33  1  0  0  0  0
  6  7  1  0  0  0  0
  6 34  1  0  0  0  0
  6 35  1  0  0  0  0
  7  8  1  0  0  0  0
  7 36  1  0  0  0  0
  7 37  1  0  0  0  0
  8  9  1  0  0  0  0
  8 27  1  0  0  0  0
  9 14  1  0  0  0  0
  9 10  2  0  0  0  0
 10 11  1  0  0  0  0
 11 12  2  0  0  0  0
 11 38  1  0  0  0  0
 12 13  1  0  0  0  0
 13 17  1  0  0  0  0
 13 14  2  0  0  0  0
 14 15  1  0  0  0  0
 15 16  2  0  0  0  0
 16 17  1  0  0  0  0
 16 39  1  0  0  0  0
 17 18  1  0  0  0  0
 18 19  1  0  0  0  0
 18 40  1  0  0  0  0
 18 41  1  0  0  0  0
 19 20  1  0  0  0  0
 19 22  1  0  0  0  0
 19 42  1  0  0  0  0
 20 21  1  0  0  0  0
 20 43  1  0  0  0  0
 20 44  1  0  0  0  0
 21 45  1  0  0  0  0
 22 26  1  0  0  0  0
 22 23  1  0  0  0  0
 22 46  1  0  0  0  0
 23 24  1  0  0  0  0
 23 47  1  0  0  0  0
 23 48  1  0  0  0  0
 24 25  1  0  0  0  0
 24 49  1  0  0  0  0
 24 50  1  0  0  0  0
 25 26  1  0  0  0  0
 26 51  1  0  0  0  0
 26 52  1  0  0  0  0
 27 53  1  0  0  0  0
 27 54  1  0  0  0  0
 28 29  1  0  0  0  0
 28 55  1  0  0  0  0
 28 56  1  0  0  0  0
 29 57  1  0  0  0  0
M  END
> <s_m_source_file>
AV-unprocessed.smi

> <i_m_source_file_index>
20

> <i_lp_mmshare_version>
43012

> <i_f3d_flags>
0

> <s_epik_input>
W0NIMl0xW05IXUMoPU8pW0NIMl1bQ0BAXTEyW0NIMl1bQ0gyXVtDSDJdTihbQ0gyXTIpYyhuW2NIXW4zKWMoYzM0KW5bY0hdbjRbQ0gyXVtDQEhdKFtDSDJdW09IXSlbQ0BASF01W0NIMl1bQ0gyXU9bQ0gyXTU=

> <s_epik_cmdline>
J2VwaWtfcHl0aG9uJywgJy1waCcsICc3LjAnLCAnLXRuJywgJzgnLCAnLW1hJywgJzIwMCcsICctbWV0YWxfYmluZGluZycsICctaW1hZScsICc8aW5maWxlLm1hZT4nLCAnLW9tYWUnLCAnPG91dGZpbGUubWFlPic=

> <r_lp_tautomer_probability>
1

> <r_epik_Ionization_Penalty>
0.0019697

> <r_epik_Ionization_Penalty_Charging>
0

> <r_epik_Ionization_Penalty_Neutral>
0.0019697

> <r_epik_State_Penalty>
0.00113613

> <r_epik_Charging_Adjusted_Penalty>
0.00113613

> <i_epik_Tot_Q>
0

> <i_epik_Tot_abs_Q>
0

> <r_epik_Metal_State_Penalty>
-0

> <b_epik_Metal_Only>
0

> <s_lp_Force_Field>
OPLS_2005

> <r_lp_Energy>
58.6133

> <b_lp_Chiralities_Consistent>
1

> <s_lp_Variant>
AV-unprocessed.smi:20-5

> <Gold.Version>
5.8.1

> <Gold.Id.Protein>
6NUR|6NUR_protein|mol2

> <Gold.PLP.Fitness>
42.9318

> <Gold.PLP.PLP>
-38.1505

> <Gold.PLP.part.hbond>
-3.0000

> <Gold.PLP.part.metal>
0.0000

> <Gold.PLP.part.buried>
-4.2475

> <Gold.PLP.part.nonpolar>
-31.0333

> <Gold.PLP.part.repulsive>
0.2497

> <Gold.PLP.ligand.clash>
0.0000

> <Gold.PLP.ligand.torsion>
0.9218

> <Gold.PLP.Chemscore.Hbond>
2.0000

> <Gold.PLP.Chemscore.CHOScore>
0.0000

> <Gold.PLP.Chemscore.Metal>
0.0000

> <Gold.Chemscore.Hbonds>
donor molecule, donor type, donor heavy atom, donor atom, acceptor molecule, acceptor atom, score
      P1  H  7989  7998       L1    10  0.34
      P1  H  7997  8008       L1    21  1.00

> <Gold.PLP.Chemscore.Internal.Correction>
0.6250

> <Gold.Rescore>
     Score         DG    S(hbond)    S(metal)    S(lipo)     H(rot)  DE(clash)    DE(int)     intcor
     11.87     -14.12       1.58        0.00      88.65       2.74       1.02       1.23       ----

> <Gold.Chemscore.Fitness>
11.8742

> <Gold.Chemscore.DG>
-14.1244

> <Gold.Chemscore.ZeroCoef>
-5.4800

> <Gold.Chemscore.Hbond>
1.5839

> <Gold.Chemscore.Metal>
0.0000

> <Gold.Chemscore.Lipo>
88.6519

> <Gold.Chemscore.Internal_Hbond>
0.0000

> <Gold.Chemscore.DEClash>
1.0183

> <Gold.Chemscore.DEInternal>
1.2319

> <Gold.Chemscore.Rot>
2.7415

> <Gold.Chemscore.Internal.Correction>
   9.000000E+99

> <Gold.Chemscore.Hbonds>
donor molecule, donor type, donor heavy atom, donor atom, acceptor molecule, acceptor atom, score
      P1  H  7989  7998       L1    10  0.19
      P1  H  7997  8008       L1    21  0.68

> <Gold.Chemscore.Hbond.Weighted>
-5.2904

> <Gold.Chemscore.Metal.Weighted>
-0.0000

> <Gold.Chemscore.Lipo.Weighted>
-10.3723

> <Gold.Chemscore.Internal_Hbond.Weighted>
0.0000

> <Gold.Chemscore.DEClash.Weighted>
1.0183

> <Gold.Chemscore.DEInternal.Weighted>
1.2319

> <Gold.Chemscore.Rot.Weighted>
7.0182

> <Gold.Chemscore.Internal.Correction.Weighted>
   9.000000E+99

> <Gold.Protein.RotatedTorsions>
[ 6907 6896 6895 6894 ] final  109.67 input  -60.11 | X-H torsion
[ 7974 7965 7964 7962 ] final   12.23 input  175.53 | X-H torsion
[ 8008 7997 7996 7995 ] final -124.54 input   59.86 | X-H torsion
[ 10167 10162 10161 10158 ] final   81.30 input  -65.29 | X-H torsion
[ 10718 10713 10712 10709 ] final  138.93 input   66.30 | X-H torsion
[ 10763 10752 10751 10750 ] final   39.85 input  -60.55 | X-H torsion
[ 11005 11000 10999 10996 ] final   95.89 input  -57.11 | X-H torsion

> <Gold.Protein.ActiveResidues>
 VAL166  LYS551  ARG553  GLY616  TRP617  ASP618  TYR619  PRO620  LYS621  CYS622 
 ASP623  PHE694  ASN695  SER759  ASP760  ASP761  ALA762  ILE779  LEU786  VAL792 
 PHE793  MET794  SER795  GLU796  ALA797  LYS798  CYS799  TRP800  GLU811  SER814 

> <Gold.Protein.RotatedAtoms>
  152.5056  133.8910  159.7393 H   0  0  0  0  0  0  0  0  0  0  0  0  # atno 6907 bound_to 6896
  150.9349  133.6715  159.2809 H   0  0  0  0  0  0  0  0  0  0  0  0  # atno 6908 bound_to 6896
  151.4046  135.0981  159.9619 H   0  0  0  0  0  0  0  0  0  0  0  0  # atno 6909 bound_to 6896
  146.2355  139.9367  142.8489 H   0  0  0  0  0  0  0  0  0  0  0  0  # atno 7974 bound_to 7965
  155.1986  140.0415  157.2913 H   0  0  0  0  0  0  0  0  0  0  0  0  # atno 8008 bound_to 7997
  154.6090  140.2472  155.7665 H   0  0  0  0  0  0  0  0  0  0  0  0  # atno 8009 bound_to 7997
  156.2368  140.2918  156.0343 H   0  0  0  0  0  0  0  0  0  0  0  0  # atno 8010 bound_to 7997
  139.9407  144.6091  150.8254 H   0  0  0  0  0  0  0  0  0  0  0  0  # atno 10167 bound_to 10162
  157.4199  131.1037  151.0364 H   0  0  0  0  0  0  0  0  0  0  0  0  # atno 10718 bound_to 10713
  152.9954  135.6208  154.2531 H   0  0  0  0  0  0  0  0  0  0  0  0  # atno 10763 bound_to 10752
  154.2269  135.2793  155.2906 H   0  0  0  0  0  0  0  0  0  0  0  0  # atno 10764 bound_to 10752
  154.5482  135.5741  153.6956 H   0  0  0  0  0  0  0  0  0  0  0  0  # atno 10765 bound_to 10752
  139.8785  134.8922  156.4077 H   0  0  0  0  0  0  0  0  0  0  0  0  # atno 11005 bound_to 11000
  145.1992  140.9847  143.4165 LP  0  0  0  0  0  0  0  0  0  0  0  0  # atno 17320 bound_to 7965
  144.9788  139.3804  143.6272 LP  0  0  0  0  0  0  0  0  0  0  0  0  # atno 17321 bound_to 7965
  140.7611  143.3168  151.2715 LP  0  0  0  0  0  0  0  0  0  0  0  0  # atno 17342 bound_to 10162
  139.6707  144.0026  152.2751 LP  0  0  0  0  0  0  0  0  0  0  0  0  # atno 17343 bound_to 10162
  157.1298  130.6097  149.5526 LP  0  0  0  0  0  0  0  0  0  0  0  0  # atno 17370 bound_to 10713
  155.9877  130.4918  150.7138 LP  0  0  0  0  0  0  0  0  0  0  0  0  # atno 17371 bound_to 10713
  140.9222  133.7637  155.9921 LP  0  0  0  0  0  0  0  0  0  0  0  0  # atno 17394 bound_to 11000
  140.8426  134.3048  157.5307 LP  0  0  0  0  0  0  0  0  0  0  0  0  # atno 17395 bound_to 11000

$$$$
