AV-unprocessed.smi:1002|AV-procd|sdf|4358|dock1
  -GOLD-   22720 2253D 1   1.00000     0.00000
 Structure written by MMmdl.
 36 37  0  0  0  0  0  0  0  0  2 V2000
  146.5651  133.0957  154.3910 O   0  0  0  0  0  0  0  0  0  0  0  0
  146.9032  133.8192  153.4546 C   0  0  0  0  0  0  0  0  0  0  0  0
  145.8357  134.5160  152.6060 C   0  0  0  0  0  0  0  0  0  0  0  0
  145.2408  133.5712  151.5743 C   0  0  0  0  0  0  0  0  0  0  0  0
  143.8439  133.4046  151.4678 C   0  0  0  0  0  0  0  0  0  0  0  0
  143.3447  132.5161  150.4944 C   0  0  0  0  0  0  0  0  0  0  0  0
  144.1364  131.8122  149.6568 N   0  0  0  0  0  0  0  0  0  0  0  0
  145.4726  131.9742  149.7657 C   0  0  0  0  0  0  0  0  0  0  0  0
  146.0739  132.8366  150.7040 C   0  0  0  0  0  0  0  0  0  0  0  0
  148.1829  134.0292  153.1058 N   0  0  0  0  0  0  0  0  0  0  0  0
  149.3510  133.4524  153.7633 C   0  0  2  0  0  0  0  0  0  0  0  0
  149.1228  131.9441  153.9774 C   0  0  0  0  0  0  0  0  0  0  0  0
  150.2859  131.3000  154.7488 C   0  0  0  0  0  0  0  0  0  0  0  0
  150.5174  132.0113  156.0977 C   0  0  1  0  0  0  0  0  0  0  0  0
  151.6902  131.3663  156.8496 C   0  0  0  0  0  0  0  0  0  0  0  0
  152.0086  131.8499  157.9590 O   0  0  0  0  0  0  0  0  0  0  0  0
  152.2535  130.3968  156.2959 O   0  5  0  0  0  0  0  0  0  0  0  0
  150.7736  133.5167  155.8753 C   0  0  0  0  0  0  0  0  0  0  0  0
  149.6149  134.1682  155.1035 C   0  0  0  0  0  0  0  0  0  0  0  0
  145.0509  134.8988  153.2595 H   0  0  0  0  0  0  0  0  0  0  0  0
  146.2705  135.3781  152.0981 H   0  0  0  0  0  0  0  0  0  0  0  0
  143.1692  133.9466  152.1140 H   0  0  0  0  0  0  0  0  0  0  0  0
  142.2807  132.3670  150.3862 H   0  0  0  0  0  0  0  0  0  0  0  0
  146.0819  131.3993  149.0839 H   0  0  0  0  0  0  0  0  0  0  0  0
  147.1489  132.9311  150.7507 H   0  0  0  0  0  0  0  0  0  0  0  0
  148.3627  134.6387  152.3210 H   0  0  0  0  0  0  0  0  0  0  0  0
  150.2265  133.5720  153.1220 H   0  0  0  0  0  0  0  0  0  0  0  0
  148.1948  131.7836  154.5283 H   0  0  0  0  0  0  0  0  0  0  0  0
  149.0007  131.4447  153.0155 H   0  0  0  0  0  0  0  0  0  0  0  0
  150.0747  130.2424  154.9119 H   0  0  0  0  0  0  0  0  0  0  0  0
  151.1890  131.3441  154.1376 H   0  0  0  0  0  0  0  0  0  0  0  0
  149.6196  131.8988  156.7083 H   0  0  0  0  0  0  0  0  0  0  0  0
  150.9031  134.0215  156.8336 H   0  0  0  0  0  0  0  0  0  0  0  0
  151.7007  133.6667  155.3195 H   0  0  0  0  0  0  0  0  0  0  0  0
  149.8391  135.2211  154.9287 H   0  0  0  0  0  0  0  0  0  0  0  0
  148.7146  134.1428  155.7191 H   0  0  0  0  0  0  0  0  0  0  0  0
  1  2  2  0  0  0  0
  2  3  1  0  0  0  0
  2 10  1  0  0  0  0
  3  4  1  0  0  0  0
  3 20  1  0  0  0  0
  3 21  1  0  0  0  0
  4  9  1  0  0  0  0
  4  5  2  0  0  0  0
  5  6  1  0  0  0  0
  5 22  1  0  0  0  0
  6  7  2  0  0  0  0
  6 23  1  0  0  0  0
  7  8  1  0  0  0  0
  8  9  2  0  0  0  0
  8 24  1  0  0  0  0
  9 25  1  0  0  0  0
 10 11  1  0  0  0  0
 10 26  1  0  0  0  0
 11 19  1  0  0  0  0
 11 12  1  0  0  0  0
 11 27  1  0  0  0  0
 12 13  1  0  0  0  0
 12 28  1  0  0  0  0
 12 29  1  0  0  0  0
 13 14  1  0  0  0  0
 13 30  1  0  0  0  0
 13 31  1  0  0  0  0
 14 15  1  0  0  0  0
 14 18  1  0  0  0  0
 14 32  1  0  0  0  0
 15 16  2  0  0  0  0
 15 17  1  0  0  0  0
 18 19  1  0  0  0  0
 18 33  1  0  0  0  0
 18 34  1  0  0  0  0
 19 35  1  0  0  0  0
 19 36  1  0  0  0  0
M  CHG  1  17  -1
M  END
> <s_m_source_file>
AV-unprocessed.smi

> <i_m_source_file_index>
1002

> <i_lp_mmshare_version>
43012

> <i_f3d_flags>
0

> <s_epik_input>
Tz1DKFtPSF0pW0NAQEhdKFtDSDJdW0NIMl0xKVtDSDJdW0NIMl1bQ0BIXTFbTkhdQyg9TylbQ0gyXWMyW2NIXVtjSF1uW2NIXVtjSF0y

> <s_epik_cmdline>
J2VwaWtfcHl0aG9uJywgJy1waCcsICc3LjAnLCAnLXRuJywgJzgnLCAnLW1hJywgJzIwMCcsICctbWV0YWxfYmluZGluZycsICctaW1hZScsICc8aW5maWxlLm1hZT4nLCAnLW9tYWUnLCAnPG91dGZpbGUubWFlPic=

> <r_lp_tautomer_probability>
1

> <r_epik_Ionization_Penalty>
0.0065671

> <r_epik_Ionization_Penalty_Charging>
0.00222897

> <r_epik_Ionization_Penalty_Neutral>
0.00433813

> <r_epik_State_Penalty>
-0

> <r_epik_Charging_Adjusted_Penalty>
0.00222897

> <i_epik_Tot_Q>
-1

> <i_epik_Tot_abs_Q>
1

> <r_epik_Metal_State_Penalty>
-0

> <b_epik_Metal_Only>
0

> <s_lp_Force_Field>
OPLS_2005

> <r_lp_Energy>
12.3295

> <b_lp_Chiralities_Consistent>
1

> <s_lp_Variant>
AV-unprocessed.smi:1002-1

> <Gold.Version>
5.8.1

> <Gold.Id.Protein>
6NUR|6NUR_protein|mol2

> <Gold.PLP.Fitness>
48.2259

> <Gold.PLP.PLP>
-33.8604

> <Gold.PLP.part.hbond>
-3.0000

> <Gold.PLP.part.metal>
0.0000

> <Gold.PLP.part.buried>
-3.8257

> <Gold.PLP.part.nonpolar>
-27.7385

> <Gold.PLP.part.repulsive>
0.2614

> <Gold.PLP.ligand.clash>
0.0000

> <Gold.PLP.ligand.torsion>
0.5393

> <Gold.PLP.Chemscore.Hbond>
3.4538

> <Gold.PLP.Chemscore.CHOScore>
1.6879

> <Gold.PLP.Chemscore.Metal>
0.0000

> <Gold.Chemscore.Hbonds>
donor molecule, donor type, donor heavy atom, donor atom, acceptor molecule, acceptor atom, score
      L1  H    10    26       P1  7948  0.73
      P1  H  6896  6909       L1    16  2.00
      P1  H 10785 10796       L1     7  0.54
      L1  C     6    23       P1 10186  0.67
      L1  C     6    23       P1 10952  0.80

> <Gold.PLP.Chemscore.Internal.Correction>
0.0190

> <Gold.Rescore>
     Score         DG    S(hbond)    S(metal)    S(lipo)     H(rot)  DE(clash)    DE(int)     intcor
     16.12     -17.80       2.54        0.00      73.90       1.88       0.14       1.54       ----

> <Gold.Chemscore.Fitness>
16.1169

> <Gold.Chemscore.DG>
-17.8012

> <Gold.Chemscore.ZeroCoef>
-5.4800

> <Gold.Chemscore.Hbond>
2.5432

> <Gold.Chemscore.Metal>
0.0000

> <Gold.Chemscore.Lipo>
73.9043

> <Gold.Chemscore.Internal_Hbond>
0.0000

> <Gold.Chemscore.DEClash>
0.1394

> <Gold.Chemscore.DEInternal>
1.5449

> <Gold.Chemscore.Rot>
1.8828

> <Gold.Chemscore.Internal.Correction>
   9.000000E+99

> <Gold.Chemscore.Hbonds>
donor molecule, donor type, donor heavy atom, donor atom, acceptor molecule, acceptor atom, score
      L1  H    10    26       P1  7948  0.10
      P1  H  6896  6909       L1    16  0.96
      P1  H 10785 10796       L1     7  0.48

> <Gold.Chemscore.Hbond.Weighted>
-8.4942

> <Gold.Chemscore.Metal.Weighted>
-0.0000

> <Gold.Chemscore.Lipo.Weighted>
-8.6468

> <Gold.Chemscore.Internal_Hbond.Weighted>
0.0000

> <Gold.Chemscore.DEClash.Weighted>
0.1394

> <Gold.Chemscore.DEInternal.Weighted>
1.5449

> <Gold.Chemscore.Rot.Weighted>
4.8199

> <Gold.Chemscore.Internal.Correction.Weighted>
   9.000000E+99

> <Gold.Protein.RotatedTorsions>
[ 6907 6896 6895 6894 ] final  -74.60 input  -60.11 | X-H torsion
[ 7974 7965 7964 7962 ] final -110.24 input  175.53 | X-H torsion
[ 8008 7997 7996 7995 ] final  118.16 input   59.86 | X-H torsion
[ 10167 10162 10161 10158 ] final  -56.63 input  -65.29 | X-H torsion
[ 10718 10713 10712 10709 ] final  152.59 input   66.30 | X-H torsion
[ 10763 10752 10751 10750 ] final  155.34 input  -60.55 | X-H torsion
[ 11005 11000 10999 10996 ] final   71.00 input  -57.11 | X-H torsion

> <Gold.Protein.ActiveResidues>
 VAL166  LYS551  ARG553  GLY616  TRP617  ASP618  TYR619  PRO620  LYS621  CYS622 
 ASP623  PHE694  ASN695  SER759  ASP760  ASP761  ALA762  ILE779  LEU786  VAL792 
 PHE793  MET794  SER795  GLU796  ALA797  LYS798  CYS799  TRP800  GLU811  SER814 

> <Gold.Protein.RotatedAtoms>
  150.7087  134.4845  159.5485 H   0  0  0  0  0  0  0  0  0  0  0  0  # atno 6907 bound_to 6896
  152.2475  134.8163  160.0460 H   0  0  0  0  0  0  0  0  0  0  0  0  # atno 6908 bound_to 6896
  151.8922  133.3483  159.3839 H   0  0  0  0  0  0  0  0  0  0  0  0  # atno 6909 bound_to 6896
  145.1706  140.8924  143.3537 H   0  0  0  0  0  0  0  0  0  0  0  0  # atno 7974 bound_to 7965
  156.2532  140.2881  156.0791 H   0  0  0  0  0  0  0  0  0  0  0  0  # atno 8008 bound_to 7997
  155.1586  140.0399  157.2855 H   0  0  0  0  0  0  0  0  0  0  0  0  # atno 8009 bound_to 7997
  154.6409  140.2522  155.7330 H   0  0  0  0  0  0  0  0  0  0  0  0  # atno 8010 bound_to 7997
  140.6306  143.2457  151.5251 H   0  0  0  0  0  0  0  0  0  0  0  0  # atno 10167 bound_to 10162
  157.2557  131.0788  151.1700 H   0  0  0  0  0  0  0  0  0  0  0  0  # atno 10718 bound_to 10713
  154.1668  135.2806  155.3093 H   0  0  0  0  0  0  0  0  0  0  0  0  # atno 10763 bound_to 10752
  154.6105  135.5500  153.7472 H   0  0  0  0  0  0  0  0  0  0  0  0  # atno 10764 bound_to 10752
  153.0176  135.6414  154.1809 H   0  0  0  0  0  0  0  0  0  0  0  0  # atno 10765 bound_to 10752
  139.9567  134.7132  156.0737 H   0  0  0  0  0  0  0  0  0  0  0  0  # atno 11005 bound_to 11000
  145.0236  139.3402  143.6060 LP  0  0  0  0  0  0  0  0  0  0  0  0  # atno 17320 bound_to 7965
  146.3469  139.9547  142.8724 LP  0  0  0  0  0  0  0  0  0  0  0  0  # atno 17321 bound_to 7965
  139.5521  144.2370  152.1548 LP  0  0  0  0  0  0  0  0  0  0  0  0  # atno 17342 bound_to 10162
  140.1613  144.5023  150.6631 LP  0  0  0  0  0  0  0  0  0  0  0  0  # atno 17343 bound_to 10162
  157.3229  130.6946  149.6280 LP  0  0  0  0  0  0  0  0  0  0  0  0  # atno 17370 bound_to 10713
  155.9665  130.4330  150.4987 LP  0  0  0  0  0  0  0  0  0  0  0  0  # atno 17371 bound_to 10713
  141.1239  133.6605  156.3287 LP  0  0  0  0  0  0  0  0  0  0  0  0  # atno 17394 bound_to 11000
  140.5593  134.5950  157.5429 LP  0  0  0  0  0  0  0  0  0  0  0  0  # atno 17395 bound_to 11000

$$$$
