AV-unprocessed.smi:1208|AV-procd|sdf|5064|dock8
  -GOLD-   22720 4103D 1   1.00000     0.00000
 Structure written by MMmdl.
 35 36  0  0  0  0  0  0  0  0  2 V2000
  148.8859  140.4575  156.5553 C   0  0  0  0  0  0  0  0  0  0  0  0
  149.6865  140.4194  157.8671 C   0  0  1  0  0  0  0  0  0  0  0  0
  149.8711  139.0435  158.3159 N   0  0  0  0  0  0  0  0  0  0  0  0
  148.9047  138.1526  158.5878 C   0  0  0  0  0  0  0  0  0  0  0  0
  147.7093  138.3816  158.4051 O   0  0  0  0  0  0  0  0  0  0  0  0
  149.3372  136.8023  159.1859 C   0  0  0  0  0  0  0  0  0  0  0  0
  148.3370  136.1837  160.0736 N   0  0  0  0  0  0  0  0  0  0  0  0
  147.6843  137.1243  160.9798 N   0  5  0  0  0  0  0  0  0  0  0  0
  146.7087  136.6738  161.8125 C   0  0  0  0  0  0  0  0  0  0  0  0
  146.1025  137.4091  162.5881 O   0  0  0  0  0  0  0  0  0  0  0  0
  146.3764  135.2593  161.7754 C   0  0  0  0  0  0  0  0  0  0  0  0
  147.0037  134.4110  160.9372 C   0  0  0  0  0  0  0  0  0  0  0  0
  148.0442  134.8527  160.0167 C   0  0  0  0  0  0  0  0  0  0  0  0
  148.6081  134.0863  159.2359 O   0  0  0  0  0  0  0  0  0  0  0  0
  151.0582  141.1156  157.7346 C   0  0  1  0  0  0  0  0  0  0  0  0
  150.9934  142.6124  157.3823 C   0  0  0  0  0  0  0  0  0  0  0  0
  152.0832  143.2155  158.2424 C   0  0  0  0  0  0  0  0  0  0  0  0
  152.0210  142.3309  159.4787 C   0  0  0  0  0  0  0  0  0  0  0  0
  151.7894  141.0289  158.9595 O   0  0  0  0  0  0  0  0  0  0  0  0
  148.7372  141.4829  156.2170 H   0  0  0  0  0  0  0  0  0  0  0  0
  147.9005  140.0079  156.6810 H   0  0  0  0  0  0  0  0  0  0  0  0
  149.3990  139.9157  155.7600 H   0  0  0  0  0  0  0  0  0  0  0  0
  149.1174  140.9598  158.6255 H   0  0  0  0  0  0  0  0  0  0  0  0
  150.8238  138.7502  158.4825 H   0  0  0  0  0  0  0  0  0  0  0  0
  149.5818  136.1178  158.3719 H   0  0  0  0  0  0  0  0  0  0  0  0
  150.2736  136.9583  159.7242 H   0  0  0  0  0  0  0  0  0  0  0  0
  145.6102  134.8798  162.4352 H   0  0  0  0  0  0  0  0  0  0  0  0
  146.7249  133.3680  160.9434 H   0  0  0  0  0  0  0  0  0  0  0  0
  151.6510  140.6041  156.9751 H   0  0  0  0  0  0  0  0  0  0  0  0
  151.1450  142.7995  156.3191 H   0  0  0  0  0  0  0  0  0  0  0  0
  150.0337  143.0505  157.6583 H   0  0  0  0  0  0  0  0  0  0  0  0
  153.0525  143.1112  157.7534 H   0  0  0  0  0  0  0  0  0  0  0  0
  151.9188  144.2701  158.4653 H   0  0  0  0  0  0  0  0  0  0  0  0
  152.9311  142.3715  160.0768 H   0  0  0  0  0  0  0  0  0  0  0  0
  151.1811  142.6152  160.1129 H   0  0  0  0  0  0  0  0  0  0  0  0
  1  2  1  0  0  0  0
  1 20  1  0  0  0  0
  1 21  1  0  0  0  0
  1 22  1  0  0  0  0
  2  3  1  0  0  0  0
  2 15  1  0  0  0  0
  2 23  1  0  0  0  0
  3  4  1  0  0  0  0
  3 24  1  0  0  0  0
  4  5  2  0  0  0  0
  4  6  1  0  0  0  0
  6 25  1  0  0  0  0
  6 26  1  0  0  0  0
  6  7  1  0  0  0  0
  7  8  1  0  0  0  0
  7 13  1  0  0  0  0
  8  9  1  0  0  0  0
  9 10  2  0  0  0  0
  9 11  1  0  0  0  0
 11 27  1  0  0  0  0
 11 12  2  0  0  0  0
 12 28  1  0  0  0  0
 12 13  1  0  0  0  0
 13 14  2  0  0  0  0
 15 19  1  0  0  0  0
 15 16  1  0  0  0  0
 15 29  1  0  0  0  0
 16 17  1  0  0  0  0
 16 30  1  0  0  0  0
 16 31  1  0  0  0  0
 17 18  1  0  0  0  0
 17 32  1  0  0  0  0
 17 33  1  0  0  0  0
 18 19  1  0  0  0  0
 18 34  1  0  0  0  0
 18 35  1  0  0  0  0
M  CHG  1   8  -1
M  END
> <s_m_source_file>
AV-unprocessed.smi

> <i_m_source_file_index>
1208

> <i_lp_mmshare_version>
43012

> <i_f3d_flags>
0

> <s_epik_input>
TzFbQ0gyXVtDSDJdW0NIMl1bQ0BIXTFbQ0BIXShbQ0gzXSlbTkhdQyg9TylbQ0gyXW4yW25IXWMoPU8pW2NIXVtjSF1jMj1P

> <s_epik_cmdline>
J2VwaWtfcHl0aG9uJywgJy1waCcsICc3LjAnLCAnLXRuJywgJzgnLCAnLW1hJywgJzIwMCcsICctbWV0YWxfYmluZGluZycsICctaW1hZScsICc8aW5maWxlLm1hZT4nLCAnLW9tYWUnLCAnPG91dGZpbGUubWFlPic=

> <r_lp_tautomer_probability>
1

> <r_epik_Ionization_Penalty>
0.0975494

> <r_epik_Ionization_Penalty_Charging>
0.0975494

> <r_epik_Ionization_Penalty_Neutral>
2.30132e-08

> <r_epik_State_Penalty>
0.034345

> <r_epik_Charging_Adjusted_Penalty>
0.131894

> <i_epik_Tot_Q>
-1

> <i_epik_Tot_abs_Q>
1

> <r_epik_Metal_State_Penalty>
0.034345

> <b_epik_Metal_Only>
0

> <s_lp_Force_Field>
OPLS_2005

> <r_lp_Energy>
31.4648

> <b_lp_Chiralities_Consistent>
1

> <s_lp_Variant>
AV-unprocessed.smi:1208-4

> <Gold.Version>
5.8.1

> <Gold.Id.Protein>
6NUR|6NUR_protein|mol2

> <Gold.PLP.Fitness>
41.0406

> <Gold.PLP.PLP>
-28.2256

> <Gold.PLP.part.hbond>
-4.0817

> <Gold.PLP.part.metal>
0.0000

> <Gold.PLP.part.buried>
-5.0656

> <Gold.PLP.part.nonpolar>
-21.0209

> <Gold.PLP.part.repulsive>
0.1794

> <Gold.PLP.ligand.clash>
0.0000

> <Gold.PLP.ligand.torsion>
0.6220

> <Gold.PLP.Chemscore.Hbond>
4.6800

> <Gold.PLP.Chemscore.CHOScore>
0.0000

> <Gold.PLP.Chemscore.Metal>
0.0000

> <Gold.Chemscore.Hbonds>
donor molecule, donor type, donor heavy atom, donor atom, acceptor molecule, acceptor atom, score
      P1  H  6896  6909       L1    14  1.00
      P1  H  6931  6943       L1     8  1.82
      P1  H  6934  6947       L1     8  1.73

> <Gold.PLP.Chemscore.Internal.Correction>
0.0190

> <Gold.Rescore>
     Score         DG    S(hbond)    S(metal)    S(lipo)     H(rot)  DE(clash)    DE(int)     intcor
     11.81     -13.67       1.76        0.00      63.51       1.99       0.00       1.86       ----

> <Gold.Chemscore.Fitness>
11.8081

> <Gold.Chemscore.DG>
-13.6748

> <Gold.Chemscore.ZeroCoef>
-5.4800

> <Gold.Chemscore.Hbond>
1.7570

> <Gold.Chemscore.Metal>
0.0000

> <Gold.Chemscore.Lipo>
63.5124

> <Gold.Chemscore.Internal_Hbond>
0.0000

> <Gold.Chemscore.DEClash>
0.0048

> <Gold.Chemscore.DEInternal>
1.8619

> <Gold.Chemscore.Rot>
1.9940

> <Gold.Chemscore.Internal.Correction>
   9.000000E+99

> <Gold.Chemscore.Hbonds>
donor molecule, donor type, donor heavy atom, donor atom, acceptor molecule, acceptor atom, score
      P1  H  6896  6909       L1    14  0.71
      P1  H  6931  6943       L1     8  0.58
      P1  H  6934  6947       L1     8  0.19

> <Gold.Chemscore.Hbond.Weighted>
-5.8685

> <Gold.Chemscore.Metal.Weighted>
-0.0000

> <Gold.Chemscore.Lipo.Weighted>
-7.4310

> <Gold.Chemscore.Internal_Hbond.Weighted>
0.0000

> <Gold.Chemscore.DEClash.Weighted>
0.0048

> <Gold.Chemscore.DEInternal.Weighted>
1.8619

> <Gold.Chemscore.Rot.Weighted>
5.1047

> <Gold.Chemscore.Internal.Correction.Weighted>
   9.000000E+99

> <Gold.Protein.RotatedTorsions>
[ 6907 6896 6895 6894 ] final   27.84 input  -60.11 | X-H torsion
[ 7974 7965 7964 7962 ] final  -94.36 input  175.53 | X-H torsion
[ 8008 7997 7996 7995 ] final -165.73 input   59.86 | X-H torsion
[ 10167 10162 10161 10158 ] final   43.36 input  -65.29 | X-H torsion
[ 10718 10713 10712 10709 ] final   69.12 input   66.30 | X-H torsion
[ 10763 10752 10751 10750 ] final  168.72 input  -60.55 | X-H torsion
[ 11005 11000 10999 10996 ] final   -8.07 input  -57.11 | X-H torsion

> <Gold.Protein.ActiveResidues>
 VAL166  LYS551  ARG553  GLY616  TRP617  ASP618  TYR619  PRO620  LYS621  CYS622 
 ASP623  PHE694  ASN695  SER759  ASP760  ASP761  ALA762  ILE779  LEU786  VAL792 
 PHE793  MET794  SER795  GLU796  ALA797  LYS798  CYS799  TRP800  GLU811  SER814 

> <Gold.Protein.RotatedAtoms>
  152.0082  134.9891  160.0567 H   0  0  0  0  0  0  0  0  0  0  0  0  # atno 6907 bound_to 6896
  152.1454  133.4484  159.4795 H   0  0  0  0  0  0  0  0  0  0  0  0  # atno 6908 bound_to 6896
  150.6869  134.2172  159.4425 H   0  0  0  0  0  0  0  0  0  0  0  0  # atno 6909 bound_to 6896
  145.3743  140.9509  143.2429 H   0  0  0  0  0  0  0  0  0  0  0  0  # atno 7974 bound_to 7965
  155.8539  140.0967  157.1657 H   0  0  0  0  0  0  0  0  0  0  0  0  # atno 8008 bound_to 7997
  154.3987  140.1378  156.3940 H   0  0  0  0  0  0  0  0  0  0  0  0  # atno 8009 bound_to 7997
  155.7931  140.3455  155.5363 H   0  0  0  0  0  0  0  0  0  0  0  0  # atno 8010 bound_to 7997
  140.3452  144.2420  150.6151 H   0  0  0  0  0  0  0  0  0  0  0  0  # atno 10167 bound_to 10162
  157.6328  130.9409  150.0470 H   0  0  0  0  0  0  0  0  0  0  0  0  # atno 10718 bound_to 10713
  154.3726  135.2753  155.2257 H   0  0  0  0  0  0  0  0  0  0  0  0  # atno 10763 bound_to 10752
  154.4398  135.5957  153.6125 H   0  0  0  0  0  0  0  0  0  0  0  0  # atno 10764 bound_to 10752
  152.9837  135.6016  154.3959 H   0  0  0  0  0  0  0  0  0  0  0  0  # atno 10765 bound_to 10752
  140.7195  133.8840  155.8810 H   0  0  0  0  0  0  0  0  0  0  0  0  # atno 11005 bound_to 11000
  144.8553  139.5259  143.6837 LP  0  0  0  0  0  0  0  0  0  0  0  0  # atno 17320 bound_to 7965
  146.2871  139.7034  142.9188 LP  0  0  0  0  0  0  0  0  0  0  0  0  # atno 17321 bound_to 7965
  140.5272  143.2252  151.8296 LP  0  0  0  0  0  0  0  0  0  0  0  0  # atno 17342 bound_to 10162
  139.4834  144.4765  151.9360 LP  0  0  0  0  0  0  0  0  0  0  0  0  # atno 17343 bound_to 10162
  156.1544  130.3643  149.9391 LP  0  0  0  0  0  0  0  0  0  0  0  0  # atno 17370 bound_to 10713
  156.7403  130.9077  151.3632 LP  0  0  0  0  0  0  0  0  0  0  0  0  # atno 17371 bound_to 10713
  141.0015  134.1143  157.4312 LP  0  0  0  0  0  0  0  0  0  0  0  0  # atno 17394 bound_to 11000
  139.8851  135.0069  156.6416 LP  0  0  0  0  0  0  0  0  0  0  0  0  # atno 17395 bound_to 11000

$$$$
