AV-unprocessed.smi:1052|AV-procd|sdf|4616|dock2
  -GOLD-   22720 3113D 1   1.00000     0.00000
 Structure written by MMmdl.
 40 41  0  0  0  0  0  0  0  0  1 V2000
  147.0634  140.0859  155.8708 C   0  0  0  0  0  0  0  0  0  0  0  0
  147.9142  140.6217  154.7056 C   0  0  0  0  0  0  0  0  0  0  0  0
  147.6920  139.7270  153.4685 C   0  0  0  0  0  0  0  0  0  0  0  0
  147.4932  142.0766  154.4079 C   0  0  0  0  0  0  0  0  0  0  0  0
  149.3153  140.5622  155.1389 N   0  0  0  0  0  0  0  0  0  0  0  0
  149.8424  140.9266  156.3214 C   0  0  0  0  0  0  0  0  0  0  0  0
  149.1851  141.3979  157.2500 O   0  0  0  0  0  0  0  0  0  0  0  0
  151.3611  140.7485  156.4583 C   0  0  0  0  0  0  0  0  0  0  0  0
  151.8779  141.1830  157.7645 N   0  0  0  0  0  0  0  0  0  0  0  0
  151.3351  142.3696  158.2185 N   0  0  0  0  0  0  0  0  0  0  0  0
  151.6870  142.8669  159.3563 C   0  0  0  0  0  0  0  0  0  0  0  0
  151.0428  144.1574  159.7763 C   0  0  0  0  0  0  0  0  0  0  0  0
  151.0366  145.3724  158.8782 C   0  0  0  0  0  0  0  0  0  0  0  0
  151.8519  145.3784  160.1506 C   0  0  0  0  0  0  0  0  0  0  0  0
  152.6698  142.1732  160.1646 C   0  0  0  0  0  0  0  0  0  0  0  0
  153.2116  141.0077  159.7339 C   0  0  0  0  0  0  0  0  0  0  0  0
  154.2586  140.2537  160.5499 C   0  0  0  0  0  0  0  0  0  0  0  0
  153.9293  138.9659  160.6517 F   0  0  0  0  0  0  0  0  0  0  0  0
  155.4574  140.3331  159.9711 F   0  0  0  0  0  0  0  0  0  0  0  0
  154.3707  140.7466  161.7843 F   0  0  0  0  0  0  0  0  0  0  0  0
  152.8059  140.4407  158.4391 C   0  0  0  0  0  0  0  0  0  0  0  0
  153.2527  139.3849  157.9880 O   0  0  0  0  0  0  0  0  0  0  0  0
  146.0011  140.0967  155.6241 H   0  0  0  0  0  0  0  0  0  0  0  0
  147.1966  140.6881  156.7706 H   0  0  0  0  0  0  0  0  0  0  0  0
  147.3305  139.0580  156.1205 H   0  0  0  0  0  0  0  0  0  0  0  0
  148.0108  138.7013  153.6580 H   0  0  0  0  0  0  0  0  0  0  0  0
  148.2403  140.0872  152.5982 H   0  0  0  0  0  0  0  0  0  0  0  0
  146.6378  139.6958  153.1913 H   0  0  0  0  0  0  0  0  0  0  0  0
  146.4281  142.1380  154.1822 H   0  0  0  0  0  0  0  0  0  0  0  0
  148.0231  142.4915  153.5505 H   0  0  0  0  0  0  0  0  0  0  0  0
  147.6852  142.7283  155.2611 H   0  0  0  0  0  0  0  0  0  0  0  0
  149.9615  140.1938  154.4558 H   0  0  0  0  0  0  0  0  0  0  0  0
  151.6313  139.7058  156.2795 H   0  0  0  0  0  0  0  0  0  0  0  0
  151.8382  141.3141  155.6558 H   0  0  0  0  0  0  0  0  0  0  0  0
  150.1431  143.9663  160.3583 H   0  0  0  0  0  0  0  0  0  0  0  0
  151.5796  145.3147  157.9366 H   0  0  0  0  0  0  0  0  0  0  0  0
  150.1316  145.9761  158.8581 H   0  0  0  0  0  0  0  0  0  0  0  0
  151.4888  145.9868  160.9764 H   0  0  0  0  0  0  0  0  0  0  0  0
  152.9344  145.3341  160.0463 H   0  0  0  0  0  0  0  0  0  0  0  0
  152.9562  142.6056  161.1116 H   0  0  0  0  0  0  0  0  0  0  0  0
  1  2  1  0  0  0  0
  1 23  1  0  0  0  0
  1 24  1  0  0  0  0
  1 25  1  0  0  0  0
  2  3  1  0  0  0  0
  2  4  1  0  0  0  0
  2  5  1  0  0  0  0
  3 26  1  0  0  0  0
  3 27  1  0  0  0  0
  3 28  1  0  0  0  0
  4 29  1  0  0  0  0
  4 30  1  0  0  0  0
  4 31  1  0  0  0  0
  5  6  1  0  0  0  0
  5 32  1  0  0  0  0
  6  7  2  0  0  0  0
  6  8  1  0  0  0  0
  8  9  1  0  0  0  0
  8 33  1  0  0  0  0
  8 34  1  0  0  0  0
  9 21  1  0  0  0  0
  9 10  1  0  0  0  0
 10 11  2  0  0  0  0
 11 12  1  0  0  0  0
 11 15  1  0  0  0  0
 12 14  1  0  0  0  0
 12 13  1  0  0  0  0
 12 35  1  0  0  0  0
 13 14  1  0  0  0  0
 13 36  1  0  0  0  0
 13 37  1  0  0  0  0
 14 38  1  0  0  0  0
 14 39  1  0  0  0  0
 15 16  2  0  0  0  0
 15 40  1  0  0  0  0
 16 17  1  0  0  0  0
 16 21  1  0  0  0  0
 17 18  1  0  0  0  0
 17 19  1  0  0  0  0
 17 20  1  0  0  0  0
 21 22  2  0  0  0  0
M  END
> <s_m_source_file>
AV-unprocessed.smi

> <i_m_source_file_index>
1052

> <i_lp_mmshare_version>
43012

> <i_f3d_flags>
0

> <s_epik_input>
W0NIM11DKFtDSDNdKShbQ0gzXSlbTkhdQyg9TylbQ0gyXW4xbmMoW0NIXTJbQ0gyXVtDSDJdMilbY0hdYyhDKEYpKEYpRiljMT1P

> <s_epik_cmdline>
J2VwaWtfcHl0aG9uJywgJy1waCcsICc3LjAnLCAnLXRuJywgJzgnLCAnLW1hJywgJzIwMCcsICctbWV0YWxfYmluZGluZycsICctaW1hZScsICc8aW5maWxlLm1hZT4nLCAnLW9tYWUnLCAnPG91dGZpbGUubWFlPic=

> <r_lp_tautomer_probability>
1

> <r_epik_Ionization_Penalty>
2.47799e-08

> <r_epik_Ionization_Penalty_Charging>
1.49243e-10

> <r_epik_Ionization_Penalty_Neutral>
2.46307e-08

> <r_epik_State_Penalty>
-0

> <r_epik_Charging_Adjusted_Penalty>
1.49243e-10

> <i_epik_Tot_Q>
0

> <i_epik_Tot_abs_Q>
0

> <r_epik_Metal_State_Penalty>
-0

> <b_epik_Metal_Only>
0

> <s_lp_Force_Field>
OPLS_2005

> <r_lp_Energy>
24.0208

> <b_lp_Chiralities_Consistent>
1

> <s_lp_Variant>
AV-unprocessed.smi:1052-1

> <Gold.Version>
5.8.1

> <Gold.Id.Protein>
6NUR|6NUR_protein|mol2

> <Gold.PLP.Fitness>
43.5384

> <Gold.PLP.PLP>
-41.8301

> <Gold.PLP.part.hbond>
-1.0000

> <Gold.PLP.part.metal>
0.0000

> <Gold.PLP.part.buried>
-3.4808

> <Gold.PLP.part.nonpolar>
-37.3016

> <Gold.PLP.part.repulsive>
0.2176

> <Gold.PLP.ligand.clash>
0.0719

> <Gold.PLP.ligand.torsion>
0.9256

> <Gold.PLP.Chemscore.Hbond>
1.0000

> <Gold.PLP.Chemscore.CHOScore>
0.0000

> <Gold.PLP.Chemscore.Metal>
0.0000

> <Gold.Chemscore.Hbonds>
donor molecule, donor type, donor heavy atom, donor atom, acceptor molecule, acceptor atom, score
      P1  H  7997  8009       L1    22  1.00

> <Gold.PLP.Chemscore.Internal.Correction>
0.6314

> <Gold.Rescore>
     Score         DG    S(hbond)    S(metal)    S(lipo)     H(rot)  DE(clash)    DE(int)     intcor
      9.25     -14.37       0.67        0.00      93.80       1.69       0.12       5.00       ----

> <Gold.Chemscore.Fitness>
9.2502

> <Gold.Chemscore.DG>
-14.3742

> <Gold.Chemscore.ZeroCoef>
-5.4800

> <Gold.Chemscore.Hbond>
0.6727

> <Gold.Chemscore.Metal>
0.0000

> <Gold.Chemscore.Lipo>
93.8004

> <Gold.Chemscore.Internal_Hbond>
0.0000

> <Gold.Chemscore.DEClash>
0.1199

> <Gold.Chemscore.DEInternal>
5.0042

> <Gold.Chemscore.Rot>
1.6903

> <Gold.Chemscore.Internal.Correction>
   9.000000E+99

> <Gold.Chemscore.Hbonds>
donor molecule, donor type, donor heavy atom, donor atom, acceptor molecule, acceptor atom, score
      P1  H  7997  8009       L1    22  0.25

> <Gold.Chemscore.Hbond.Weighted>
-2.2467

> <Gold.Chemscore.Metal.Weighted>
-0.0000

> <Gold.Chemscore.Lipo.Weighted>
-10.9746

> <Gold.Chemscore.Internal_Hbond.Weighted>
0.0000

> <Gold.Chemscore.DEClash.Weighted>
0.1199

> <Gold.Chemscore.DEInternal.Weighted>
5.0042

> <Gold.Chemscore.Rot.Weighted>
4.3272

> <Gold.Chemscore.Internal.Correction.Weighted>
   9.000000E+99

> <Gold.Protein.RotatedTorsions>
[ 6907 6896 6895 6894 ] final   98.73 input  -60.11 | X-H torsion
[ 7974 7965 7964 7962 ] final    6.29 input  175.53 | X-H torsion
[ 8008 7997 7996 7995 ] final  139.90 input   59.86 | X-H torsion
[ 10167 10162 10161 10158 ] final    8.97 input  -65.29 | X-H torsion
[ 10718 10713 10712 10709 ] final -163.47 input   66.30 | X-H torsion
[ 10763 10752 10751 10750 ] final  167.14 input  -60.55 | X-H torsion
[ 11005 11000 10999 10996 ] final  134.82 input  -57.11 | X-H torsion

> <Gold.Protein.ActiveResidues>
 VAL166  LYS551  ARG553  GLY616  TRP617  ASP618  TYR619  PRO620  LYS621  CYS622 
 ASP623  PHE694  ASN695  SER759  ASP760  ASP761  ALA762  ILE779  LEU786  VAL792 
 PHE793  MET794  SER795  GLU796  ALA797  LYS798  CYS799  TRP800  GLU811  SER814 

> <Gold.Protein.RotatedAtoms>
  152.5404  134.0536  159.8120 H   0  0  0  0  0  0  0  0  0  0  0  0  # atno 6907 bound_to 6896
  151.0674  133.5486  159.2637 H   0  0  0  0  0  0  0  0  0  0  0  0  # atno 6908 bound_to 6896
  151.2362  135.0580  159.9061 H   0  0  0  0  0  0  0  0  0  0  0  0  # atno 6909 bound_to 6896
  146.2435  140.0256  142.8394 H   0  0  0  0  0  0  0  0  0  0  0  0  # atno 7974 bound_to 7965
  156.2985  140.2355  156.4313 H   0  0  0  0  0  0  0  0  0  0  0  0  # atno 8008 bound_to 7997
  154.8267  140.0435  157.1469 H   0  0  0  0  0  0  0  0  0  0  0  0  # atno 8009 bound_to 7997
  154.9253  140.3009  155.5199 H   0  0  0  0  0  0  0  0  0  0  0  0  # atno 8010 bound_to 7997
  140.6283  143.8052  150.7261 H   0  0  0  0  0  0  0  0  0  0  0  0  # atno 10167 bound_to 10162
  156.6251  130.8906  151.2966 H   0  0  0  0  0  0  0  0  0  0  0  0  # atno 10718 bound_to 10713
  154.3494  135.2753  155.2380 H   0  0  0  0  0  0  0  0  0  0  0  0  # atno 10763 bound_to 10752
  154.4616  135.5905  153.6263 H   0  0  0  0  0  0  0  0  0  0  0  0  # atno 10764 bound_to 10752
  152.9851  135.6066  154.3703 H   0  0  0  0  0  0  0  0  0  0  0  0  # atno 10765 bound_to 10752
  139.9939  134.9504  156.9920 H   0  0  0  0  0  0  0  0  0  0  0  0  # atno 11005 bound_to 11000
  145.1201  140.9457  143.4605 LP  0  0  0  0  0  0  0  0  0  0  0  0  # atno 17320 bound_to 7965
  145.0489  139.3198  143.5938 LP  0  0  0  0  0  0  0  0  0  0  0  0  # atno 17321 bound_to 7965
  140.1657  143.4237  152.2036 LP  0  0  0  0  0  0  0  0  0  0  0  0  # atno 17342 bound_to 10162
  139.5500  144.7330  151.4464 LP  0  0  0  0  0  0  0  0  0  0  0  0  # atno 17343 bound_to 10162
  157.7216  130.9566  150.1463 LP  0  0  0  0  0  0  0  0  0  0  0  0  # atno 17370 bound_to 10713
  156.2280  130.3679  149.8478 LP  0  0  0  0  0  0  0  0  0  0  0  0  # atno 17371 bound_to 10713
  140.4855  134.1246  155.7224 LP  0  0  0  0  0  0  0  0  0  0  0  0  # atno 17394 bound_to 11000
  141.1589  133.8831  157.1903 LP  0  0  0  0  0  0  0  0  0  0  0  0  # atno 17395 bound_to 11000

$$$$
