AV-unprocessed.smi:2627|AV-procd|sdf|10242|dock5
  -GOLD-   2272014253D 1   1.00000     0.00000
 Structure written by MMmdl.
 40 42  0  0  0  0  0  0  0  0  2 V2000
  151.0451  136.3043  155.5359 C   0  0  0  0  0  0  0  0  0  0  0  0
  151.6204  137.5517  154.8524 C   0  0  1  0  0  0  0  0  0  0  0  0
  152.3043  137.1488  153.6840 O   0  0  0  0  0  0  0  0  0  0  0  0
  150.5366  138.5416  154.5538 C   0  0  0  0  0  0  0  0  0  0  0  0
  149.4371  138.3006  153.7838 N   0  3  0  0  0  0  0  0  0  0  0  0
  148.6224  139.4316  153.7507 C   0  0  0  0  0  0  0  0  0  0  0  0
  147.4100  139.6620  153.1079 C   0  0  0  0  0  0  0  0  0  0  0  0
  146.8308  140.9351  153.2875 C   0  0  0  0  0  0  0  0  0  0  0  0
  147.4542  141.9193  154.0819 C   0  0  0  0  0  0  0  0  0  0  0  0
  148.6838  141.6738  154.7280 C   0  0  0  0  0  0  0  0  0  0  0  0
  149.2522  140.4135  154.5421 C   0  0  0  0  0  0  0  0  0  0  0  0
  150.4325  139.8244  155.0117 N   0  0  0  0  0  0  0  0  0  0  0  0
  151.3217  140.6058  155.8833 C   0  0  0  0  0  0  0  0  0  0  0  0
  150.5562  141.2604  157.0391 C   0  0  0  0  0  0  0  0  0  0  0  0
  151.0657  142.5718  157.2333 O   0  0  0  0  0  0  0  0  0  0  0  0
  151.5787  142.8944  158.4715 C   0  0  0  0  0  0  0  0  0  0  0  0
  152.1082  141.8372  159.2405 C   0  0  0  0  0  0  0  0  0  0  0  0
  152.6491  142.0754  160.5188 C   0  0  0  0  0  0  0  0  0  0  0  0
  152.6656  143.3807  161.0433 C   0  0  0  0  0  0  0  0  0  0  0  0
  152.1425  144.4456  160.2868 C   0  0  0  0  0  0  0  0  0  0  0  0
  151.6025  144.2072  159.0077 C   0  0  0  0  0  0  0  0  0  0  0  0
  150.5438  136.5632  156.4689 H   0  0  0  0  0  0  0  0  0  0  0  0
  151.8318  135.5879  155.7741 H   0  0  0  0  0  0  0  0  0  0  0  0
  150.3182  135.7999  154.8982 H   0  0  0  0  0  0  0  0  0  0  0  0
  152.3555  138.0097  155.5131 H   0  0  0  0  0  0  0  0  0  0  0  0
  151.6658  136.9262  153.0234 H   0  0  0  0  0  0  0  0  0  0  0  0
  146.9295  138.9080  152.5018 H   0  0  0  0  0  0  0  0  0  0  0  0
  145.8889  141.1606  152.8084 H   0  0  0  0  0  0  0  0  0  0  0  0
  146.9795  142.8829  154.1985 H   0  0  0  0  0  0  0  0  0  0  0  0
  149.1493  142.4349  155.3364 H   0  0  0  0  0  0  0  0  0  0  0  0
  152.0920  139.9389  156.2695 H   0  0  0  0  0  0  0  0  0  0  0  0
  151.8431  141.3537  155.2856 H   0  0  0  0  0  0  0  0  0  0  0  0
  149.4910  141.3009  156.8056 H   0  0  0  0  0  0  0  0  0  0  0  0
  150.6859  140.6680  157.9458 H   0  0  0  0  0  0  0  0  0  0  0  0
  152.0982  140.8314  158.8469 H   0  0  0  0  0  0  0  0  0  0  0  0
  153.0499  141.2560  161.0970 H   0  0  0  0  0  0  0  0  0  0  0  0
  153.0784  143.5650  162.0243 H   0  0  0  0  0  0  0  0  0  0  0  0
  152.1546  145.4481  160.6885 H   0  0  0  0  0  0  0  0  0  0  0  0
  151.2118  145.0501  158.4585 H   0  0  0  0  0  0  0  0  0  0  0  0
  149.2611  137.4185  153.3197 H   0  0  0  0  0  0  0  0  0  0  0  0
  1  2  1  0  0  0  0
  1 22  1  0  0  0  0
  1 23  1  0  0  0  0
  1 24  1  0  0  0  0
  2  3  1  0  0  0  0
  2  4  1  0  0  0  0
  2 25  1  0  0  0  0
  3 26  1  0  0  0  0
  4 12  1  0  0  0  0
  4  5  2  0  0  0  0
  5  6  1  0  0  0  0
  5 40  1  0  0  0  0
  6 11  2  0  0  0  0
  6  7  1  0  0  0  0
  7  8  2  0  0  0  0
  7 27  1  0  0  0  0
  8  9  1  0  0  0  0
  8 28  1  0  0  0  0
  9 10  2  0  0  0  0
  9 29  1  0  0  0  0
 10 11  1  0  0  0  0
 10 30  1  0  0  0  0
 11 12  1  0  0  0  0
 12 13  1  0  0  0  0
 13 14  1  0  0  0  0
 13 31  1  0  0  0  0
 13 32  1  0  0  0  0
 14 15  1  0  0  0  0
 14 33  1  0  0  0  0
 14 34  1  0  0  0  0
 15 16  1  0  0  0  0
 16 21  1  0  0  0  0
 16 17  2  0  0  0  0
 17 18  1  0  0  0  0
 17 35  1  0  0  0  0
 18 19  2  0  0  0  0
 18 36  1  0  0  0  0
 19 20  1  0  0  0  0
 19 37  1  0  0  0  0
 20 21  2  0  0  0  0
 20 38  1  0  0  0  0
 21 39  1  0  0  0  0
M  CHG  1   5   1
M  END
> <s_m_source_file>
AV-unprocessed.smi

> <i_m_source_file_index>
2627

> <i_lp_mmshare_version>
43012

> <i_f3d_flags>
0

> <s_epik_input>
W2NIXTFbY0hdW2NIXVtjSF1jKGMxMiluKGMobjIpW0NASF0oW0NIM10pW09IXSlbQ0gyXVtDSDJdT2MzW2NIXVtjSF1bY0hdW2NIXVtjSF0z

> <s_epik_cmdline>
J2VwaWtfcHl0aG9uJywgJy1waCcsICc3LjAnLCAnLXRuJywgJzgnLCAnLW1hJywgJzIwMCcsICctbWV0YWxfYmluZGluZycsICctaW1hZScsICc8aW5maWxlLm1hZT4nLCAnLW9tYWUnLCAnPG91dGZpbGUubWFlPic=

> <r_lp_tautomer_probability>
1

> <r_epik_Ionization_Penalty>
1.52183

> <r_epik_Ionization_Penalty_Charging>
1.5218

> <r_epik_Ionization_Penalty_Neutral>
2.92192e-05

> <r_epik_State_Penalty>
1.61369

> <r_epik_Charging_Adjusted_Penalty>
3.13549

> <i_epik_Tot_Q>
1

> <i_epik_Tot_abs_Q>
1

> <r_epik_Metal_State_Penalty>
5.66625

> <b_epik_Metal_Only>
0

> <s_lp_Force_Field>
OPLS_2005

> <r_lp_Energy>
19.8189

> <b_lp_Chiralities_Consistent>
1

> <s_lp_Variant>
AV-unprocessed.smi:2627-4

> <Gold.Version>
5.8.1

> <Gold.Id.Protein>
6NUR|6NUR_protein|mol2

> <Gold.PLP.Fitness>
60.8443

> <Gold.PLP.PLP>
-51.0744

> <Gold.PLP.part.hbond>
-3.5118

> <Gold.PLP.part.metal>
0.0000

> <Gold.PLP.part.buried>
-0.9777

> <Gold.PLP.part.nonpolar>
-47.2164

> <Gold.PLP.part.repulsive>
0.1636

> <Gold.PLP.ligand.clash>
0.0000

> <Gold.PLP.ligand.torsion>
1.1291

> <Gold.PLP.Chemscore.Hbond>
3.9760

> <Gold.PLP.Chemscore.CHOScore>
0.0000

> <Gold.PLP.Chemscore.Metal>
0.0000

> <Gold.Chemscore.Hbonds>
donor molecule, donor type, donor heavy atom, donor atom, acceptor molecule, acceptor atom, score
      L1  H     3    26       P1  7949  1.00
      L1  H     5    40       P1  7948  2.00
      P1  H 10752 10763       L1     3  0.98

> <Gold.PLP.Chemscore.Internal.Correction>
0.1001

> <Gold.Rescore>
     Score         DG    S(hbond)    S(metal)    S(lipo)     H(rot)  DE(clash)    DE(int)     intcor
     22.03     -24.00       2.45        0.00     134.94       2.13       0.92       1.05       ----

> <Gold.Chemscore.Fitness>
22.0263

> <Gold.Chemscore.DG>
-24.0004

> <Gold.Chemscore.ZeroCoef>
-5.4800

> <Gold.Chemscore.Hbond>
2.4506

> <Gold.Chemscore.Metal>
0.0000

> <Gold.Chemscore.Lipo>
134.9412

> <Gold.Chemscore.Internal_Hbond>
0.0000

> <Gold.Chemscore.DEClash>
0.9218

> <Gold.Chemscore.DEInternal>
1.0524

> <Gold.Chemscore.Rot>
2.1299

> <Gold.Chemscore.Internal.Correction>
   9.000000E+99

> <Gold.Chemscore.Hbonds>
donor molecule, donor type, donor heavy atom, donor atom, acceptor molecule, acceptor atom, score
      L1  H     3    26       P1  7949  0.92
      L1  H     5    40       P1  7948  0.97
      P1  H 10752 10763       L1     3  0.27

> <Gold.Chemscore.Hbond.Weighted>
-8.1849

> <Gold.Chemscore.Metal.Weighted>
-0.0000

> <Gold.Chemscore.Lipo.Weighted>
-15.7881

> <Gold.Chemscore.Internal_Hbond.Weighted>
0.0000

> <Gold.Chemscore.DEClash.Weighted>
0.9218

> <Gold.Chemscore.DEInternal.Weighted>
1.0524

> <Gold.Chemscore.Rot.Weighted>
5.4526

> <Gold.Chemscore.Internal.Correction.Weighted>
   9.000000E+99

> <Gold.Protein.RotatedTorsions>
[ 6907 6896 6895 6894 ] final  158.52 input  -60.11 | X-H torsion
[ 7974 7965 7964 7962 ] final   34.69 input  175.53 | X-H torsion
[ 8008 7997 7996 7995 ] final  109.21 input   59.86 | X-H torsion
[ 10167 10162 10161 10158 ] final -150.48 input  -65.29 | X-H torsion
[ 10718 10713 10712 10709 ] final  -16.80 input   66.30 | X-H torsion
[ 10763 10752 10751 10750 ] final   24.66 input  -60.55 | X-H torsion
[ 11005 11000 10999 10996 ] final  128.50 input  -57.11 | X-H torsion

> <Gold.Protein.ActiveResidues>
 VAL166  LYS551  ARG553  GLY616  TRP617  ASP618  TYR619  PRO620  LYS621  CYS622 
 ASP623  PHE694  ASN695  SER759  ASP760  ASP761  ALA762  ILE779  LEU786  VAL792 
 PHE793  MET794  SER795  GLU796  ALA797  LYS798  CYS799  TRP800  GLU811  SER814 

> <Gold.Protein.RotatedAtoms>
  151.9992  133.3819  159.4174 H   0  0  0  0  0  0  0  0  0  0  0  0  # atno 6907 bound_to 6896
  150.6912  134.3852  159.5061 H   0  0  0  0  0  0  0  0  0  0  0  0  # atno 6908 bound_to 6896
  152.1597  134.8922  160.0593 H   0  0  0  0  0  0  0  0  0  0  0  0  # atno 6909 bound_to 6896
  146.1335  139.6237  142.9210 H   0  0  0  0  0  0  0  0  0  0  0  0  # atno 7974 bound_to 7965
  156.1962  140.3062  155.9432 H   0  0  0  0  0  0  0  0  0  0  0  0  # atno 8008 bound_to 7997
  155.3060  140.0449  157.3049 H   0  0  0  0  0  0  0  0  0  0  0  0  # atno 8009 bound_to 7997
  154.5512  140.2292  155.8490 H   0  0  0  0  0  0  0  0  0  0  0  0  # atno 8010 bound_to 7997
  139.7350  143.8749  152.2546 H   0  0  0  0  0  0  0  0  0  0  0  0  # atno 10167 bound_to 10162
  156.5826  130.4778  149.6314 H   0  0  0  0  0  0  0  0  0  0  0  0  # atno 10718 bound_to 10713
  153.0748  135.6600  154.0170 H   0  0  0  0  0  0  0  0  0  0  0  0  # atno 10763 bound_to 10752
  153.9807  135.2955  155.3422 H   0  0  0  0  0  0  0  0  0  0  0  0  # atno 10764 bound_to 10752
  154.7133  135.5196  153.8769 H   0  0  0  0  0  0  0  0  0  0  0  0  # atno 10765 bound_to 10752
  139.9564  134.9612  156.9011 H   0  0  0  0  0  0  0  0  0  0  0  0  # atno 11005 bound_to 11000
  145.5207  141.0432  143.2437 LP  0  0  0  0  0  0  0  0  0  0  0  0  # atno 17320 bound_to 7965
  144.7715  139.6723  143.7192 LP  0  0  0  0  0  0  0  0  0  0  0  0  # atno 17321 bound_to 7965
  139.8683  144.7081  150.9017 LP  0  0  0  0  0  0  0  0  0  0  0  0  # atno 17342 bound_to 10162
  140.7777  143.3759  151.1564 LP  0  0  0  0  0  0  0  0  0  0  0  0  # atno 17343 bound_to 10162
  156.2619  130.6967  151.1738 LP  0  0  0  0  0  0  0  0  0  0  0  0  # atno 17370 bound_to 10713
  157.7323  131.0601  150.5635 LP  0  0  0  0  0  0  0  0  0  0  0  0  # atno 17371 bound_to 10713
  140.5599  134.0545  155.7395 LP  0  0  0  0  0  0  0  0  0  0  0  0  # atno 17394 bound_to 11000
  141.1236  133.9420  157.2680 LP  0  0  0  0  0  0  0  0  0  0  0  0  # atno 17395 bound_to 11000

$$$$
