AV-unprocessed.smi:287|AV-procd|sdf|2190|dock4
  -GOLD-   2262021583D 1   1.00000     0.00000
 Structure written by MMmdl.
 55 58  0  0  0  0  0  0  0  0  1 V2000
  133.3072  137.3569  154.8663 C   0  0  0  0  0  0  0  0  0  0  0  0
  134.7905  137.2910  154.9939 C   0  0  0  0  0  0  0  0  0  0  0  0
  135.8234  137.4965  154.1265 C   0  0  0  0  0  0  0  0  0  0  0  0
  137.0357  137.2890  154.8498 C   0  0  0  0  0  0  0  0  0  0  0  0
  138.4440  137.4168  154.2841 C   0  0  2  0  0  0  0  0  0  0  0  0
  138.6604  138.8368  153.7345 C   0  0  0  0  0  0  0  0  0  0  0  0
  138.6774  136.5548  153.1871 O   0  0  0  0  0  0  0  0  0  0  0  0
  139.5301  137.0805  155.3321 C   0  0  0  0  0  0  0  0  0  0  0  0
  140.8860  137.2485  154.8190 N   0  0  0  0  0  0  0  0  0  0  0  0
  141.4962  136.2379  154.1650 C   0  0  0  0  0  0  0  0  0  0  0  0
  140.9728  134.9851  154.1704 N   0  0  0  0  0  0  0  0  0  0  0  0
  141.5938  134.0029  153.5129 C   0  0  0  0  0  0  0  0  0  0  0  0
  142.7232  134.0588  152.8045 N   0  0  0  0  0  0  0  0  0  0  0  0
  143.2595  135.3145  152.7926 C   0  0  0  0  0  0  0  0  0  0  0  0
  142.7021  136.4498  153.4480 C   0  0  0  0  0  0  0  0  0  0  0  0
  143.4977  137.5630  153.2242 N   0  0  0  0  0  0  0  0  0  0  0  0
  144.4655  137.1103  152.4754 C   0  0  0  0  0  0  0  0  0  0  0  0
  144.4153  135.7660  152.1743 N   0  0  0  0  0  0  0  0  0  0  0  0
  145.3969  135.0240  151.3067 C   0  0  2  0  0  0  0  0  0  0  0  0
  144.7065  134.4882  150.2233 O   0  0  0  0  0  0  0  0  0  0  0  0
  144.3962  133.1299  150.4862 C   0  0  1  0  0  0  0  0  0  0  0  0
  144.1218  132.3751  149.1733 C   0  0  0  0  0  0  0  0  0  0  0  0
  142.8520  131.7553  149.1718 O   0  0  0  0  0  0  0  0  0  0  0  0
  145.5491  132.6076  151.3606 C   0  0  2  0  0  0  0  0  0  0  0  0
  145.0541  131.7036  152.3279 O   0  0  0  0  0  0  0  0  0  0  0  0
  146.1134  133.8665  152.0307 C   0  0  1  0  0  0  0  0  0  0  0  0
  147.5113  133.9357  151.8324 O   0  0  0  0  0  0  0  0  0  0  0  0
  136.6325  136.9574  156.1214 C   0  0  0  0  0  0  0  0  0  0  0  0
  137.3526  136.6075  157.3819 C   0  0  0  0  0  0  0  0  0  0  0  0
  135.2735  136.9580  156.2169 O   0  0  0  0  0  0  0  0  0  0  0  0
  146.0795  135.8042  150.9663 H   0  0  0  0  0  0  0  0  0  0  0  0
  143.4691  133.1388  151.0593 H   0  0  0  0  0  0  0  0  0  0  0  0
  146.3137  132.1110  150.7625 H   0  0  0  0  0  0  0  0  0  0  0  0
  145.9257  133.9090  153.1036 H   0  0  0  0  0  0  0  0  0  0  0  0
  133.0174  137.7311  153.8841 H   0  0  0  0  0  0  0  0  0  0  0  0
  132.8831  138.0215  155.6189 H   0  0  0  0  0  0  0  0  0  0  0  0
  132.8639  136.3695  154.9965 H   0  0  0  0  0  0  0  0  0  0  0  0
  135.7226  137.7721  153.0873 H   0  0  0  0  0  0  0  0  0  0  0  0
  138.5458  139.5865  154.5181 H   0  0  0  0  0  0  0  0  0  0  0  0
  137.9412  139.0719  152.9488 H   0  0  0  0  0  0  0  0  0  0  0  0
  139.6598  138.9552  153.3138 H   0  0  0  0  0  0  0  0  0  0  0  0
  139.5956  136.5926  152.9669 H   0  0  0  0  0  0  0  0  0  0  0  0
  139.3892  137.6660  156.2422 H   0  0  0  0  0  0  0  0  0  0  0  0
  139.4255  136.0323  155.6167 H   0  0  0  0  0  0  0  0  0  0  0  0
  141.2973  138.1630  154.9432 H   0  0  0  0  0  0  0  0  0  0  0  0
  141.1192  133.0340  153.5619 H   0  0  0  0  0  0  0  0  0  0  0  0
  145.2544  137.7556  152.1166 H   0  0  0  0  0  0  0  0  0  0  0  0
  144.1560  133.0719  148.3356 H   0  0  0  0  0  0  0  0  0  0  0  0
  144.8922  131.6248  148.9956 H   0  0  0  0  0  0  0  0  0  0  0  0
  142.2017  132.4025  149.3988 H   0  0  0  0  0  0  0  0  0  0  0  0
  145.7599  131.4827  152.9169 H   0  0  0  0  0  0  0  0  0  0  0  0
  147.7764  134.8414  151.8867 H   0  0  0  0  0  0  0  0  0  0  0  0
  138.0058  135.7486  157.2279 H   0  0  0  0  0  0  0  0  0  0  0  0
  136.6535  136.3567  158.1800 H   0  0  0  0  0  0  0  0  0  0  0  0
  137.9637  137.4435  157.7221 H   0  0  0  0  0  0  0  0  0  0  0  0
  1  2  1  0  0  0  0
  1 35  1  0  0  0  0
  1 36  1  0  0  0  0
  1 37  1  0  0  0  0
  2 30  1  0  0  0  0
  2  3  2  0  0  0  0
  3  4  1  0  0  0  0
  3 38  1  0  0  0  0
  4  5  1  0  0  0  0
  4 28  2  0  0  0  0
  5  6  1  0  0  0  0
  5  7  1  0  0  0  0
  5  8  1  0  0  0  0
  6 39  1  0  0  0  0
  6 40  1  0  0  0  0
  6 41  1  0  0  0  0
  7 42  1  0  0  0  0
  8  9  1  0  0  0  0
  8 43  1  0  0  0  0
  8 44  1  0  0  0  0
  9 10  1  0  0  0  0
  9 45  1  0  0  0  0
 10 15  1  0  0  0  0
 10 11  2  0  0  0  0
 11 12  1  0  0  0  0
 12 13  2  0  0  0  0
 12 46  1  0  0  0  0
 13 14  1  0  0  0  0
 14 18  1  0  0  0  0
 14 15  2  0  0  0  0
 15 16  1  0  0  0  0
 16 17  2  0  0  0  0
 17 18  1  0  0  0  0
 17 47  1  0  0  0  0
 18 19  1  0  0  0  0
 19 31  1  0  0  0  0
 19 26  1  0  0  0  0
 19 20  1  0  0  0  0
 20 21  1  0  0  0  0
 21 32  1  0  0  0  0
 21 22  1  0  0  0  0
 21 24  1  0  0  0  0
 22 23  1  0  0  0  0
 22 48  1  0  0  0  0
 22 49  1  0  0  0  0
 23 50  1  0  0  0  0
 24 33  1  0  0  0  0
 24 25  1  0  0  0  0
 24 26  1  0  0  0  0
 25 51  1  0  0  0  0
 26 34  1  0  0  0  0
 26 27  1  0  0  0  0
 27 52  1  0  0  0  0
 28 29  1  0  0  0  0
 28 30  1  0  0  0  0
 29 53  1  0  0  0  0
 29 54  1  0  0  0  0
 29 55  1  0  0  0  0
M  END
> <s_m_source_file>
AV-unprocessed.smi

> <i_m_source_file_index>
287

> <i_lp_mmshare_version>
43012

> <i_f3d_flags>
0

> <s_epik_input>
W0NIM11jMVtjSF1jKGMobzEpW0NIM10pW0NAQF0oW0NIM10pKFtPSF0pW0NIMl1bTkhdYyhuW2NIXW4yKWMoYzIzKW5bY0hdbjNbQ0BASF00T1tDQEhdKFtDSDJdW09IXSlbQ0BASF0oW09IXSlbQ0BIXTRbT0hd

> <s_epik_cmdline>
J2VwaWtfcHl0aG9uJywgJy1waCcsICc3LjAnLCAnLXRuJywgJzgnLCAnLW1hJywgJzIwMCcsICctbWV0YWxfYmluZGluZycsICctaW1hZScsICc8aW5maWxlLm1hZT4nLCAnLW9tYWUnLCAnPG91dGZpbGUubWFlPic=

> <r_lp_tautomer_probability>
1

> <r_epik_Ionization_Penalty>
0.000992612

> <r_epik_Ionization_Penalty_Charging>
0

> <r_epik_Ionization_Penalty_Neutral>
0.000992612

> <r_epik_State_Penalty>
-0

> <r_epik_Charging_Adjusted_Penalty>
0

> <i_epik_Tot_Q>
0

> <i_epik_Tot_abs_Q>
0

> <r_epik_Metal_State_Penalty>
-0

> <b_epik_Metal_Only>
0

> <s_epik_Chemistry_Notes>
This compound contains an acetal/aminal-like group ( X-CH(R)-Y where X, Y are N, S, or O) that may be acid/base labile, releasing an aldehyde.

> <s_lp_Force_Field>
OPLS_2005

> <r_lp_Energy>
41.2787

> <b_lp_Chiralities_Consistent>
1

> <s_lp_Variant>
AV-unprocessed.smi:287-14

> <Gold.Version>
5.8.1

> <Gold.Id.Protein>
6NUR|6NUR_protein|mol2

> <Gold.PLP.Fitness>
59.4088

> <Gold.PLP.PLP>
-48.9594

> <Gold.PLP.part.hbond>
-6.3619

> <Gold.PLP.part.metal>
0.0000

> <Gold.PLP.part.buried>
-8.5851

> <Gold.PLP.part.nonpolar>
-36.2165

> <Gold.PLP.part.repulsive>
3.1451

> <Gold.PLP.ligand.clash>
0.0000

> <Gold.PLP.ligand.torsion>
0.9759

> <Gold.PLP.Chemscore.Hbond>
3.9663

> <Gold.PLP.Chemscore.CHOScore>
0.1236

> <Gold.PLP.Chemscore.Metal>
0.0000

> <Gold.Chemscore.Hbonds>
donor molecule, donor type, donor heavy atom, donor atom, acceptor molecule, acceptor atom, score
      L1  H    23    50       P1 10186  0.23
      L1  H    27    52       P1  7948  1.00
      P1  H 10785 10796       L1    23  1.00
      P1  H 11000 11005       L1    11  1.00
      L1  C    12    46       P1 10957  0.49
      L1  C    17    47       P1 10171  0.09

> <Gold.PLP.Chemscore.Internal.Correction>
0.1317

> <Gold.Rescore>
     Score         DG    S(hbond)    S(metal)    S(lipo)     H(rot)  DE(clash)    DE(int)     intcor
      4.16      -8.21       1.96        0.00      82.59       5.27       0.99       3.06       ----

> <Gold.Chemscore.Fitness>
4.1594

> <Gold.Chemscore.DG>
-8.2128

> <Gold.Chemscore.ZeroCoef>
-5.4800

> <Gold.Chemscore.Hbond>
1.9622

> <Gold.Chemscore.Metal>
0.0000

> <Gold.Chemscore.Lipo>
82.5894

> <Gold.Chemscore.Internal_Hbond>
0.0000

> <Gold.Chemscore.DEClash>
0.9912

> <Gold.Chemscore.DEInternal>
3.0621

> <Gold.Chemscore.Rot>
5.2672

> <Gold.Chemscore.Internal.Correction>
   9.000000E+99

> <Gold.Chemscore.Hbonds>
donor molecule, donor type, donor heavy atom, donor atom, acceptor molecule, acceptor atom, score
      L1  H    23    50       P1 10186  0.25
      L1  H    27    52       P1  7948  0.49
      P1  H 10785 10796       L1    23  0.45
      P1  H 11000 11005       L1    11  0.58

> <Gold.Chemscore.Hbond.Weighted>
-6.5537

> <Gold.Chemscore.Metal.Weighted>
-0.0000

> <Gold.Chemscore.Lipo.Weighted>
-9.6630

> <Gold.Chemscore.Internal_Hbond.Weighted>
0.0000

> <Gold.Chemscore.DEClash.Weighted>
0.9912

> <Gold.Chemscore.DEInternal.Weighted>
3.0621

> <Gold.Chemscore.Rot.Weighted>
13.4839

> <Gold.Chemscore.Internal.Correction.Weighted>
   9.000000E+99

> <Gold.Protein.RotatedTorsions>
[ 6907 6896 6895 6894 ] final -139.46 input  -60.11 | X-H torsion
[ 7974 7965 7964 7962 ] final   36.63 input  175.53 | X-H torsion
[ 8008 7997 7996 7995 ] final  176.67 input   59.86 | X-H torsion
[ 10167 10162 10161 10158 ] final  147.36 input  -65.29 | X-H torsion
[ 10718 10713 10712 10709 ] final   65.45 input   66.30 | X-H torsion
[ 10763 10752 10751 10750 ] final  130.69 input  -60.55 | X-H torsion
[ 11005 11000 10999 10996 ] final   28.66 input  -57.11 | X-H torsion

> <Gold.Protein.ActiveResidues>
 VAL166  LYS551  ARG553  GLY616  TRP617  ASP618  TYR619  PRO620  LYS621  CYS622 
 ASP623  PHE694  ASN695  SER759  ASP760  ASP761  ALA762  ILE779  LEU786  VAL792 
 PHE793  MET794  SER795  GLU796  ALA797  LYS798  CYS799  TRP800  GLU811  SER814 

> <Gold.Protein.RotatedAtoms>
  151.0481  133.5648  159.2644 H   0  0  0  0  0  0  0  0  0  0  0  0  # atno 6907 bound_to 6896
  151.2669  135.0671  159.9129 H   0  0  0  0  0  0  0  0  0  0  0  0  # atno 6908 bound_to 6896
  152.5377  134.0218  159.8039 H   0  0  0  0  0  0  0  0  0  0  0  0  # atno 6909 bound_to 6896
  146.1197  139.5994  142.9298 H   0  0  0  0  0  0  0  0  0  0  0  0  # atno 7974 bound_to 7965
  156.0740  140.1378  156.9794 H   0  0  0  0  0  0  0  0  0  0  0  0  # atno 8008 bound_to 7997
  154.4547  140.0966  156.6774 H   0  0  0  0  0  0  0  0  0  0  0  0  # atno 8009 bound_to 7997
  155.5183  140.3455  155.4404 H   0  0  0  0  0  0  0  0  0  0  0  0  # atno 8010 bound_to 7997
  139.4891  144.5761  151.6962 H   0  0  0  0  0  0  0  0  0  0  0  0  # atno 10167 bound_to 10162
  157.6106  130.9214  149.9978 H   0  0  0  0  0  0  0  0  0  0  0  0  # atno 10718 bound_to 10713
  153.7621  135.3194  155.3338 H   0  0  0  0  0  0  0  0  0  0  0  0  # atno 10763 bound_to 10752
  154.8226  135.4592  154.0828 H   0  0  0  0  0  0  0  0  0  0  0  0  # atno 10764 bound_to 10752
  153.2062  135.6929  153.8254 H   0  0  0  0  0  0  0  0  0  0  0  0  # atno 10765 bound_to 10752
  140.3132  134.2626  155.7730 H   0  0  0  0  0  0  0  0  0  0  0  0  # atno 11005 bound_to 11000
  145.5491  141.0415  143.2288 LP  0  0  0  0  0  0  0  0  0  0  0  0  # atno 17320 bound_to 7965
  144.7586  139.7013  143.7244 LP  0  0  0  0  0  0  0  0  0  0  0  0  # atno 17321 bound_to 7965
  140.5357  144.0659  150.6070 LP  0  0  0  0  0  0  0  0  0  0  0  0  # atno 17342 bound_to 10162
  140.3664  143.2879  152.0327 LP  0  0  0  0  0  0  0  0  0  0  0  0  # atno 17343 bound_to 10162
  156.1207  130.3646  149.9891 LP  0  0  0  0  0  0  0  0  0  0  0  0  # atno 17370 bound_to 10713
  156.7972  130.9277  151.3646 LP  0  0  0  0  0  0  0  0  0  0  0  0  # atno 17371 bound_to 10713
  141.2103  133.7722  156.9938 LP  0  0  0  0  0  0  0  0  0  0  0  0  # atno 17394 bound_to 11000
  140.1006  134.9537  157.1918 LP  0  0  0  0  0  0  0  0  0  0  0  0  # atno 17395 bound_to 11000

$$$$
