AV-unprocessed.smi:3054|AV-procd|sdf|11640|dock8
  -GOLD-   2272017 33D 1   1.00000     0.00000
 Structure written by MMmdl.
 40 41  0  0  0  0  0  0  0  0  2 V2000
  145.7119  142.4314  155.8379 C   0  0  0  0  0  0  0  0  0  0  0  0
  146.5038  142.5796  154.5311 C   0  0  0  0  0  0  0  0  0  0  0  0
  147.2046  141.2722  154.0782 C   0  0  1  0  0  0  0  0  0  0  0  0
  148.2492  140.7805  155.1075 C   0  0  0  0  0  0  0  0  0  0  0  0
  148.9849  141.8807  155.7277 N   0  0  0  0  0  0  0  0  0  0  0  0
  149.8138  141.7732  156.7758 C   0  0  0  0  0  0  0  0  0  0  0  0
  150.0756  140.7050  157.3273 O   0  0  0  0  0  0  0  0  0  0  0  0
  150.3180  142.9673  157.1254 N   0  0  0  0  0  0  0  0  0  0  0  0
  151.2237  143.2382  158.1813 C   0  0  0  0  0  0  0  0  0  0  0  0
  151.5992  144.4912  158.7492 C   0  0  0  0  0  0  0  0  0  0  0  0
  152.4806  144.3298  159.7256 N   0  0  0  0  0  0  0  0  0  0  0  0
  152.6730  142.9930  159.7851 N   0  0  0  0  0  0  0  0  0  0  0  0
  151.9280  142.2913  158.8632 C   0  0  0  0  0  0  0  0  0  0  0  0
  146.2464  140.1850  153.7218 N   0  3  0  0  0  0  0  0  0  0  0  0
  146.7518  139.0997  152.8430 C   0  0  0  0  0  0  0  0  0  0  0  0
  146.5263  137.7913  153.6024 C   0  0  0  0  0  0  0  0  0  0  0  0
  145.3211  138.1010  154.4814 C   0  0  0  0  0  0  0  0  0  0  0  0
  145.5485  139.5608  154.8715 C   0  0  0  0  0  0  0  0  0  0  0  0
  153.3095  142.5800  160.4521 H   0  0  0  0  0  0  0  0  0  0  0  0
  145.2977  143.3910  156.1477 H   0  0  0  0  0  0  0  0  0  0  0  0
  146.3480  142.0709  156.6466 H   0  0  0  0  0  0  0  0  0  0  0  0
  144.8781  141.7382  155.7302 H   0  0  0  0  0  0  0  0  0  0  0  0
  145.8292  142.9418  153.7555 H   0  0  0  0  0  0  0  0  0  0  0  0
  147.2386  143.3704  154.6791 H   0  0  0  0  0  0  0  0  0  0  0  0
  147.7529  141.4941  153.1608 H   0  0  0  0  0  0  0  0  0  0  0  0
  147.7556  140.2400  155.9141 H   0  0  0  0  0  0  0  0  0  0  0  0
  148.9339  140.0665  154.6465 H   0  0  0  0  0  0  0  0  0  0  0  0
  148.8301  142.8012  155.3424 H   0  0  0  0  0  0  0  0  0  0  0  0
  150.0229  143.7663  156.5833 H   0  0  0  0  0  0  0  0  0  0  0  0
  151.2767  145.4909  158.4992 H   0  0  0  0  0  0  0  0  0  0  0  0
  151.9648  141.2150  158.7779 H   0  0  0  0  0  0  0  0  0  0  0  0
  146.1428  139.0997  151.9388 H   0  0  0  0  0  0  0  0  0  0  0  0
  147.7859  139.2211  152.5237 H   0  0  0  0  0  0  0  0  0  0  0  0
  146.3628  136.9402  152.9408 H   0  0  0  0  0  0  0  0  0  0  0  0
  147.3928  137.5707  154.2275 H   0  0  0  0  0  0  0  0  0  0  0  0
  144.4040  138.0086  153.8978 H   0  0  0  0  0  0  0  0  0  0  0  0
  145.2414  137.4384  155.3438 H   0  0  0  0  0  0  0  0  0  0  0  0
  146.1656  139.6015  155.7693 H   0  0  0  0  0  0  0  0  0  0  0  0
  144.6156  140.0799  155.0928 H   0  0  0  0  0  0  0  0  0  0  0  0
  145.5190  140.6362  153.1852 H   0  0  0  0  0  0  0  0  0  0  0  0
  1  2  1  0  0  0  0
  1 20  1  0  0  0  0
  1 21  1  0  0  0  0
  1 22  1  0  0  0  0
  2  3  1  0  0  0  0
  2 23  1  0  0  0  0
  2 24  1  0  0  0  0
  3  4  1  0  0  0  0
  3 14  1  0  0  0  0
  3 25  1  0  0  0  0
  4  5  1  0  0  0  0
  4 26  1  0  0  0  0
  4 27  1  0  0  0  0
  5  6  1  0  0  0  0
  5 28  1  0  0  0  0
  6  7  2  0  0  0  0
  6  8  1  0  0  0  0
  8  9  1  0  0  0  0
  8 29  1  0  0  0  0
  9 13  2  0  0  0  0
  9 10  1  0  0  0  0
 10 11  2  0  0  0  0
 10 30  1  0  0  0  0
 11 12  1  0  0  0  0
 12 19  1  0  0  0  0
 12 13  1  0  0  0  0
 13 31  1  0  0  0  0
 14 18  1  0  0  0  0
 14 15  1  0  0  0  0
 14 40  1  0  0  0  0
 15 16  1  0  0  0  0
 15 32  1  0  0  0  0
 15 33  1  0  0  0  0
 16 17  1  0  0  0  0
 16 34  1  0  0  0  0
 16 35  1  0  0  0  0
 17 18  1  0  0  0  0
 17 36  1  0  0  0  0
 17 37  1  0  0  0  0
 18 38  1  0  0  0  0
 18 39  1  0  0  0  0
M  CHG  1  14   1
M  END
> <s_m_source_file>
AV-unprocessed.smi

> <i_m_source_file_index>
3054

> <i_lp_mmshare_version>
43012

> <i_f3d_flags>
0

> <s_epik_input>
W0NIMl0xW0NIMl1bQ0gyXVtDSDJdTjFbQ0BIXShbQ0gyXVtDSDNdKVtDSDJdW05IXUMoPU8pW05IXWMyW2NIXW5bbkhdW2NIXTI=

> <s_epik_cmdline>
J2VwaWtfcHl0aG9uJywgJy1waCcsICc3LjAnLCAnLXRuJywgJzgnLCAnLW1hJywgJzIwMCcsICctbWV0YWxfYmluZGluZycsICctaW1hZScsICc8aW5maWxlLm1hZT4nLCAnLW9tYWUnLCAnPG91dGZpbGUubWFlPic=

> <r_lp_tautomer_probability>
0.5

> <r_epik_Ionization_Penalty>
0.00108132

> <r_epik_Ionization_Penalty_Charging>
0.00104139

> <r_epik_Ionization_Penalty_Neutral>
3.99244e-05

> <r_epik_State_Penalty>
0.00068071

> <r_epik_Charging_Adjusted_Penalty>
0.0017221

> <i_epik_Tot_Q>
1

> <i_epik_Tot_abs_Q>
1

> <r_epik_Metal_State_Penalty>
-0

> <b_epik_Metal_Only>
0

> <s_lp_Force_Field>
OPLS_2005

> <r_lp_Energy>
40.663

> <b_lp_Chiralities_Consistent>
1

> <s_lp_Variant>
AV-unprocessed.smi:3054-2

> <Gold.Version>
5.8.1

> <Gold.Id.Protein>
6NUR|6NUR_protein|mol2

> <Gold.PLP.Fitness>
39.4897

> <Gold.PLP.PLP>
-28.5268

> <Gold.PLP.part.hbond>
-3.0000

> <Gold.PLP.part.metal>
0.0000

> <Gold.PLP.part.buried>
-4.4864

> <Gold.PLP.part.nonpolar>
-22.6747

> <Gold.PLP.part.repulsive>
0.2203

> <Gold.PLP.ligand.clash>
0.0000

> <Gold.PLP.ligand.torsion>
0.4464

> <Gold.PLP.Chemscore.Hbond>
3.9120

> <Gold.PLP.Chemscore.CHOScore>
0.0000

> <Gold.PLP.Chemscore.Metal>
0.0000

> <Gold.Chemscore.Hbonds>
donor molecule, donor type, donor heavy atom, donor atom, acceptor molecule, acceptor atom, score
      L1  H     5    28       P1  8028  0.94
      L1  H     8    29       P1  8028  1.00
      L1  H    14    40       P1 10175  1.86

> <Gold.PLP.Chemscore.Internal.Correction>
0.1197

> <Gold.Rescore>
     Score         DG    S(hbond)    S(metal)    S(lipo)     H(rot)  DE(clash)    DE(int)     intcor
     16.43     -18.19       2.84        0.00      67.28       1.81       0.00       1.76       ----

> <Gold.Chemscore.Fitness>
16.4290

> <Gold.Chemscore.DG>
-18.1922

> <Gold.Chemscore.ZeroCoef>
-5.4800

> <Gold.Chemscore.Hbond>
2.8360

> <Gold.Chemscore.Metal>
0.0000

> <Gold.Chemscore.Lipo>
67.2821

> <Gold.Chemscore.Internal_Hbond>
0.0000

> <Gold.Chemscore.DEClash>
0.0036

> <Gold.Chemscore.DEInternal>
1.7595

> <Gold.Chemscore.Rot>
1.8094

> <Gold.Chemscore.Internal.Correction>
   9.000000E+99

> <Gold.Chemscore.Hbonds>
donor molecule, donor type, donor heavy atom, donor atom, acceptor molecule, acceptor atom, score
      L1  H     5    28       P1  8028  0.90
      L1  H     8    29       P1  8028  0.99
      L1  H    14    40       P1 10175  0.72

> <Gold.Chemscore.Hbond.Weighted>
-9.4723

> <Gold.Chemscore.Metal.Weighted>
-0.0000

> <Gold.Chemscore.Lipo.Weighted>
-7.8720

> <Gold.Chemscore.Internal_Hbond.Weighted>
0.0000

> <Gold.Chemscore.DEClash.Weighted>
0.0036

> <Gold.Chemscore.DEInternal.Weighted>
1.7595

> <Gold.Chemscore.Rot.Weighted>
4.6322

> <Gold.Chemscore.Internal.Correction.Weighted>
   9.000000E+99

> <Gold.Protein.RotatedTorsions>
[ 6907 6896 6895 6894 ] final   81.79 input  -60.11 | X-H torsion
[ 7974 7965 7964 7962 ] final  170.20 input  175.53 | X-H torsion
[ 8008 7997 7996 7995 ] final -132.92 input   59.86 | X-H torsion
[ 10167 10162 10161 10158 ] final -149.40 input  -65.29 | X-H torsion
[ 10718 10713 10712 10709 ] final  155.01 input   66.30 | X-H torsion
[ 10763 10752 10751 10750 ] final  136.91 input  -60.55 | X-H torsion
[ 11005 11000 10999 10996 ] final  -65.58 input  -57.11 | X-H torsion

> <Gold.Protein.ActiveResidues>
 VAL166  LYS551  ARG553  GLY616  TRP617  ASP618  TYR619  PRO620  LYS621  CYS622 
 ASP623  PHE694  ASN695  SER759  ASP760  ASP761  ALA762  ILE779  LEU786  VAL792 
 PHE793  MET794  SER795  GLU796  ALA797  LYS798  CYS799  TRP800  GLU811  SER814 

> <Gold.Protein.RotatedAtoms>
  152.5279  134.3149  159.9126 H   0  0  0  0  0  0  0  0  0  0  0  0  # atno 6907 bound_to 6896
  151.3099  133.4079  159.2654 H   0  0  0  0  0  0  0  0  0  0  0  0  # atno 6908 bound_to 6896
  151.0047  134.9367  159.8031 H   0  0  0  0  0  0  0  0  0  0  0  0  # atno 6909 bound_to 6896
  144.7331  139.9166  143.6418 H   0  0  0  0  0  0  0  0  0  0  0  0  # atno 7974 bound_to 7965
  155.3369  140.0470  157.3044 H   0  0  0  0  0  0  0  0  0  0  0  0  # atno 8008 bound_to 7997
  154.5298  140.2253  155.8790 H   0  0  0  0  0  0  0  0  0  0  0  0  # atno 8009 bound_to 7997
  156.1777  140.3081  155.9096 H   0  0  0  0  0  0  0  0  0  0  0  0  # atno 8010 bound_to 7997
  139.7446  143.8610  152.2571 H   0  0  0  0  0  0  0  0  0  0  0  0  # atno 10167 bound_to 10162
  157.2240  131.0725  151.1894 H   0  0  0  0  0  0  0  0  0  0  0  0  # atno 10718 bound_to 10713
  153.8644  135.3063  155.3439 H   0  0  0  0  0  0  0  0  0  0  0  0  # atno 10763 bound_to 10752
  154.7834  135.4823  153.9896 H   0  0  0  0  0  0  0  0  0  0  0  0  # atno 10764 bound_to 10752
  153.1443  135.6830  153.9074 H   0  0  0  0  0  0  0  0  0  0  0  0  # atno 10765 bound_to 10752
  141.1458  133.6684  156.6008 H   0  0  0  0  0  0  0  0  0  0  0  0  # atno 11005 bound_to 11000
  146.0961  139.3953  143.0376 LP  0  0  0  0  0  0  0  0  0  0  0  0  # atno 17320 bound_to 7965
  145.7644  140.9922  143.1183 LP  0  0  0  0  0  0  0  0  0  0  0  0  # atno 17321 bound_to 7965
  139.8571  144.7136  150.9144 LP  0  0  0  0  0  0  0  0  0  0  0  0  # atno 17342 bound_to 10162
  140.7790  143.3849  151.1410 LP  0  0  0  0  0  0  0  0  0  0  0  0  # atno 17343 bound_to 10162
  157.3546  130.7100  149.6462 LP  0  0  0  0  0  0  0  0  0  0  0  0  # atno 17370 bound_to 10713
  155.9680  130.4243  150.4600 LP  0  0  0  0  0  0  0  0  0  0  0  0  # atno 17371 bound_to 10713
  140.3690  134.7622  157.4586 LP  0  0  0  0  0  0  0  0  0  0  0  0  # atno 17394 bound_to 11000
  140.0725  134.5842  155.8626 LP  0  0  0  0  0  0  0  0  0  0  0  0  # atno 17395 bound_to 11000

$$$$
