#       Name:                AV-unprocessed.smi:1978
#       Creating user name   scv26
#       Creation time:       Fri Mar 27 10:19:12 2020


#       File generated by GOLD software.
#

@<TRIPOS>MOLECULE
AV-unprocessed.smi:1978
    50    51     1
SMALL
NO_CHARGES


@<TRIPOS>ATOM
      1 ****        -5.9275   5.3801   0.8174 C.3            1 S1                 0.0000
      2 ****        -4.5793   4.7910   1.0564 C.2            1 S1                 0.0000
      3 ****        -3.6869   4.1557   0.2402 C.2            1 S1                 0.0000
      4 ****        -2.6085   3.8493   1.1145 C.2            1 S1                 0.0000
      5 ****        -1.4696   3.2261   0.7751 N.pl3          1 S1                -1.0000
      6 ****        -1.4144   1.8751   0.7481 C.2            1 S1                 0.0000
      7 ****        -2.3371   1.0966   0.9991 O.2            1 S1                 0.0000
      8 ****        -0.2123   1.3943   0.4074 N.am           1 S1                 0.0000
      9 ****         0.1280  -0.0184   0.3031 C.3            1 S1                 0.0000
     10 ****         1.6090  -0.2109  -0.0966 C.3            1 S1                 0.0000
     11 ****         2.5820   0.4808   0.8811 C.3            1 S1                 0.0000
     12 ****         1.9746  -1.6485  -0.3123 N.4            1 S1                 1.0000
     13 ****         1.8675  -2.4898   0.9162 C.3            1 S1                 0.0000
     14 ****         2.5123  -3.8682   0.7097 C.3            1 S1                 0.0000
     15 ****         1.8696  -4.5916  -0.4757 C.3            1 S1                 0.0000
     16 ****         1.9555  -3.7087  -1.7248 C.3            1 S1                 0.0000
     17 ****         1.3269  -2.3176  -1.4901 C.3            1 S1                 0.0000
     18 ****         1.4155  -1.5001  -2.7949 C.3            1 S1                 0.0000
     19 ****        -2.8199   4.2772   2.3478 N.2            1 S1                 0.0000
     20 ****        -4.0849   4.8764   2.3207 O.3            1 S1                 0.0000
     21 ****        -5.8556   6.2570   0.1743 H              1 S1                 0.0000
     22 ****        -6.3957   5.6850   1.7537 H              1 S1                 0.0000
     23 ****        -6.5834   4.6569   0.3326 H              1 S1                 0.0000
     24 ****        -3.7896   3.9407  -0.8128 H              1 S1                 0.0000
     25 ****         0.5180   2.0632   0.2109 H              1 S1                 0.0000
     26 ****        -0.0777  -0.4946   1.2624 H              1 S1                 0.0000
     27 ****        -0.5340  -0.4758  -0.4326 H              1 S1                 0.0000
     28 ****         1.7693   0.3159  -1.0352 H              1 S1                 0.0000
     29 ****         2.4769   1.5652   0.8379 H              1 S1                 0.0000
     30 ****         3.6190   0.2511   0.6346 H              1 S1                 0.0000
     31 ****         2.4062   0.1883   1.9159 H              1 S1                 0.0000
     32 ****         2.3595  -2.0137   1.7623 H              1 S1                 0.0000
     33 ****         0.8196  -2.6157   1.1913 H              1 S1                 0.0000
     34 ****         3.5833  -3.7529   0.5368 H              1 S1                 0.0000
     35 ****         2.4066  -4.4690   1.6136 H              1 S1                 0.0000
     36 ****         2.3669  -5.5461  -0.6516 H              1 S1                 0.0000
     37 ****         0.8262  -4.8175  -0.2518 H              1 S1                 0.0000
     38 ****         3.0003  -3.5958  -2.0182 H              1 S1                 0.0000
     39 ****         1.4566  -4.2117  -2.5540 H              1 S1                 0.0000
     40 ****         0.2706  -2.4654  -1.2612 H              1 S1                 0.0000
     41 ****         1.0562  -2.0826  -3.6437 H              1 S1                 0.0000
     42 ****         2.4424  -1.2038  -3.0117 H              1 S1                 0.0000
     43 ****         0.7976  -0.6030  -2.7612 H              1 S1                 0.0000
     44 ****         2.9590  -1.6258  -0.5361 H              1 S1                 0.0000
     45 ****        -0.6587   3.7626   0.5413 LP             1 S1                 0.0000
     46 ****        -3.2364   1.4525   1.2533 LP             1 S1                 0.0000
     47 ****        -2.1861   0.1094   0.9485 LP             1 S1                 0.0000
     48 ****        -2.2065   4.1911   3.1329 LP             1 S1                 0.0000
     49 ****        -4.6960   4.4017   2.9541 LP             1 S1                 0.0000
     50 ****        -4.0083   5.8369   2.5882 LP             1 S1                 0.0000
@<TRIPOS>BOND
    1    1    2 1     
    2    1   21 1     
    3    1   22 1     
    4    1   23 1     
    5    2   20 1     
    6    2    3 2     
    7    3    4 1     
    8    3   24 1     
    9    4    5 1     
   10    4   19 2     
   11    5    6 1     
   12    6    7 2     
   13    6    8 am    
   14    8    9 1     
   15    8   25 1     
   16    9   10 1     
   17    9   26 1     
   18    9   27 1     
   19   10   11 1     
   20   10   12 1     
   21   10   28 1     
   22   11   29 1     
   23   11   30 1     
   24   11   31 1     
   25   12   17 1     
   26   12   13 1     
   27   12   44 1     
   28   13   14 1     
   29   13   32 1     
   30   13   33 1     
   31   14   15 1     
   32   14   34 1     
   33   14   35 1     
   34   15   16 1     
   35   15   36 1     
   36   15   37 1     
   37   16   17 1     
   38   16   38 1     
   39   16   39 1     
   40   17   18 1     
   41   17   40 1     
   42   18   41 1     
   43   18   42 1     
   44   18   43 1     
   45   19   20 1     
   46    5   45 1     
   47    7   46 1     
   48    7   47 1     
   49   19   48 1     
   50   20   49 1     
   51   20   50 1     
@<TRIPOS>SUBSTRUCTURE
      1 S1             1
@<TRIPOS>SET
LONE_PAIRS      STATIC     ATOMS    <user>   **** ""
6 45 46 47 48 49 50
DONOR_HYDROGENS      STATIC     ATOMS    <user>   **** ""
2 25 44
ATOM$BLUE        STATIC     ATOMS    COLORGROUP SYSTEM
6 45 46 47 48 49 50
ATOM$RED        STATIC     ATOMS    COLORGROUP SYSTEM
2 25 44
