AV-unprocessed.smi:2913|AV-procd|sdf|11182|dock7
  -GOLD-   2272016 73D 1   1.00000     0.00000
 Structure written by MMmdl.
 41 42  0  0  0  0  0  0  0  0  1 V2000
  151.4418  143.9106  159.6942 C   0  0  0  0  0  0  0  0  0  0  0  0
  152.3399  142.7722  160.1496 C   0  0  0  0  0  0  0  0  0  0  0  0
  152.9886  142.8594  161.3323 C   0  0  0  0  0  0  0  0  0  0  0  0
  153.8690  141.8027  161.8329 C   0  0  0  0  0  0  0  0  0  0  0  0
  154.4526  141.8899  162.9136 O   0  0  0  0  0  0  0  0  0  0  0  0
  154.0017  140.7168  161.0228 N   0  0  0  0  0  0  0  0  0  0  0  0
  154.8685  139.6072  161.4287 C   0  0  0  0  0  0  0  0  0  0  0  0
  153.3345  140.6136  159.7906 C   0  0  0  0  0  0  0  0  0  0  0  0
  152.5118  141.5809  159.3277 C   0  0  0  0  0  0  0  0  0  0  0  0
  151.8343  141.5243  158.0978 N   0  0  0  0  0  0  0  0  0  0  0  0
  151.3456  140.4588  157.4361 C   0  0  0  0  0  0  0  0  0  0  0  0
  151.3705  139.2927  157.8284 O   0  0  0  0  0  0  0  0  0  0  0  0
  150.7916  140.8367  156.2747 N   0  0  0  0  0  0  0  0  0  0  0  0
  150.1260  139.9592  155.3131 C   0  0  2  0  0  0  0  0  0  0  0  0
  151.1880  139.1483  154.5561 C   0  0  0  0  0  0  0  0  0  0  0  0
  149.2464  140.7927  154.3604 C   0  0  2  0  0  0  0  0  0  0  0  0
  148.2037  141.6716  155.0566 C   0  0  0  0  0  0  0  0  0  0  0  0
  147.1624  141.8295  153.9737 C   0  0  0  0  0  0  0  0  0  0  0  0
  147.1624  140.4393  153.3472 C   0  0  0  0  0  0  0  0  0  0  0  0
  148.4892  139.9417  153.5012 O   0  0  0  0  0  0  0  0  0  0  0  0
  151.4071  144.7171  160.4275 H   0  0  0  0  0  0  0  0  0  0  0  0
  150.4232  143.5524  159.5418 H   0  0  0  0  0  0  0  0  0  0  0  0
  151.8050  144.3271  158.7543 H   0  0  0  0  0  0  0  0  0  0  0  0
  152.8602  143.7416  161.9426 H   0  0  0  0  0  0  0  0  0  0  0  0
  154.8866  138.7941  160.7022 H   0  0  0  0  0  0  0  0  0  0  0  0
  154.5326  139.1856  162.3770 H   0  0  0  0  0  0  0  0  0  0  0  0
  155.8958  139.9517  161.5553 H   0  0  0  0  0  0  0  0  0  0  0  0
  153.5568  139.7022  159.2597 H   0  0  0  0  0  0  0  0  0  0  0  0
  151.6838  142.4224  157.6623 H   0  0  0  0  0  0  0  0  0  0  0  0
  150.8165  141.8182  156.0403 H   0  0  0  0  0  0  0  0  0  0  0  0
  149.4790  139.2516  155.8343 H   0  0  0  0  0  0  0  0  0  0  0  0
  150.7268  138.4561  153.8514 H   0  0  0  0  0  0  0  0  0  0  0  0
  151.7946  138.5581  155.2440 H   0  0  0  0  0  0  0  0  0  0  0  0
  151.8588  139.7979  153.9929 H   0  0  0  0  0  0  0  0  0  0  0  0
  149.8724  141.4247  153.7281 H   0  0  0  0  0  0  0  0  0  0  0  0
  147.7727  141.1526  155.9142 H   0  0  0  0  0  0  0  0  0  0  0  0
  148.6088  142.6233  155.4016 H   0  0  0  0  0  0  0  0  0  0  0  0
  146.1851  142.1270  154.3549 H   0  0  0  0  0  0  0  0  0  0  0  0
  147.4887  142.5724  153.2443 H   0  0  0  0  0  0  0  0  0  0  0  0
  146.4818  139.7796  153.8868 H   0  0  0  0  0  0  0  0  0  0  0  0
  146.8602  140.4540  152.3001 H   0  0  0  0  0  0  0  0  0  0  0  0
  1  2  1  0  0  0  0
  1 21  1  0  0  0  0
  1 22  1  0  0  0  0
  1 23  1  0  0  0  0
  2  9  1  0  0  0  0
  2  3  2  0  0  0  0
  3  4  1  0  0  0  0
  3 24  1  0  0  0  0
  4  5  2  0  0  0  0
  4  6  1  0  0  0  0
  6  7  1  0  0  0  0
  6  8  1  0  0  0  0
  7 25  1  0  0  0  0
  7 26  1  0  0  0  0
  7 27  1  0  0  0  0
  8  9  2  0  0  0  0
  8 28  1  0  0  0  0
  9 10  1  0  0  0  0
 10 11  1  0  0  0  0
 10 29  1  0  0  0  0
 11 12  2  0  0  0  0
 11 13  1  0  0  0  0
 13 14  1  0  0  0  0
 13 30  1  0  0  0  0
 14 15  1  0  0  0  0
 14 16  1  0  0  0  0
 14 31  1  0  0  0  0
 15 32  1  0  0  0  0
 15 33  1  0  0  0  0
 15 34  1  0  0  0  0
 16 20  1  0  0  0  0
 16 17  1  0  0  0  0
 16 35  1  0  0  0  0
 17 18  1  0  0  0  0
 17 36  1  0  0  0  0
 17 37  1  0  0  0  0
 18 19  1  0  0  0  0
 18 38  1  0  0  0  0
 18 39  1  0  0  0  0
 19 20  1  0  0  0  0
 19 40  1  0  0  0  0
 19 41  1  0  0  0  0
M  END
> <s_m_source_file>
AV-unprocessed.smi

> <i_m_source_file_index>
2913

> <i_lp_mmshare_version>
43012

> <i_f3d_flags>
0

> <s_epik_input>
W0NIM11jMVtjSF1jKD1PKW4oW0NIM10pW2NIXWMxW05IXUMoPU8pW05IXVtDQEhdKFtDSDNdKVtDQEBIXTJbQ0gyXVtDSDJdW0NIMl1PMg==

> <s_epik_cmdline>
J2VwaWtfcHl0aG9uJywgJy1waCcsICc3LjAnLCAnLXRuJywgJzgnLCAnLW1hJywgJzIwMCcsICctbWV0YWxfYmluZGluZycsICctaW1hZScsICc8aW5maWxlLm1hZT4nLCAnLW9tYWUnLCAnPG91dGZpbGUubWFlPic=

> <r_lp_tautomer_probability>
1

> <r_epik_Ionization_Penalty>
2.72039e-05

> <r_epik_Ionization_Penalty_Charging>
8.03976e-06

> <r_epik_Ionization_Penalty_Neutral>
1.91642e-05

> <r_epik_State_Penalty>
-0

> <r_epik_Charging_Adjusted_Penalty>
8.03976e-06

> <i_epik_Tot_Q>
0

> <i_epik_Tot_abs_Q>
0

> <r_epik_Metal_State_Penalty>
-0

> <b_epik_Metal_Only>
0

> <s_lp_Force_Field>
OPLS_2005

> <r_lp_Energy>
32.2239

> <b_lp_Chiralities_Consistent>
1

> <s_lp_Variant>
AV-unprocessed.smi:2913-1

> <Gold.Version>
5.8.1

> <Gold.Id.Protein>
6NUR|6NUR_protein|mol2

> <Gold.PLP.Fitness>
40.8376

> <Gold.PLP.PLP>
-41.7155

> <Gold.PLP.part.hbond>
-1.0000

> <Gold.PLP.part.metal>
0.0000

> <Gold.PLP.part.buried>
-5.0941

> <Gold.PLP.part.nonpolar>
-37.6397

> <Gold.PLP.part.repulsive>
2.8479

> <Gold.PLP.ligand.clash>
0.0000

> <Gold.PLP.ligand.torsion>
0.4437

> <Gold.PLP.Chemscore.Hbond>
0.0000

> <Gold.PLP.Chemscore.CHOScore>
0.0000

> <Gold.PLP.Chemscore.Metal>
0.0000

> <Gold.PLP.Chemscore.Internal.Correction>
0.0095

> <Gold.Rescore>
     Score         DG    S(hbond)    S(metal)    S(lipo)     H(rot)  DE(clash)    DE(int)     intcor
     12.83     -13.37       0.00        0.00      93.94       1.21       0.03       0.51       ----

> <Gold.Chemscore.Fitness>
12.8307

> <Gold.Chemscore.DG>
-13.3734

> <Gold.Chemscore.ZeroCoef>
-5.4800

> <Gold.Chemscore.Hbond>
0.0000

> <Gold.Chemscore.Metal>
0.0000

> <Gold.Chemscore.Lipo>
93.9434

> <Gold.Chemscore.Internal_Hbond>
0.0000

> <Gold.Chemscore.DEClash>
0.0341

> <Gold.Chemscore.DEInternal>
0.5087

> <Gold.Chemscore.Rot>
1.2101

> <Gold.Chemscore.Internal.Correction>
   9.000000E+99

> <Gold.Chemscore.Hbond.Weighted>
-0.0000

> <Gold.Chemscore.Metal.Weighted>
-0.0000

> <Gold.Chemscore.Lipo.Weighted>
-10.9914

> <Gold.Chemscore.Internal_Hbond.Weighted>
0.0000

> <Gold.Chemscore.DEClash.Weighted>
0.0341

> <Gold.Chemscore.DEInternal.Weighted>
0.5087

> <Gold.Chemscore.Rot.Weighted>
3.0979

> <Gold.Chemscore.Internal.Correction.Weighted>
   9.000000E+99

> <Gold.Protein.RotatedTorsions>
[ 6907 6896 6895 6894 ] final -159.73 input  -60.11 | X-H torsion
[ 7974 7965 7964 7962 ] final  -74.13 input  175.53 | X-H torsion
[ 8008 7997 7996 7995 ] final -159.95 input   59.86 | X-H torsion
[ 10167 10162 10161 10158 ] final -153.15 input  -65.29 | X-H torsion
[ 10718 10713 10712 10709 ] final  -74.32 input   66.30 | X-H torsion
[ 10763 10752 10751 10750 ] final  -89.46 input  -60.55 | X-H torsion
[ 11005 11000 10999 10996 ] final  174.62 input  -57.11 | X-H torsion

> <Gold.Protein.ActiveResidues>
 VAL166  LYS551  ARG553  GLY616  TRP617  ASP618  TYR619  PRO620  LYS621  CYS622 
 ASP623  PHE694  ASN695  SER759  ASP760  ASP761  ALA762  ILE779  LEU786  VAL792 
 PHE793  MET794  SER795  GLU796  ALA797  LYS798  CYS799  TRP800  GLU811  SER814 

> <Gold.Protein.RotatedAtoms>
  151.3381  133.3973  159.2668 H   0  0  0  0  0  0  0  0  0  0  0  0  # atno 6907 bound_to 6896
  150.9900  134.9238  159.7904 H   0  0  0  0  0  0  0  0  0  0  0  0  # atno 6908 bound_to 6896
  152.5244  134.3346  159.9247 H   0  0  0  0  0  0  0  0  0  0  0  0  # atno 6909 bound_to 6896
  145.6431  140.9305  143.1025 H   0  0  0  0  0  0  0  0  0  0  0  0  # atno 7974 bound_to 7965
  155.7703  140.0851  157.2111 H   0  0  0  0  0  0  0  0  0  0  0  0  # atno 8008 bound_to 7997
  154.3997  140.1526  156.2991 H   0  0  0  0  0  0  0  0  0  0  0  0  # atno 8009 bound_to 7997
  155.8754  140.3423  155.5853 H   0  0  0  0  0  0  0  0  0  0  0  0  # atno 8010 bound_to 7997
  139.7121  143.9092  152.2472 H   0  0  0  0  0  0  0  0  0  0  0  0  # atno 10167 bound_to 10162
  156.0247  130.4414  150.2874 H   0  0  0  0  0  0  0  0  0  0  0  0  # atno 10718 bound_to 10713
  154.6554  135.5340  153.7953 H   0  0  0  0  0  0  0  0  0  0  0  0  # atno 10763 bound_to 10752
  153.0410  135.6493  154.0952 H   0  0  0  0  0  0  0  0  0  0  0  0  # atno 10764 bound_to 10752
  154.0866  135.2943  155.3260 H   0  0  0  0  0  0  0  0  0  0  0  0  # atno 10765 bound_to 10752
  140.3533  134.7176  157.4282 H   0  0  0  0  0  0  0  0  0  0  0  0  # atno 11005 bound_to 11000
  144.7150  139.8231  143.7402 LP  0  0  0  0  0  0  0  0  0  0  0  0  # atno 17320 bound_to 7965
  146.1264  139.4291  143.0196 LP  0  0  0  0  0  0  0  0  0  0  0  0  # atno 17321 bound_to 7965
  139.8964  144.6936  150.8713 LP  0  0  0  0  0  0  0  0  0  0  0  0  # atno 17342 bound_to 10162
  140.7735  143.3547  151.1945 LP  0  0  0  0  0  0  0  0  0  0  0  0  # atno 17343 bound_to 10162
  157.0978  131.0187  151.3097 LP  0  0  0  0  0  0  0  0  0  0  0  0  # atno 17370 bound_to 10713
  157.4804  130.7761  149.7408 LP  0  0  0  0  0  0  0  0  0  0  0  0  # atno 17371 bound_to 10713
  140.0685  134.5895  155.8668 LP  0  0  0  0  0  0  0  0  0  0  0  0  # atno 17394 bound_to 11000
  141.2006  133.6613  156.5903 LP  0  0  0  0  0  0  0  0  0  0  0  0  # atno 17395 bound_to 11000

$$$$
