AV-unprocessed.smi:2390|AV-procd|sdf|9478|dock1
  -GOLD-   2272013103D 1   1.00000     0.00000
 Structure written by MMmdl.
 46 47  0  0  0  0  0  0  0  0  2 V2000
  153.4408  141.3033  160.1519 C   0  0  0  0  0  0  0  0  0  0  0  0
  152.8190  142.2829  159.1790 C   0  0  0  0  0  0  0  0  0  0  0  0
  153.2827  143.6102  159.0909 C   0  0  0  0  0  0  0  0  0  0  0  0
  152.6652  144.4683  158.1635 C   0  0  0  0  0  0  0  0  0  0  0  0
  151.6183  143.9669  157.3663 C   0  0  0  0  0  0  0  0  0  0  0  0
  151.2122  142.6222  157.5181 C   0  0  0  0  0  0  0  0  0  0  0  0
  150.1562  142.2116  156.6620 N   0  0  0  0  0  0  0  0  0  0  0  0
  149.5567  141.0097  156.6036 C   0  0  0  0  0  0  0  0  0  0  0  0
  149.7883  140.0593  157.3518 O   0  0  0  0  0  0  0  0  0  0  0  0
  148.6511  140.9651  155.6149 N   0  0  0  0  0  0  0  0  0  0  0  0
  147.8166  139.8104  155.2825 C   0  0  1  0  0  0  0  0  0  0  0  0
  146.3382  140.2222  155.3974 C   0  0  0  0  0  0  0  0  0  0  0  0
  148.1812  139.2014  153.8893 C   0  0  2  0  0  0  0  0  0  0  0  0
  146.9415  138.5612  153.2138 C   0  0  0  0  0  0  0  0  0  0  0  0
  149.3492  138.2594  153.9617 N   0  3  0  0  0  0  0  0  0  0  0  0
  150.6661  138.9333  154.1433 C   0  0  0  0  0  0  0  0  0  0  0  0
  151.8189  137.9167  154.2004 C   0  0  0  0  0  0  0  0  0  0  0  0
  151.5851  136.9808  155.2403 O   0  0  0  0  0  0  0  0  0  0  0  0
  150.3974  136.2413  155.0069 C   0  0  0  0  0  0  0  0  0  0  0  0
  149.1896  137.1926  154.9898 C   0  0  0  0  0  0  0  0  0  0  0  0
  151.8139  141.8023  158.4156 N   0  0  0  0  0  0  0  0  0  0  0  0
  154.1367  141.8035  160.8260 H   0  0  0  0  0  0  0  0  0  0  0  0
  153.9861  140.5291  159.6112 H   0  0  0  0  0  0  0  0  0  0  0  0
  152.6700  140.8236  160.7559 H   0  0  0  0  0  0  0  0  0  0  0  0
  154.0900  143.9641  159.7151 H   0  0  0  0  0  0  0  0  0  0  0  0
  152.9892  145.4937  158.0633 H   0  0  0  0  0  0  0  0  0  0  0  0
  151.1347  144.6127  156.6476 H   0  0  0  0  0  0  0  0  0  0  0  0
  149.8324  142.9094  156.0089 H   0  0  0  0  0  0  0  0  0  0  0  0
  148.5247  141.7932  155.0510 H   0  0  0  0  0  0  0  0  0  0  0  0
  148.0129  139.0823  156.0685 H   0  0  0  0  0  0  0  0  0  0  0  0
  145.6720  139.3771  155.2240 H   0  0  0  0  0  0  0  0  0  0  0  0
  146.0791  141.0029  154.6819 H   0  0  0  0  0  0  0  0  0  0  0  0
  146.1174  140.6061  156.3942 H   0  0  0  0  0  0  0  0  0  0  0  0
  148.4942  140.0215  153.2413 H   0  0  0  0  0  0  0  0  0  0  0  0
  146.0711  139.2155  153.2431 H   0  0  0  0  0  0  0  0  0  0  0  0
  146.6616  137.6233  153.6940 H   0  0  0  0  0  0  0  0  0  0  0  0
  147.1135  138.3608  152.1564 H   0  0  0  0  0  0  0  0  0  0  0  0
  150.8764  139.6095  153.3161 H   0  0  0  0  0  0  0  0  0  0  0  0
  150.6476  139.5297  155.0568 H   0  0  0  0  0  0  0  0  0  0  0  0
  151.9317  137.4008  153.2455 H   0  0  0  0  0  0  0  0  0  0  0  0
  152.7607  138.4297  154.3957 H   0  0  0  0  0  0  0  0  0  0  0  0
  150.4727  135.6889  154.0687 H   0  0  0  0  0  0  0  0  0  0  0  0
  150.2816  135.5030  155.8005 H   0  0  0  0  0  0  0  0  0  0  0  0
  149.0606  137.6483  155.9729 H   0  0  0  0  0  0  0  0  0  0  0  0
  148.3069  136.5866  154.7976 H   0  0  0  0  0  0  0  0  0  0  0  0
  149.3937  137.7927  153.0671 H   0  0  0  0  0  0  0  0  0  0  0  0
  1  2  1  0  0  0  0
  1 22  1  0  0  0  0
  1 23  1  0  0  0  0
  1 24  1  0  0  0  0
  2 21  1  0  0  0  0
  2  3  2  0  0  0  0
  3  4  1  0  0  0  0
  3 25  1  0  0  0  0
  4  5  2  0  0  0  0
  4 26  1  0  0  0  0
  5  6  1  0  0  0  0
  5 27  1  0  0  0  0
  6  7  1  0  0  0  0
  6 21  2  0  0  0  0
  7  8  1  0  0  0  0
  7 28  1  0  0  0  0
  8  9  2  0  0  0  0
  8 10  1  0  0  0  0
 10 11  1  0  0  0  0
 10 29  1  0  0  0  0
 11 12  1  0  0  0  0
 11 13  1  0  0  0  0
 11 30  1  0  0  0  0
 12 31  1  0  0  0  0
 12 32  1  0  0  0  0
 12 33  1  0  0  0  0
 13 14  1  0  0  0  0
 13 15  1  0  0  0  0
 13 34  1  0  0  0  0
 14 35  1  0  0  0  0
 14 36  1  0  0  0  0
 14 37  1  0  0  0  0
 15 20  1  0  0  0  0
 15 16  1  0  0  0  0
 15 46  1  0  0  0  0
 16 17  1  0  0  0  0
 16 38  1  0  0  0  0
 16 39  1  0  0  0  0
 17 18  1  0  0  0  0
 17 40  1  0  0  0  0
 17 41  1  0  0  0  0
 18 19  1  0  0  0  0
 19 20  1  0  0  0  0
 19 42  1  0  0  0  0
 19 43  1  0  0  0  0
 20 44  1  0  0  0  0
 20 45  1  0  0  0  0
M  CHG  1  15   1
M  END
> <s_m_source_file>
AV-unprocessed.smi

> <i_m_source_file_index>
2390

> <i_lp_mmshare_version>
43012

> <i_f3d_flags>
0

> <s_epik_input>
W0NIM11jMVtjSF1bY0hdW2NIXWMobjEpW05IXUMoPU8pW05IXVtDQEhdKFtDSDNdKVtDQEhdKFtDSDNdKU4yW0NIMl1bQ0gyXU9bQ0gyXVtDSDJdMg==

> <s_epik_cmdline>
J2VwaWtfcHl0aG9uJywgJy1waCcsICc3LjAnLCAnLXRuJywgJzgnLCAnLW1hJywgJzIwMCcsICctbWV0YWxfYmluZGluZycsICctaW1hZScsICc8aW5maWxlLm1hZT4nLCAnLW9tYWUnLCAnPG91dGZpbGUubWFlPic=

> <r_epik_Ionization_Penalty>
0.60259

> <r_epik_Ionization_Penalty_Charging>
0.602531

> <r_epik_Ionization_Penalty_Neutral>
5.9516e-05

> <r_epik_State_Penalty>
0.617039

> <r_epik_Charging_Adjusted_Penalty>
1.21957

> <i_epik_Tot_Q>
1

> <i_epik_Tot_abs_Q>
1

> <r_epik_Metal_State_Penalty>
0.617047

> <b_epik_Metal_Only>
0

> <s_lp_Force_Field>
OPLS_2005

> <r_lp_Energy>
24.4942

> <b_lp_Chiralities_Consistent>
1

> <s_lp_Variant>
AV-unprocessed.smi:2390-6

> <Gold.Version>
5.8.1

> <Gold.Id.Protein>
6NUR|6NUR_protein|mol2

> <Gold.PLP.Fitness>
48.6123

> <Gold.PLP.PLP>
-38.9743

> <Gold.PLP.part.hbond>
-3.0537

> <Gold.PLP.part.metal>
0.0000

> <Gold.PLP.part.buried>
-4.0376

> <Gold.PLP.part.nonpolar>
-33.1469

> <Gold.PLP.part.repulsive>
0.2258

> <Gold.PLP.ligand.clash>
0.0000

> <Gold.PLP.ligand.torsion>
0.9227

> <Gold.PLP.Chemscore.Hbond>
3.7883

> <Gold.PLP.Chemscore.CHOScore>
0.0000

> <Gold.PLP.Chemscore.Metal>
0.0000

> <Gold.Chemscore.Hbonds>
donor molecule, donor type, donor heavy atom, donor atom, acceptor molecule, acceptor atom, score
      L1  H     7    28       P1  8028  0.89
      L1  H    15    46       P1  7948  2.00
      P1  H 10752 10765       L1    18  0.91

> <Gold.PLP.Chemscore.Internal.Correction>
0.1187

> <Gold.Rescore>
     Score         DG    S(hbond)    S(metal)    S(lipo)     H(rot)  DE(clash)    DE(int)     intcor
     18.19     -20.85       2.06        0.00     105.10       1.48       0.20       2.46       ----

> <Gold.Chemscore.Fitness>
18.1895

> <Gold.Chemscore.DG>
-20.8537

> <Gold.Chemscore.ZeroCoef>
-5.4800

> <Gold.Chemscore.Hbond>
2.0588

> <Gold.Chemscore.Metal>
0.0000

> <Gold.Chemscore.Lipo>
105.1041

> <Gold.Chemscore.Internal_Hbond>
0.0000

> <Gold.Chemscore.DEClash>
0.2006

> <Gold.Chemscore.DEInternal>
2.4636

> <Gold.Chemscore.Rot>
1.4844

> <Gold.Chemscore.Internal.Correction>
   9.000000E+99

> <Gold.Chemscore.Hbonds>
donor molecule, donor type, donor heavy atom, donor atom, acceptor molecule, acceptor atom, score
      L1  H     7    28       P1  8028  0.81
      L1  H    15    46       P1  7948  0.89
      P1  H 10752 10765       L1    18  0.08

> <Gold.Chemscore.Hbond.Weighted>
-6.8765

> <Gold.Chemscore.Metal.Weighted>
-0.0000

> <Gold.Chemscore.Lipo.Weighted>
-12.2972

> <Gold.Chemscore.Internal_Hbond.Weighted>
0.0000

> <Gold.Chemscore.DEClash.Weighted>
0.2006

> <Gold.Chemscore.DEInternal.Weighted>
2.4636

> <Gold.Chemscore.Rot.Weighted>
3.8000

> <Gold.Chemscore.Internal.Correction.Weighted>
   9.000000E+99

> <Gold.Protein.RotatedTorsions>
[ 6907 6896 6895 6894 ] final  -17.83 input  -60.11 | X-H torsion
[ 7974 7965 7964 7962 ] final   20.05 input  175.53 | X-H torsion
[ 8008 7997 7996 7995 ] final   94.48 input   59.86 | X-H torsion
[ 10167 10162 10161 10158 ] final  116.85 input  -65.29 | X-H torsion
[ 10718 10713 10712 10709 ] final  111.59 input   66.30 | X-H torsion
[ 10763 10752 10751 10750 ] final -164.49 input  -60.55 | X-H torsion
[ 11005 11000 10999 10996 ] final   -5.35 input  -57.11 | X-H torsion

> <Gold.Protein.ActiveResidues>
 VAL166  LYS551  ARG553  GLY616  TRP617  ASP618  TYR619  PRO620  LYS621  CYS622 
 ASP623  PHE694  ASN695  SER759  ASP760  ASP761  ALA762  ILE779  LEU786  VAL792 
 PHE793  MET794  SER795  GLU796  ALA797  LYS798  CYS799  TRP800  GLU811  SER814 

> <Gold.Protein.RotatedAtoms>
  151.2873  135.0731  159.9191 H   0  0  0  0  0  0  0  0  0  0  0  0  # atno 6907 bound_to 6896
  152.5323  133.9968  159.7886 H   0  0  0  0  0  0  0  0  0  0  0  0  # atno 6908 bound_to 6896
  151.0232  133.5807  159.2699 H   0  0  0  0  0  0  0  0  0  0  0  0  # atno 6909 bound_to 6896
  146.2126  139.8225  142.8677 H   0  0  0  0  0  0  0  0  0  0  0  0  # atno 7974 bound_to 7965
  156.0584  140.3299  155.7433 H   0  0  0  0  0  0  0  0  0  0  0  0  # atno 8008 bound_to 7997
  155.5493  140.0609  157.2871 H   0  0  0  0  0  0  0  0  0  0  0  0  # atno 8009 bound_to 7997
  154.4469  140.1897  156.0658 H   0  0  0  0  0  0  0  0  0  0  0  0  # atno 8010 bound_to 7997
  139.6218  144.7102  151.2617 H   0  0  0  0  0  0  0  0  0  0  0  0  # atno 10167 bound_to 10162
  157.6436  131.0953  150.6771 H   0  0  0  0  0  0  0  0  0  0  0  0  # atno 10718 bound_to 10713
  154.7023  135.2990  154.9322 H   0  0  0  0  0  0  0  0  0  0  0  0  # atno 10763 bound_to 10752
  154.0251  135.6677  153.4780 H   0  0  0  0  0  0  0  0  0  0  0  0  # atno 10764 bound_to 10752
  153.0690  135.5071  154.8174 H   0  0  0  0  0  0  0  0  0  0  0  0  # atno 10765 bound_to 10752
  140.6902  133.9078  155.8613 H   0  0  0  0  0  0  0  0  0  0  0  0  # atno 11005 bound_to 11000
  145.3081  141.0212  143.3570 LP  0  0  0  0  0  0  0  0  0  0  0  0  # atno 17320 bound_to 7965
  144.8956  139.4717  143.6657 LP  0  0  0  0  0  0  0  0  0  0  0  0  # atno 17321 bound_to 7965
  140.7387  143.6641  150.8139 LP  0  0  0  0  0  0  0  0  0  0  0  0  # atno 17342 bound_to 10162
  140.0252  143.5500  152.2783 LP  0  0  0  0  0  0  0  0  0  0  0  0  # atno 17343 bound_to 10162
  156.7092  130.4646  149.5552 LP  0  0  0  0  0  0  0  0  0  0  0  0  # atno 17370 bound_to 10713
  156.1742  130.6457  151.0874 LP  0  0  0  0  0  0  0  0  0  0  0  0  # atno 17371 bound_to 10713
  141.0247  134.0839  157.4081 LP  0  0  0  0  0  0  0  0  0  0  0  0  # atno 17394 bound_to 11000
  139.8926  135.0125  156.6852 LP  0  0  0  0  0  0  0  0  0  0  0  0  # atno 17395 bound_to 11000

$$$$
