AV-unprocessed.smi:3270|AV-procd|sdf|12515|dock9
  -GOLD-   2272018423D 1   1.00000     0.00000
 Structure written by MMmdl.
 39 40  0  0  0  0  0  0  0  0  2 V2000
  143.1095  135.3441  152.3453 C   0  0  0  0  0  0  0  0  0  0  0  0
  144.3275  135.5620  151.4246 C   0  0  1  0  0  0  0  0  0  0  0  0
  145.4417  136.3847  152.0930 C   0  0  0  0  0  0  0  0  0  0  0  0
  146.1846  135.8760  152.9335 O   0  0  0  0  0  0  0  0  0  0  0  0
  145.5462  137.6675  151.7101 N   0  0  0  0  0  0  0  0  0  0  0  0
  146.5448  138.6071  152.2057 C   0  0  0  0  0  0  0  0  0  0  0  0
  146.4514  138.7794  153.7343 C   0  0  0  0  0  0  0  0  0  0  0  0
  147.6596  139.4234  154.3074 N   0  3  0  0  0  0  0  0  0  0  0  0
  148.8679  138.5749  154.1728 C   0  0  0  0  0  0  0  0  0  0  0  0
  150.0844  139.2594  154.8188 C   0  0  0  0  0  0  0  0  0  0  0  0
  150.2840  140.5359  154.2252 O   0  0  0  0  0  0  0  0  0  0  0  0
  149.1680  141.3943  154.4247 C   0  0  0  0  0  0  0  0  0  0  0  0
  147.9195  140.7817  153.7670 C   0  0  0  0  0  0  0  0  0  0  0  0
  144.8588  134.3036  150.9133 N   0  0  0  0  0  0  0  0  0  0  0  0
  144.1682  133.2770  150.3012 C   0  0  0  0  0  0  0  0  0  0  0  0
  145.0765  132.3161  149.9608 C   0  0  0  0  0  0  0  0  0  0  0  0
  146.3177  132.8534  150.4014 C   0  0  0  0  0  0  0  0  0  0  0  0
  146.1862  134.0437  150.9633 N   0  0  0  0  0  0  0  0  0  0  0  0
  142.6891  136.2957  152.6728 H   0  0  0  0  0  0  0  0  0  0  0  0
  143.3662  134.7719  153.2380 H   0  0  0  0  0  0  0  0  0  0  0  0
  142.3208  134.8022  151.8228 H   0  0  0  0  0  0  0  0  0  0  0  0
  143.9784  136.1358  150.5643 H   0  0  0  0  0  0  0  0  0  0  0  0
  144.9002  138.0091  151.0132 H   0  0  0  0  0  0  0  0  0  0  0  0
  147.5347  138.2667  151.9004 H   0  0  0  0  0  0  0  0  0  0  0  0
  146.3809  139.5660  151.7133 H   0  0  0  0  0  0  0  0  0  0  0  0
  145.5797  139.3988  153.9515 H   0  0  0  0  0  0  0  0  0  0  0  0
  146.2796  137.8226  154.2300 H   0  0  0  0  0  0  0  0  0  0  0  0
  148.6978  137.6086  154.6493 H   0  0  0  0  0  0  0  0  0  0  0  0
  149.0647  138.3822  153.1167 H   0  0  0  0  0  0  0  0  0  0  0  0
  149.9479  139.3622  155.8966 H   0  0  0  0  0  0  0  0  0  0  0  0
  150.9794  138.6556  154.6674 H   0  0  0  0  0  0  0  0  0  0  0  0
  149.0061  141.5595  155.4913 H   0  0  0  0  0  0  0  0  0  0  0  0
  149.3869  142.3664  153.9821 H   0  0  0  0  0  0  0  0  0  0  0  0
  148.0597  140.7258  152.6861 H   0  0  0  0  0  0  0  0  0  0  0  0
  147.0658  141.4349  153.9438 H   0  0  0  0  0  0  0  0  0  0  0  0
  143.0979  133.3147  150.1605 H   0  0  0  0  0  0  0  0  0  0  0  0
  144.8846  131.3741  149.4689 H   0  0  0  0  0  0  0  0  0  0  0  0
  147.3037  132.4192  150.3263 H   0  0  0  0  0  0  0  0  0  0  0  0
  147.4932  139.5241  155.2987 H   0  0  0  0  0  0  0  0  0  0  0  0
  1  2  1  0  0  0  0
  1 19  1  0  0  0  0
  1 20  1  0  0  0  0
  1 21  1  0  0  0  0
  2  3  1  0  0  0  0
  2 14  1  0  0  0  0
  2 22  1  0  0  0  0
  3  4  2  0  0  0  0
  3  5  1  0  0  0  0
  5  6  1  0  0  0  0
  5 23  1  0  0  0  0
  6  7  1  0  0  0  0
  6 24  1  0  0  0  0
  6 25  1  0  0  0  0
  7  8  1  0  0  0  0
  7 26  1  0  0  0  0
  7 27  1  0  0  0  0
  8 13  1  0  0  0  0
  8  9  1  0  0  0  0
  8 39  1  0  0  0  0
  9 10  1  0  0  0  0
  9 28  1  0  0  0  0
  9 29  1  0  0  0  0
 10 11  1  0  0  0  0
 10 30  1  0  0  0  0
 10 31  1  0  0  0  0
 11 12  1  0  0  0  0
 12 13  1  0  0  0  0
 12 32  1  0  0  0  0
 12 33  1  0  0  0  0
 13 34  1  0  0  0  0
 13 35  1  0  0  0  0
 14 18  1  0  0  0  0
 14 15  1  0  0  0  0
 15 16  2  0  0  0  0
 15 36  1  0  0  0  0
 16 17  1  0  0  0  0
 16 37  1  0  0  0  0
 17 18  2  0  0  0  0
 17 38  1  0  0  0  0
M  CHG  1   8   1
M  END
> <s_m_source_file>
AV-unprocessed.smi

> <i_m_source_file_index>
3270

> <i_lp_mmshare_version>
43012

> <i_f3d_flags>
0

> <s_epik_input>
bjFbY0hdW2NIXVtjSF1uMVtDQEhdKFtDSDNdKUMoPU8pW05IXVtDSDJdW0NIMl1OMltDSDJdW0NIMl1PW0NIMl1bQ0gyXTI=

> <s_epik_cmdline>
J2VwaWtfcHl0aG9uJywgJy1waCcsICc3LjAnLCAnLXRuJywgJzgnLCAnLW1hJywgJzIwMCcsICctbWV0YWxfYmluZGluZycsICctaW1hZScsICc8aW5maWxlLm1hZT4nLCAnLW9tYWUnLCAnPG91dGZpbGUubWFlPic=

> <r_lp_tautomer_probability>
1

> <r_epik_Ionization_Penalty>
0.73255

> <r_epik_Ionization_Penalty_Charging>
0.732531

> <r_epik_Ionization_Penalty_Neutral>
1.96965e-05

> <r_epik_State_Penalty>
0.757939

> <r_epik_Charging_Adjusted_Penalty>
1.49047

> <i_epik_Tot_Q>
1

> <i_epik_Tot_abs_Q>
1

> <r_epik_Metal_State_Penalty>
0.757952

> <b_epik_Metal_Only>
0

> <s_lp_Force_Field>
OPLS_2005

> <r_lp_Energy>
19.4088

> <b_lp_Chiralities_Consistent>
1

> <s_lp_Variant>
AV-unprocessed.smi:3270-4

> <Gold.Version>
5.8.1

> <Gold.Id.Protein>
6NUR|6NUR_protein|mol2

> <Gold.PLP.Fitness>
44.9089

> <Gold.PLP.PLP>
-34.1191

> <Gold.PLP.part.hbond>
-1.7390

> <Gold.PLP.part.metal>
0.0000

> <Gold.PLP.part.buried>
-4.6518

> <Gold.PLP.part.nonpolar>
-28.9559

> <Gold.PLP.part.repulsive>
1.5717

> <Gold.PLP.ligand.clash>
0.0000

> <Gold.PLP.ligand.torsion>
0.5055

> <Gold.PLP.Chemscore.Hbond>
1.8960

> <Gold.PLP.Chemscore.CHOScore>
2.0000

> <Gold.PLP.Chemscore.Metal>
0.0000

> <Gold.Chemscore.Hbonds>
donor molecule, donor type, donor heavy atom, donor atom, acceptor molecule, acceptor atom, score
      L1  H     5    23       P1 10171  1.00
      P1  H  7989  7998       L1    11  0.86
      L1  C    15    36       P1 10186  1.00
      L1  C    17    38       P1 10747  1.00

> <Gold.PLP.Chemscore.Internal.Correction>
0.1127

> <Gold.Rescore>
     Score         DG    S(hbond)    S(metal)    S(lipo)     H(rot)  DE(clash)    DE(int)     intcor
     13.39     -16.18       1.89        0.00      79.26       1.91       0.04       2.75       ----

> <Gold.Chemscore.Fitness>
13.3876

> <Gold.Chemscore.DG>
-16.1799

> <Gold.Chemscore.ZeroCoef>
-5.4800

> <Gold.Chemscore.Hbond>
1.8919

> <Gold.Chemscore.Metal>
0.0000

> <Gold.Chemscore.Lipo>
79.2554

> <Gold.Chemscore.Internal_Hbond>
0.0000

> <Gold.Chemscore.DEClash>
0.0449

> <Gold.Chemscore.DEInternal>
2.7474

> <Gold.Chemscore.Rot>
1.9109

> <Gold.Chemscore.Internal.Correction>
   9.000000E+99

> <Gold.Chemscore.Hbonds>
donor molecule, donor type, donor heavy atom, donor atom, acceptor molecule, acceptor atom, score
      L1  H     5    23       P1 10171  1.00
      P1  H  7989  7998       L1    11  0.80

> <Gold.Chemscore.Hbond.Weighted>
-6.3189

> <Gold.Chemscore.Metal.Weighted>
-0.0000

> <Gold.Chemscore.Lipo.Weighted>
-9.2729

> <Gold.Chemscore.Internal_Hbond.Weighted>
0.0000

> <Gold.Chemscore.DEClash.Weighted>
0.0449

> <Gold.Chemscore.DEInternal.Weighted>
2.7474

> <Gold.Chemscore.Rot.Weighted>
4.8919

> <Gold.Chemscore.Internal.Correction.Weighted>
   9.000000E+99

> <Gold.Protein.RotatedTorsions>
[ 6907 6896 6895 6894 ] final  136.58 input  -60.11 | X-H torsion
[ 7974 7965 7964 7962 ] final   51.45 input  175.53 | X-H torsion
[ 8008 7997 7996 7995 ] final   39.69 input   59.86 | X-H torsion
[ 10167 10162 10161 10158 ] final -134.38 input  -65.29 | X-H torsion
[ 10718 10713 10712 10709 ] final   42.49 input   66.30 | X-H torsion
[ 10763 10752 10751 10750 ] final  -16.09 input  -60.55 | X-H torsion
[ 11005 11000 10999 10996 ] final   10.06 input  -57.11 | X-H torsion

> <Gold.Protein.ActiveResidues>
 VAL166  LYS551  ARG553  GLY616  TRP617  ASP618  TYR619  PRO620  LYS621  CYS622 
 ASP623  PHE694  ASN695  SER759  ASP760  ASP761  ALA762  ILE779  LEU786  VAL792 
 PHE793  MET794  SER795  GLU796  ALA797  LYS798  CYS799  TRP800  GLU811  SER814 

> <Gold.Protein.RotatedAtoms>
  152.2877  133.5531  159.5537 H   0  0  0  0  0  0  0  0  0  0  0  0  # atno 6907 bound_to 6896
  150.7222  134.0473  159.3795 H   0  0  0  0  0  0  0  0  0  0  0  0  # atno 6908 bound_to 6896
  151.8380  135.0600  160.0495 H   0  0  0  0  0  0  0  0  0  0  0  0  # atno 6909 bound_to 6896
  145.9912  139.4341  143.0072 H   0  0  0  0  0  0  0  0  0  0  0  0  # atno 7974 bound_to 7965
  155.2409  140.3345  155.4292 H   0  0  0  0  0  0  0  0  0  0  0  0  # atno 8008 bound_to 7997
  156.2256  140.1828  156.7415 H   0  0  0  0  0  0  0  0  0  0  0  0  # atno 8009 bound_to 7997
  154.5894  140.0640  156.9202 H   0  0  0  0  0  0  0  0  0  0  0  0  # atno 8010 bound_to 7997
  139.8886  143.6750  152.2616 H   0  0  0  0  0  0  0  0  0  0  0  0  # atno 10167 bound_to 10162
  157.4054  130.7883  149.7384 H   0  0  0  0  0  0  0  0  0  0  0  0  # atno 10718 bound_to 10713
  153.5533  135.7011  153.5581 H   0  0  0  0  0  0  0  0  0  0  0  0  # atno 10763 bound_to 10752
  153.3495  135.3999  155.1635 H   0  0  0  0  0  0  0  0  0  0  0  0  # atno 10764 bound_to 10752
  154.8658  135.3762  154.5046 H   0  0  0  0  0  0  0  0  0  0  0  0  # atno 10765 bound_to 10752
  140.5188  134.0580  155.7839 H   0  0  0  0  0  0  0  0  0  0  0  0  # atno 11005 bound_to 11000
  145.7626  140.9929  143.1191 LP  0  0  0  0  0  0  0  0  0  0  0  0  # atno 17320 bound_to 7965
  144.6890  139.9349  143.7473 LP  0  0  0  0  0  0  0  0  0  0  0  0  # atno 17321 bound_to 7965
  139.7130  144.7617  151.1081 LP  0  0  0  0  0  0  0  0  0  0  0  0  # atno 17342 bound_to 10162
  140.7731  143.5306  150.9428 LP  0  0  0  0  0  0  0  0  0  0  0  0  # atno 17343 bound_to 10162
  155.9835  130.4000  150.3361 LP  0  0  0  0  0  0  0  0  0  0  0  0  # atno 17370 bound_to 10713
  157.1493  131.0317  151.2892 LP  0  0  0  0  0  0  0  0  0  0  0  0  # atno 17371 bound_to 10713
  141.1346  133.9244  157.2462 LP  0  0  0  0  0  0  0  0  0  0  0  0  # atno 17394 bound_to 11000
  139.9617  135.0152  156.9280 LP  0  0  0  0  0  0  0  0  0  0  0  0  # atno 17395 bound_to 11000

$$$$
