#       Name:                AV-unprocessed.smi:1933
#       Creating user name   scv26
#       Creation time:       Fri Mar 27 09:55:54 2020


#       File generated by GOLD software.
#

@<TRIPOS>MOLECULE
AV-unprocessed.smi:1933
    55    57     1
SMALL
NO_CHARGES


@<TRIPOS>ATOM
      1 ****        -2.1401   0.5304  -1.0638 O.2            1 S1                 0.0000
      2 ****        -1.8328   1.1341  -0.0357 C.2            1 S1                 0.0000
      3 ****        -1.1136   0.5908   0.9576 N.am           1 S1                 0.0000
      4 ****        -0.5837  -0.7702   0.9847 C.3            1 S1                 0.0000
      5 ****         0.9536  -0.8131   0.7734 C.3            1 S1                 0.0000
      6 ****         1.4018  -0.2267  -0.5975 C.3            1 S1                 0.0000
      7 ****         1.0229  -0.9421  -1.8808 C.3            1 S1                 0.0000
      8 ****         1.8948  -0.2012  -2.8888 C.3            1 S1                 0.0000
      9 ****         3.1014   0.1020  -2.1920 O.3            1 S1                 0.0000
     10 ****         2.9110  -0.0613  -0.7876 C.3            1 S1                 0.0000
     11 ****         1.5879  -2.0954   1.1400 N.3            1 S1                 0.0000
     12 ****         1.8025  -2.2241   2.5796 C.3            1 S1                 0.0000
     13 ****         2.5755  -3.5081   2.9293 C.3            1 S1                 0.0000
     14 ****         1.8862  -4.6420   2.4129 O.3            1 S1                 0.0000
     15 ****         1.6909  -4.5728   1.0042 C.3            1 S1                 0.0000
     16 ****         0.9025  -3.2983   0.6597 C.3            1 S1                 0.0000
     17 ****        -2.1613   2.4074   0.2451 N.am           1 S1                 0.0000
     18 ****        -2.8733   3.3307  -0.5663 C.ar           1 S1                 0.0000
     19 ****        -3.0739   4.6046   0.0124 C.ar           1 S1                 0.0000
     20 ****        -3.7636   5.5949  -0.7138 C.ar           1 S1                 0.0000
     21 ****        -4.2360   5.2854  -2.0015 C.ar           1 S1                 0.0000
     22 ****        -3.9950   3.9932  -2.5036 C.ar           1 S1                 0.0000
     23 ****        -3.3339   3.0427  -1.8094 N.ar           1 S1                 0.0000
     24 ****        -0.9125   1.1662   1.7623 H              1 S1                 0.0000
     25 ****        -0.8411  -1.1823   1.9602 H              1 S1                 0.0000
     26 ****        -1.0895  -1.3987   0.2500 H              1 S1                 0.0000
     27 ****         1.3465  -0.0790   1.4788 H              1 S1                 0.0000
     28 ****         0.9861   0.7790  -0.6697 H              1 S1                 0.0000
     29 ****         1.3330  -1.9836  -1.8744 H              1 S1                 0.0000
     30 ****        -0.0399  -0.8916  -2.1160 H              1 S1                 0.0000
     31 ****         2.0875  -0.7873  -3.7877 H              1 S1                 0.0000
     32 ****         1.4194   0.7337  -3.1885 H              1 S1                 0.0000
     33 ****         3.3088   0.7886  -0.2326 H              1 S1                 0.0000
     34 ****         3.4529  -0.9537  -0.4729 H              1 S1                 0.0000
     35 ****         2.3616  -1.3648   2.9515 H              1 S1                 0.0000
     36 ****         0.8463  -2.2259   3.1037 H              1 S1                 0.0000
     37 ****         3.5863  -3.4727   2.5199 H              1 S1                 0.0000
     38 ****         2.6715  -3.6102   4.0102 H              1 S1                 0.0000
     39 ****         2.6548  -4.5824   0.4929 H              1 S1                 0.0000
     40 ****         1.1443  -5.4571   0.6764 H              1 S1                 0.0000
     41 ****        -0.0847  -3.3736   1.1169 H              1 S1                 0.0000
     42 ****         0.7353  -3.2652  -0.4116 H              1 S1                 0.0000
     43 ****        -1.8531   2.7635   1.1376 H              1 S1                 0.0000
     44 ****        -2.7038   4.8259   1.0030 H              1 S1                 0.0000
     45 ****        -3.9259   6.5746  -0.2895 H              1 S1                 0.0000
     46 ****        -4.7686   6.0186  -2.5889 H              1 S1                 0.0000
     47 ****        -4.3409   3.7151  -3.4881 H              1 S1                 0.0000
     48 ****        -1.8509  -0.4182  -1.1920 LP             1 S1                 0.0000
     49 ****        -2.6788   0.9888  -1.7707 LP             1 S1                 0.0000
     50 ****         3.3645   1.0479  -2.3823 LP             1 S1                 0.0000
     51 ****         3.8258  -0.5141  -2.5014 LP             1 S1                 0.0000
     52 ****         2.4649  -2.0478   0.6617 LP             1 S1                 0.0000
     53 ****         0.9923  -4.7024   2.8570 LP             1 S1                 0.0000
     54 ****         2.4185  -5.4623   2.6220 LP             1 S1                 0.0000
     55 ****        -3.1854   2.1372  -2.2068 LP             1 S1                 0.0000
@<TRIPOS>BOND
    1    1    2 2     
    2    2    3 am    
    3    2   17 am    
    4    3    4 1     
    5    3   24 1     
    6    4    5 1     
    7    4   25 1     
    8    4   26 1     
    9    5    6 1     
   10    5   11 1     
   11    5   27 1     
   12    6   10 1     
   13    6    7 1     
   14    6   28 1     
   15    7    8 1     
   16    7   29 1     
   17    7   30 1     
   18    8    9 1     
   19    8   31 1     
   20    8   32 1     
   21    9   10 1     
   22   10   33 1     
   23   10   34 1     
   24   11   16 1     
   25   11   12 1     
   26   12   13 1     
   27   12   35 1     
   28   12   36 1     
   29   13   14 1     
   30   13   37 1     
   31   13   38 1     
   32   14   15 1     
   33   15   16 1     
   34   15   39 1     
   35   15   40 1     
   36   16   41 1     
   37   16   42 1     
   38   17   18 1     
   39   17   43 1     
   40   18   23 ar    
   41   18   19 ar    
   42   19   20 ar    
   43   19   44 1     
   44   20   21 ar    
   45   20   45 1     
   46   21   22 ar    
   47   21   46 1     
   48   22   23 ar    
   49   22   47 1     
   50    1   48 1     
   51    1   49 1     
   52    9   50 1     
   53    9   51 1     
   54   11   52 1     
   55   14   53 1     
   56   14   54 1     
   57   23   55 1     
@<TRIPOS>SUBSTRUCTURE
      1 S1             1
@<TRIPOS>SET
LONE_PAIRS      STATIC     ATOMS    <user>   **** ""
8 48 49 50 51 52 53 54 55
DONOR_HYDROGENS      STATIC     ATOMS    <user>   **** ""
2 24 43
ATOM$BLUE        STATIC     ATOMS    COLORGROUP SYSTEM
8 48 49 50 51 52 53 54 55
ATOM$RED        STATIC     ATOMS    COLORGROUP SYSTEM
2 24 43
