#       Name:                AV-unprocessed.smi:2331
#       Creating user name   scv26
#       Creation time:       Fri Mar 27 12:53:32 2020


#       File generated by GOLD software.
#

@<TRIPOS>MOLECULE
AV-unprocessed.smi:2331
    54    55     1
SMALL
NO_CHARGES


@<TRIPOS>ATOM
      1 ****        -4.5936   0.6508  -0.6633 C.3            1 S1                 0.0000
      2 ****        -3.1277   0.9617  -0.2954 C.3            1 S1                 0.0000
      3 ****        -3.1485   1.7707   1.0241 C.3            1 S1                 0.0000
      4 ****        -2.3798  -0.3720  -0.0380 C.3            1 S1                 0.0000
      5 ****        -0.9470  -0.1633   0.1487 N.am           1 S1                 0.0000
      6 ****        -0.1371  -0.9050   0.9206 C.2            1 S1                 0.0000
      7 ****        -0.5304  -1.8925   1.5422 O.2            1 S1                 0.0000
      8 ****         1.1585  -0.5094   0.8873 N.am           1 S1                 0.0000
      9 ****         1.5779   0.8567   0.5425 C.3            1 S1                 0.0000
     10 ****         3.0304   1.0026   0.9916 C.3            1 S1                 0.0000
     11 ****         3.2312  -0.1206   1.9990 C.3            1 S1                 0.0000
     12 ****         2.2567  -1.2280   1.5583 C.3            1 S1                 0.0000
     13 ****         2.9032  -2.3692   0.6981 C.3            1 S1                 0.0000
     14 ****         3.8292  -3.2404   1.5700 C.3            1 S1                 0.0000
     15 ****         1.8927  -3.2866  -0.0191 C.3            1 S1                 0.0000
     16 ****         3.7243  -1.8097  -0.3095 O.3            1 S1                 0.0000
     17 ****        -2.4597   1.7342  -1.4500 C.ar           1 S1                 0.0000
     18 ****        -1.8851   3.0187  -1.2844 C.ar           1 S1                 0.0000
     19 ****        -1.2776   3.6445  -2.3911 C.ar           1 S1                 0.0000
     20 ****        -1.2092   3.0861  -3.6167 N.ar           1 S1                 0.0000
     21 ****        -1.7549   1.8637  -3.7782 C.ar           1 S1                 0.0000
     22 ****        -2.3834   1.1527  -2.7372 C.ar           1 S1                 0.0000
     23 ****        -5.1019   0.1232   0.1446 H              1 S1                 0.0000
     24 ****        -4.6700   0.0228  -1.5511 H              1 S1                 0.0000
     25 ****        -5.1538   1.5655  -0.8607 H              1 S1                 0.0000
     26 ****        -3.6308   1.2077   1.8240 H              1 S1                 0.0000
     27 ****        -3.7016   2.7041   0.9136 H              1 S1                 0.0000
     28 ****        -2.1443   2.0155   1.3717 H              1 S1                 0.0000
     29 ****        -2.8136  -0.8817   0.8242 H              1 S1                 0.0000
     30 ****        -2.5034  -1.0493  -0.8838 H              1 S1                 0.0000
     31 ****        -0.5357   0.6120  -0.3506 H              1 S1                 0.0000
     32 ****         1.4769   1.0450  -0.5274 H              1 S1                 0.0000
     33 ****         0.9550   1.5802   1.0720 H              1 S1                 0.0000
     34 ****         3.6959   0.8620   0.1394 H              1 S1                 0.0000
     35 ****         3.2423   1.9851   1.4140 H              1 S1                 0.0000
     36 ****         4.2719  -0.4359   2.0634 H              1 S1                 0.0000
     37 ****         2.9432   0.2362   2.9888 H              1 S1                 0.0000
     38 ****         1.8624  -1.6907   2.4653 H              1 S1                 0.0000
     39 ****         3.2725  -3.7152   2.3786 H              1 S1                 0.0000
     40 ****         4.6348  -2.6635   2.0231 H              1 S1                 0.0000
     41 ****         4.2947  -4.0355   0.9862 H              1 S1                 0.0000
     42 ****         1.2178  -3.7627   0.6923 H              1 S1                 0.0000
     43 ****         2.3992  -4.0837  -0.5645 H              1 S1                 0.0000
     44 ****         1.2896  -2.7427  -0.7464 H              1 S1                 0.0000
     45 ****         4.1307  -2.5138  -0.7912 H              1 S1                 0.0000
     46 ****        -1.8913   3.5371  -0.3383 H              1 S1                 0.0000
     47 ****        -0.8315   4.6224  -2.2865 H              1 S1                 0.0000
     48 ****        -1.6869   1.4360  -4.7676 H              1 S1                 0.0000
     49 ****        -2.7935   0.1730  -2.9321 H              1 S1                 0.0000
     50 ****        -1.4890  -2.1710   1.4836 LP             1 S1                 0.0000
     51 ****         0.1089  -2.4159   2.1056 LP             1 S1                 0.0000
     52 ****         4.4290  -1.2369   0.1093 LP             1 S1                 0.0000
     53 ****         3.1681  -1.2549  -0.9283 LP             1 S1                 0.0000
     54 ****        -0.7694   3.5617  -4.3786 LP             1 S1                 0.0000
@<TRIPOS>BOND
    1    1    2 1     
    2    1   23 1     
    3    1   24 1     
    4    1   25 1     
    5    2    3 1     
    6    2    4 1     
    7    2   17 1     
    8    3   26 1     
    9    3   27 1     
   10    3   28 1     
   11    4    5 1     
   12    4   29 1     
   13    4   30 1     
   14    5    6 am    
   15    5   31 1     
   16    6    7 2     
   17    6    8 am    
   18    8   12 1     
   19    8    9 1     
   20    9   10 1     
   21    9   32 1     
   22    9   33 1     
   23   10   11 1     
   24   10   34 1     
   25   10   35 1     
   26   11   12 1     
   27   11   36 1     
   28   11   37 1     
   29   12   13 1     
   30   12   38 1     
   31   13   14 1     
   32   13   15 1     
   33   13   16 1     
   34   14   39 1     
   35   14   40 1     
   36   14   41 1     
   37   15   42 1     
   38   15   43 1     
   39   15   44 1     
   40   16   45 1     
   41   17   22 ar    
   42   17   18 ar    
   43   18   19 ar    
   44   18   46 1     
   45   19   20 ar    
   46   19   47 1     
   47   20   21 ar    
   48   21   22 ar    
   49   21   48 1     
   50   22   49 1     
   51    7   50 1     
   52    7   51 1     
   53   16   52 1     
   54   16   53 1     
   55   20   54 1     
@<TRIPOS>SUBSTRUCTURE
      1 S1             1
@<TRIPOS>SET
LONE_PAIRS      STATIC     ATOMS    <user>   **** ""
5 50 51 52 53 54
DONOR_HYDROGENS      STATIC     ATOMS    <user>   **** ""
2 31 45
ATOM$BLUE        STATIC     ATOMS    COLORGROUP SYSTEM
5 50 51 52 53 54
ATOM$RED        STATIC     ATOMS    COLORGROUP SYSTEM
2 31 45
