AV-unprocessed.smi:2821|AV-procd|sdf|10856|dock5
  -GOLD-   2272015303D 1   1.00000     0.00000
 Structure written by MMmdl.
 36 37  0  0  0  0  0  0  0  0  1 V2000
  146.0342  143.1937  153.9256 C   0  0  0  0  0  0  0  0  0  0  0  0
  146.8691  142.4417  154.9646 C   0  0  0  0  0  0  0  0  0  0  0  0
  147.6837  141.4861  154.2927 O   0  0  0  0  0  0  0  0  0  0  0  0
  148.8964  141.1485  154.8575 C   0  0  0  0  0  0  0  0  0  0  0  0
  149.7064  140.1743  154.2359 C   0  0  0  0  0  0  0  0  0  0  0  0
  150.9011  139.8052  154.7479 N   0  0  0  0  0  0  0  0  0  0  0  0
  151.2864  140.4184  155.8889 C   0  0  0  0  0  0  0  0  0  0  0  0
  150.4888  141.3982  156.5202 C   0  0  0  0  0  0  0  0  0  0  0  0
  150.9448  141.9993  157.7027 N   0  0  0  0  0  0  0  0  0  0  0  0
  152.1662  141.5543  158.3686 C   0  0  2  0  0  0  0  0  0  0  0  0
  151.9747  140.1452  158.9571 C   0  0  0  0  0  0  0  0  0  0  0  0
  152.5735  142.5626  159.4597 C   0  0  2  0  0  0  0  0  0  0  0  0
  153.3294  141.9483  160.6402 C   0  0  0  0  0  0  0  0  0  0  0  0
  153.0393  142.8993  161.7915 C   0  0  0  0  0  0  0  0  0  0  0  0
  151.8729  143.7515  161.2857 C   0  0  0  0  0  0  0  0  0  0  0  0
  151.4293  143.1024  160.1032 O   0  0  0  0  0  0  0  0  0  0  0  0
  149.2901  141.7601  156.0029 N   0  0  0  0  0  0  0  0  0  0  0  0
  145.3908  143.9325  154.4040 H   0  0  0  0  0  0  0  0  0  0  0  0
  145.3979  142.5090  153.3645 H   0  0  0  0  0  0  0  0  0  0  0  0
  146.6738  143.7173  153.2147 H   0  0  0  0  0  0  0  0  0  0  0  0
  147.4884  143.1495  155.5183 H   0  0  0  0  0  0  0  0  0  0  0  0
  146.2067  141.9443  155.6751 H   0  0  0  0  0  0  0  0  0  0  0  0
  149.3935  139.6884  153.3236 H   0  0  0  0  0  0  0  0  0  0  0  0
  152.2420  140.1245  156.2985 H   0  0  0  0  0  0  0  0  0  0  0  0
  150.3247  142.6153  158.2083 H   0  0  0  0  0  0  0  0  0  0  0  0
  152.9743  141.5164  157.6370 H   0  0  0  0  0  0  0  0  0  0  0  0
  152.8887  139.7894  159.4331 H   0  0  0  0  0  0  0  0  0  0  0  0
  151.7113  139.4209  158.1860 H   0  0  0  0  0  0  0  0  0  0  0  0
  151.1839  140.1333  159.7079 H   0  0  0  0  0  0  0  0  0  0  0  0
  153.1537  143.3814  159.0290 H   0  0  0  0  0  0  0  0  0  0  0  0
  152.9254  140.9622  160.8739 H   0  0  0  0  0  0  0  0  0  0  0  0
  154.3957  141.8345  160.4436 H   0  0  0  0  0  0  0  0  0  0  0  0
  152.7724  142.3460  162.6924 H   0  0  0  0  0  0  0  0  0  0  0  0
  153.9015  143.5250  162.0239 H   0  0  0  0  0  0  0  0  0  0  0  0
  151.0666  143.8357  162.0146 H   0  0  0  0  0  0  0  0  0  0  0  0
  152.2128  144.7576  161.0356 H   0  0  0  0  0  0  0  0  0  0  0  0
  1  2  1  0  0  0  0
  1 18  1  0  0  0  0
  1 19  1  0  0  0  0
  1 20  1  0  0  0  0
  2  3  1  0  0  0  0
  2 21  1  0  0  0  0
  2 22  1  0  0  0  0
  3  4  1  0  0  0  0
  4 17  1  0  0  0  0
  4  5  2  0  0  0  0
  5  6  1  0  0  0  0
  5 23  1  0  0  0  0
  6  7  2  0  0  0  0
  7  8  1  0  0  0  0
  7 24  1  0  0  0  0
  8  9  1  0  0  0  0
  8 17  2  0  0  0  0
  9 10  1  0  0  0  0
  9 25  1  0  0  0  0
 10 11  1  0  0  0  0
 10 12  1  0  0  0  0
 10 26  1  0  0  0  0
 11 27  1  0  0  0  0
 11 28  1  0  0  0  0
 11 29  1  0  0  0  0
 12 16  1  0  0  0  0
 12 13  1  0  0  0  0
 12 30  1  0  0  0  0
 13 14  1  0  0  0  0
 13 31  1  0  0  0  0
 13 32  1  0  0  0  0
 14 15  1  0  0  0  0
 14 33  1  0  0  0  0
 14 34  1  0  0  0  0
 15 16  1  0  0  0  0
 15 35  1  0  0  0  0
 15 36  1  0  0  0  0
M  END
> <s_m_source_file>
AV-unprocessed.smi

> <i_m_source_file_index>
2821

> <i_lp_mmshare_version>
43012

> <i_f3d_flags>
0

> <s_epik_input>
W0NIM11bQ0gyXU9jMVtjSF1uW2NIXWMobjEpW05IXVtDQEhdKFtDSDNdKVtDQEBIXTJbQ0gyXVtDSDJdW0NIMl1PMg==

> <s_epik_cmdline>
J2VwaWtfcHl0aG9uJywgJy1waCcsICc3LjAnLCAnLXRuJywgJzgnLCAnLW1hJywgJzIwMCcsICctbWV0YWxfYmluZGluZycsICctaW1hZScsICc8aW5maWxlLm1hZT4nLCAnLW9tYWUnLCAnPG91dGZpbGUubWFlPic=

> <r_lp_tautomer_probability>
1

> <r_epik_Ionization_Penalty>
4.69533e-05

> <r_epik_Ionization_Penalty_Charging>
0

> <r_epik_Ionization_Penalty_Neutral>
4.69533e-05

> <r_epik_State_Penalty>
-0

> <r_epik_Charging_Adjusted_Penalty>
0

> <i_epik_Tot_Q>
0

> <i_epik_Tot_abs_Q>
0

> <r_epik_Metal_State_Penalty>
-0

> <b_epik_Metal_Only>
0

> <s_lp_Force_Field>
OPLS_2005

> <r_lp_Energy>
27.5992

> <b_lp_Chiralities_Consistent>
1

> <s_lp_Variant>
AV-unprocessed.smi:2821-1

> <Gold.Version>
5.8.1

> <Gold.Id.Protein>
6NUR|6NUR_protein|mol2

> <Gold.PLP.Fitness>
40.6207

> <Gold.PLP.PLP>
-38.1375

> <Gold.PLP.part.hbond>
-1.5107

> <Gold.PLP.part.metal>
0.0000

> <Gold.PLP.part.buried>
-3.4864

> <Gold.PLP.part.nonpolar>
-31.9689

> <Gold.PLP.part.repulsive>
0.7690

> <Gold.PLP.ligand.clash>
0.0000

> <Gold.PLP.ligand.torsion>
0.9600

> <Gold.PLP.Chemscore.Hbond>
0.4500

> <Gold.PLP.Chemscore.CHOScore>
1.0000

> <Gold.PLP.Chemscore.Metal>
0.0000

> <Gold.Chemscore.Hbonds>
donor molecule, donor type, donor heavy atom, donor atom, acceptor molecule, acceptor atom, score
      P1  H  7989  7998       L1     6  0.30
      L1  C     5    23       P1  7957  1.00

> <Gold.PLP.Chemscore.Internal.Correction>
0.0532

> <Gold.Rescore>
     Score         DG    S(hbond)    S(metal)    S(lipo)     H(rot)  DE(clash)    DE(int)     intcor
     10.75     -11.60       0.00        0.00      86.16       1.55       0.05       0.80       ----

> <Gold.Chemscore.Fitness>
10.7532

> <Gold.Chemscore.DG>
-11.6035

> <Gold.Chemscore.ZeroCoef>
-5.4800

> <Gold.Chemscore.Hbond>
0.0043

> <Gold.Chemscore.Metal>
0.0000

> <Gold.Chemscore.Lipo>
86.1595

> <Gold.Chemscore.Internal_Hbond>
0.0000

> <Gold.Chemscore.DEClash>
0.0532

> <Gold.Chemscore.DEInternal>
0.7972

> <Gold.Chemscore.Rot>
1.5514

> <Gold.Chemscore.Internal.Correction>
   9.000000E+99

> <Gold.Chemscore.Hbond.Weighted>
-0.0144

> <Gold.Chemscore.Metal.Weighted>
-0.0000

> <Gold.Chemscore.Lipo.Weighted>
-10.0807

> <Gold.Chemscore.Internal_Hbond.Weighted>
0.0000

> <Gold.Chemscore.DEClash.Weighted>
0.0532

> <Gold.Chemscore.DEInternal.Weighted>
0.7972

> <Gold.Chemscore.Rot.Weighted>
3.9715

> <Gold.Chemscore.Internal.Correction.Weighted>
   9.000000E+99

> <Gold.Protein.RotatedTorsions>
[ 6907 6896 6895 6894 ] final -123.64 input  -60.11 | X-H torsion
[ 7974 7965 7964 7962 ] final  147.60 input  175.53 | X-H torsion
[ 8008 7997 7996 7995 ] final   43.36 input   59.86 | X-H torsion
[ 10167 10162 10161 10158 ] final  155.84 input  -65.29 | X-H torsion
[ 10718 10713 10712 10709 ] final   32.50 input   66.30 | X-H torsion
[ 10763 10752 10751 10750 ] final   87.53 input  -60.55 | X-H torsion
[ 11005 11000 10999 10996 ] final  -88.05 input  -57.11 | X-H torsion

> <Gold.Protein.ActiveResidues>
 VAL166  LYS551  ARG553  GLY616  TRP617  ASP618  TYR619  PRO620  LYS621  CYS622 
 ASP623  PHE694  ASN695  SER759  ASP760  ASP761  ALA762  ILE779  LEU786  VAL792 
 PHE793  MET794  SER795  GLU796  ALA797  LYS798  CYS799  TRP800  GLU811  SER814 

> <Gold.Protein.RotatedAtoms>
  150.8690  133.7532  159.2967 H   0  0  0  0  0  0  0  0  0  0  0  0  # atno 6907 bound_to 6896
  151.5150  135.1064  159.9873 H   0  0  0  0  0  0  0  0  0  0  0  0  # atno 6908 bound_to 6896
  152.4682  133.7925  159.6965 H   0  0  0  0  0  0  0  0  0  0  0  0  # atno 6909 bound_to 6896
  144.8579  139.6048  143.5944 H   0  0  0  0  0  0  0  0  0  0  0  0  # atno 7974 bound_to 7965
  155.3014  140.3385  155.4247 H   0  0  0  0  0  0  0  0  0  0  0  0  # atno 8008 bound_to 7997
  156.1999  140.1729  156.7959 H   0  0  0  0  0  0  0  0  0  0  0  0  # atno 8009 bound_to 7997
  154.5546  140.0699  156.8707 H   0  0  0  0  0  0  0  0  0  0  0  0  # atno 8010 bound_to 7997
  139.4821  144.5063  151.8093 H   0  0  0  0  0  0  0  0  0  0  0  0  # atno 10167 bound_to 10162
  157.2860  130.7279  149.6583 H   0  0  0  0  0  0  0  0  0  0  0  0  # atno 10718 bound_to 10713
  153.1677  135.4540  154.9860 H   0  0  0  0  0  0  0  0  0  0  0  0  # atno 10763 bound_to 10752
  154.7944  135.3232  154.7705 H   0  0  0  0  0  0  0  0  0  0  0  0  # atno 10764 bound_to 10752
  153.8185  135.6949  153.4885 H   0  0  0  0  0  0  0  0  0  0  0  0  # atno 10765 bound_to 10752
  141.1608  133.7547  156.9396 H   0  0  0  0  0  0  0  0  0  0  0  0  # atno 11005 bound_to 11000
  146.2837  139.6947  142.9210 LP  0  0  0  0  0  0  0  0  0  0  0  0  # atno 17320 bound_to 7965
  145.4370  141.0419  143.2879 LP  0  0  0  0  0  0  0  0  0  0  0  0  # atno 17321 bound_to 7965
  140.4561  144.1787  150.5901 LP  0  0  0  0  0  0  0  0  0  0  0  0  # atno 17342 bound_to 10162
  140.4534  143.2477  151.9318 LP  0  0  0  0  0  0  0  0  0  0  0  0  # atno 17343 bound_to 10162
  155.9665  130.4323  150.4959 LP  0  0  0  0  0  0  0  0  0  0  0  0  # atno 17370 bound_to 10713
  157.2912  131.0626  151.2132 LP  0  0  0  0  0  0  0  0  0  0  0  0  # atno 17371 bound_to 10713
  140.1331  134.9343  157.2364 LP  0  0  0  0  0  0  0  0  0  0  0  0  # atno 17394 bound_to 11000
  140.2929  134.3220  155.7310 LP  0  0  0  0  0  0  0  0  0  0  0  0  # atno 17395 bound_to 11000

$$$$
