AV-unprocessed.smi:203|AV-procd|sdf|1596|dock6
  -GOLD-   2262019503D 1   1.00000     0.00000
 Structure written by MMmdl.
 57 61  0  0  0  0  0  0  0  0  1 V2000
  145.8319  134.0738  163.3668 O   0  0  0  0  0  0  0  0  0  0  0  0
  146.2844  134.6752  162.3957 C   0  0  0  0  0  0  0  0  0  0  0  0
  147.7708  134.8203  162.1173 C   0  0  0  0  0  0  0  0  0  0  0  0
  147.8183  135.4182  160.6971 C   0  0  1  0  0  0  0  0  0  0  0  0
  148.3744  134.4384  159.6152 C   0  0  1  0  0  0  0  0  0  0  0  0
  147.8934  132.9777  159.8247 C   0  0  0  0  0  0  0  0  0  0  0  0
  148.4501  132.0345  158.7502 C   0  0  0  0  0  0  0  0  0  0  0  0
  148.0802  132.5546  157.3575 C   0  0  0  0  0  0  0  0  0  0  0  0
  148.5770  133.9947  157.1770 C   0  0  0  0  0  0  0  0  0  0  0  0
  148.0744  134.8682  158.2372 N   0  0  0  0  0  0  0  0  0  0  0  0
  148.3249  136.1617  157.9349 C   0  0  0  0  0  0  0  0  0  0  0  0
  147.3276  136.8610  157.3402 N   0  0  0  0  0  0  0  0  0  0  0  0
  147.5140  138.1443  157.0166 C   0  0  0  0  0  0  0  0  0  0  0  0
  148.5991  138.9014  157.1936 N   0  0  0  0  0  0  0  0  0  0  0  0
  149.6053  138.1966  157.7860 C   0  0  0  0  0  0  0  0  0  0  0  0
  149.5556  136.8318  158.1854 C   0  0  0  0  0  0  0  0  0  0  0  0
  150.7697  136.4576  158.7486 N   0  0  0  0  0  0  0  0  0  0  0  0
  151.4952  137.5410  158.6887 C   0  0  0  0  0  0  0  0  0  0  0  0
  150.8751  138.6313  158.1221 N   0  0  0  0  0  0  0  0  0  0  0  0
  151.4495  139.9519  157.9292 C   0  0  0  0  0  0  0  0  0  0  0  0
  152.3605  140.3772  159.1009 C   0  0  1  0  0  0  0  0  0  0  0  0
  153.6463  139.8288  158.8822 O   0  0  0  0  0  0  0  0  0  0  0  0
  152.5184  141.9066  159.2235 C   0  0  1  0  0  0  0  0  0  0  0  0
  151.2436  142.7097  158.9611 C   0  0  0  0  0  0  0  0  0  0  0  0
  151.5084  144.0227  159.6755 C   0  0  0  0  0  0  0  0  0  0  0  0
  152.5638  143.6592  160.7231 C   0  0  0  0  0  0  0  0  0  0  0  0
  152.7813  142.2615  160.5735 O   0  0  0  0  0  0  0  0  0  0  0  0
  146.3770  135.9031  160.4223 C   0  0  0  0  0  0  0  0  0  0  0  0
  145.5674  135.2859  161.4549 N   0  0  0  0  0  0  0  0  0  0  0  0
  148.2007  135.5081  162.8465 H   0  0  0  0  0  0  0  0  0  0  0  0
  148.2942  133.8682  162.2059 H   0  0  0  0  0  0  0  0  0  0  0  0
  148.4688  136.2915  160.7510 H   0  0  0  0  0  0  0  0  0  0  0  0
  149.4601  134.4295  159.7148 H   0  0  0  0  0  0  0  0  0  0  0  0
  148.1926  132.6058  160.8041 H   0  0  0  0  0  0  0  0  0  0  0  0
  146.8044  132.9301  159.8013 H   0  0  0  0  0  0  0  0  0  0  0  0
  149.5345  131.9654  158.8444 H   0  0  0  0  0  0  0  0  0  0  0  0
  148.0573  131.0274  158.8929 H   0  0  0  0  0  0  0  0  0  0  0  0
  148.5099  131.9117  156.5889 H   0  0  0  0  0  0  0  0  0  0  0  0
  146.9980  132.5196  157.2255 H   0  0  0  0  0  0  0  0  0  0  0  0
  149.6678  134.0107  157.1825 H   0  0  0  0  0  0  0  0  0  0  0  0
  148.2588  134.3684  156.2023 H   0  0  0  0  0  0  0  0  0  0  0  0
  146.6733  138.6347  156.5481 H   0  0  0  0  0  0  0  0  0  0  0  0
  152.5110  137.5747  159.0552 H   0  0  0  0  0  0  0  0  0  0  0  0
  152.0059  139.9616  156.9910 H   0  0  0  0  0  0  0  0  0  0  0  0
  150.6251  140.6549  157.8083 H   0  0  0  0  0  0  0  0  0  0  0  0
  151.9600  139.9739  160.0318 H   0  0  0  0  0  0  0  0  0  0  0  0
  153.5746  138.8865  158.8813 H   0  0  0  0  0  0  0  0  0  0  0  0
  153.3215  142.2725  158.5803 H   0  0  0  0  0  0  0  0  0  0  0  0
  151.0348  142.8430  157.8992 H   0  0  0  0  0  0  0  0  0  0  0  0
  150.3857  142.2125  159.4163 H   0  0  0  0  0  0  0  0  0  0  0  0
  151.9059  144.7664  158.9838 H   0  0  0  0  0  0  0  0  0  0  0  0
  150.6007  144.4286  160.1232 H   0  0  0  0  0  0  0  0  0  0  0  0
  153.4946  144.1965  160.5357 H   0  0  0  0  0  0  0  0  0  0  0  0
  152.2375  143.8873  161.7383 H   0  0  0  0  0  0  0  0  0  0  0  0
  146.3081  136.9874  160.5194 H   0  0  0  0  0  0  0  0  0  0  0  0
  146.0135  135.6379  159.4292 H   0  0  0  0  0  0  0  0  0  0  0  0
  144.5579  135.3146  161.4433 H   0  0  0  0  0  0  0  0  0  0  0  0
  1  2  2  0  0  0  0
  2 29  1  0  0  0  0
  2  3  1  0  0  0  0
  3  4  1  0  0  0  0
  3 30  1  0  0  0  0
  3 31  1  0  0  0  0
  4  5  1  0  0  0  0
  4 28  1  0  0  0  0
  4 32  1  0  0  0  0
  5 10  1  0  0  0  0
  5  6  1  0  0  0  0
  5 33  1  0  0  0  0
  6  7  1  0  0  0  0
  6 34  1  0  0  0  0
  6 35  1  0  0  0  0
  7  8  1  0  0  0  0
  7 36  1  0  0  0  0
  7 37  1  0  0  0  0
  8  9  1  0  0  0  0
  8 38  1  0  0  0  0
  8 39  1  0  0  0  0
  9 10  1  0  0  0  0
  9 40  1  0  0  0  0
  9 41  1  0  0  0  0
 10 11  1  0  0  0  0
 11 16  1  0  0  0  0
 11 12  2  0  0  0  0
 12 13  1  0  0  0  0
 13 14  2  0  0  0  0
 13 42  1  0  0  0  0
 14 15  1  0  0  0  0
 15 19  1  0  0  0  0
 15 16  2  0  0  0  0
 16 17  1  0  0  0  0
 17 18  2  0  0  0  0
 18 19  1  0  0  0  0
 18 43  1  0  0  0  0
 19 20  1  0  0  0  0
 20 21  1  0  0  0  0
 20 44  1  0  0  0  0
 20 45  1  0  0  0  0
 21 22  1  0  0  0  0
 21 23  1  0  0  0  0
 21 46  1  0  0  0  0
 22 47  1  0  0  0  0
 23 27  1  0  0  0  0
 23 24  1  0  0  0  0
 23 48  1  0  0  0  0
 24 25  1  0  0  0  0
 24 49  1  0  0  0  0
 24 50  1  0  0  0  0
 25 26  1  0  0  0  0
 25 51  1  0  0  0  0
 25 52  1  0  0  0  0
 26 27  1  0  0  0  0
 26 53  1  0  0  0  0
 26 54  1  0  0  0  0
 28 29  1  0  0  0  0
 28 55  1  0  0  0  0
 28 56  1  0  0  0  0
 29 57  1  0  0  0  0
M  END
> <s_m_source_file>
AV-unprocessed.smi

> <i_m_source_file_index>
203

> <i_lp_mmshare_version>
43012

> <i_f3d_flags>
0

> <s_epik_input>
Tz1DMVtDSDJdW0NASF0oW0NIMl1bTkhdMSlbQ0BASF0yW0NIMl1bQ0gyXVtDSDJdW0NIMl1OMmMobltjSF1uMyljKGMzNCluW2NIXW40W0NIMl1bQ0BIXShbT0hdKVtDQEBIXTVbQ0gyXVtDSDJdW0NIMl1PNQ==

> <s_epik_cmdline>
J2VwaWtfcHl0aG9uJywgJy1waCcsICc3LjAnLCAnLXRuJywgJzgnLCAnLW1hJywgJzIwMCcsICctbWV0YWxfYmluZGluZycsICctaW1hZScsICc8aW5maWxlLm1hZT4nLCAnLW9tYWUnLCAnPG91dGZpbGUubWFlPic=

> <r_lp_tautomer_probability>
1

> <r_epik_Ionization_Penalty>
0.00175146

> <r_epik_Ionization_Penalty_Charging>
0

> <r_epik_Ionization_Penalty_Neutral>
0.00175146

> <r_epik_State_Penalty>
0.00109045

> <r_epik_Charging_Adjusted_Penalty>
0.00109045

> <i_epik_Tot_Q>
0

> <i_epik_Tot_abs_Q>
0

> <r_epik_Metal_State_Penalty>
-0

> <b_epik_Metal_Only>
0

> <s_lp_Force_Field>
OPLS_2005

> <r_lp_Energy>
57.4119

> <b_lp_Chiralities_Consistent>
1

> <s_lp_Variant>
AV-unprocessed.smi:203-15

> <Gold.Version>
5.8.1

> <Gold.Id.Protein>
6NUR|6NUR_protein|mol2

> <Gold.PLP.Fitness>
39.0344

> <Gold.PLP.PLP>
-36.3593

> <Gold.PLP.part.hbond>
-3.0000

> <Gold.PLP.part.metal>
0.0000

> <Gold.PLP.part.buried>
-6.7233

> <Gold.PLP.part.nonpolar>
-26.9289

> <Gold.PLP.part.repulsive>
0.0604

> <Gold.PLP.ligand.clash>
0.0000

> <Gold.PLP.ligand.torsion>
1.8513

> <Gold.PLP.Chemscore.Hbond>
1.9920

> <Gold.PLP.Chemscore.CHOScore>
0.0000

> <Gold.PLP.Chemscore.Metal>
0.0000

> <Gold.Chemscore.Hbonds>
donor molecule, donor type, donor heavy atom, donor atom, acceptor molecule, acceptor atom, score
      P1  H  6896  6908       L1    17  0.96
      P1  H  7997  8010       L1    22  0.86

> <Gold.PLP.Chemscore.Internal.Correction>
0.4017

> <Gold.Rescore>
     Score         DG    S(hbond)    S(metal)    S(lipo)     H(rot)  DE(clash)    DE(int)     intcor
     13.84     -15.40       1.87        0.00      90.83       2.72       0.05       1.51       ----

> <Gold.Chemscore.Fitness>
13.8438

> <Gold.Chemscore.DG>
-15.4037

> <Gold.Chemscore.ZeroCoef>
-5.4800

> <Gold.Chemscore.Hbond>
1.8719

> <Gold.Chemscore.Metal>
0.0000

> <Gold.Chemscore.Lipo>
90.8303

> <Gold.Chemscore.Internal_Hbond>
0.0000

> <Gold.Chemscore.DEClash>
0.0494

> <Gold.Chemscore.DEInternal>
1.5104

> <Gold.Chemscore.Rot>
2.7171

> <Gold.Chemscore.Internal.Correction>
   9.000000E+99

> <Gold.Chemscore.Hbonds>
donor molecule, donor type, donor heavy atom, donor atom, acceptor molecule, acceptor atom, score
      P1  H  6896  6908       L1    17  0.92
      P1  H  7997  8010       L1    22  0.16

> <Gold.Chemscore.Hbond.Weighted>
-6.2522

> <Gold.Chemscore.Metal.Weighted>
-0.0000

> <Gold.Chemscore.Lipo.Weighted>
-10.6271

> <Gold.Chemscore.Internal_Hbond.Weighted>
0.0000

> <Gold.Chemscore.DEClash.Weighted>
0.0494

> <Gold.Chemscore.DEInternal.Weighted>
1.5104

> <Gold.Chemscore.Rot.Weighted>
6.9557

> <Gold.Chemscore.Internal.Correction.Weighted>
   9.000000E+99

> <Gold.Protein.RotatedTorsions>
[ 6907 6896 6895 6894 ] final -155.35 input  -60.11 | X-H torsion
[ 7974 7965 7964 7962 ] final  177.91 input  175.53 | X-H torsion
[ 8008 7997 7996 7995 ] final   17.83 input   59.86 | X-H torsion
[ 10167 10162 10161 10158 ] final -103.84 input  -65.29 | X-H torsion
[ 10718 10713 10712 10709 ] final  108.11 input   66.30 | X-H torsion
[ 10763 10752 10751 10750 ] final -114.98 input  -60.55 | X-H torsion
[ 11005 11000 10999 10996 ] final  -32.82 input  -57.11 | X-H torsion

> <Gold.Protein.ActiveResidues>
 VAL166  LYS551  ARG553  GLY616  TRP617  ASP618  TYR619  PRO620  LYS621  CYS622 
 ASP623  PHE694  ASN695  SER759  ASP760  ASP761  ALA762  ILE779  LEU786  VAL792 
 PHE793  MET794  SER795  GLU796  ALA797  LYS798  CYS799  TRP800  GLU811  SER814 

> <Gold.Protein.RotatedAtoms>
  151.2711  133.4254  159.2621 H   0  0  0  0  0  0  0  0  0  0  0  0  # atno 6907 bound_to 6896
  151.0444  134.9630  159.8189 H   0  0  0  0  0  0  0  0  0  0  0  0  # atno 6908 bound_to 6896
  152.5371  134.2668  159.9009 H   0  0  0  0  0  0  0  0  0  0  0  0  # atno 6909 bound_to 6896
  144.7163  140.0317  143.6439 H   0  0  0  0  0  0  0  0  0  0  0  0  # atno 7974 bound_to 7965
  154.8971  140.2995  155.5338 H   0  0  0  0  0  0  0  0  0  0  0  0  # atno 8008 bound_to 7997
  156.3019  140.2414  156.3929 H   0  0  0  0  0  0  0  0  0  0  0  0  # atno 8009 bound_to 7997
  154.8559  140.0407  157.1623 H   0  0  0  0  0  0  0  0  0  0  0  0  # atno 8010 bound_to 7997
  140.2157  143.3713  152.1013 H   0  0  0  0  0  0  0  0  0  0  0  0  # atno 10167 bound_to 10162
  157.6600  131.0887  150.6256 H   0  0  0  0  0  0  0  0  0  0  0  0  # atno 10718 bound_to 10713
  154.8462  135.4398  154.1591 H   0  0  0  0  0  0  0  0  0  0  0  0  # atno 10763 bound_to 10752
  153.2732  135.6947  153.7465 H   0  0  0  0  0  0  0  0  0  0  0  0  # atno 10764 bound_to 10752
  153.6698  135.3421  155.3125 H   0  0  0  0  0  0  0  0  0  0  0  0  # atno 10765 bound_to 10752
  140.9584  133.7179  156.1329 H   0  0  0  0  0  0  0  0  0  0  0  0  # atno 11005 bound_to 11000
  146.0097  139.3159  143.0878 LP  0  0  0  0  0  0  0  0  0  0  0  0  # atno 17320 bound_to 7965
  145.8697  140.9427  143.0657 LP  0  0  0  0  0  0  0  0  0  0  0  0  # atno 17321 bound_to 7965
  139.5163  144.6975  151.5588 LP  0  0  0  0  0  0  0  0  0  0  0  0  # atno 17342 bound_to 10162
  140.6291  143.9110  150.6590 LP  0  0  0  0  0  0  0  0  0  0  0  0  # atno 17343 bound_to 10162
  156.6560  130.4498  149.5703 LP  0  0  0  0  0  0  0  0  0  0  0  0  # atno 17370 bound_to 10713
  156.2102  130.6674  151.1262 LP  0  0  0  0  0  0  0  0  0  0  0  0  # atno 17371 bound_to 10713
  140.7503  134.4052  157.5542 LP  0  0  0  0  0  0  0  0  0  0  0  0  # atno 17394 bound_to 11000
  139.8870  134.8895  156.2555 LP  0  0  0  0  0  0  0  0  0  0  0  0  # atno 17395 bound_to 11000

$$$$
