AV-unprocessed.smi:1936|AV-procd|sdf|7832|dock8
  -GOLD-   22720 9583D 1   1.00000     0.00000
 Structure written by MMmdl.
 39 40  0  0  0  0  0  0  0  0  2 V2000
  149.4314  134.1965  154.2000 C   0  0  0  0  0  0  0  0  0  0  0  0
  148.0634  134.7534  154.6157 C   0  0  1  0  0  0  0  0  0  0  0  0
  148.2028  136.0836  155.3913 C   0  0  0  0  0  0  0  0  0  0  0  0
  149.0146  137.0918  154.6629 N   0  3  0  0  0  0  0  0  0  0  0  0
  148.5213  138.4799  154.8272 C   0  0  0  0  0  0  0  0  0  0  0  0
  149.3564  139.4421  153.9674 C   0  0  0  0  0  0  0  0  0  0  0  0
  150.7272  139.3371  154.3337 O   0  0  0  0  0  0  0  0  0  0  0  0
  151.2392  138.0286  154.1130 C   0  0  0  0  0  0  0  0  0  0  0  0
  150.4614  137.0146  154.9694 C   0  0  0  0  0  0  0  0  0  0  0  0
  147.2345  134.9409  153.4256 N   0  0  0  0  0  0  0  0  0  0  0  0
  145.9495  135.3301  153.4127 C   0  0  0  0  0  0  0  0  0  0  0  0
  145.2714  135.4836  154.4281 O   0  0  0  0  0  0  0  0  0  0  0  0
  145.3594  135.6595  152.0431 C   0  0  0  0  0  0  0  0  0  0  0  0
  145.2803  134.4607  151.2266 N   0  0  0  0  0  0  0  0  0  0  0  0
  144.1878  133.9527  150.5553 C   0  0  0  0  0  0  0  0  0  0  0  0
  144.5955  132.8175  149.9153 C   0  0  0  0  0  0  0  0  0  0  0  0
  145.9720  132.7104  150.2587 C   0  0  0  0  0  0  0  0  0  0  0  0
  146.3808  133.6984  151.0381 N   0  0  0  0  0  0  0  0  0  0  0  0
  150.0639  134.0223  155.0710 H   0  0  0  0  0  0  0  0  0  0  0  0
  149.9587  134.8849  153.5386 H   0  0  0  0  0  0  0  0  0  0  0  0
  149.3259  133.2460  153.6755 H   0  0  0  0  0  0  0  0  0  0  0  0
  147.6028  134.0095  155.2672 H   0  0  0  0  0  0  0  0  0  0  0  0
  147.2236  136.4986  155.6347 H   0  0  0  0  0  0  0  0  0  0  0  0
  148.6856  135.8667  156.3456 H   0  0  0  0  0  0  0  0  0  0  0  0
  147.4734  138.5478  154.5361 H   0  0  0  0  0  0  0  0  0  0  0  0
  148.5807  138.7700  155.8773 H   0  0  0  0  0  0  0  0  0  0  0  0
  149.2312  139.2237  152.9053 H   0  0  0  0  0  0  0  0  0  0  0  0
  149.0259  140.4692  154.1235 H   0  0  0  0  0  0  0  0  0  0  0  0
  151.1714  137.7762  153.0540 H   0  0  0  0  0  0  0  0  0  0  0  0
  152.2966  138.0121  154.3773 H   0  0  0  0  0  0  0  0  0  0  0  0
  150.6240  137.2121  156.0302 H   0  0  0  0  0  0  0  0  0  0  0  0
  150.8308  136.0086  154.7665 H   0  0  0  0  0  0  0  0  0  0  0  0
  147.6981  134.8390  152.5338 H   0  0  0  0  0  0  0  0  0  0  0  0
  144.3641  136.0956  152.1438 H   0  0  0  0  0  0  0  0  0  0  0  0
  145.9855  136.3953  151.5365 H   0  0  0  0  0  0  0  0  0  0  0  0
  143.2225  134.4364  150.5883 H   0  0  0  0  0  0  0  0  0  0  0  0
  144.0007  132.1618  149.2967 H   0  0  0  0  0  0  0  0  0  0  0  0
  146.6823  131.9528  149.9623 H   0  0  0  0  0  0  0  0  0  0  0  0
  148.9271  136.8646  153.6822 H   0  0  0  0  0  0  0  0  0  0  0  0
  1  2  1  0  0  0  0
  1 19  1  0  0  0  0
  1 20  1  0  0  0  0
  1 21  1  0  0  0  0
  2  3  1  0  0  0  0
  2 10  1  0  0  0  0
  2 22  1  0  0  0  0
  3  4  1  0  0  0  0
  3 23  1  0  0  0  0
  3 24  1  0  0  0  0
  4  9  1  0  0  0  0
  4  5  1  0  0  0  0
  4 39  1  0  0  0  0
  5  6  1  0  0  0  0
  5 25  1  0  0  0  0
  5 26  1  0  0  0  0
  6  7  1  0  0  0  0
  6 27  1  0  0  0  0
  6 28  1  0  0  0  0
  7  8  1  0  0  0  0
  8  9  1  0  0  0  0
  8 29  1  0  0  0  0
  8 30  1  0  0  0  0
  9 31  1  0  0  0  0
  9 32  1  0  0  0  0
 10 11  1  0  0  0  0
 10 33  1  0  0  0  0
 11 12  2  0  0  0  0
 11 13  1  0  0  0  0
 13 14  1  0  0  0  0
 13 34  1  0  0  0  0
 13 35  1  0  0  0  0
 14 18  1  0  0  0  0
 14 15  1  0  0  0  0
 15 16  2  0  0  0  0
 15 36  1  0  0  0  0
 16 17  1  0  0  0  0
 16 37  1  0  0  0  0
 17 18  2  0  0  0  0
 17 38  1  0  0  0  0
M  CHG  1   4   1
M  END
> <s_m_source_file>
AV-unprocessed.smi

> <i_m_source_file_index>
1936

> <i_lp_mmshare_version>
43012

> <i_f3d_flags>
0

> <s_epik_input>
W0NIMl0xW0NIMl1PW0NIMl1bQ0gyXU4xW0NIMl1bQ0BASF0oW0NIM10pW05IXUMoPU8pW0NIMl1uMltjSF1bY0hdW2NIXW4y

> <s_epik_cmdline>
J2VwaWtfcHl0aG9uJywgJy1waCcsICc3LjAnLCAnLXRuJywgJzgnLCAnLW1hJywgJzIwMCcsICctbWV0YWxfYmluZGluZycsICctaW1hZScsICc8aW5maWxlLm1hZT4nLCAnLW9tYWUnLCAnPG91dGZpbGUubWFlPic=

> <r_lp_tautomer_probability>
1

> <r_epik_Ionization_Penalty>
0.748405

> <r_epik_Ionization_Penalty_Charging>
0.748396

> <r_epik_Ionization_Penalty_Neutral>
9.02181e-06

> <r_epik_State_Penalty>
0.775162

> <r_epik_Charging_Adjusted_Penalty>
1.52356

> <i_epik_Tot_Q>
1

> <i_epik_Tot_abs_Q>
1

> <r_epik_Metal_State_Penalty>
0.775167

> <b_epik_Metal_Only>
0

> <s_lp_Force_Field>
OPLS_2005

> <r_lp_Energy>
20.1582

> <b_lp_Chiralities_Consistent>
1

> <s_lp_Variant>
AV-unprocessed.smi:1936-4

> <Gold.Version>
5.8.1

> <Gold.Id.Protein>
6NUR|6NUR_protein|mol2

> <Gold.PLP.Fitness>
42.0657

> <Gold.PLP.PLP>
-26.8663

> <Gold.PLP.part.hbond>
-3.0000

> <Gold.PLP.part.metal>
0.0000

> <Gold.PLP.part.buried>
-1.8088

> <Gold.PLP.part.nonpolar>
-22.1960

> <Gold.PLP.part.repulsive>
0.4039

> <Gold.PLP.ligand.clash>
0.0000

> <Gold.PLP.ligand.torsion>
0.5566

> <Gold.PLP.Chemscore.Hbond>
3.4320

> <Gold.PLP.Chemscore.CHOScore>
1.9876

> <Gold.PLP.Chemscore.Metal>
0.0000

> <Gold.Chemscore.Hbonds>
donor molecule, donor type, donor heavy atom, donor atom, acceptor molecule, acceptor atom, score
      L1  H     4    39       P1  7948  2.00
      L1  H    10    33       P1  7948  0.45
      P1  H  7989  7998       L1     7  1.00
      L1  C    15    36       P1 10186  1.00
      L1  C    17    38       P1 10747  0.95

> <Gold.PLP.Chemscore.Internal.Correction>
0.0539

> <Gold.Rescore>
     Score         DG    S(hbond)    S(metal)    S(lipo)     H(rot)  DE(clash)    DE(int)     intcor
     16.29     -17.52       2.74        0.00      66.99       1.93       0.09       1.14       ----

> <Gold.Chemscore.Fitness>
16.2891

> <Gold.Chemscore.DG>
-17.5208

> <Gold.Chemscore.ZeroCoef>
-5.4800

> <Gold.Chemscore.Hbond>
2.7408

> <Gold.Chemscore.Metal>
0.0000

> <Gold.Chemscore.Lipo>
66.9875

> <Gold.Chemscore.Internal_Hbond>
0.0000

> <Gold.Chemscore.DEClash>
0.0927

> <Gold.Chemscore.DEInternal>
1.1391

> <Gold.Chemscore.Rot>
1.9340

> <Gold.Chemscore.Internal.Correction>
   9.000000E+99

> <Gold.Chemscore.Hbonds>
donor molecule, donor type, donor heavy atom, donor atom, acceptor molecule, acceptor atom, score
      L1  H     4    39       P1  7948  1.00
      L1  H    10    33       P1  7948  0.42
      P1  H  7989  7998       L1     7  0.52

> <Gold.Chemscore.Hbond.Weighted>
-9.1543

> <Gold.Chemscore.Metal.Weighted>
-0.0000

> <Gold.Chemscore.Lipo.Weighted>
-7.8375

> <Gold.Chemscore.Internal_Hbond.Weighted>
0.0000

> <Gold.Chemscore.DEClash.Weighted>
0.0927

> <Gold.Chemscore.DEInternal.Weighted>
1.1391

> <Gold.Chemscore.Rot.Weighted>
4.9510

> <Gold.Chemscore.Internal.Correction.Weighted>
   9.000000E+99

> <Gold.Protein.RotatedTorsions>
[ 6907 6896 6895 6894 ] final  -45.79 input  -60.11 | X-H torsion
[ 7974 7965 7964 7962 ] final  -99.81 input  175.53 | X-H torsion
[ 8008 7997 7996 7995 ] final   58.35 input   59.86 | X-H torsion
[ 10167 10162 10161 10158 ] final  117.24 input  -65.29 | X-H torsion
[ 10718 10713 10712 10709 ] final  -42.87 input   66.30 | X-H torsion
[ 10763 10752 10751 10750 ] final  114.64 input  -60.55 | X-H torsion
[ 11005 11000 10999 10996 ] final -178.97 input  -57.11 | X-H torsion

> <Gold.Protein.ActiveResidues>
 VAL166  LYS551  ARG553  GLY616  TRP617  ASP618  TYR619  PRO620  LYS621  CYS622 
 ASP623  PHE694  ASN695  SER759  ASP760  ASP761  ALA762  ILE779  LEU786  VAL792 
 PHE793  MET794  SER795  GLU796  ALA797  LYS798  CYS799  TRP800  GLU811  SER814 

> <Gold.Protein.RotatedAtoms>
  150.9182  134.8599  159.7470 H   0  0  0  0  0  0  0  0  0  0  0  0  # atno 6907 bound_to 6896
  152.4979  134.4258  159.9505 H   0  0  0  0  0  0  0  0  0  0  0  0  # atno 6908 bound_to 6896
  151.4294  133.3635  159.2802 H   0  0  0  0  0  0  0  0  0  0  0  0  # atno 6909 bound_to 6896
  145.3027  140.9381  143.2814 H   0  0  0  0  0  0  0  0  0  0  0  0  # atno 7974 bound_to 7965
  155.5485  140.3486  155.4463 H   0  0  0  0  0  0  0  0  0  0  0  0  # atno 8008 bound_to 7997
  156.0600  140.1338  156.9978 H   0  0  0  0  0  0  0  0  0  0  0  0  # atno 8009 bound_to 7997
  154.4475  140.0987  156.6487 H   0  0  0  0  0  0  0  0  0  0  0  0  # atno 8010 bound_to 7997
  139.6192  144.7098  151.2672 H   0  0  0  0  0  0  0  0  0  0  0  0  # atno 10167 bound_to 10162
  156.2550  130.4191  149.8606 H   0  0  0  0  0  0  0  0  0  0  0  0  # atno 10718 bound_to 10713
  153.5103  135.3619  155.2583 H   0  0  0  0  0  0  0  0  0  0  0  0  # atno 10763 bound_to 10752
  154.8742  135.4021  154.3376 H   0  0  0  0  0  0  0  0  0  0  0  0  # atno 10764 bound_to 10752
  153.4028  135.7075  153.6481 H   0  0  0  0  0  0  0  0  0  0  0  0  # atno 10765 bound_to 10752
  140.4238  134.6581  157.4677 H   0  0  0  0  0  0  0  0  0  0  0  0  # atno 11005 bound_to 11000
  144.9081  139.4564  143.6600 LP  0  0  0  0  0  0  0  0  0  0  0  0  # atno 17320 bound_to 7965
  146.3146  139.7873  142.8993 LP  0  0  0  0  0  0  0  0  0  0  0  0  # atno 17321 bound_to 7965
  140.7371  143.6688  150.8099 LP  0  0  0  0  0  0  0  0  0  0  0  0  # atno 17342 bound_to 10162
  140.0296  143.5457  152.2766 LP  0  0  0  0  0  0  0  0  0  0  0  0  # atno 17343 bound_to 10162
  156.6141  130.8599  151.3461 LP  0  0  0  0  0  0  0  0  0  0  0  0  # atno 17370 bound_to 10713
  157.7229  130.9583  150.1513 LP  0  0  0  0  0  0  0  0  0  0  0  0  # atno 17371 bound_to 10713
  140.0181  134.6588  155.9279 LP  0  0  0  0  0  0  0  0  0  0  0  0  # atno 17394 bound_to 11000
  141.1773  133.6542  156.4880 LP  0  0  0  0  0  0  0  0  0  0  0  0  # atno 17395 bound_to 11000

$$$$
