AV-unprocessed.smi:1028|AV-procd|sdf|4473|dock7
  -GOLD-   22720 2453D 1   1.00000     0.00000
 Structure written by MMmdl.
 43 44  0  0  0  0  0  0  0  0  1 V2000
  151.0333  144.3657  159.8078 C   0  0  0  0  0  0  0  0  0  0  0  0
  152.0336  143.4322  159.0977 C   0  0  0  0  0  0  0  0  0  0  0  0
  152.7580  144.1987  157.9738 C   0  0  0  0  0  0  0  0  0  0  0  0
  153.0911  142.9920  160.1325 C   0  0  0  0  0  0  0  0  0  0  0  0
  151.3020  142.2371  158.5190 C   0  0  0  0  0  0  0  0  0  0  0  0
  150.3494  142.2231  157.5255 C   0  0  0  0  0  0  0  0  0  0  0  0
  149.7881  140.6129  157.1682 S   0  0  0  0  0  0  0  0  0  0  0  0
  150.8663  139.9966  158.4105 C   0  0  0  0  0  0  0  0  0  0  0  0
  151.0098  138.5458  158.7251 C   0  0  0  0  0  0  0  0  0  0  0  0
  149.9678  137.6842  157.9951 C   0  0  0  0  0  0  0  0  0  0  0  0
  148.8431  137.3526  158.8618 N   0  0  0  0  0  0  0  0  0  0  0  0
  148.4620  136.1082  159.1889 C   0  0  0  0  0  0  0  0  0  0  0  0
  149.0366  135.0986  158.7796 O   0  0  0  0  0  0  0  0  0  0  0  0
  147.2416  135.9882  160.1162 C   0  0  0  0  0  0  0  0  0  0  0  0
  147.5391  136.5229  161.5369 C   0  0  0  0  0  0  0  0  0  0  0  0
  147.2972  135.3628  162.5101 C   0  0  0  0  0  0  0  0  0  0  0  0
  147.4032  134.1000  161.6610 C   0  0  0  0  0  0  0  0  0  0  0  0
  146.8182  134.5192  160.3136 C   0  0  0  0  0  0  0  0  0  0  0  0
  151.5837  140.9529  159.0042 N   0  0  0  0  0  0  0  0  0  0  0  0
  151.5370  145.2261  160.2495 H   0  0  0  0  0  0  0  0  0  0  0  0
  150.5065  143.8459  160.6089 H   0  0  0  0  0  0  0  0  0  0  0  0
  150.2822  144.7502  159.1169 H   0  0  0  0  0  0  0  0  0  0  0  0
  152.0574  144.5773  157.2289 H   0  0  0  0  0  0  0  0  0  0  0  0
  153.4731  143.5590  157.4554 H   0  0  0  0  0  0  0  0  0  0  0  0
  153.3064  145.0557  158.3660 H   0  0  0  0  0  0  0  0  0  0  0  0
  153.6168  143.8506  160.5517 H   0  0  0  0  0  0  0  0  0  0  0  0
  153.8428  142.3402  159.6856 H   0  0  0  0  0  0  0  0  0  0  0  0
  152.6370  142.4535  160.9653 H   0  0  0  0  0  0  0  0  0  0  0  0
  149.9439  143.0590  156.9751 H   0  0  0  0  0  0  0  0  0  0  0  0
  152.0175  138.2268  158.4559 H   0  0  0  0  0  0  0  0  0  0  0  0
  150.9199  138.4175  159.8044 H   0  0  0  0  0  0  0  0  0  0  0  0
  149.6133  138.1916  157.0962 H   0  0  0  0  0  0  0  0  0  0  0  0
  150.4250  136.7511  157.6644 H   0  0  0  0  0  0  0  0  0  0  0  0
  148.3161  138.1257  159.2413 H   0  0  0  0  0  0  0  0  0  0  0  0
  146.4088  136.5419  159.6789 H   0  0  0  0  0  0  0  0  0  0  0  0
  148.5696  136.8704  161.6320 H   0  0  0  0  0  0  0  0  0  0  0  0
  146.9017  137.3729  161.7829 H   0  0  0  0  0  0  0  0  0  0  0  0
  147.9970  135.3647  163.3462 H   0  0  0  0  0  0  0  0  0  0  0  0
  146.2903  135.4380  162.9231 H   0  0  0  0  0  0  0  0  0  0  0  0
  148.4507  133.8199  161.5413 H   0  0  0  0  0  0  0  0  0  0  0  0
  146.8781  133.2518  162.1013 H   0  0  0  0  0  0  0  0  0  0  0  0
  145.7298  134.4586  160.3539 H   0  0  0  0  0  0  0  0  0  0  0  0
  147.1438  133.8587  159.5080 H   0  0  0  0  0  0  0  0  0  0  0  0
  1  2  1  0  0  0  0
  1 20  1  0  0  0  0
  1 21  1  0  0  0  0
  1 22  1  0  0  0  0
  2  3  1  0  0  0  0
  2  4  1  0  0  0  0
  2  5  1  0  0  0  0
  3 23  1  0  0  0  0
  3 24  1  0  0  0  0
  3 25  1  0  0  0  0
  4 26  1  0  0  0  0
  4 27  1  0  0  0  0
  4 28  1  0  0  0  0
  5 19  1  0  0  0  0
  5  6  2  0  0  0  0
  6  7  1  0  0  0  0
  6 29  1  0  0  0  0
  7  8  1  0  0  0  0
  8  9  1  0  0  0  0
  8 19  2  0  0  0  0
  9 10  1  0  0  0  0
  9 30  1  0  0  0  0
  9 31  1  0  0  0  0
 10 11  1  0  0  0  0
 10 32  1  0  0  0  0
 10 33  1  0  0  0  0
 11 12  1  0  0  0  0
 11 34  1  0  0  0  0
 12 13  2  0  0  0  0
 12 14  1  0  0  0  0
 14 18  1  0  0  0  0
 14 15  1  0  0  0  0
 14 35  1  0  0  0  0
 15 16  1  0  0  0  0
 15 36  1  0  0  0  0
 15 37  1  0  0  0  0
 16 17  1  0  0  0  0
 16 38  1  0  0  0  0
 16 39  1  0  0  0  0
 17 18  1  0  0  0  0
 17 40  1  0  0  0  0
 17 41  1  0  0  0  0
 18 42  1  0  0  0  0
 18 43  1  0  0  0  0
M  END
> <s_m_source_file>
AV-unprocessed.smi

> <i_m_source_file_index>
1028

> <i_lp_mmshare_version>
43012

> <i_f3d_flags>
0

> <s_epik_input>
W0NIM11DKFtDSDNdKShbQ0gzXSljMVtjSF1zYyhuMSlbQ0gyXVtDSDJdW05IXUMoPU8pW0NIXTJbQ0gyXVtDSDJdW0NIMl1bQ0gyXTI=

> <s_epik_cmdline>
J2VwaWtfcHl0aG9uJywgJy1waCcsICc3LjAnLCAnLXRuJywgJzgnLCAnLW1hJywgJzIwMCcsICctbWV0YWxfYmluZGluZycsICctaW1hZScsICc8aW5maWxlLm1hZT4nLCAnLW9tYWUnLCAnPG91dGZpbGUubWFlPic=

> <r_epik_Ionization_Penalty>
0.000842107

> <r_epik_Ionization_Penalty_Charging>
0

> <r_epik_Ionization_Penalty_Neutral>
0.000842107

> <r_epik_State_Penalty>
0.000542609

> <r_epik_Charging_Adjusted_Penalty>
0.000542609

> <i_epik_Tot_Q>
0

> <i_epik_Tot_abs_Q>
0

> <r_epik_Metal_State_Penalty>
-0

> <b_epik_Metal_Only>
0

> <s_lp_Force_Field>
OPLS_2005

> <r_lp_Energy>
10.9616

> <b_lp_Chiralities_Consistent>
1

> <s_lp_Variant>
AV-unprocessed.smi:1028-1

> <Gold.Version>
5.8.1

> <Gold.Id.Protein>
6NUR|6NUR_protein|mol2

> <Gold.PLP.Fitness>
45.8142

> <Gold.PLP.PLP>
-40.6912

> <Gold.PLP.part.hbond>
-1.0000

> <Gold.PLP.part.metal>
0.0000

> <Gold.PLP.part.buried>
-5.1079

> <Gold.PLP.part.nonpolar>
-34.9779

> <Gold.PLP.part.repulsive>
0.2090

> <Gold.PLP.ligand.clash>
0.0000

> <Gold.PLP.ligand.torsion>
0.4464

> <Gold.PLP.Chemscore.Hbond>
1.0000

> <Gold.PLP.Chemscore.CHOScore>
1.0000

> <Gold.PLP.Chemscore.Metal>
0.0000

> <Gold.Chemscore.Hbonds>
donor molecule, donor type, donor heavy atom, donor atom, acceptor molecule, acceptor atom, score
      P1  H  6896  6909       L1    13  1.00
      L1  C     6    29       P1  8028  1.00

> <Gold.PLP.Chemscore.Internal.Correction>
0.0158

> <Gold.Rescore>
     Score         DG    S(hbond)    S(metal)    S(lipo)     H(rot)  DE(clash)    DE(int)     intcor
     18.44     -18.82       1.00        0.00     116.78       1.42       0.09       0.30       ----

> <Gold.Chemscore.Fitness>
18.4357

> <Gold.Chemscore.DG>
-18.8248

> <Gold.Chemscore.ZeroCoef>
-5.4800

> <Gold.Chemscore.Hbond>
0.9951

> <Gold.Chemscore.Metal>
0.0000

> <Gold.Chemscore.Lipo>
116.7770

> <Gold.Chemscore.Internal_Hbond>
0.0000

> <Gold.Chemscore.DEClash>
0.0910

> <Gold.Chemscore.DEInternal>
0.2981

> <Gold.Chemscore.Rot>
1.4226

> <Gold.Chemscore.Internal.Correction>
   9.000000E+99

> <Gold.Chemscore.Hbonds>
donor molecule, donor type, donor heavy atom, donor atom, acceptor molecule, acceptor atom, score
      P1  H  6896  6909       L1    13  0.97

> <Gold.Chemscore.Hbond.Weighted>
-3.3238

> <Gold.Chemscore.Metal.Weighted>
-0.0000

> <Gold.Chemscore.Lipo.Weighted>
-13.6629

> <Gold.Chemscore.Internal_Hbond.Weighted>
0.0000

> <Gold.Chemscore.DEClash.Weighted>
0.0910

> <Gold.Chemscore.DEInternal.Weighted>
0.2981

> <Gold.Chemscore.Rot.Weighted>
3.6419

> <Gold.Chemscore.Internal.Correction.Weighted>
   9.000000E+99

> <Gold.Protein.RotatedTorsions>
[ 6907 6896 6895 6894 ] final   50.80 input  -60.11 | X-H torsion
[ 7974 7965 7964 7962 ] final   75.26 input  175.53 | X-H torsion
[ 8008 7997 7996 7995 ] final  -47.96 input   59.86 | X-H torsion
[ 10167 10162 10161 10158 ] final -149.61 input  -65.29 | X-H torsion
[ 10718 10713 10712 10709 ] final  129.56 input   66.30 | X-H torsion
[ 10763 10752 10751 10750 ] final -155.88 input  -60.55 | X-H torsion
[ 11005 11000 10999 10996 ] final  112.53 input  -57.11 | X-H torsion

> <Gold.Protein.ActiveResidues>
 VAL166  LYS551  ARG553  GLY616  TRP617  ASP618  TYR619  PRO620  LYS621  CYS622 
 ASP623  PHE694  ASN695  SER759  ASP760  ASP761  ALA762  ILE779  LEU786  VAL792 
 PHE793  MET794  SER795  GLU796  ALA797  LYS798  CYS799  TRP800  GLU811  SER814 

> <Gold.Protein.RotatedAtoms>
  152.3058  134.7557  160.0347 H   0  0  0  0  0  0  0  0  0  0  0  0  # atno 6907 bound_to 6896
  151.8054  133.3370  159.3547 H   0  0  0  0  0  0  0  0  0  0  0  0  # atno 6908 bound_to 6896
  150.7296  134.5644  159.5903 H   0  0  0  0  0  0  0  0  0  0  0  0  # atno 6909 bound_to 6896
  145.7178  139.2637  143.1613 H   0  0  0  0  0  0  0  0  0  0  0  0  # atno 7974 bound_to 7965
  154.4023  140.1333  156.4261 H   0  0  0  0  0  0  0  0  0  0  0  0  # atno 8008 bound_to 7997
  155.7596  140.3486  155.5171 H   0  0  0  0  0  0  0  0  0  0  0  0  # atno 8009 bound_to 7997
  155.8871  140.0997  157.1435 H   0  0  0  0  0  0  0  0  0  0  0  0  # atno 8010 bound_to 7997
  139.7427  143.8637  152.2566 H   0  0  0  0  0  0  0  0  0  0  0  0  # atno 10167 bound_to 10162
  157.5143  131.1097  150.9247 H   0  0  0  0  0  0  0  0  0  0  0  0  # atno 10718 bound_to 10713
  154.7754  135.3158  154.8102 H   0  0  0  0  0  0  0  0  0  0  0  0  # atno 10763 bound_to 10752
  153.8826  135.6833  153.4770 H   0  0  0  0  0  0  0  0  0  0  0  0  # atno 10764 bound_to 10752
  153.1377  135.4752  154.9384 H   0  0  0  0  0  0  0  0  0  0  0  0  # atno 10765 bound_to 10752
  139.8929  134.9531  156.6599 H   0  0  0  0  0  0  0  0  0  0  0  0  # atno 11005 bound_to 11000
  146.0653  140.7927  142.9714 LP  0  0  0  0  0  0  0  0  0  0  0  0  # atno 17320 bound_to 7965
  144.6924  140.3259  143.7224 LP  0  0  0  0  0  0  0  0  0  0  0  0  # atno 17321 bound_to 7965
  139.8592  144.7125  150.9119 LP  0  0  0  0  0  0  0  0  0  0  0  0  # atno 17342 bound_to 10162
  140.7788  143.3832  151.1440 LP  0  0  0  0  0  0  0  0  0  0  0  0  # atno 17343 bound_to 10162
  156.9878  130.5551  149.5301 LP  0  0  0  0  0  0  0  0  0  0  0  0  # atno 17370 bound_to 10713
  156.0310  130.5401  150.8533 LP  0  0  0  0  0  0  0  0  0  0  0  0  # atno 17371 bound_to 10713
  140.7455  133.8942  155.8308 LP  0  0  0  0  0  0  0  0  0  0  0  0  # atno 17394 bound_to 11000
  141.0043  134.1107  157.4286 LP  0  0  0  0  0  0  0  0  0  0  0  0  # atno 17395 bound_to 11000

$$$$
