AV-unprocessed.smi:215|AV-procd|sdf|1650|dock2
  -GOLD-   2262020 33D 1   1.00000     0.00000
 Structure written by MMmdl.
 59 62  0  0  0  0  0  0  0  0  2 V2000
  149.0676  130.1184  154.7581 C   0  0  0  0  0  0  0  0  0  0  0  0
  149.7695  131.4496  155.1012 C   0  0  2  0  0  0  0  0  0  0  0  0
  151.2089  131.3776  155.6682 C   0  0  2  0  0  0  0  0  0  0  0  0
  151.6448  130.0245  156.1313 N   0  3  2  0  0  0  0  0  0  0  0  0
  151.1023  129.6095  157.4523 C   0  0  0  0  0  0  0  0  0  0  0  0
  153.1146  129.8250  156.0197 C   0  0  0  0  0  0  0  0  0  0  0  0
  153.5394  129.2114  154.6739 C   0  0  0  0  0  0  0  0  0  0  0  0
  152.9291  127.9500  154.5010 O   0  0  0  0  0  0  0  0  0  0  0  0
  151.2809  132.4959  156.7293 C   0  0  0  0  0  0  0  0  0  0  0  0
  150.0010  133.2961  156.4936 C   0  0  0  0  0  0  0  0  0  0  0  0
  149.0355  132.3150  156.0183 N   0  0  0  0  0  0  0  0  0  0  0  0
  147.8543  132.7923  155.5604 C   0  0  0  0  0  0  0  0  0  0  0  0
  146.8837  133.1811  156.4289 N   0  0  0  0  0  0  0  0  0  0  0  0
  145.7294  133.6699  155.9650 C   0  0  0  0  0  0  0  0  0  0  0  0
  145.3484  133.8509  154.6984 N   0  0  0  0  0  0  0  0  0  0  0  0
  146.3196  133.4578  153.8246 C   0  0  0  0  0  0  0  0  0  0  0  0
  147.5935  132.9282  154.1713 C   0  0  0  0  0  0  0  0  0  0  0  0
  148.3277  132.6606  153.0242 N   0  0  0  0  0  0  0  0  0  0  0  0
  147.5353  133.0215  152.0519 C   0  0  0  0  0  0  0  0  0  0  0  0
  146.2942  133.4808  152.4399 N   0  0  0  0  0  0  0  0  0  0  0  0
  145.2395  133.9722  151.5931 C   0  0  0  0  0  0  0  0  0  0  0  0
  144.1161  133.0331  151.1370 C   0  0  0  0  0  0  0  0  0  0  0  0
  144.7732  132.9086  149.7462 C   0  0  0  0  0  0  0  0  0  0  0  0
  145.7165  131.7003  149.5757 C   0  0  0  0  0  0  0  0  0  0  0  0
  146.9702  132.0924  149.0534 O   0  0  0  0  0  0  0  0  0  0  0  0
  143.8039  132.9626  148.5536 C   0  0  0  0  0  0  0  0  0  0  0  0
  143.4713  134.2958  148.2217 O   0  0  0  0  0  0  0  0  0  0  0  0
  145.4676  134.2418  150.0996 C   0  0  0  0  0  0  0  0  0  0  0  0
  149.8383  132.0014  154.1614 H   0  0  0  0  0  0  0  0  0  0  0  0
  151.8546  131.6611  154.8357 H   0  0  0  0  0  0  0  0  0  0  0  0
  149.6975  129.4982  154.1202 H   0  0  0  0  0  0  0  0  0  0  0  0
  148.1408  130.2955  154.2119 H   0  0  0  0  0  0  0  0  0  0  0  0
  148.8113  129.5400  155.6442 H   0  0  0  0  0  0  0  0  0  0  0  0
  151.7177  129.9805  158.2725 H   0  0  0  0  0  0  0  0  0  0  0  0
  151.0700  128.5227  157.5258 H   0  0  0  0  0  0  0  0  0  0  0  0
  150.0873  129.9719  157.6117 H   0  0  0  0  0  0  0  0  0  0  0  0
  153.6313  130.7788  156.1340 H   0  0  0  0  0  0  0  0  0  0  0  0
  153.4539  129.1935  156.8420 H   0  0  0  0  0  0  0  0  0  0  0  0
  153.2183  129.8591  153.8577 H   0  0  0  0  0  0  0  0  0  0  0  0
  154.6213  129.1162  154.5879 H   0  0  0  0  0  0  0  0  0  0  0  0
  152.7640  127.8181  153.5791 H   0  0  0  0  0  0  0  0  0  0  0  0
  151.2701  132.1146  157.7487 H   0  0  0  0  0  0  0  0  0  0  0  0
  152.1751  133.1111  156.6260 H   0  0  0  0  0  0  0  0  0  0  0  0
  149.6568  133.7864  157.4049 H   0  0  0  0  0  0  0  0  0  0  0  0
  150.1801  134.0643  155.7398 H   0  0  0  0  0  0  0  0  0  0  0  0
  145.0075  133.9567  156.7153 H   0  0  0  0  0  0  0  0  0  0  0  0
  147.8442  132.9530  151.0195 H   0  0  0  0  0  0  0  0  0  0  0  0
  144.8408  134.8527  152.0986 H   0  0  0  0  0  0  0  0  0  0  0  0
  144.0440  132.0913  151.6815 H   0  0  0  0  0  0  0  0  0  0  0  0
  143.1471  133.5348  151.1055 H   0  0  0  0  0  0  0  0  0  0  0  0
  145.8957  131.2012  150.5277 H   0  0  0  0  0  0  0  0  0  0  0  0
  145.2837  130.9451  148.9194 H   0  0  0  0  0  0  0  0  0  0  0  0
  147.6487  131.7569  149.6193 H   0  0  0  0  0  0  0  0  0  0  0  0
  144.2497  132.5030  147.6710 H   0  0  0  0  0  0  0  0  0  0  0  0
  142.8873  132.4080  148.7555 H   0  0  0  0  0  0  0  0  0  0  0  0
  144.2607  134.7466  147.9636 H   0  0  0  0  0  0  0  0  0  0  0  0
  144.9091  135.1136  149.7538 H   0  0  0  0  0  0  0  0  0  0  0  0
  146.5068  134.3094  149.7802 H   0  0  0  0  0  0  0  0  0  0  0  0
  151.2447  129.3879  155.4564 H   0  0  0  0  0  0  0  0  0  0  0  0
  1  2  1  0  0  0  0
  1 31  1  0  0  0  0
  1 32  1  0  0  0  0
  1 33  1  0  0  0  0
  2 29  1  0  0  0  0
  2 11  1  0  0  0  0
  2  3  1  0  0  0  0
  3 30  1  0  0  0  0
  3  4  1  0  0  0  0
  3  9  1  0  0  0  0
  4  5  1  0  0  0  0
  4  6  1  0  0  0  0
  4 59  1  0  0  0  0
  5 34  1  0  0  0  0
  5 35  1  0  0  0  0
  5 36  1  0  0  0  0
  6  7  1  0  0  0  0
  6 37  1  0  0  0  0
  6 38  1  0  0  0  0
  7  8  1  0  0  0  0
  7 39  1  0  0  0  0
  7 40  1  0  0  0  0
  8 41  1  0  0  0  0
  9 10  1  0  0  0  0
  9 42  1  0  0  0  0
  9 43  1  0  0  0  0
 10 11  1  0  0  0  0
 10 44  1  0  0  0  0
 10 45  1  0  0  0  0
 11 12  1  0  0  0  0
 12 17  1  0  0  0  0
 12 13  2  0  0  0  0
 13 14  1  0  0  0  0
 14 15  2  0  0  0  0
 14 46  1  0  0  0  0
 15 16  1  0  0  0  0
 16 20  1  0  0  0  0
 16 17  2  0  0  0  0
 17 18  1  0  0  0  0
 18 19  2  0  0  0  0
 19 20  1  0  0  0  0
 19 47  1  0  0  0  0
 20 21  1  0  0  0  0
 21 28  1  0  0  0  0
 21 22  1  0  0  0  0
 21 48  1  0  0  0  0
 22 23  1  0  0  0  0
 22 49  1  0  0  0  0
 22 50  1  0  0  0  0
 23 24  1  0  0  0  0
 23 26  1  0  0  0  0
 23 28  1  0  0  0  0
 24 25  1  0  0  0  0
 24 51  1  0  0  0  0
 24 52  1  0  0  0  0
 25 53  1  0  0  0  0
 26 27  1  0  0  0  0
 26 54  1  0  0  0  0
 26 55  1  0  0  0  0
 27 56  1  0  0  0  0
 28 57  1  0  0  0  0
 28 58  1  0  0  0  0
M  CHG  1   4   1
M  END
> <s_m_source_file>
AV-unprocessed.smi

> <i_m_source_file_index>
215

> <i_lp_mmshare_version>
43012

> <i_f3d_flags>
0

> <s_epik_input>
W09IXVtDSDJdW0NIMl1OKFtDSDNdKVtDQEBIXShbQ0BIXTFbQ0gzXSlbQ0gyXVtDSDJdTjFjKG5bY0hdbjIpYyhjMjMpbltjSF1uM1tDSF0oW0NIMl00KVtDSDJdQzQoW0NIMl1bT0hdKVtDSDJdW09IXQ==

> <s_epik_cmdline>
J2VwaWtfcHl0aG9uJywgJy1waCcsICc3LjAnLCAnLXRuJywgJzgnLCAnLW1hJywgJzIwMCcsICctbWV0YWxfYmluZGluZycsICctaW1hZScsICc8aW5maWxlLm1hZT4nLCAnLW9tYWUnLCAnPG91dGZpbGUubWFlPic=

> <r_lp_tautomer_probability>
1

> <r_epik_Ionization_Penalty>
0.0036237

> <r_epik_Ionization_Penalty_Charging>
0.0032725

> <r_epik_Ionization_Penalty_Neutral>
0.000351196

> <r_epik_State_Penalty>
-0

> <r_epik_Charging_Adjusted_Penalty>
0.0032725

> <i_epik_Tot_Q>
1

> <i_epik_Tot_abs_Q>
1

> <r_epik_Metal_State_Penalty>
-0

> <b_epik_Metal_Only>
0

> <s_lp_Force_Field>
OPLS_2005

> <r_lp_Energy>
76.3744

> <b_lp_Chiralities_Consistent>
1

> <s_lp_Variant>
AV-unprocessed.smi:215-1

> <Gold.Version>
5.8.1

> <Gold.Id.Protein>
6NUR|6NUR_protein|mol2

> <Gold.PLP.Fitness>
46.4251

> <Gold.PLP.PLP>
-38.7285

> <Gold.PLP.part.hbond>
-6.6532

> <Gold.PLP.part.metal>
0.0000

> <Gold.PLP.part.buried>
1.3556

> <Gold.PLP.part.nonpolar>
-32.4301

> <Gold.PLP.part.repulsive>
0.2791

> <Gold.PLP.ligand.clash>
0.3174

> <Gold.PLP.ligand.torsion>
3.4834

> <Gold.PLP.Chemscore.Hbond>
3.9913

> <Gold.PLP.Chemscore.CHOScore>
0.7394

> <Gold.PLP.Chemscore.Metal>
0.0000

> <Gold.Chemscore.Hbonds>
donor molecule, donor type, donor heavy atom, donor atom, acceptor molecule, acceptor atom, score
      L1  H     8    41       P1 10737  1.00
      L1  H    25    53       P1 10747  1.00
      L1  H    27    56       P1  7921  1.00
      P1  H 10192 10197       L1    27  1.00
      L1  C    19    47       P1 10747  0.77

> <Gold.PLP.Chemscore.Internal.Correction>
0.7891

> <Gold.Rescore>
     Score         DG    S(hbond)    S(metal)    S(lipo)     H(rot)  DE(clash)    DE(int)     intcor
      9.98     -17.28       3.77        0.00      98.45       4.81       2.13       5.17       ----

> <Gold.Chemscore.Fitness>
9.9850

> <Gold.Chemscore.DG>
-17.2799

> <Gold.Chemscore.ZeroCoef>
-5.4800

> <Gold.Chemscore.Hbond>
3.7706

> <Gold.Chemscore.Metal>
0.0000

> <Gold.Chemscore.Lipo>
98.4536

> <Gold.Chemscore.Internal_Hbond>
0.0000

> <Gold.Chemscore.DEClash>
2.1273

> <Gold.Chemscore.DEInternal>
5.1676

> <Gold.Chemscore.Rot>
4.8098

> <Gold.Chemscore.Internal.Correction>
   9.000000E+99

> <Gold.Chemscore.Hbonds>
donor molecule, donor type, donor heavy atom, donor atom, acceptor molecule, acceptor atom, score
      L1  H     8    41       P1 10737  0.74
      L1  H    25    53       P1 10747  1.00
      L1  H    27    56       P1  7921  0.97
      P1  H 10192 10197       L1    27  0.48

> <Gold.Chemscore.Hbond.Weighted>
-12.5938

> <Gold.Chemscore.Metal.Weighted>
-0.0000

> <Gold.Chemscore.Lipo.Weighted>
-11.5191

> <Gold.Chemscore.Internal_Hbond.Weighted>
0.0000

> <Gold.Chemscore.DEClash.Weighted>
2.1273

> <Gold.Chemscore.DEInternal.Weighted>
5.1676

> <Gold.Chemscore.Rot.Weighted>
12.3130

> <Gold.Chemscore.Internal.Correction.Weighted>
   9.000000E+99

> <Gold.Protein.RotatedTorsions>
[ 6907 6896 6895 6894 ] final  -20.02 input  -60.11 | X-H torsion
[ 7974 7965 7964 7962 ] final -151.68 input  175.53 | X-H torsion
[ 8008 7997 7996 7995 ] final  146.95 input   59.86 | X-H torsion
[ 10167 10162 10161 10158 ] final  -59.64 input  -65.29 | X-H torsion
[ 10718 10713 10712 10709 ] final  -65.09 input   66.30 | X-H torsion
[ 10763 10752 10751 10750 ] final   29.92 input  -60.55 | X-H torsion
[ 11005 11000 10999 10996 ] final -110.34 input  -57.11 | X-H torsion

> <Gold.Protein.ActiveResidues>
 VAL166  LYS551  ARG553  GLY616  TRP617  ASP618  TYR619  PRO620  LYS621  CYS622 
 ASP623  PHE694  ASN695  SER759  ASP760  ASP761  ALA762  ILE779  LEU786  VAL792 
 PHE793  MET794  SER795  GLU796  ALA797  LYS798  CYS799  TRP800  GLU811  SER814 

> <Gold.Protein.RotatedAtoms>
  151.2544  135.0633  159.9074 H   0  0  0  0  0  0  0  0  0  0  0  0  # atno 6907 bound_to 6896
  152.5375  134.0297  159.8029 H   0  0  0  0  0  0  0  0  0  0  0  0  # atno 6908 bound_to 6896
  151.0510  133.5574  159.2673 H   0  0  0  0  0  0  0  0  0  0  0  0  # atno 6909 bound_to 6896
  144.7836  140.4765  143.5822 H   0  0  0  0  0  0  0  0  0  0  0  0  # atno 7974 bound_to 7965
  156.2840  140.2169  156.5459 H   0  0  0  0  0  0  0  0  0  0  0  0  # atno 8008 bound_to 7997
  154.7331  140.0494  157.0767 H   0  0  0  0  0  0  0  0  0  0  0  0  # atno 8009 bound_to 7997
  155.0327  140.3137  155.4755 H   0  0  0  0  0  0  0  0  0  0  0  0  # atno 8010 bound_to 7997
  140.6122  143.2391  151.5682 H   0  0  0  0  0  0  0  0  0  0  0  0  # atno 10167 bound_to 10162
  156.0690  130.4242  150.1514 H   0  0  0  0  0  0  0  0  0  0  0  0  # atno 10718 bound_to 10713
  153.0402  135.6477  154.0964 H   0  0  0  0  0  0  0  0  0  0  0  0  # atno 10763 bound_to 10752
  154.0672  135.2883  155.3316 H   0  0  0  0  0  0  0  0  0  0  0  0  # atno 10764 bound_to 10752
  154.6618  135.5388  153.8092 H   0  0  0  0  0  0  0  0  0  0  0  0  # atno 10765 bound_to 10752
  141.0797  133.9241  157.2315 H   0  0  0  0  0  0  0  0  0  0  0  0  # atno 11005 bound_to 11000
  145.5982  139.1501  143.3144 LP  0  0  0  0  0  0  0  0  0  0  0  0  # atno 17320 bound_to 7965
  146.2057  140.6104  142.9082 LP  0  0  0  0  0  0  0  0  0  0  0  0  # atno 17321 bound_to 7965
  139.5370  144.2752  152.1273 LP  0  0  0  0  0  0  0  0  0  0  0  0  # atno 17342 bound_to 10162
  140.1954  144.4710  150.6458 LP  0  0  0  0  0  0  0  0  0  0  0  0  # atno 17343 bound_to 10162
  156.9568  130.9792  151.3487 LP  0  0  0  0  0  0  0  0  0  0  0  0  # atno 17370 bound_to 10713
  157.5749  130.8336  149.8443 LP  0  0  0  0  0  0  0  0  0  0  0  0  # atno 17371 bound_to 10713
  139.9610  135.0154  156.9261 LP  0  0  0  0  0  0  0  0  0  0  0  0  # atno 17394 bound_to 11000
  140.5496  134.0640  155.7365 LP  0  0  0  0  0  0  0  0  0  0  0  0  # atno 17395 bound_to 11000

$$$$
