#       Name:                AV-unprocessed.smi:42
#       Creating user name   scv26
#       Creation time:       Thu Mar 26 16:24:37 2020


#       File generated by GOLD software.
#

@<TRIPOS>MOLECULE
AV-unprocessed.smi:42
    33    34     1
SMALL
NO_CHARGES


@<TRIPOS>ATOM
      1 ****        -4.4889   0.2737  -1.0146 C.3            1 S1                 0.0000
      2 ****        -3.4153  -0.6387  -1.6169 C.3            1 S1                 0.0000
      3 ****        -2.0322  -0.1412  -1.3606 C.2            1 S1                 0.0000
      4 ****        -1.2957   0.6489  -2.1450 N.2            1 S1                 0.0000
      5 ****        -0.1220   0.8671  -1.4604 N.2            1 S1                 0.0000
      6 ****        -0.2526   0.2251  -0.2939 C.2            1 S1                 0.0000
      7 ****         0.7528   0.0860   0.8089 C.3            1 S1                 0.0000
      8 ****         1.7401  -1.0691   0.6359 C.3            1 S1                 0.0000
      9 ****         2.9857  -0.5338   1.3358 C.3            1 S1                 0.0000
     10 ****         4.1619  -1.1771   0.8936 O.3            1 S1                 0.0000
     11 ****         2.9754   0.9589   0.9841 C.3            1 S1                 0.0000
     12 ****         1.5588   1.3246   0.7795 N.4            1 S1                 1.0000
     13 ****        -1.4321  -0.4385  -0.1787 O.3            1 S1                 0.0000
     14 ****         0.2470   0.0187   1.7730 H              1 S1                 0.0000
     15 ****         2.8842  -0.6608   2.4146 H              1 S1                 0.0000
     16 ****        -5.4869  -0.1173  -1.2132 H              1 S1                 0.0000
     17 ****        -4.4336   1.2773  -1.4376 H              1 S1                 0.0000
     18 ****        -4.3731   0.3582   0.0664 H              1 S1                 0.0000
     19 ****        -3.5070  -1.6445  -1.2055 H              1 S1                 0.0000
     20 ****        -3.5628  -0.7261  -2.6939 H              1 S1                 0.0000
     21 ****         1.3752  -2.0119   1.0445 H              1 S1                 0.0000
     22 ****         1.9536  -1.2215  -0.4240 H              1 S1                 0.0000
     23 ****         4.1165  -2.0914   1.1302 H              1 S1                 0.0000
     24 ****         3.4412   1.5709   1.7569 H              1 S1                 0.0000
     25 ****         3.5042   1.1406   0.0473 H              1 S1                 0.0000
     26 ****         1.4627   1.7631  -0.1260 H              1 S1                 0.0000
     27 ****         1.2431   1.9579   1.5000 H              1 S1                 0.0000
     28 ****        -1.5453   1.0081  -3.0443 LP             1 S1                 0.0000
     29 ****         0.6670   1.3971  -1.7712 LP             1 S1                 0.0000
     30 ****         4.9585  -0.7567   1.3279 LP             1 S1                 0.0000
     31 ****         4.2393  -1.0904  -0.0996 LP             1 S1                 0.0000
     32 ****        -1.2882  -1.4232  -0.0805 LP             1 S1                 0.0000
     33 ****        -1.9662  -0.1007   0.5963 LP             1 S1                 0.0000
@<TRIPOS>BOND
    1    1    2 1     
    2    1   16 1     
    3    1   17 1     
    4    1   18 1     
    5    2    3 1     
    6    2   19 1     
    7    2   20 1     
    8    3   13 1     
    9    3    4 2     
   10    4    5 1     
   11    5    6 2     
   12    6    7 1     
   13    6   13 1     
   14    7   14 1     
   15    7   12 1     
   16    7    8 1     
   17    8    9 1     
   18    8   21 1     
   19    8   22 1     
   20    9   15 1     
   21    9   10 1     
   22    9   11 1     
   23   10   23 1     
   24   11   12 1     
   25   11   24 1     
   26   11   25 1     
   27   12   26 1     
   28   12   27 1     
   29    4   28 1     
   30    5   29 1     
   31   10   30 1     
   32   10   31 1     
   33   13   32 1     
   34   13   33 1     
@<TRIPOS>SUBSTRUCTURE
      1 S1             1
@<TRIPOS>SET
LONE_PAIRS      STATIC     ATOMS    <user>   **** ""
6 28 29 30 31 32 33
DONOR_HYDROGENS      STATIC     ATOMS    <user>   **** ""
3 23 26 27
ATOM$BLUE        STATIC     ATOMS    COLORGROUP SYSTEM
6 28 29 30 31 32 33
ATOM$RED        STATIC     ATOMS    COLORGROUP SYSTEM
3 23 26 27
