AV-unprocessed.smi:453|AV-procd|sdf|2611|dock10
  -GOLD-   2262023 13D 1   1.00000     0.00000
 Structure written by MMmdl.
 43 44  0  0  0  0  0  0  0  0  1 V2000
  152.5462  143.0227  161.0503 C   0  0  0  0  0  0  0  0  0  0  0  0
  152.6211  142.4342  159.6292 C   0  0  0  0  0  0  0  0  0  0  0  0
  152.0787  143.4433  158.6054 C   0  0  0  0  0  0  0  0  0  0  0  0
  151.8935  141.0769  159.4898 C   0  0  0  0  0  0  0  0  0  0  0  0
  152.0496  140.4317  158.1089 C   0  0  0  0  0  0  0  0  0  0  0  0
  153.0470  139.7596  157.8478 O   0  0  0  0  0  0  0  0  0  0  0  0
  151.0435  140.6251  157.2423 N   0  0  0  0  0  0  0  0  0  0  0  0
  150.9935  140.0924  155.8843 C   0  0  0  0  0  0  0  0  0  0  0  0
  150.9985  138.5721  155.7949 C   0  0  0  0  0  0  0  0  0  0  0  0
  150.1474  137.8162  156.6244 C   0  0  0  0  0  0  0  0  0  0  0  0
  150.1774  136.4112  156.5409 C   0  0  0  0  0  0  0  0  0  0  0  0
  151.0657  135.7925  155.6296 C   0  0  0  0  0  0  0  0  0  0  0  0
  151.1172  134.3848  155.5335 N   0  0  0  0  0  0  0  0  0  0  0  0
  151.6551  133.6397  156.6704 C   0  0  0  0  0  0  0  0  0  0  0  0
  151.8970  132.1713  156.2829 C   0  0  0  0  0  0  0  0  0  0  0  0
  150.6932  131.6048  155.7759 O   0  0  0  0  0  0  0  0  0  0  0  0
  150.2453  132.2767  154.6034 C   0  0  0  0  0  0  0  0  0  0  0  0
  149.9483  133.7510  154.9279 C   0  0  0  0  0  0  0  0  0  0  0  0
  151.8823  136.5225  154.8303 N   0  0  0  0  0  0  0  0  0  0  0  0
  151.8500  137.8691  154.9151 C   0  0  0  0  0  0  0  0  0  0  0  0
  151.5119  143.1582  161.3684 H   0  0  0  0  0  0  0  0  0  0  0  0
  153.0369  143.9953  161.0963 H   0  0  0  0  0  0  0  0  0  0  0  0
  153.0404  142.3836  161.7817 H   0  0  0  0  0  0  0  0  0  0  0  0
  153.6750  142.2773  159.3942 H   0  0  0  0  0  0  0  0  0  0  0  0
  151.0229  143.6543  158.7785 H   0  0  0  0  0  0  0  0  0  0  0  0
  152.1803  143.0659  157.5875 H   0  0  0  0  0  0  0  0  0  0  0  0
  152.6202  144.3884  158.6588 H   0  0  0  0  0  0  0  0  0  0  0  0
  152.2602  140.3793  160.2442 H   0  0  0  0  0  0  0  0  0  0  0  0
  150.8293  141.2056  159.6942 H   0  0  0  0  0  0  0  0  0  0  0  0
  150.2591  141.1855  157.5430 H   0  0  0  0  0  0  0  0  0  0  0  0
  150.0796  140.4559  155.4142 H   0  0  0  0  0  0  0  0  0  0  0  0
  151.8210  140.4972  155.2988 H   0  0  0  0  0  0  0  0  0  0  0  0
  149.4764  138.3045  157.3158 H   0  0  0  0  0  0  0  0  0  0  0  0
  149.5143  135.8295  157.1635 H   0  0  0  0  0  0  0  0  0  0  0  0
  152.5937  134.0845  157.0035 H   0  0  0  0  0  0  0  0  0  0  0  0
  150.9531  133.6945  157.5036 H   0  0  0  0  0  0  0  0  0  0  0  0
  152.6915  132.0909  155.5392 H   0  0  0  0  0  0  0  0  0  0  0  0
  152.2184  131.6012  157.1547 H   0  0  0  0  0  0  0  0  0  0  0  0
  150.9959  132.1955  153.8154 H   0  0  0  0  0  0  0  0  0  0  0  0
  149.3444  131.7852  154.2357 H   0  0  0  0  0  0  0  0  0  0  0  0
  149.1122  133.8175  155.6256 H   0  0  0  0  0  0  0  0  0  0  0  0
  149.6396  134.2587  154.0152 H   0  0  0  0  0  0  0  0  0  0  0  0
  152.5322  138.3928  154.2620 H   0  0  0  0  0  0  0  0  0  0  0  0
  1  2  1  0  0  0  0
  1 21  1  0  0  0  0
  1 22  1  0  0  0  0
  1 23  1  0  0  0  0
  2  3  1  0  0  0  0
  2  4  1  0  0  0  0
  2 24  1  0  0  0  0
  3 25  1  0  0  0  0
  3 26  1  0  0  0  0
  3 27  1  0  0  0  0
  4  5  1  0  0  0  0
  4 28  1  0  0  0  0
  4 29  1  0  0  0  0
  5  6  2  0  0  0  0
  5  7  1  0  0  0  0
  7  8  1  0  0  0  0
  7 30  1  0  0  0  0
  8  9  1  0  0  0  0
  8 31  1  0  0  0  0
  8 32  1  0  0  0  0
  9 20  1  0  0  0  0
  9 10  2  0  0  0  0
 10 11  1  0  0  0  0
 10 33  1  0  0  0  0
 11 12  2  0  0  0  0
 11 34  1  0  0  0  0
 12 13  1  0  0  0  0
 12 19  1  0  0  0  0
 13 18  1  0  0  0  0
 13 14  1  0  0  0  0
 14 15  1  0  0  0  0
 14 35  1  0  0  0  0
 14 36  1  0  0  0  0
 15 16  1  0  0  0  0
 15 37  1  0  0  0  0
 15 38  1  0  0  0  0
 16 17  1  0  0  0  0
 17 18  1  0  0  0  0
 17 39  1  0  0  0  0
 17 40  1  0  0  0  0
 18 41  1  0  0  0  0
 18 42  1  0  0  0  0
 19 20  2  0  0  0  0
 20 43  1  0  0  0  0
M  END
> <s_m_source_file>
AV-unprocessed.smi

> <i_m_source_file_index>
453

> <i_lp_mmshare_version>
43012

> <i_f3d_flags>
0

> <s_epik_input>
W0NIM11bQ0hdKFtDSDNdKVtDSDJdQyg9TylbTkhdW0NIMl1jMVtjSF1bY0hdYyhuW2NIXTEpTjJbQ0gyXVtDSDJdT1tDSDJdW0NIMl0y

> <s_epik_cmdline>
J2VwaWtfcHl0aG9uJywgJy1waCcsICc3LjAnLCAnLXRuJywgJzgnLCAnLW1hJywgJzIwMCcsICctbWV0YWxfYmluZGluZycsICctaW1hZScsICc8aW5maWxlLm1hZT4nLCAnLW9tYWUnLCAnPG91dGZpbGUubWFlPic=

> <r_lp_tautomer_probability>
1

> <r_epik_Ionization_Penalty>
0.00505548

> <r_epik_Ionization_Penalty_Charging>
0

> <r_epik_Ionization_Penalty_Neutral>
0.00505548

> <r_epik_State_Penalty>
0.00367784

> <r_epik_Charging_Adjusted_Penalty>
0.00367784

> <i_epik_Tot_Q>
0

> <i_epik_Tot_abs_Q>
0

> <r_epik_Metal_State_Penalty>
-0

> <b_epik_Metal_Only>
0

> <s_lp_Force_Field>
OPLS_2005

> <r_lp_Energy>
17.3119

> <b_lp_Chiralities_Consistent>
1

> <s_lp_Variant>
AV-unprocessed.smi:453-1

> <Gold.Version>
5.8.1

> <Gold.Id.Protein>
6NUR|6NUR_protein|mol2

> <Gold.PLP.Fitness>
42.5053

> <Gold.PLP.PLP>
-37.4548

> <Gold.PLP.part.hbond>
-2.0000

> <Gold.PLP.part.metal>
0.0000

> <Gold.PLP.part.buried>
-4.7009

> <Gold.PLP.part.nonpolar>
-31.1732

> <Gold.PLP.part.repulsive>
0.3480

> <Gold.PLP.ligand.clash>
0.0000

> <Gold.PLP.ligand.torsion>
0.6467

> <Gold.PLP.Chemscore.Hbond>
2.0000

> <Gold.PLP.Chemscore.CHOScore>
0.0000

> <Gold.PLP.Chemscore.Metal>
0.0000

> <Gold.Chemscore.Hbonds>
donor molecule, donor type, donor heavy atom, donor atom, acceptor molecule, acceptor atom, score
      P1  H  7997  8009       L1     6  1.00
      P1  H 10752 10764       L1    19  0.74

> <Gold.PLP.Chemscore.Internal.Correction>
0.3440

> <Gold.Rescore>
     Score         DG    S(hbond)    S(metal)    S(lipo)     H(rot)  DE(clash)    DE(int)     intcor
     17.67     -18.38       1.90        0.00      92.00       1.65       0.02       0.69       ----

> <Gold.Chemscore.Fitness>
17.6663

> <Gold.Chemscore.DG>
-18.3765

> <Gold.Chemscore.ZeroCoef>
-5.4800

> <Gold.Chemscore.Hbond>
1.9021

> <Gold.Chemscore.Metal>
0.0000

> <Gold.Chemscore.Lipo>
92.0037

> <Gold.Chemscore.Internal_Hbond>
0.0000

> <Gold.Chemscore.DEClash>
0.0163

> <Gold.Chemscore.DEInternal>
0.6940

> <Gold.Chemscore.Rot>
1.6488

> <Gold.Chemscore.Internal.Correction>
   9.000000E+99

> <Gold.Chemscore.Hbonds>
donor molecule, donor type, donor heavy atom, donor atom, acceptor molecule, acceptor atom, score
      P1  H  7997  8009       L1     6  1.00
      P1  H 10752 10764       L1    19  0.16

> <Gold.Chemscore.Hbond.Weighted>
-6.3529

> <Gold.Chemscore.Metal.Weighted>
-0.0000

> <Gold.Chemscore.Lipo.Weighted>
-10.7644

> <Gold.Chemscore.Internal_Hbond.Weighted>
0.0000

> <Gold.Chemscore.DEClash.Weighted>
0.0163

> <Gold.Chemscore.DEInternal.Weighted>
0.6940

> <Gold.Chemscore.Rot.Weighted>
4.2208

> <Gold.Chemscore.Internal.Correction.Weighted>
   9.000000E+99

> <Gold.Protein.RotatedTorsions>
[ 6907 6896 6895 6894 ] final -162.13 input  -60.11 | X-H torsion
[ 7974 7965 7964 7962 ] final -130.82 input  175.53 | X-H torsion
[ 8008 7997 7996 7995 ] final  157.17 input   59.86 | X-H torsion
[ 10167 10162 10161 10158 ] final    6.92 input  -65.29 | X-H torsion
[ 10718 10713 10712 10709 ] final  142.99 input   66.30 | X-H torsion
[ 10763 10752 10751 10750 ] final  -52.81 input  -60.55 | X-H torsion
[ 11005 11000 10999 10996 ] final  -81.48 input  -57.11 | X-H torsion

> <Gold.Protein.ActiveResidues>
 VAL166  LYS551  ARG553  GLY616  TRP617  ASP618  TYR619  PRO620  LYS621  CYS622 
 ASP623  PHE694  ASN695  SER759  ASP760  ASP761  ALA762  ILE779  LEU786  VAL792 
 PHE793  MET794  SER795  GLU796  ALA797  LYS798  CYS799  TRP800  GLU811  SER814 

> <Gold.Protein.RotatedAtoms>
  151.3754  133.3840  159.2703 H   0  0  0  0  0  0  0  0  0  0  0  0  # atno 6907 bound_to 6896
  150.9618  134.9006  159.7746 H   0  0  0  0  0  0  0  0  0  0  0  0  # atno 6908 bound_to 6896
  152.5152  134.3714  159.9371 H   0  0  0  0  0  0  0  0  0  0  0  0  # atno 6909 bound_to 6896
  144.9438  140.7269  143.4830 H   0  0  0  0  0  0  0  0  0  0  0  0  # atno 7974 bound_to 7965
  156.2379  140.1892  156.7068 H   0  0  0  0  0  0  0  0  0  0  0  0  # atno 8008 bound_to 7997
  154.6142  140.0617  156.9559 H   0  0  0  0  0  0  0  0  0  0  0  0  # atno 8009 bound_to 7997
  155.1967  140.3289  155.4352 H   0  0  0  0  0  0  0  0  0  0  0  0  # atno 8010 bound_to 7997
  140.6401  143.7795  150.7415 H   0  0  0  0  0  0  0  0  0  0  0  0  # atno 10167 bound_to 10162
  157.3742  131.0983  151.0800 H   0  0  0  0  0  0  0  0  0  0  0  0  # atno 10718 bound_to 10713
  154.1487  135.6493  153.4958 H   0  0  0  0  0  0  0  0  0  0  0  0  # atno 10763 bound_to 10752
  153.0144  135.5333  154.6831 H   0  0  0  0  0  0  0  0  0  0  0  0  # atno 10764 bound_to 10752
  154.6112  135.2954  155.0401 H   0  0  0  0  0  0  0  0  0  0  0  0  # atno 10765 bound_to 10752
  141.1666  133.7198  156.8428 H   0  0  0  0  0  0  0  0  0  0  0  0  # atno 11005 bound_to 11000
  145.2949  139.1870  143.4720 LP  0  0  0  0  0  0  0  0  0  0  0  0  # atno 17320 bound_to 7965
  146.3296  140.2932  142.8616 LP  0  0  0  0  0  0  0  0  0  0  0  0  # atno 17321 bound_to 7965
  140.1425  143.4429  152.2185 LP  0  0  0  0  0  0  0  0  0  0  0  0  # atno 17342 bound_to 10162
  139.5610  144.7405  151.4155 LP  0  0  0  0  0  0  0  0  0  0  0  0  # atno 17343 bound_to 10162
  157.1892  130.6344  149.5698 LP  0  0  0  0  0  0  0  0  0  0  0  0  # atno 17370 bound_to 10713
  155.9762  130.4727  150.6510 LP  0  0  0  0  0  0  0  0  0  0  0  0  # atno 17371 bound_to 10713
  140.1971  134.8924  157.3127 LP  0  0  0  0  0  0  0  0  0  0  0  0  # atno 17394 bound_to 11000
  140.2227  134.4003  155.7558 LP  0  0  0  0  0  0  0  0  0  0  0  0  # atno 17395 bound_to 11000

$$$$
