AV-unprocessed.smi:1406|AV-procd|sdf|5716|dock10
  -GOLD-   22720 5353D 1   1.00000     0.00000
 Structure written by MMmdl.
 41 43  0  0  0  0  0  0  0  0  2 V2000
  142.8480  134.9757  152.3820 C   0  0  0  0  0  0  0  0  0  0  0  0
  144.1107  135.2597  151.5435 C   0  0  1  0  0  0  0  0  0  0  0  0
  145.2019  135.9945  152.3385 C   0  0  0  0  0  0  0  0  0  0  0  0
  145.7772  135.4443  153.2779 O   0  0  0  0  0  0  0  0  0  0  0  0
  145.4730  137.2521  151.9523 N   0  0  0  0  0  0  0  0  0  0  0  0
  146.4932  138.1153  152.5443 C   0  0  1  0  0  0  0  0  0  0  0  0
  146.8319  139.3351  151.6664 C   0  0  0  0  0  0  0  0  0  0  0  0
  147.0034  140.4889  152.6597 C   0  0  0  0  0  0  0  0  0  0  0  0
  146.0350  140.1605  153.7123 N   0  3  2  0  0  0  0  0  0  0  0  0
  146.0763  140.9234  154.9762 C   0  0  0  0  0  0  0  0  0  0  0  0
  144.8503  140.5234  155.8254 C   0  0  0  0  0  0  0  0  0  0  0  0
  144.7348  138.9921  156.0037 C   0  0  0  0  0  0  0  0  0  0  0  0
  144.8320  138.2460  154.6550 C   0  0  0  0  0  0  0  0  0  0  0  0
  146.1057  138.7040  153.9221 C   0  0  1  0  0  0  0  0  0  0  0  0
  144.6528  134.0477  150.9415 N   0  0  0  0  0  0  0  0  0  0  0  0
  144.0788  133.1677  150.1182 C   0  0  0  0  0  0  0  0  0  0  0  0
  144.8856  132.1930  149.7234 N   0  0  0  0  0  0  0  0  0  0  0  0
  146.0258  132.5609  150.3797 C   0  0  0  0  0  0  0  0  0  0  0  0
  145.9442  133.6701  151.1143 N   0  0  0  0  0  0  0  0  0  0  0  0
  142.4235  135.8989  152.7783 H   0  0  0  0  0  0  0  0  0  0  0  0
  143.0555  134.3180  153.2274 H   0  0  0  0  0  0  0  0  0  0  0  0
  142.0789  134.4980  151.7745 H   0  0  0  0  0  0  0  0  0  0  0  0
  143.8111  135.9168  150.7255 H   0  0  0  0  0  0  0  0  0  0  0  0
  144.9519  137.6282  151.1735 H   0  0  0  0  0  0  0  0  0  0  0  0
  147.4105  137.5359  152.6689 H   0  0  0  0  0  0  0  0  0  0  0  0
  147.7188  139.1781  151.0517 H   0  0  0  0  0  0  0  0  0  0  0  0
  146.0019  139.5605  150.9945 H   0  0  0  0  0  0  0  0  0  0  0  0
  148.0126  140.4934  153.0746 H   0  0  0  0  0  0  0  0  0  0  0  0
  146.8065  141.4635  152.2123 H   0  0  0  0  0  0  0  0  0  0  0  0
  147.0053  140.7182  155.5103 H   0  0  0  0  0  0  0  0  0  0  0  0
  146.0536  141.9926  154.7626 H   0  0  0  0  0  0  0  0  0  0  0  0
  144.8953  141.0110  156.7997 H   0  0  0  0  0  0  0  0  0  0  0  0
  143.9452  140.8924  155.3411 H   0  0  0  0  0  0  0  0  0  0  0  0
  145.5335  138.6481  156.6622 H   0  0  0  0  0  0  0  0  0  0  0  0
  143.7983  138.7427  156.5034 H   0  0  0  0  0  0  0  0  0  0  0  0
  144.8560  137.1705  154.8321 H   0  0  0  0  0  0  0  0  0  0  0  0
  143.9489  138.4505  154.0481 H   0  0  0  0  0  0  0  0  0  0  0  0
  146.9544  138.5103  154.5820 H   0  0  0  0  0  0  0  0  0  0  0  0
  143.0502  133.2437  149.7972 H   0  0  0  0  0  0  0  0  0  0  0  0
  146.9451  131.9985  150.3084 H   0  0  0  0  0  0  0  0  0  0  0  0
  145.1285  140.3378  153.3036 H   0  0  0  0  0  0  0  0  0  0  0  0
  1  2  1  0  0  0  0
  1 20  1  0  0  0  0
  1 21  1  0  0  0  0
  1 22  1  0  0  0  0
  2  3  1  0  0  0  0
  2 15  1  0  0  0  0
  2 23  1  0  0  0  0
  3  4  2  0  0  0  0
  3  5  1  0  0  0  0
  5  6  1  0  0  0  0
  5 24  1  0  0  0  0
  6 14  1  0  0  0  0
  6  7  1  0  0  0  0
  6 25  1  0  0  0  0
  7  8  1  0  0  0  0
  7 26  1  0  0  0  0
  7 27  1  0  0  0  0
  8  9  1  0  0  0  0
  8 28  1  0  0  0  0
  8 29  1  0  0  0  0
  9 14  1  0  0  0  0
  9 10  1  0  0  0  0
  9 41  1  0  0  0  0
 10 11  1  0  0  0  0
 10 30  1  0  0  0  0
 10 31  1  0  0  0  0
 11 12  1  0  0  0  0
 11 32  1  0  0  0  0
 11 33  1  0  0  0  0
 12 13  1  0  0  0  0
 12 34  1  0  0  0  0
 12 35  1  0  0  0  0
 13 14  1  0  0  0  0
 13 36  1  0  0  0  0
 13 37  1  0  0  0  0
 14 38  1  0  0  0  0
 15 19  1  0  0  0  0
 15 16  1  0  0  0  0
 16 17  2  0  0  0  0
 16 39  1  0  0  0  0
 17 18  1  0  0  0  0
 18 19  2  0  0  0  0
 18 40  1  0  0  0  0
M  CHG  1   9   1
M  END
> <s_m_source_file>
AV-unprocessed.smi

> <i_m_source_file_index>
1406

> <i_lp_mmshare_version>
43012

> <i_f3d_flags>
0

> <s_epik_input>
bjFbY0hdbltjSF1uMVtDQEhdKFtDSDNdKUMoPU8pW05IXVtDQEhdKFtDSDJdW0NIMl0yKVtDQEBIXShOMjMpW0NIMl1bQ0gyXVtDSDJdW0NIMl0z

> <s_epik_cmdline>
J2VwaWtfcHl0aG9uJywgJy1waCcsICc3LjAnLCAnLXRuJywgJzgnLCAnLW1hJywgJzIwMCcsICctbWV0YWxfYmluZGluZycsICctaW1hZScsICc8aW5maWxlLm1hZT4nLCAnLW9tYWUnLCAnPG91dGZpbGUubWFlPic=

> <r_lp_tautomer_probability>
1

> <r_epik_Ionization_Penalty>
0.00197066

> <r_epik_Ionization_Penalty_Charging>
0.00196223

> <r_epik_Ionization_Penalty_Neutral>
8.43107e-06

> <r_epik_State_Penalty>
0.00133866

> <r_epik_Charging_Adjusted_Penalty>
0.00330089

> <i_epik_Tot_Q>
1

> <i_epik_Tot_abs_Q>
1

> <r_epik_Metal_State_Penalty>
-0

> <b_epik_Metal_Only>
0

> <s_lp_Force_Field>
OPLS_2005

> <r_lp_Energy>
47.4686

> <b_lp_Chiralities_Consistent>
1

> <s_lp_Variant>
AV-unprocessed.smi:1406-8

> <Gold.Version>
5.8.1

> <Gold.Id.Protein>
6NUR|6NUR_protein|mol2

> <Gold.PLP.Fitness>
40.7481

> <Gold.PLP.PLP>
-26.1958

> <Gold.PLP.part.hbond>
-2.0000

> <Gold.PLP.part.metal>
0.0000

> <Gold.PLP.part.buried>
-1.1086

> <Gold.PLP.part.nonpolar>
-24.0212

> <Gold.PLP.part.repulsive>
0.4701

> <Gold.PLP.ligand.clash>
0.0000

> <Gold.PLP.ligand.torsion>
0.2719

> <Gold.PLP.Chemscore.Hbond>
3.0000

> <Gold.PLP.Chemscore.CHOScore>
2.0000

> <Gold.PLP.Chemscore.Metal>
0.0000

> <Gold.Chemscore.Hbonds>
donor molecule, donor type, donor heavy atom, donor atom, acceptor molecule, acceptor atom, score
      L1  H     5    24       P1 10171  1.00
      L1  H     9    41       P1 10175  2.00
      L1  C    16    39       P1 10186  1.00
      L1  C    18    40       P1 10747  1.00

> <Gold.PLP.Chemscore.Internal.Correction>
0.0961

> <Gold.Rescore>
     Score         DG    S(hbond)    S(metal)    S(lipo)     H(rot)  DE(clash)    DE(int)     intcor
     10.45     -12.46       1.98        0.00      44.46       1.89       0.53       1.48       ----

> <Gold.Chemscore.Fitness>
10.4452

> <Gold.Chemscore.DG>
-12.4578

> <Gold.Chemscore.ZeroCoef>
-5.4800

> <Gold.Chemscore.Hbond>
1.9778

> <Gold.Chemscore.Metal>
0.0000

> <Gold.Chemscore.Lipo>
44.4581

> <Gold.Chemscore.Internal_Hbond>
0.0000

> <Gold.Chemscore.DEClash>
0.5316

> <Gold.Chemscore.DEInternal>
1.4811

> <Gold.Chemscore.Rot>
1.8865

> <Gold.Chemscore.Internal.Correction>
   9.000000E+99

> <Gold.Chemscore.Hbonds>
donor molecule, donor type, donor heavy atom, donor atom, acceptor molecule, acceptor atom, score
      L1  H     5    24       P1 10171  0.97
      L1  H     9    41       P1 10175  1.00

> <Gold.Chemscore.Hbond.Weighted>
-6.6058

> <Gold.Chemscore.Metal.Weighted>
-0.0000

> <Gold.Chemscore.Lipo.Weighted>
-5.2016

> <Gold.Chemscore.Internal_Hbond.Weighted>
0.0000

> <Gold.Chemscore.DEClash.Weighted>
0.5316

> <Gold.Chemscore.DEInternal.Weighted>
1.4811

> <Gold.Chemscore.Rot.Weighted>
4.8295

> <Gold.Chemscore.Internal.Correction.Weighted>
   9.000000E+99

> <Gold.Protein.RotatedTorsions>
[ 6907 6896 6895 6894 ] final -160.01 input  -60.11 | X-H torsion
[ 7974 7965 7964 7962 ] final  -28.56 input  175.53 | X-H torsion
[ 8008 7997 7996 7995 ] final  123.76 input   59.86 | X-H torsion
[ 10167 10162 10161 10158 ] final  123.71 input  -65.29 | X-H torsion
[ 10718 10713 10712 10709 ] final   17.64 input   66.30 | X-H torsion
[ 10763 10752 10751 10750 ] final  122.70 input  -60.55 | X-H torsion
[ 11005 11000 10999 10996 ] final -112.68 input  -57.11 | X-H torsion

> <Gold.Protein.ActiveResidues>
 VAL166  LYS551  ARG553  GLY616  TRP617  ASP618  TYR619  PRO620  LYS621  CYS622 
 ASP623  PHE694  ASN695  SER759  ASP760  ASP761  ALA762  ILE779  LEU786  VAL792 
 PHE793  MET794  SER795  GLU796  ALA797  LYS798  CYS799  TRP800  GLU811  SER814 

> <Gold.Protein.RotatedAtoms>
  151.3424  133.3957  159.2672 H   0  0  0  0  0  0  0  0  0  0  0  0  # atno 6907 bound_to 6896
  150.9867  134.9212  159.7886 H   0  0  0  0  0  0  0  0  0  0  0  0  # atno 6908 bound_to 6896
  152.5234  134.3388  159.9262 H   0  0  0  0  0  0  0  0  0  0  0  0  # atno 6909 bound_to 6896
  146.1279  140.5298  142.8706 H   0  0  0  0  0  0  0  0  0  0  0  0  # atno 7974 bound_to 7965
  156.2777  140.2755  156.1679 H   0  0  0  0  0  0  0  0  0  0  0  0  # atno 8008 bound_to 7997
  155.0686  140.0387  157.2618 H   0  0  0  0  0  0  0  0  0  0  0  0  # atno 8009 bound_to 7997
  154.7059  140.2658  155.6681 H   0  0  0  0  0  0  0  0  0  0  0  0  # atno 8010 bound_to 7997
  139.5784  144.6974  151.3593 H   0  0  0  0  0  0  0  0  0  0  0  0  # atno 10167 bound_to 10162
  157.0849  130.6403  149.5835 H   0  0  0  0  0  0  0  0  0  0  0  0  # atno 10718 bound_to 10713
  153.6339  135.3391  155.3050 H   0  0  0  0  0  0  0  0  0  0  0  0  # atno 10763 bound_to 10752
  154.8574  135.4302  154.2076 H   0  0  0  0  0  0  0  0  0  0  0  0  # atno 10764 bound_to 10752
  153.2978  135.7022  153.7305 H   0  0  0  0  0  0  0  0  0  0  0  0  # atno 10765 bound_to 10752
  141.0660  133.9457  157.2577 H   0  0  0  0  0  0  0  0  0  0  0  0  # atno 11005 bound_to 11000
  144.7661  140.5533  143.6702 LP  0  0  0  0  0  0  0  0  0  0  0  0  # atno 17320 bound_to 7965
  145.5324  139.1475  143.3492 LP  0  0  0  0  0  0  0  0  0  0  0  0  # atno 17321 bound_to 7965
  140.7064  143.7502  150.7490 LP  0  0  0  0  0  0  0  0  0  0  0  0  # atno 17342 bound_to 10162
  140.1028  143.4772  152.2415 LP  0  0  0  0  0  0  0  0  0  0  0  0  # atno 17343 bound_to 10162
  155.9913  130.4968  150.7295 LP  0  0  0  0  0  0  0  0  0  0  0  0  # atno 17370 bound_to 10713
  157.4769  131.0898  151.0580 LP  0  0  0  0  0  0  0  0  0  0  0  0  # atno 17371 bound_to 10713
  139.9477  135.0181  156.8902 LP  0  0  0  0  0  0  0  0  0  0  0  0  # atno 17394 bound_to 11000
  140.5771  134.0387  155.7451 LP  0  0  0  0  0  0  0  0  0  0  0  0  # atno 17395 bound_to 11000

$$$$
