AV-unprocessed.smi:527|AV-procd|sdf|2821|dock6
  -GOLD-   2262023303D 1   1.00000     0.00000
 Structure written by MMmdl.
 42 43  0  0  0  0  0  0  0  0  1 V2000
  149.4998  141.7059  156.9344 C   0  0  0  0  0  0  0  0  0  0  0  0
  149.9224  140.3623  156.3173 C   0  0  2  0  0  0  0  0  0  0  0  0
  151.3545  140.4183  155.7477 C   0  0  0  0  0  0  0  0  0  0  0  0
  151.8067  139.0455  155.2254 C   0  0  0  0  0  0  0  0  0  0  0  0
  150.8136  138.4733  154.2024 C   0  0  0  0  0  0  0  0  0  0  0  0
  149.3859  138.4176  154.7798 C   0  0  2  0  0  0  0  0  0  0  0  0
  148.4757  137.8397  153.7935 N   0  0  0  0  0  0  0  0  0  0  0  0
  147.2207  137.4334  154.0372 C   0  0  0  0  0  0  0  0  0  0  0  0
  146.6840  137.5143  155.1441 O   0  0  0  0  0  0  0  0  0  0  0  0
  146.6494  136.9456  152.9201 N   0  0  0  0  0  0  0  0  0  0  0  0
  145.4010  136.4531  152.7796 C   0  0  0  0  0  0  0  0  0  0  0  0
  144.5709  136.3527  153.6848 O   0  0  0  0  0  0  0  0  0  0  0  0
  145.0273  135.9868  151.3702 C   0  0  0  0  0  0  0  0  0  0  0  0
  145.2257  134.5571  151.2118 N   0  0  0  0  0  0  0  0  0  0  0  0
  146.3964  133.8426  151.4340 C   0  0  0  0  0  0  0  0  0  0  0  0
  146.1139  132.5261  151.1474 C   0  0  0  0  0  0  0  0  0  0  0  0
  144.7838  132.4077  150.7512 N   0  0  0  0  0  0  0  0  0  0  0  0
  144.3218  133.6496  150.8154 C   0  0  0  0  0  0  0  0  0  0  0  0
  148.9132  139.8131  155.2737 C   0  0  2  0  0  0  0  0  0  0  0  0
  148.6184  140.7996  154.1198 C   0  0  0  0  0  0  0  0  0  0  0  0
  149.5518  142.5196  156.2111 H   0  0  0  0  0  0  0  0  0  0  0  0
  150.1516  141.9717  157.7672 H   0  0  0  0  0  0  0  0  0  0  0  0
  148.4804  141.6604  157.3183 H   0  0  0  0  0  0  0  0  0  0  0  0
  149.9386  139.6470  157.1413 H   0  0  0  0  0  0  0  0  0  0  0  0
  151.4130  141.1553  154.9462 H   0  0  0  0  0  0  0  0  0  0  0  0
  152.0474  140.7547  156.5199 H   0  0  0  0  0  0  0  0  0  0  0  0
  152.7975  139.1258  154.7774 H   0  0  0  0  0  0  0  0  0  0  0  0
  151.9029  138.3531  156.0626 H   0  0  0  0  0  0  0  0  0  0  0  0
  150.8324  139.0786  153.2955 H   0  0  0  0  0  0  0  0  0  0  0  0
  151.1351  137.4735  153.9076 H   0  0  0  0  0  0  0  0  0  0  0  0
  149.4145  137.7446  155.6393 H   0  0  0  0  0  0  0  0  0  0  0  0
  148.8257  137.7586  152.8502 H   0  0  0  0  0  0  0  0  0  0  0  0
  147.2151  136.9634  152.0844 H   0  0  0  0  0  0  0  0  0  0  0  0
  143.9834  136.2293  151.1675 H   0  0  0  0  0  0  0  0  0  0  0  0
  145.6309  136.5092  150.6265 H   0  0  0  0  0  0  0  0  0  0  0  0
  147.3087  134.3161  151.7658 H   0  0  0  0  0  0  0  0  0  0  0  0
  146.7604  131.6622  151.1946 H   0  0  0  0  0  0  0  0  0  0  0  0
  143.3034  133.9067  150.5631 H   0  0  0  0  0  0  0  0  0  0  0  0
  147.9669  139.6662  155.7965 H   0  0  0  0  0  0  0  0  0  0  0  0
  149.5119  141.0350  153.5428 H   0  0  0  0  0  0  0  0  0  0  0  0
  148.2102  141.7385  154.4920 H   0  0  0  0  0  0  0  0  0  0  0  0
  147.8781  140.3981  153.4280 H   0  0  0  0  0  0  0  0  0  0  0  0
  1  2  1  0  0  0  0
  1 21  1  0  0  0  0
  1 22  1  0  0  0  0
  1 23  1  0  0  0  0
  2 19  1  0  0  0  0
  2  3  1  0  0  0  0
  2 24  1  0  0  0  0
  3  4  1  0  0  0  0
  3 25  1  0  0  0  0
  3 26  1  0  0  0  0
  4  5  1  0  0  0  0
  4 27  1  0  0  0  0
  4 28  1  0  0  0  0
  5  6  1  0  0  0  0
  5 29  1  0  0  0  0
  5 30  1  0  0  0  0
  6  7  1  0  0  0  0
  6 19  1  0  0  0  0
  6 31  1  0  0  0  0
  7  8  1  0  0  0  0
  7 32  1  0  0  0  0
  8  9  2  0  0  0  0
  8 10  1  0  0  0  0
 10 11  1  0  0  0  0
 10 33  1  0  0  0  0
 11 12  2  0  0  0  0
 11 13  1  0  0  0  0
 13 14  1  0  0  0  0
 13 34  1  0  0  0  0
 13 35  1  0  0  0  0
 14 18  1  0  0  0  0
 14 15  1  0  0  0  0
 15 16  2  0  0  0  0
 15 36  1  0  0  0  0
 16 17  1  0  0  0  0
 16 37  1  0  0  0  0
 17 18  2  0  0  0  0
 18 38  1  0  0  0  0
 19 20  1  0  0  0  0
 19 39  1  0  0  0  0
 20 40  1  0  0  0  0
 20 41  1  0  0  0  0
 20 42  1  0  0  0  0
M  END
> <s_m_source_file>
AV-unprocessed.smi

> <i_m_source_file_index>
527

> <i_lp_mmshare_version>
43012

> <i_f3d_flags>
0

> <s_epik_input>
W0NIM11bQ0BASF0xW0NIMl1bQ0gyXVtDSDJdW0NASF0oW0NASF0xW0NIM10pW05IXUMoPU8pW05IXUMoPU8pW0NIMl1uMltjSF1bY0hdbltjSF0y

> <s_epik_cmdline>
J2VwaWtfcHl0aG9uJywgJy1waCcsICc3LjAnLCAnLXRuJywgJzgnLCAnLW1hJywgJzIwMCcsICctbWV0YWxfYmluZGluZycsICctaW1hZScsICc8aW5maWxlLm1hZT4nLCAnLW9tYWUnLCAnPG91dGZpbGUubWFlPic=

> <r_lp_tautomer_probability>
1

> <r_epik_Ionization_Penalty>
0.172132

> <r_epik_Ionization_Penalty_Charging>
0.172105

> <r_epik_Ionization_Penalty_Neutral>
2.71747e-05

> <r_epik_State_Penalty>
0.161503

> <r_epik_Charging_Adjusted_Penalty>
0.333607

> <i_epik_Tot_Q>
0

> <i_epik_Tot_abs_Q>
0

> <r_epik_Metal_State_Penalty>
0.124763

> <b_epik_Metal_Only>
0

> <s_lp_Force_Field>
OPLS_2005

> <r_lp_Energy>
16.867

> <b_lp_Chiralities_Consistent>
1

> <s_lp_Variant>
AV-unprocessed.smi:527-7

> <Gold.Version>
5.8.1

> <Gold.Id.Protein>
6NUR|6NUR_protein|mol2

> <Gold.PLP.Fitness>
42.9387

> <Gold.PLP.PLP>
-31.4876

> <Gold.PLP.part.hbond>
-2.0000

> <Gold.PLP.part.metal>
0.0000

> <Gold.PLP.part.buried>
-3.1780

> <Gold.PLP.part.nonpolar>
-26.7820

> <Gold.PLP.part.repulsive>
0.2761

> <Gold.PLP.ligand.clash>
0.0000

> <Gold.PLP.ligand.torsion>
0.4514

> <Gold.PLP.Chemscore.Hbond>
1.1200

> <Gold.PLP.Chemscore.CHOScore>
2.9866

> <Gold.PLP.Chemscore.Metal>
0.0000

> <Gold.Chemscore.Hbonds>
donor molecule, donor type, donor heavy atom, donor atom, acceptor molecule, acceptor atom, score
      L1  H     7    32       P1  7948  0.56
      L1  H    10    33       P1  7948  0.58
      L1  C    15    36       P1  7948  1.00
      L1  C    16    37       P1 10747  1.00
      L1  C    18    38       P1 10186  0.93

> <Gold.PLP.Chemscore.Internal.Correction>
0.0340

> <Gold.Rescore>
     Score         DG    S(hbond)    S(metal)    S(lipo)     H(rot)  DE(clash)    DE(int)     intcor
     13.14     -14.90       1.81        0.00      65.09       1.66       0.03       1.72       ----

> <Gold.Chemscore.Fitness>
13.1434

> <Gold.Chemscore.DG>
-14.8977

> <Gold.Chemscore.ZeroCoef>
-5.4800

> <Gold.Chemscore.Hbond>
1.8142

> <Gold.Chemscore.Metal>
0.0000

> <Gold.Chemscore.Lipo>
65.0864

> <Gold.Chemscore.Internal_Hbond>
0.0000

> <Gold.Chemscore.DEClash>
0.0324

> <Gold.Chemscore.DEInternal>
1.7219

> <Gold.Chemscore.Rot>
1.6629

> <Gold.Chemscore.Internal.Correction>
   9.000000E+99

> <Gold.Chemscore.Hbonds>
donor molecule, donor type, donor heavy atom, donor atom, acceptor molecule, acceptor atom, score
      L1  H     7    32       P1  7948  0.56
      L1  H    10    33       P1  7948  0.56

> <Gold.Chemscore.Hbond.Weighted>
-6.0595

> <Gold.Chemscore.Metal.Weighted>
-0.0000

> <Gold.Chemscore.Lipo.Weighted>
-7.6151

> <Gold.Chemscore.Internal_Hbond.Weighted>
0.0000

> <Gold.Chemscore.DEClash.Weighted>
0.0324

> <Gold.Chemscore.DEInternal.Weighted>
1.7219

> <Gold.Chemscore.Rot.Weighted>
4.2569

> <Gold.Chemscore.Internal.Correction.Weighted>
   9.000000E+99

> <Gold.Protein.RotatedTorsions>
[ 6907 6896 6895 6894 ] final   -5.09 input  -60.11 | X-H torsion
[ 7974 7965 7964 7962 ] final -159.14 input  175.53 | X-H torsion
[ 8008 7997 7996 7995 ] final  -39.05 input   59.86 | X-H torsion
[ 10167 10162 10161 10158 ] final  115.89 input  -65.29 | X-H torsion
[ 10718 10713 10712 10709 ] final -157.57 input   66.30 | X-H torsion
[ 10763 10752 10751 10750 ] final  -50.11 input  -60.55 | X-H torsion
[ 11005 11000 10999 10996 ] final -110.23 input  -57.11 | X-H torsion

> <Gold.Protein.ActiveResidues>
 VAL166  LYS551  ARG553  GLY616  TRP617  ASP618  TYR619  PRO620  LYS621  CYS622 
 ASP623  PHE694  ASN695  SER759  ASP760  ASP761  ALA762  ILE779  LEU786  VAL792 
 PHE793  MET794  SER795  GLU796  ALA797  LYS798  CYS799  TRP800  GLU811  SER814 

> <Gold.Protein.RotatedAtoms>
  151.4871  135.1055  159.9793 H   0  0  0  0  0  0  0  0  0  0  0  0  # atno 6907 bound_to 6896
  152.4756  133.8126  159.7022 H   0  0  0  0  0  0  0  0  0  0  0  0  # atno 6908 bound_to 6896
  150.8792  133.7334  159.2963 H   0  0  0  0  0  0  0  0  0  0  0  0  # atno 6909 bound_to 6896
  144.7477  140.3728  143.6072 H   0  0  0  0  0  0  0  0  0  0  0  0  # atno 7974 bound_to 7965
  154.4028  140.1562  156.2799 H   0  0  0  0  0  0  0  0  0  0  0  0  # atno 8008 bound_to 7997
  155.8878  140.3440  155.5912 H   0  0  0  0  0  0  0  0  0  0  0  0  # atno 8009 bound_to 7997
  155.7593  140.0815  157.2154 H   0  0  0  0  0  0  0  0  0  0  0  0  # atno 8010 bound_to 7997
  139.6285  144.7112  151.2482 H   0  0  0  0  0  0  0  0  0  0  0  0  # atno 10167 bound_to 10162
  156.5421  130.8568  151.2752 H   0  0  0  0  0  0  0  0  0  0  0  0  # atno 10718 bound_to 10713
  154.1050  135.6557  153.4875 H   0  0  0  0  0  0  0  0  0  0  0  0  # atno 10763 bound_to 10752
  153.0276  135.5234  154.7249 H   0  0  0  0  0  0  0  0  0  0  0  0  # atno 10764 bound_to 10752
  154.6412  135.2988  155.0070 H   0  0  0  0  0  0  0  0  0  0  0  0  # atno 10765 bound_to 10752
  141.0803  133.9230  157.2302 H   0  0  0  0  0  0  0  0  0  0  0  0  # atno 11005 bound_to 11000
  145.7060  139.1673  143.2566 LP  0  0  0  0  0  0  0  0  0  0  0  0  # atno 17320 bound_to 7965
  146.1381  140.7094  142.9380 LP  0  0  0  0  0  0  0  0  0  0  0  0  # atno 17321 bound_to 7965
  140.7425  143.6523  150.8237 LP  0  0  0  0  0  0  0  0  0  0  0  0  # atno 17342 bound_to 10162
  140.0145  143.5608  152.2826 LP  0  0  0  0  0  0  0  0  0  0  0  0  # atno 17343 bound_to 10162
  157.7403  130.9848  150.2370 LP  0  0  0  0  0  0  0  0  0  0  0  0  # atno 17370 bound_to 10713
  156.2962  130.3752  149.7794 LP  0  0  0  0  0  0  0  0  0  0  0  0  # atno 17371 bound_to 10713
  139.9617  135.0152  156.9278 LP  0  0  0  0  0  0  0  0  0  0  0  0  # atno 17394 bound_to 11000
  140.5482  134.0653  155.7361 LP  0  0  0  0  0  0  0  0  0  0  0  0  # atno 17395 bound_to 11000

$$$$
