AV-unprocessed.smi:2850|AV-procd|sdf|10965|dock8
  -GOLD-   2272015413D 1   1.00000     0.00000
 Structure written by MMmdl.
 45 46  0  0  0  0  0  0  0  0  2 V2000
  151.7330  142.9509  158.7375 C   0  0  0  0  0  0  0  0  0  0  0  0
  151.4480  141.1892  158.4111 S   0  0  0  0  0  0  0  0  0  0  0  0
  150.4995  141.0789  156.9241 C   0  0  0  0  0  0  0  0  0  0  0  0
  149.1758  141.5517  156.8823 C   0  0  0  0  0  0  0  0  0  0  0  0
  148.4928  141.4300  155.6599 C   0  0  0  0  0  0  0  0  0  0  0  0
  149.1833  140.8484  154.5774 C   0  0  0  0  0  0  0  0  0  0  0  0
  148.5246  140.7241  153.3459 N   0  0  0  0  0  0  0  0  0  0  0  0
  147.1977  140.1278  153.2376 C   0  0  0  0  0  0  0  0  0  0  0  0
  147.2253  138.5881  153.2072 C   0  0  2  0  0  0  0  0  0  0  0  0
  146.1114  137.9831  152.3276 C   0  0  0  0  0  0  0  0  0  0  0  0
  146.1405  136.5032  152.3985 N   0  3  2  0  0  0  0  0  0  0  0  0
  145.1401  135.8707  151.5007 C   0  0  0  0  0  0  0  0  0  0  0  0
  145.2161  134.3283  151.4990 C   0  0  0  0  0  0  0  0  0  0  0  0
  146.6098  133.8207  151.0913 C   0  0  0  0  0  0  0  0  0  0  0  0
  144.1402  133.7364  150.5763 C   0  0  0  0  0  0  0  0  0  0  0  0
  146.0480  136.0540  153.8092 C   0  0  0  0  0  0  0  0  0  0  0  0
  147.1472  136.7190  154.6536 C   0  0  0  0  0  0  0  0  0  0  0  0
  147.0445  138.1330  154.5438 O   0  0  0  0  0  0  0  0  0  0  0  0
  150.4634  140.4125  154.6948 N   0  0  0  0  0  0  0  0  0  0  0  0
  151.1183  140.5272  155.8555 N   0  0  0  0  0  0  0  0  0  0  0  0
  152.3190  143.0726  159.6483 H   0  0  0  0  0  0  0  0  0  0  0  0
  150.7856  143.4749  158.8650 H   0  0  0  0  0  0  0  0  0  0  0  0
  152.2791  143.4087  157.9123 H   0  0  0  0  0  0  0  0  0  0  0  0
  148.7037  141.9896  157.7493 H   0  0  0  0  0  0  0  0  0  0  0  0
  147.4739  141.7743  155.5591 H   0  0  0  0  0  0  0  0  0  0  0  0
  148.9754  141.0576  152.5059 H   0  0  0  0  0  0  0  0  0  0  0  0
  146.5770  140.4761  154.0640 H   0  0  0  0  0  0  0  0  0  0  0  0
  146.7291  140.5048  152.3281 H   0  0  0  0  0  0  0  0  0  0  0  0
  148.1992  138.2479  152.8516 H   0  0  0  0  0  0  0  0  0  0  0  0
  145.1336  138.3467  152.6480 H   0  0  0  0  0  0  0  0  0  0  0  0
  146.2482  138.2973  151.2921 H   0  0  0  0  0  0  0  0  0  0  0  0
  144.1414  136.2071  151.7834 H   0  0  0  0  0  0  0  0  0  0  0  0
  145.2994  136.2206  150.4794 H   0  0  0  0  0  0  0  0  0  0  0  0
  145.0046  133.9586  152.5019 H   0  0  0  0  0  0  0  0  0  0  0  0
  146.8794  134.1599  150.0905 H   0  0  0  0  0  0  0  0  0  0  0  0
  146.6450  132.7308  151.0920 H   0  0  0  0  0  0  0  0  0  0  0  0
  147.3802  134.1685  151.7799 H   0  0  0  0  0  0  0  0  0  0  0  0
  144.2871  134.0504  149.5424 H   0  0  0  0  0  0  0  0  0  0  0  0
  143.1419  134.0515  150.8814 H   0  0  0  0  0  0  0  0  0  0  0  0
  144.1597  132.6464  150.5980 H   0  0  0  0  0  0  0  0  0  0  0  0
  145.0658  136.3075  154.2109 H   0  0  0  0  0  0  0  0  0  0  0  0
  146.1514  134.9718  153.8765 H   0  0  0  0  0  0  0  0  0  0  0  0
  147.0381  136.4373  155.7010 H   0  0  0  0  0  0  0  0  0  0  0  0
  148.1373  136.3873  154.3365 H   0  0  0  0  0  0  0  0  0  0  0  0
  147.0491  136.2237  152.0567 H   0  0  0  0  0  0  0  0  0  0  0  0
  1  2  1  0  0  0  0
  1 21  1  0  0  0  0
  1 22  1  0  0  0  0
  1 23  1  0  0  0  0
  2  3  1  0  0  0  0
  3 20  1  0  0  0  0
  3  4  2  0  0  0  0
  4  5  1  0  0  0  0
  4 24  1  0  0  0  0
  5  6  2  0  0  0  0
  5 25  1  0  0  0  0
  6  7  1  0  0  0  0
  6 19  1  0  0  0  0
  7  8  1  0  0  0  0
  7 26  1  0  0  0  0
  8  9  1  0  0  0  0
  8 27  1  0  0  0  0
  8 28  1  0  0  0  0
  9 18  1  0  0  0  0
  9 10  1  0  0  0  0
  9 29  1  0  0  0  0
 10 11  1  0  0  0  0
 10 30  1  0  0  0  0
 10 31  1  0  0  0  0
 11 12  1  0  0  0  0
 11 16  1  0  0  0  0
 11 45  1  0  0  0  0
 12 13  1  0  0  0  0
 12 32  1  0  0  0  0
 12 33  1  0  0  0  0
 13 14  1  0  0  0  0
 13 15  1  0  0  0  0
 13 34  1  0  0  0  0
 14 35  1  0  0  0  0
 14 36  1  0  0  0  0
 14 37  1  0  0  0  0
 15 38  1  0  0  0  0
 15 39  1  0  0  0  0
 15 40  1  0  0  0  0
 16 17  1  0  0  0  0
 16 41  1  0  0  0  0
 16 42  1  0  0  0  0
 17 18  1  0  0  0  0
 17 43  1  0  0  0  0
 17 44  1  0  0  0  0
 19 20  2  0  0  0  0
M  CHG  1  11   1
M  END
> <s_m_source_file>
AV-unprocessed.smi

> <i_m_source_file_index>
2850

> <i_lp_mmshare_version>
43012

> <i_f3d_flags>
0

> <s_epik_input>
W0NIM11TYzFbY0hdW2NIXWMobm4xKVtOSF1bQ0gyXVtDQEBIXTJbQ0gyXU4oW0NIMl1bQ0gyXU8yKVtDSDJdW0NIXShbQ0gzXSlbQ0gzXQ==

> <s_epik_cmdline>
J2VwaWtfcHl0aG9uJywgJy1waCcsICc3LjAnLCAnLXRuJywgJzgnLCAnLW1hJywgJzIwMCcsICctbWV0YWxfYmluZGluZycsICctaW1hZScsICc8aW5maWxlLm1hZT4nLCAnLW9tYWUnLCAnPG91dGZpbGUubWFlPic=

> <r_lp_tautomer_probability>
0.999978

> <r_epik_Ionization_Penalty>
0.0874875

> <r_epik_Ionization_Penalty_Charging>
0.0831532

> <r_epik_Ionization_Penalty_Neutral>
0.00433433

> <r_epik_State_Penalty>
0.0738301

> <r_epik_Charging_Adjusted_Penalty>
0.156983

> <i_epik_Tot_Q>
1

> <i_epik_Tot_abs_Q>
1

> <r_epik_Metal_State_Penalty>
0.073888

> <b_epik_Metal_Only>
0

> <s_lp_Force_Field>
OPLS_2005

> <r_lp_Energy>
24.5925

> <b_lp_Chiralities_Consistent>
1

> <s_lp_Variant>
AV-unprocessed.smi:2850-1

> <Gold.Version>
5.8.1

> <Gold.Id.Protein>
6NUR|6NUR_protein|mol2

> <Gold.PLP.Fitness>
41.9391

> <Gold.PLP.PLP>
-33.5207

> <Gold.PLP.part.hbond>
-3.4082

> <Gold.PLP.part.metal>
0.0000

> <Gold.PLP.part.buried>
-3.1353

> <Gold.PLP.part.nonpolar>
-27.6538

> <Gold.PLP.part.repulsive>
0.4455

> <Gold.PLP.ligand.clash>
0.0000

> <Gold.PLP.ligand.torsion>
1.0993

> <Gold.PLP.Chemscore.Hbond>
3.5120

> <Gold.PLP.Chemscore.CHOScore>
0.0000

> <Gold.PLP.Chemscore.Metal>
0.0000

> <Gold.Chemscore.Hbonds>
donor molecule, donor type, donor heavy atom, donor atom, acceptor molecule, acceptor atom, score
      L1  H     7    26       P1  7957  0.54
      L1  H    11    45       P1  7948  2.00
      P1  H  7989  7998       L1    19  1.00

> <Gold.PLP.Chemscore.Internal.Correction>
0.0809

> <Gold.Rescore>
     Score         DG    S(hbond)    S(metal)    S(lipo)     H(rot)  DE(clash)    DE(int)     intcor
     15.84     -17.19       2.22        0.00      71.63       1.60       0.57       0.78       ----

> <Gold.Chemscore.Fitness>
15.8355

> <Gold.Chemscore.DG>
-17.1927

> <Gold.Chemscore.ZeroCoef>
-5.4800

> <Gold.Chemscore.Hbond>
2.2240

> <Gold.Chemscore.Metal>
0.0000

> <Gold.Chemscore.Lipo>
71.6347

> <Gold.Chemscore.Internal_Hbond>
0.0000

> <Gold.Chemscore.DEClash>
0.5727

> <Gold.Chemscore.DEInternal>
0.7845

> <Gold.Chemscore.Rot>
1.6003

> <Gold.Chemscore.Internal.Correction>
   9.000000E+99

> <Gold.Chemscore.Hbonds>
donor molecule, donor type, donor heavy atom, donor atom, acceptor molecule, acceptor atom, score
      L1  H     7    26       P1  7957  0.54
      L1  H    11    45       P1  7948  0.99
      P1  H  7989  7998       L1    19  0.47

> <Gold.Chemscore.Hbond.Weighted>
-7.4283

> <Gold.Chemscore.Metal.Weighted>
-0.0000

> <Gold.Chemscore.Lipo.Weighted>
-8.3813

> <Gold.Chemscore.Internal_Hbond.Weighted>
0.0000

> <Gold.Chemscore.DEClash.Weighted>
0.5727

> <Gold.Chemscore.DEInternal.Weighted>
0.7845

> <Gold.Chemscore.Rot.Weighted>
4.0968

> <Gold.Chemscore.Internal.Correction.Weighted>
   9.000000E+99

> <Gold.Protein.RotatedTorsions>
[ 6907 6896 6895 6894 ] final  125.13 input  -60.11 | X-H torsion
[ 7974 7965 7964 7962 ] final  144.00 input  175.53 | X-H torsion
[ 8008 7997 7996 7995 ] final   68.02 input   59.86 | X-H torsion
[ 10167 10162 10161 10158 ] final -167.20 input  -65.29 | X-H torsion
[ 10718 10713 10712 10709 ] final -150.43 input   66.30 | X-H torsion
[ 10763 10752 10751 10750 ] final -115.36 input  -60.55 | X-H torsion
[ 11005 11000 10999 10996 ] final  144.56 input  -57.11 | X-H torsion

> <Gold.Protein.ActiveResidues>
 VAL166  LYS551  ARG553  GLY616  TRP617  ASP618  TYR619  PRO620  LYS621  CYS622 
 ASP623  PHE694  ASN695  SER759  ASP760  ASP761  ALA762  ILE779  LEU786  VAL792 
 PHE793  MET794  SER795  GLU796  ALA797  LYS798  CYS799  TRP800  GLU811  SER814 

> <Gold.Protein.RotatedAtoms>
  152.4018  133.6829  159.6322 H   0  0  0  0  0  0  0  0  0  0  0  0  # atno 6907 bound_to 6896
  150.7908  133.8777  159.3286 H   0  0  0  0  0  0  0  0  0  0  0  0  # atno 6908 bound_to 6896
  151.6541  135.0999  160.0218 H   0  0  0  0  0  0  0  0  0  0  0  0  # atno 6909 bound_to 6896
  144.8872  139.5611  143.5815 H   0  0  0  0  0  0  0  0  0  0  0  0  # atno 7974 bound_to 7965
  155.7019  140.3495  155.4936 H   0  0  0  0  0  0  0  0  0  0  0  0  # atno 8008 bound_to 7997
  155.9433  140.1105  157.1060 H   0  0  0  0  0  0  0  0  0  0  0  0  # atno 8009 bound_to 7997
  154.4107  140.1208  156.4942 H   0  0  0  0  0  0  0  0  0  0  0  0  # atno 8010 bound_to 7997
  139.6065  144.0902  152.1798 H   0  0  0  0  0  0  0  0  0  0  0  0  # atno 10167 bound_to 10162
  156.4461  130.8145  151.2375 H   0  0  0  0  0  0  0  0  0  0  0  0  # atno 10718 bound_to 10713
  154.8478  135.4384  154.1651 H   0  0  0  0  0  0  0  0  0  0  0  0  # atno 10763 bound_to 10752
  153.2778  135.6951  153.7422 H   0  0  0  0  0  0  0  0  0  0  0  0  # atno 10764 bound_to 10752
  153.6637  135.3430  155.3109 H   0  0  0  0  0  0  0  0  0  0  0  0  # atno 10765 bound_to 10752
  140.0642  134.9188  157.1235 H   0  0  0  0  0  0  0  0  0  0  0  0  # atno 11005 bound_to 11000
  146.3032  139.7493  142.9076 LP  0  0  0  0  0  0  0  0  0  0  0  0  # atno 17320 bound_to 7965
  145.3847  141.0363  143.3158 LP  0  0  0  0  0  0  0  0  0  0  0  0  # atno 17321 bound_to 7965
  140.0511  144.5932  150.7335 LP  0  0  0  0  0  0  0  0  0  0  0  0  # atno 17342 bound_to 10162
  140.7288  143.2666  151.4025 LP  0  0  0  0  0  0  0  0  0  0  0  0  # atno 17343 bound_to 10162
  157.7504  131.0153  150.3498 LP  0  0  0  0  0  0  0  0  0  0  0  0  # atno 17370 bound_to 10713
  156.3866  130.3890  149.7061 LP  0  0  0  0  0  0  0  0  0  0  0  0  # atno 17371 bound_to 10713
  140.3724  134.2375  155.7177 LP  0  0  0  0  0  0  0  0  0  0  0  0  # atno 17394 bound_to 11000
  141.1986  133.8032  157.0576 LP  0  0  0  0  0  0  0  0  0  0  0  0  # atno 17395 bound_to 11000

$$$$
