#       Name:                AV-unprocessed.smi:3168
#       Creating user name   scv26
#       Creation time:       Fri Mar 27 17:53:52 2020


#       File generated by GOLD software.
#

@<TRIPOS>MOLECULE
AV-unprocessed.smi:3168
    38    39     1
SMALL
NO_CHARGES


@<TRIPOS>ATOM
      1 ****        -2.3809  -2.0038   2.0504 C.3            1 S1                 0.0000
      2 ****        -1.9021  -1.2376   0.8000 C.3            1 S1                 0.0000
      3 ****        -0.3834  -0.9814   0.7917 C.2            1 S1                 0.0000
      4 ****         0.3348  -1.4165   1.6927 O.2            1 S1                 0.0000
      5 ****         0.0937  -0.2536  -0.2312 N.am           1 S1                 0.0000
      6 ****         1.4913   0.1141  -0.4226 C.3            1 S1                 0.0000
      7 ****         1.8610   1.3652   0.3903 C.3            1 S1                 0.0000
      8 ****         3.3299   1.7645   0.2674 C.3            1 S1                 0.0000
      9 ****         3.2723   3.2378   0.5998 C.3            1 S1                 0.0000
     10 ****         1.9677   3.6580  -0.0713 C.3            1 S1                 0.0000
     11 ****         1.1355   2.5006  -0.0768 O.3            1 S1                 0.0000
     12 ****        -2.3280  -1.8964  -0.4307 N.pl3          1 S1                 0.0000
     13 ****        -2.9840  -1.3378  -1.5090 C.2            1 S1                 0.0000
     14 ****        -3.1484  -2.3195  -2.4436 C.2            1 S1                 0.0000
     15 ****        -2.5463  -3.4603  -1.8443 C.2            1 S1                 0.0000
     16 ****        -2.0520  -3.2042  -0.6444 N.2            1 S1                 0.0000
     17 ****        -2.1413  -1.4590   2.9642 H              1 S1                 0.0000
     18 ****        -1.9233  -2.9912   2.1241 H              1 S1                 0.0000
     19 ****        -3.4622  -2.1427   2.0292 H              1 S1                 0.0000
     20 ****        -2.3806  -0.2573   0.8203 H              1 S1                 0.0000
     21 ****        -0.5607   0.0708  -0.9281 H              1 S1                 0.0000
     22 ****         2.1376  -0.7209  -0.1468 H              1 S1                 0.0000
     23 ****         1.6562   0.2948  -1.4850 H              1 S1                 0.0000
     24 ****         1.6220   1.2217   1.4455 H              1 S1                 0.0000
     25 ****         3.9817   1.1993   0.9343 H              1 S1                 0.0000
     26 ****         3.6840   1.6273  -0.7554 H              1 S1                 0.0000
     27 ****         3.2018   3.3753   1.6799 H              1 S1                 0.0000
     28 ****         4.1371   3.7949   0.2386 H              1 S1                 0.0000
     29 ****         1.4875   4.4909   0.4424 H              1 S1                 0.0000
     30 ****         2.1494   3.9570  -1.1041 H              1 S1                 0.0000
     31 ****        -3.2753  -0.2978  -1.5223 H              1 S1                 0.0000
     32 ****        -3.6233  -2.2345  -3.4097 H              1 S1                 0.0000
     33 ****        -2.4504  -4.4590  -2.2441 H              1 S1                 0.0000
     34 ****        -0.0668  -1.9433   2.4418 LP             1 S1                 0.0000
     35 ****         1.3194  -1.2429   1.6751 LP             1 S1                 0.0000
     36 ****         0.3487   2.6575   0.5202 LP             1 S1                 0.0000
     37 ****         0.8173   2.3279  -1.0090 LP             1 S1                 0.0000
     38 ****        -1.5791  -3.8367  -0.0310 LP             1 S1                 0.0000
@<TRIPOS>BOND
    1    1    2 1     
    2    1   17 1     
    3    1   18 1     
    4    1   19 1     
    5    2    3 1     
    6    2   12 1     
    7    2   20 1     
    8    3    4 2     
    9    3    5 am    
   10    5    6 1     
   11    5   21 1     
   12    6    7 1     
   13    6   22 1     
   14    6   23 1     
   15    7   11 1     
   16    7    8 1     
   17    7   24 1     
   18    8    9 1     
   19    8   25 1     
   20    8   26 1     
   21    9   10 1     
   22    9   27 1     
   23    9   28 1     
   24   10   11 1     
   25   10   29 1     
   26   10   30 1     
   27   12   16 1     
   28   12   13 1     
   29   13   14 2     
   30   13   31 1     
   31   14   15 1     
   32   14   32 1     
   33   15   16 2     
   34   15   33 1     
   35    4   34 1     
   36    4   35 1     
   37   11   36 1     
   38   11   37 1     
   39   16   38 1     
@<TRIPOS>SUBSTRUCTURE
      1 S1             1
@<TRIPOS>SET
LONE_PAIRS      STATIC     ATOMS    <user>   **** ""
5 34 35 36 37 38
DONOR_HYDROGENS      STATIC     ATOMS    <user>   **** ""
1 21
ATOM$BLUE        STATIC     ATOMS    COLORGROUP SYSTEM
5 34 35 36 37 38
ATOM$RED        STATIC     ATOMS    COLORGROUP SYSTEM
1 21
