AV-unprocessed.smi:794|AV-procd|sdf|3759|dock1
  -GOLD-   22720 1193D 1   1.00000     0.00000
 Structure written by MMmdl.
 41 43  0  0  0  0  0  0  0  0  1 V2000
  137.3020  140.6582  153.8930 C   0  0  0  0  0  0  0  0  0  0  0  0
  138.0744  139.3749  153.8671 C   0  0  0  0  0  0  0  0  0  0  0  0
  139.4230  139.3874  153.4988 N   0  0  0  0  0  0  0  0  0  0  0  0
  139.9669  138.1666  153.5270 C   0  0  0  0  0  0  0  0  0  0  0  0
  141.3180  137.8827  153.1977 N   0  0  0  0  0  0  0  0  0  0  0  0
  141.9420  136.6919  153.2010 C   0  0  0  0  0  0  0  0  0  0  0  0
  141.4196  135.6145  153.4875 O   0  0  0  0  0  0  0  0  0  0  0  0
  143.2317  136.8215  152.8578 N   0  0  0  0  0  0  0  0  0  0  0  0
  144.1982  135.7266  152.7630 C   0  0  1  0  0  0  0  0  0  0  0  0
  143.8133  134.7740  151.6102 C   0  0  2  0  0  0  0  0  0  0  0  0
  144.5870  133.4526  151.7698 C   0  0  0  0  0  0  0  0  0  0  0  0
  146.0261  133.8617  151.4020 C   0  0  0  0  0  0  0  0  0  0  0  0
  145.8843  135.3622  151.0767 C   0  0  1  0  0  0  0  0  0  0  0  0
  144.5148  135.3993  150.4104 C   0  0  0  0  0  0  0  0  0  0  0  0
  145.6506  136.1534  152.3877 C   0  0  1  0  0  0  0  0  0  0  0  0
  145.8990  137.6720  152.2388 C   0  0  0  0  0  0  0  0  0  0  0  0
  147.1399  137.9107  151.6085 O   0  0  0  0  0  0  0  0  0  0  0  0
  138.8458  136.9073  154.0144 S   0  0  0  0  0  0  0  0  0  0  0  0
  137.6001  138.1205  154.1747 C   0  0  0  0  0  0  0  0  0  0  0  0
  136.2191  137.7482  154.6010 C   0  0  0  0  0  0  0  0  0  0  0  0
  136.8998  140.8539  154.8871 H   0  0  0  0  0  0  0  0  0  0  0  0
  136.4631  140.6247  153.1976 H   0  0  0  0  0  0  0  0  0  0  0  0
  137.9239  141.5102  153.6167 H   0  0  0  0  0  0  0  0  0  0  0  0
  141.8777  138.6820  152.9404 H   0  0  0  0  0  0  0  0  0  0  0  0
  143.5746  137.7459  152.6410 H   0  0  0  0  0  0  0  0  0  0  0  0
  144.1976  135.1748  153.7052 H   0  0  0  0  0  0  0  0  0  0  0  0
  142.7386  134.6294  151.4927 H   0  0  0  0  0  0  0  0  0  0  0  0
  144.5128  133.0433  152.7779 H   0  0  0  0  0  0  0  0  0  0  0  0
  144.2146  132.6984  151.0755 H   0  0  0  0  0  0  0  0  0  0  0  0
  146.7331  133.6760  152.2113 H   0  0  0  0  0  0  0  0  0  0  0  0
  146.3687  133.3070  150.5277 H   0  0  0  0  0  0  0  0  0  0  0  0
  146.7016  135.7431  150.4638 H   0  0  0  0  0  0  0  0  0  0  0  0
  144.4557  134.7878  149.5084 H   0  0  0  0  0  0  0  0  0  0  0  0
  144.1676  136.4071  150.1788 H   0  0  0  0  0  0  0  0  0  0  0  0
  146.3327  135.7899  153.1581 H   0  0  0  0  0  0  0  0  0  0  0  0
  145.1081  138.1546  151.6644 H   0  0  0  0  0  0  0  0  0  0  0  0
  145.9304  138.1513  153.2172 H   0  0  0  0  0  0  0  0  0  0  0  0
  147.8206  137.5007  152.1202 H   0  0  0  0  0  0  0  0  0  0  0  0
  135.4786  138.1517  153.9101 H   0  0  0  0  0  0  0  0  0  0  0  0
  136.0034  138.1410  155.5948 H   0  0  0  0  0  0  0  0  0  0  0  0
  136.0927  136.6657  154.6319 H   0  0  0  0  0  0  0  0  0  0  0  0
  1  2  1  0  0  0  0
  1 21  1  0  0  0  0
  1 22  1  0  0  0  0
  1 23  1  0  0  0  0
  2 19  2  0  0  0  0
  2  3  1  0  0  0  0
  3  4  2  0  0  0  0
  4  5  1  0  0  0  0
  4 18  1  0  0  0  0
  5  6  1  0  0  0  0
  5 24  1  0  0  0  0
  6  7  2  0  0  0  0
  6  8  1  0  0  0  0
  8  9  1  0  0  0  0
  8 25  1  0  0  0  0
  9 15  1  0  0  0  0
  9 10  1  0  0  0  0
  9 26  1  0  0  0  0
 10 14  1  0  0  0  0
 10 11  1  0  0  0  0
 10 27  1  0  0  0  0
 11 12  1  0  0  0  0
 11 28  1  0  0  0  0
 11 29  1  0  0  0  0
 12 13  1  0  0  0  0
 12 30  1  0  0  0  0
 12 31  1  0  0  0  0
 13 14  1  0  0  0  0
 13 15  1  0  0  0  0
 13 32  1  0  0  0  0
 14 33  1  0  0  0  0
 14 34  1  0  0  0  0
 15 16  1  0  0  0  0
 15 35  1  0  0  0  0
 16 17  1  0  0  0  0
 16 36  1  0  0  0  0
 16 37  1  0  0  0  0
 17 38  1  0  0  0  0
 18 19  1  0  0  0  0
 19 20  1  0  0  0  0
 20 39  1  0  0  0  0
 20 40  1  0  0  0  0
 20 41  1  0  0  0  0
M  END
> <s_m_source_file>
AV-unprocessed.smi

> <i_m_source_file_index>
794

> <i_lp_mmshare_version>
43012

> <i_f3d_flags>
0

> <s_epik_input>
W0NIM11jMW5jKHNjMVtDSDNdKVtOSF1DKD1PKVtOSF1bQ0BIXShbQ0BASF0yMylbQ0BIXShbQ0gyXVtPSF0pW0NAQEhdKFtDSDJdMylbQ0gyXVtDSDJdMg==

> <s_epik_cmdline>
J2VwaWtfcHl0aG9uJywgJy1waCcsICc3LjAnLCAnLXRuJywgJzgnLCAnLW1hJywgJzIwMCcsICctbWV0YWxfYmluZGluZycsICctaW1hZScsICc8aW5maWxlLm1hZT4nLCAnLW9tYWUnLCAnPG91dGZpbGUubWFlPic=

> <r_lp_tautomer_probability>
0.999

> <r_epik_Ionization_Penalty>
0.000713029

> <r_epik_Ionization_Penalty_Charging>
0

> <r_epik_Ionization_Penalty_Neutral>
0.000713029

> <r_epik_State_Penalty>
0.000177984

> <r_epik_Charging_Adjusted_Penalty>
0.000177984

> <i_epik_Tot_Q>
0

> <i_epik_Tot_abs_Q>
0

> <r_epik_Metal_State_Penalty>
-0

> <b_epik_Metal_Only>
0

> <s_lp_Force_Field>
OPLS_2005

> <r_lp_Energy>
48.0104

> <b_lp_Chiralities_Consistent>
1

> <s_lp_Variant>
AV-unprocessed.smi:794-4

> <Gold.Version>
5.8.1

> <Gold.Id.Protein>
6NUR|6NUR_protein|mol2

> <Gold.PLP.Fitness>
39.6656

> <Gold.PLP.PLP>
-35.5246

> <Gold.PLP.part.hbond>
-2.0304

> <Gold.PLP.part.metal>
0.0000

> <Gold.PLP.part.buried>
-7.1467

> <Gold.PLP.part.nonpolar>
-27.9849

> <Gold.PLP.part.repulsive>
0.8747

> <Gold.PLP.ligand.clash>
0.0000

> <Gold.PLP.ligand.torsion>
0.0954

> <Gold.PLP.Chemscore.Hbond>
1.4380

> <Gold.PLP.Chemscore.CHOScore>
0.0000

> <Gold.PLP.Chemscore.Metal>
0.0000

> <Gold.Chemscore.Hbonds>
donor molecule, donor type, donor heavy atom, donor atom, acceptor molecule, acceptor atom, score
      L1  H    17    38       P1  7948  0.69
      P1  H  7954  7966       L1    17  0.75

> <Gold.PLP.Chemscore.Internal.Correction>
0.0178

> <Gold.Rescore>
     Score         DG    S(hbond)    S(metal)    S(lipo)     H(rot)  DE(clash)    DE(int)     intcor
     13.41     -15.24       1.63        0.00      75.73       1.78       0.25       1.58       ----

> <Gold.Chemscore.Fitness>
13.4055

> <Gold.Chemscore.DG>
-15.2355

> <Gold.Chemscore.ZeroCoef>
-5.4800

> <Gold.Chemscore.Hbond>
1.6320

> <Gold.Chemscore.Metal>
0.0000

> <Gold.Chemscore.Lipo>
75.7346

> <Gold.Chemscore.Internal_Hbond>
0.0000

> <Gold.Chemscore.DEClash>
0.2532

> <Gold.Chemscore.DEInternal>
1.5768

> <Gold.Chemscore.Rot>
1.7798

> <Gold.Chemscore.Internal.Correction>
   9.000000E+99

> <Gold.Chemscore.Hbonds>
donor molecule, donor type, donor heavy atom, donor atom, acceptor molecule, acceptor atom, score
      L1  H     5    24       P1 10175  0.01
      L1  H    17    38       P1  7948  0.68
      P1  H  7954  7966       L1    17  0.09

> <Gold.Chemscore.Hbond.Weighted>
-5.4508

> <Gold.Chemscore.Metal.Weighted>
-0.0000

> <Gold.Chemscore.Lipo.Weighted>
-8.8610

> <Gold.Chemscore.Internal_Hbond.Weighted>
0.0000

> <Gold.Chemscore.DEClash.Weighted>
0.2532

> <Gold.Chemscore.DEInternal.Weighted>
1.5768

> <Gold.Chemscore.Rot.Weighted>
4.5562

> <Gold.Chemscore.Internal.Correction.Weighted>
   9.000000E+99

> <Gold.Protein.RotatedTorsions>
[ 6907 6896 6895 6894 ] final  117.30 input  -60.11 | X-H torsion
[ 7974 7965 7964 7962 ] final    6.41 input  175.53 | X-H torsion
[ 8008 7997 7996 7995 ] final -104.02 input   59.86 | X-H torsion
[ 10167 10162 10161 10158 ] final -123.30 input  -65.29 | X-H torsion
[ 10718 10713 10712 10709 ] final  121.21 input   66.30 | X-H torsion
[ 10763 10752 10751 10750 ] final  -44.08 input  -60.55 | X-H torsion
[ 11005 11000 10999 10996 ] final  170.49 input  -57.11 | X-H torsion

> <Gold.Protein.ActiveResidues>
 VAL166  LYS551  ARG553  GLY616  TRP617  ASP618  TYR619  PRO620  LYS621  CYS622 
 ASP623  PHE694  ASN695  SER759  ASP760  ASP761  ALA762  ILE779  LEU786  VAL792 
 PHE793  MET794  SER795  GLU796  ALA797  LYS798  CYS799  TRP800  GLU811  SER814 

> <Gold.Protein.RotatedAtoms>
  152.4621  133.7844  159.6867 H   0  0  0  0  0  0  0  0  0  0  0  0  # atno 6907 bound_to 6896
  150.8569  133.7692  159.3012 H   0  0  0  0  0  0  0  0  0  0  0  0  # atno 6908 bound_to 6896
  151.5269  135.1071  159.9945 H   0  0  0  0  0  0  0  0  0  0  0  0  # atno 6909 bound_to 6896
  146.2435  140.0238  142.8395 H   0  0  0  0  0  0  0  0  0  0  0  0  # atno 7974 bound_to 7965
  154.8793  140.0420  157.1773 H   0  0  0  0  0  0  0  0  0  0  0  0  # atno 8008 bound_to 7997
  154.8656  140.2950  155.5492 H   0  0  0  0  0  0  0  0  0  0  0  0  # atno 8009 bound_to 7997
  156.2999  140.2439  156.3637 H   0  0  0  0  0  0  0  0  0  0  0  0  # atno 8010 bound_to 7997
  140.0050  143.5501  152.2287 H   0  0  0  0  0  0  0  0  0  0  0  0  # atno 10167 bound_to 10162
  157.5834  131.1072  150.8142 H   0  0  0  0  0  0  0  0  0  0  0  0  # atno 10718 bound_to 10713
  154.0061  135.6687  153.4762 H   0  0  0  0  0  0  0  0  0  0  0  0  # atno 10763 bound_to 10752
  153.0641  135.5011  154.8156 H   0  0  0  0  0  0  0  0  0  0  0  0  # atno 10764 bound_to 10752
  154.7024  135.3081  154.9285 H   0  0  0  0  0  0  0  0  0  0  0  0  # atno 10765 bound_to 10752
  140.3089  134.7533  157.3975 H   0  0  0  0  0  0  0  0  0  0  0  0  # atno 11005 bound_to 11000
  145.1217  140.9466  143.4596 LP  0  0  0  0  0  0  0  0  0  0  0  0  # atno 17320 bound_to 7965
  145.0475  139.3209  143.5945 LP  0  0  0  0  0  0  0  0  0  0  0  0  # atno 17321 bound_to 7965
  139.6245  144.7635  151.2668 LP  0  0  0  0  0  0  0  0  0  0  0  0  # atno 17342 bound_to 10162
  140.7404  143.6588  150.8182 LP  0  0  0  0  0  0  0  0  0  0  0  0  # atno 17343 bound_to 10162
  156.8582  130.5104  149.5306 LP  0  0  0  0  0  0  0  0  0  0  0  0  # atno 17370 bound_to 10713
  156.0881  130.5874  150.9685 LP  0  0  0  0  0  0  0  0  0  0  0  0  # atno 17371 bound_to 10713
  140.1042  134.5431  155.8324 LP  0  0  0  0  0  0  0  0  0  0  0  0  # atno 17394 bound_to 11000
  141.2112  133.6704  156.6568 LP  0  0  0  0  0  0  0  0  0  0  0  0  # atno 17395 bound_to 11000

$$$$
