#       Name:                AV-unprocessed.smi:1524
#       Creating user name   scv26
#       Creation time:       Fri Mar 27 06:28:34 2020


#       File generated by GOLD software.
#

@<TRIPOS>MOLECULE
AV-unprocessed.smi:1524
    41    42     1
SMALL
NO_CHARGES


@<TRIPOS>ATOM
      1 ****        -0.0394   2.5736   0.2654 O.2            1 S1                 0.0000
      2 ****        -0.3459   1.3836   0.2934 C.2            1 S1                 0.0000
      3 ****         0.5243   0.3543   0.3425 N.am           1 S1                 0.0000
      4 ****         1.9287   0.3626   0.3102 C.2            1 S1                 0.0000
      5 ****         2.6924   1.4196  -0.0827 C.2            1 S1                 0.0000
      6 ****         4.1487   1.3591  -0.1110 C.2            1 S1                 0.0000
      7 ****         5.0455   2.5076  -0.5355 C.3            1 S1                 0.0000
      8 ****         5.8389   2.8683   0.4724 F              1 S1                 0.0000
      9 ****         5.8183   2.1369  -1.5559 F              1 S1                 0.0000
     10 ****         4.3333   3.5700  -0.9112 F              1 S1                 0.0000
     11 ****         4.6319   0.1275   0.2834 C.2            1 S1                 0.0000
     12 ****         3.9474  -0.9690   0.6765 N.pl3          1 S1                -1.0000
     13 ****         2.5863  -0.9005   0.7054 C.2            1 S1                 0.0000
     14 ****         1.9001  -1.8632   1.0510 O.2            1 S1                 0.0000
     15 ****        -1.6377   1.0061   0.3020 N.am           1 S1                 0.0000
     16 ****        -2.8339   1.8510   0.2589 C.3            1 S1                 0.0000
     17 ****        -3.1339   2.4557   1.6428 C.3            1 S1                 0.0000
     18 ****        -4.4826   3.1935   1.6357 C.3            1 S1                 0.0000
     19 ****        -5.5199   2.3127   1.2173 O.3            1 S1                 0.0000
     20 ****        -5.3364   1.8347  -0.1108 C.3            1 S1                 0.0000
     21 ****        -4.0387   1.0151  -0.1992 C.3            1 S1                 0.0000
     22 ****         0.1197  -0.5655   0.4408 H              1 S1                 0.0000
     23 ****         2.2355   2.3391  -0.4085 H              1 S1                 0.0000
     24 ****         5.7365   0.0077   0.2814 H              1 S1                 0.0000
     25 ****        -1.8095   0.0140   0.3772 H              1 S1                 0.0000
     26 ****        -2.6927   2.6565  -0.4642 H              1 S1                 0.0000
     27 ****        -3.1633   1.6647   2.3935 H              1 S1                 0.0000
     28 ****        -2.3409   3.1412   1.9436 H              1 S1                 0.0000
     29 ****        -4.7138   3.5588   2.6364 H              1 S1                 0.0000
     30 ****        -4.4447   4.0650   0.9804 H              1 S1                 0.0000
     31 ****        -6.1903   1.2140  -0.3825 H              1 S1                 0.0000
     32 ****        -5.3166   2.6715  -0.8108 H              1 S1                 0.0000
     33 ****        -3.8888   0.6630  -1.2205 H              1 S1                 0.0000
     34 ****        -4.1349   0.1264   0.4265 H              1 S1                 0.0000
     35 ****         0.9238   2.8423   0.2787 LP             1 S1                 0.0000
     36 ****        -0.7532   3.2731   0.2294 LP             1 S1                 0.0000
     37 ****         4.4257  -1.8071   0.9388 LP             1 S1                 0.0000
     38 ****         0.9030  -1.7878   1.0632 LP             1 S1                 0.0000
     39 ****         2.3401  -2.7202   1.3194 LP             1 S1                 0.0000
     40 ****        -6.3914   2.8010   1.2634 LP             1 S1                 0.0000
     41 ****        -5.5435   1.5293   1.8383 LP             1 S1                 0.0000
@<TRIPOS>BOND
    1    1    2 2     
    2    2    3 am    
    3    2   15 am    
    4    3    4 1     
    5    3   22 1     
    6    4   13 1     
    7    4    5 2     
    8    5    6 1     
    9    5   23 1     
   10    6    7 1     
   11    6   11 2     
   12    7    8 1     
   13    7    9 1     
   14    7   10 1     
   15   11   12 1     
   16   11   24 1     
   17   12   13 1     
   18   13   14 2     
   19   15   16 1     
   20   15   25 1     
   21   16   21 1     
   22   16   17 1     
   23   16   26 1     
   24   17   18 1     
   25   17   27 1     
   26   17   28 1     
   27   18   19 1     
   28   18   29 1     
   29   18   30 1     
   30   19   20 1     
   31   20   21 1     
   32   20   31 1     
   33   20   32 1     
   34   21   33 1     
   35   21   34 1     
   36    1   35 1     
   37    1   36 1     
   38   12   37 1     
   39   14   38 1     
   40   14   39 1     
   41   19   40 1     
   42   19   41 1     
@<TRIPOS>SUBSTRUCTURE
      1 S1             1
@<TRIPOS>SET
LONE_PAIRS      STATIC     ATOMS    <user>   **** ""
7 35 36 37 38 39 40 41
DONOR_HYDROGENS      STATIC     ATOMS    <user>   **** ""
2 22 25
ATOM$BLUE        STATIC     ATOMS    COLORGROUP SYSTEM
7 35 36 37 38 39 40 41
ATOM$RED        STATIC     ATOMS    COLORGROUP SYSTEM
2 22 25
