AV-unprocessed.smi:1200|AV-procd|sdf|5023|dock7
  -GOLD-   22720 4 43D 1   1.00000     0.00000
 Structure written by MMmdl.
 43 44  0  0  0  0  0  0  0  0  2 V2000
  151.6713  137.8157  154.2079 C   0  0  0  0  0  0  0  0  0  0  0  0
  150.3529  137.2027  154.2675 N   0  0  0  0  0  0  0  0  0  0  0  0
  149.5477  137.2499  155.3378 C   0  0  0  0  0  0  0  0  0  0  0  0
  149.8535  137.8170  156.3876 O   0  0  0  0  0  0  0  0  0  0  0  0
  148.2009  136.5316  155.2042 C   0  0  0  0  0  0  0  0  0  0  0  0
  148.2922  135.2669  154.4299 N   0  3  2  0  0  0  0  0  0  0  0  0
  146.9719  134.6094  154.2572 C   0  0  0  0  0  0  0  0  0  0  0  0
  147.0774  133.3898  153.3258 C   0  0  0  0  0  0  0  0  0  0  0  0
  148.1169  132.3832  153.8442 C   0  0  1  0  0  0  0  0  0  0  0  0
  148.2592  131.2815  152.8961 N   0  0  0  0  0  0  0  0  0  0  0  0
  148.2097  129.9793  153.2127 C   0  0  0  0  0  0  0  0  0  0  0  0
  148.0354  129.5700  154.3599 O   0  0  0  0  0  0  0  0  0  0  0  0
  148.3650  129.2100  152.1211 N   0  0  0  0  0  0  0  0  0  0  0  0
  148.3424  127.7919  152.0097 C   0  0  0  0  0  0  0  0  0  0  0  0
  148.4185  127.0749  150.7902 C   0  0  0  0  0  0  0  0  0  0  0  0
  148.3788  125.6674  150.8252 C   0  0  0  0  0  0  0  0  0  0  0  0
  148.2577  125.0276  152.0736 C   0  0  0  0  0  0  0  0  0  0  0  0
  148.1724  125.6970  153.2421 N   0  0  0  0  0  0  0  0  0  0  0  0
  148.2119  127.0459  153.2008 C   0  0  0  0  0  0  0  0  0  0  0  0
  149.4644  133.0961  154.0580 C   0  0  0  0  0  0  0  0  0  0  0  0
  149.3058  134.3225  154.9717 C   0  0  0  0  0  0  0  0  0  0  0  0
  152.1409  137.5954  153.2491 H   0  0  0  0  0  0  0  0  0  0  0  0
  152.3164  137.4323  154.9997 H   0  0  0  0  0  0  0  0  0  0  0  0
  151.5995  138.8994  154.3111 H   0  0  0  0  0  0  0  0  0  0  0  0
  150.0362  136.7111  153.4441 H   0  0  0  0  0  0  0  0  0  0  0  0
  147.7698  136.3386  156.1880 H   0  0  0  0  0  0  0  0  0  0  0  0
  147.5283  137.2254  154.6982 H   0  0  0  0  0  0  0  0  0  0  0  0
  146.5833  134.3091  155.2317 H   0  0  0  0  0  0  0  0  0  0  0  0
  146.2587  135.3188  153.8356 H   0  0  0  0  0  0  0  0  0  0  0  0
  146.1022  132.9089  153.2374 H   0  0  0  0  0  0  0  0  0  0  0  0
  147.3499  133.7234  152.3231 H   0  0  0  0  0  0  0  0  0  0  0  0
  147.7639  131.9933  154.8012 H   0  0  0  0  0  0  0  0  0  0  0  0
  148.4033  131.5283  151.9277 H   0  0  0  0  0  0  0  0  0  0  0  0
  148.4602  129.7039  151.2456 H   0  0  0  0  0  0  0  0  0  0  0  0
  148.4966  127.5639  149.8324 H   0  0  0  0  0  0  0  0  0  0  0  0
  148.4373  125.0906  149.9140 H   0  0  0  0  0  0  0  0  0  0  0  0
  148.2244  123.9500  152.1345 H   0  0  0  0  0  0  0  0  0  0  0  0
  148.1403  127.5470  154.1552 H   0  0  0  0  0  0  0  0  0  0  0  0
  150.1903  132.4079  154.4926 H   0  0  0  0  0  0  0  0  0  0  0  0
  149.8749  133.4118  153.0976 H   0  0  0  0  0  0  0  0  0  0  0  0
  150.2702  134.8215  155.0701 H   0  0  0  0  0  0  0  0  0  0  0  0
  149.0123  134.0064  155.9741 H   0  0  0  0  0  0  0  0  0  0  0  0
  148.6009  135.5305  153.5046 H   0  0  0  0  0  0  0  0  0  0  0  0
  1  2  1  0  0  0  0
  1 22  1  0  0  0  0
  1 23  1  0  0  0  0
  1 24  1  0  0  0  0
  2  3  1  0  0  0  0
  2 25  1  0  0  0  0
  3  4  2  0  0  0  0
  3  5  1  0  0  0  0
  5  6  1  0  0  0  0
  5 26  1  0  0  0  0
  5 27  1  0  0  0  0
  6 21  1  0  0  0  0
  6  7  1  0  0  0  0
  6 43  1  0  0  0  0
  7  8  1  0  0  0  0
  7 28  1  0  0  0  0
  7 29  1  0  0  0  0
  8  9  1  0  0  0  0
  8 30  1  0  0  0  0
  8 31  1  0  0  0  0
  9 10  1  0  0  0  0
  9 20  1  0  0  0  0
  9 32  1  0  0  0  0
 10 11  1  0  0  0  0
 10 33  1  0  0  0  0
 11 12  2  0  0  0  0
 11 13  1  0  0  0  0
 13 14  1  0  0  0  0
 13 34  1  0  0  0  0
 14 19  1  0  0  0  0
 14 15  2  0  0  0  0
 15 16  1  0  0  0  0
 15 35  1  0  0  0  0
 16 17  2  0  0  0  0
 16 36  1  0  0  0  0
 17 18  1  0  0  0  0
 17 37  1  0  0  0  0
 18 19  2  0  0  0  0
 19 38  1  0  0  0  0
 20 21  1  0  0  0  0
 20 39  1  0  0  0  0
 20 40  1  0  0  0  0
 21 41  1  0  0  0  0
 21 42  1  0  0  0  0
M  CHG  1   6   1
M  END
> <s_m_source_file>
AV-unprocessed.smi

> <i_m_source_file_index>
1200

> <i_lp_mmshare_version>
43012

> <i_f3d_flags>
0

> <s_epik_input>
W0NIM11bTkhdQyg9TylbQ0gyXU4xW0NIMl1bQ0gyXVtDSF0oW0NIMl1bQ0gyXTEpW05IXUMoPU8pW05IXWMyW2NIXVtjSF1bY0hdbltjSF0y

> <s_epik_cmdline>
J2VwaWtfcHl0aG9uJywgJy1waCcsICc3LjAnLCAnLXRuJywgJzgnLCAnLW1hJywgJzIwMCcsICctbWV0YWxfYmluZGluZycsICctaW1hZScsICc8aW5maWxlLm1hZT4nLCAnLW9tYWUnLCAnPG91dGZpbGUubWFlPic=

> <r_epik_Ionization_Penalty>
0.842849

> <r_epik_Ionization_Penalty_Charging>
0.838844

> <r_epik_Ionization_Penalty_Neutral>
0.00400543

> <r_epik_State_Penalty>
0.858736

> <r_epik_Charging_Adjusted_Penalty>
1.69758

> <i_epik_Tot_Q>
1

> <i_epik_Tot_abs_Q>
1

> <r_epik_Metal_State_Penalty>
0.860766

> <b_epik_Metal_Only>
0

> <s_lp_Force_Field>
OPLS_2005

> <r_lp_Energy>
18.0189

> <b_lp_Chiralities_Consistent>
1

> <s_lp_Variant>
AV-unprocessed.smi:1200-2

> <Gold.Version>
5.8.1

> <Gold.Id.Protein>
6NUR|6NUR_protein|mol2

> <Gold.PLP.Fitness>
45.1884

> <Gold.PLP.PLP>
-31.3973

> <Gold.PLP.part.hbond>
-4.6144

> <Gold.PLP.part.metal>
0.0000

> <Gold.PLP.part.buried>
-1.7638

> <Gold.PLP.part.nonpolar>
-25.8327

> <Gold.PLP.part.repulsive>
0.2054

> <Gold.PLP.ligand.clash>
0.0000

> <Gold.PLP.ligand.torsion>
0.4328

> <Gold.PLP.Chemscore.Hbond>
4.8800

> <Gold.PLP.Chemscore.CHOScore>
0.0000

> <Gold.PLP.Chemscore.Metal>
0.0000

> <Gold.Chemscore.Hbonds>
donor molecule, donor type, donor heavy atom, donor atom, acceptor molecule, acceptor atom, score
      L1  H     2    25       P1  7948  0.80
      L1  H     6    43       P1  7948  2.00
      L1  H    10    33       P1 10747  0.85
      L1  H    13    34       P1 10747  1.00

> <Gold.PLP.Chemscore.Internal.Correction>
0.0167

> <Gold.Rescore>
     Score         DG    S(hbond)    S(metal)    S(lipo)     H(rot)  DE(clash)    DE(int)     intcor
     18.06     -19.99       3.40        0.00      63.83       1.69       0.03       1.89       ----

> <Gold.Chemscore.Fitness>
18.0574

> <Gold.Chemscore.DG>
-19.9855

> <Gold.Chemscore.ZeroCoef>
-5.4800

> <Gold.Chemscore.Hbond>
3.4001

> <Gold.Chemscore.Metal>
0.0000

> <Gold.Chemscore.Lipo>
63.8337

> <Gold.Chemscore.Internal_Hbond>
0.0000

> <Gold.Chemscore.DEClash>
0.0332

> <Gold.Chemscore.DEInternal>
1.8948

> <Gold.Chemscore.Rot>
1.6873

> <Gold.Chemscore.Internal.Correction>
   9.000000E+99

> <Gold.Chemscore.Hbonds>
donor molecule, donor type, donor heavy atom, donor atom, acceptor molecule, acceptor atom, score
      L1  H     2    25       P1  7948  0.12
      L1  H     6    43       P1  7948  0.98
      L1  H    10    33       P1 10747  0.85
      L1  H    13    34       P1 10747  0.28

> <Gold.Chemscore.Hbond.Weighted>
-11.3563

> <Gold.Chemscore.Metal.Weighted>
-0.0000

> <Gold.Chemscore.Lipo.Weighted>
-7.4685

> <Gold.Chemscore.Internal_Hbond.Weighted>
0.0000

> <Gold.Chemscore.DEClash.Weighted>
0.0332

> <Gold.Chemscore.DEInternal.Weighted>
1.8948

> <Gold.Chemscore.Rot.Weighted>
4.3194

> <Gold.Chemscore.Internal.Correction.Weighted>
   9.000000E+99

> <Gold.Protein.RotatedTorsions>
[ 6907 6896 6895 6894 ] final  102.36 input  -60.11 | X-H torsion
[ 7974 7965 7964 7962 ] final -128.26 input  175.53 | X-H torsion
[ 8008 7997 7996 7995 ] final   81.33 input   59.86 | X-H torsion
[ 10167 10162 10161 10158 ] final  137.40 input  -65.29 | X-H torsion
[ 10718 10713 10712 10709 ] final -140.85 input   66.30 | X-H torsion
[ 10763 10752 10751 10750 ] final   23.13 input  -60.55 | X-H torsion
[ 11005 11000 10999 10996 ] final  110.53 input  -57.11 | X-H torsion

> <Gold.Protein.ActiveResidues>
 VAL166  LYS551  ARG553  GLY616  TRP617  ASP618  TYR619  PRO620  LYS621  CYS622 
 ASP623  PHE694  ASN695  SER759  ASP760  ASP761  ALA762  ILE779  LEU786  VAL792 
 PHE793  MET794  SER795  GLU796  ALA797  LYS798  CYS799  TRP800  GLU811  SER814 

> <Gold.Protein.RotatedAtoms>
  152.5325  133.9987  159.7884 H   0  0  0  0  0  0  0  0  0  0  0  0  # atno 6907 bound_to 6896
  151.0209  133.5869  159.2678 H   0  0  0  0  0  0  0  0  0  0  0  0  # atno 6908 bound_to 6896
  151.2909  135.0748  159.9257 H   0  0  0  0  0  0  0  0  0  0  0  0  # atno 6909 bound_to 6896
  144.9689  140.7524  143.4683 H   0  0  0  0  0  0  0  0  0  0  0  0  # atno 7974 bound_to 7965
  155.8957  140.3436  155.5989 H   0  0  0  0  0  0  0  0  0  0  0  0  # atno 8008 bound_to 7997
  155.7559  140.0826  157.2198 H   0  0  0  0  0  0  0  0  0  0  0  0  # atno 8009 bound_to 7997
  154.4038  140.1544  156.2764 H   0  0  0  0  0  0  0  0  0  0  0  0  # atno 8010 bound_to 7997
  139.5145  144.6412  151.5565 H   0  0  0  0  0  0  0  0  0  0  0  0  # atno 10167 bound_to 10162
  156.3271  130.7566  151.1676 H   0  0  0  0  0  0  0  0  0  0  0  0  # atno 10718 bound_to 10713
  153.0862  135.6633  153.9945 H   0  0  0  0  0  0  0  0  0  0  0  0  # atno 10763 bound_to 10752
  153.9554  135.2979  155.3438 H   0  0  0  0  0  0  0  0  0  0  0  0  # atno 10764 bound_to 10752
  154.7270  135.5140  153.8974 H   0  0  0  0  0  0  0  0  0  0  0  0  # atno 10765 bound_to 10752
  139.8884  134.9486  156.6293 H   0  0  0  0  0  0  0  0  0  0  0  0  # atno 11005 bound_to 11000
  145.2589  139.2000  143.4903 LP  0  0  0  0  0  0  0  0  0  0  0  0  # atno 17320 bound_to 7965
  146.3376  140.2515  142.8599 LP  0  0  0  0  0  0  0  0  0  0  0  0  # atno 17321 bound_to 7965
  140.6179  143.9314  150.6503 LP  0  0  0  0  0  0  0  0  0  0  0  0  # atno 17342 bound_to 10162
  140.2578  143.3546  152.1349 LP  0  0  0  0  0  0  0  0  0  0  0  0  # atno 17343 bound_to 10162
  157.7423  131.0491  150.5032 LP  0  0  0  0  0  0  0  0  0  0  0  0  # atno 17370 bound_to 10713
  156.5193  130.4158  149.6259 LP  0  0  0  0  0  0  0  0  0  0  0  0  # atno 17371 bound_to 10713
  140.7679  133.8763  155.8468 LP  0  0  0  0  0  0  0  0  0  0  0  0  # atno 17394 bound_to 11000
  140.9867  134.1333  157.4446 LP  0  0  0  0  0  0  0  0  0  0  0  0  # atno 17395 bound_to 11000

$$$$
