AV-unprocessed.smi:2751|AV-procd|sdf|10600|dock1
  -GOLD-   2272015 53D 1   1.00000     0.00000
 Structure written by MMmdl.
 34 35  0  0  0  0  0  0  0  0  1 V2000
  153.1748  139.5825  154.9461 O   0  0  0  0  0  0  0  0  0  0  0  0
  152.0387  139.1768  155.2114 C   0  0  0  0  0  0  0  0  0  0  0  0
  151.4104  139.5432  156.3388 N   0  0  0  0  0  0  0  0  0  0  0  0
  151.9541  140.4298  157.3620 C   0  0  0  0  0  0  0  0  0  0  0  0
  151.1797  141.7573  157.4297 C   0  0  0  0  0  0  0  0  0  0  0  0
  151.9071  142.8318  158.2535 C   0  0  1  0  0  0  0  0  0  0  0  0
  151.3353  144.2397  157.9954 C   0  0  0  0  0  0  0  0  0  0  0  0
  152.0261  145.2762  158.8890 C   0  0  0  0  0  0  0  0  0  0  0  0
  151.9556  144.8270  160.3523 C   0  0  0  0  0  0  0  0  0  0  0  0
  152.4887  143.3927  160.4959 C   0  0  0  0  0  0  0  0  0  0  0  0
  151.7627  142.5180  159.6377 O   0  0  0  0  0  0  0  0  0  0  0  0
  151.2291  138.3252  154.4733 N   0  0  0  0  0  0  0  0  0  0  0  0
  150.9806  137.1306  154.9136 C   0  0  0  0  0  0  0  0  0  0  0  0
  150.1987  136.1553  154.3153 N   0  0  0  0  0  0  0  0  0  0  0  0
  150.2060  135.0502  155.1206 C   0  0  0  0  0  0  0  0  0  0  0  0
  150.9617  135.3164  156.1820 C   0  0  0  0  0  0  0  0  0  0  0  0
  151.4516  136.5837  156.0853 O   0  0  0  0  0  0  0  0  0  0  0  0
  150.4832  139.1773  156.5001 H   0  0  0  0  0  0  0  0  0  0  0  0
  151.9499  139.9296  158.3319 H   0  0  0  0  0  0  0  0  0  0  0  0
  152.9990  140.6226  157.1186 H   0  0  0  0  0  0  0  0  0  0  0  0
  151.0260  142.1278  156.4153 H   0  0  0  0  0  0  0  0  0  0  0  0
  150.1868  141.5894  157.8484 H   0  0  0  0  0  0  0  0  0  0  0  0
  152.9665  142.8187  157.9907 H   0  0  0  0  0  0  0  0  0  0  0  0
  151.4588  144.5122  156.9470 H   0  0  0  0  0  0  0  0  0  0  0  0
  150.2630  144.2444  158.1956 H   0  0  0  0  0  0  0  0  0  0  0  0
  153.0688  145.3840  158.5878 H   0  0  0  0  0  0  0  0  0  0  0  0
  151.5607  146.2548  158.7678 H   0  0  0  0  0  0  0  0  0  0  0  0
  152.5252  145.5081  160.9850 H   0  0  0  0  0  0  0  0  0  0  0  0
  150.9223  144.8674  160.6991 H   0  0  0  0  0  0  0  0  0  0  0  0
  153.5536  143.3475  160.2626 H   0  0  0  0  0  0  0  0  0  0  0  0
  152.3742  143.0515  161.5249 H   0  0  0  0  0  0  0  0  0  0  0  0
  149.6927  136.2070  153.4428 H   0  0  0  0  0  0  0  0  0  0  0  0
  149.6526  134.1663  154.8399 H   0  0  0  0  0  0  0  0  0  0  0  0
  151.2351  134.7382  157.0524 H   0  0  0  0  0  0  0  0  0  0  0  0
  1  2  2  0  0  0  0
  2 12  1  0  0  0  0
  2  3  1  0  0  0  0
  3  4  1  0  0  0  0
  3 18  1  0  0  0  0
  4  5  1  0  0  0  0
  4 19  1  0  0  0  0
  4 20  1  0  0  0  0
  5  6  1  0  0  0  0
  5 21  1  0  0  0  0
  5 22  1  0  0  0  0
  6 11  1  0  0  0  0
  6  7  1  0  0  0  0
  6 23  1  0  0  0  0
  7  8  1  0  0  0  0
  7 24  1  0  0  0  0
  7 25  1  0  0  0  0
  8  9  1  0  0  0  0
  8 26  1  0  0  0  0
  8 27  1  0  0  0  0
  9 10  1  0  0  0  0
  9 28  1  0  0  0  0
  9 29  1  0  0  0  0
 10 11  1  0  0  0  0
 10 30  1  0  0  0  0
 10 31  1  0  0  0  0
 12 13  2  0  0  0  0
 13 17  1  0  0  0  0
 13 14  1  0  0  0  0
 14 32  1  0  0  0  0
 14 15  1  0  0  0  0
 15 33  1  0  0  0  0
 15 16  2  0  0  0  0
 16 34  1  0  0  0  0
 16 17  1  0  0  0  0
M  END
> <s_m_source_file>
AV-unprocessed.smi

> <i_m_source_file_index>
2751

> <i_lp_mmshare_version>
43012

> <i_f3d_flags>
0

> <s_epik_input>
bzFbY0hdW2NIXW5jMVtOSF1DKD1PKVtOSF1bQ0gyXVtDSDJdW0NAQEhdMltDSDJdW0NIMl1bQ0gyXVtDSDJdTzI=

> <s_epik_cmdline>
J2VwaWtfcHl0aG9uJywgJy1waCcsICc3LjAnLCAnLXRuJywgJzgnLCAnLW1hJywgJzIwMCcsICctbWV0YWxfYmluZGluZycsICctaW1hZScsICc8aW5maWxlLm1hZT4nLCAnLW9tYWUnLCAnPG91dGZpbGUubWFlPic=

> <r_lp_tautomer_probability>
0.107061

> <r_epik_Ionization_Penalty>
1.421

> <r_epik_Ionization_Penalty_Charging>
1.42064

> <r_epik_Ionization_Penalty_Neutral>
0.0003614

> <r_epik_State_Penalty>
2.61489

> <r_epik_Charging_Adjusted_Penalty>
4.03553

> <i_epik_Tot_Q>
0

> <i_epik_Tot_abs_Q>
0

> <r_epik_Metal_State_Penalty>
3.57288

> <b_epik_Metal_Only>
0

> <s_lp_Force_Field>
OPLS_2005

> <r_lp_Energy>
32.4841

> <b_lp_Chiralities_Consistent>
1

> <s_lp_Variant>
AV-unprocessed.smi:2751-6

> <Gold.Version>
5.8.1

> <Gold.Id.Protein>
6NUR|6NUR_protein|mol2

> <Gold.PLP.Fitness>
41.2500

> <Gold.PLP.PLP>
-36.8452

> <Gold.PLP.part.hbond>
-4.3721

> <Gold.PLP.part.metal>
0.0000

> <Gold.PLP.part.buried>
-5.0515

> <Gold.PLP.part.nonpolar>
-28.6784

> <Gold.PLP.part.repulsive>
0.3701

> <Gold.PLP.ligand.clash>
0.0000

> <Gold.PLP.ligand.torsion>
0.8409

> <Gold.PLP.Chemscore.Hbond>
2.0146

> <Gold.PLP.Chemscore.CHOScore>
0.0000

> <Gold.PLP.Chemscore.Metal>
0.0000

> <Gold.Chemscore.Hbonds>
donor molecule, donor type, donor heavy atom, donor atom, acceptor molecule, acceptor atom, score
      L1  H    14    32       P1  7948  1.00
      P1  H  7997  8008       L1     1  1.00
      P1  H 10752 10765       L1    17  0.02

> <Gold.PLP.Chemscore.Internal.Correction>
0.0426

> <Gold.Rescore>
     Score         DG    S(hbond)    S(metal)    S(lipo)     H(rot)  DE(clash)    DE(int)     intcor
     15.13     -17.18       1.88        0.00      82.21       1.63       0.01       2.03       ----

> <Gold.Chemscore.Fitness>
15.1335

> <Gold.Chemscore.DG>
-17.1815

> <Gold.Chemscore.ZeroCoef>
-5.4800

> <Gold.Chemscore.Hbond>
1.8751

> <Gold.Chemscore.Metal>
0.0000

> <Gold.Chemscore.Lipo>
82.2108

> <Gold.Chemscore.Internal_Hbond>
0.0000

> <Gold.Chemscore.DEClash>
0.0146

> <Gold.Chemscore.DEInternal>
2.0334

> <Gold.Chemscore.Rot>
1.6328

> <Gold.Chemscore.Internal.Correction>
   9.000000E+99

> <Gold.Chemscore.Hbonds>
donor molecule, donor type, donor heavy atom, donor atom, acceptor molecule, acceptor atom, score
      L1  H    14    32       P1  7948  0.26
      P1  H  7997  8008       L1     1  1.00

> <Gold.Chemscore.Hbond.Weighted>
-6.2627

> <Gold.Chemscore.Metal.Weighted>
-0.0000

> <Gold.Chemscore.Lipo.Weighted>
-9.6187

> <Gold.Chemscore.Internal_Hbond.Weighted>
0.0000

> <Gold.Chemscore.DEClash.Weighted>
0.0146

> <Gold.Chemscore.DEInternal.Weighted>
2.0334

> <Gold.Chemscore.Rot.Weighted>
4.1799

> <Gold.Chemscore.Internal.Correction.Weighted>
   9.000000E+99

> <Gold.Protein.RotatedTorsions>
[ 6907 6896 6895 6894 ] final   50.16 input  -60.11 | X-H torsion
[ 7974 7965 7964 7962 ] final   22.48 input  175.53 | X-H torsion
[ 8008 7997 7996 7995 ] final  -10.46 input   59.86 | X-H torsion
[ 10167 10162 10161 10158 ] final   60.90 input  -65.29 | X-H torsion
[ 10718 10713 10712 10709 ] final   53.54 input   66.30 | X-H torsion
[ 10763 10752 10751 10750 ] final -139.46 input  -60.55 | X-H torsion
[ 11005 11000 10999 10996 ] final  158.49 input  -57.11 | X-H torsion

> <Gold.Protein.ActiveResidues>
 VAL166  LYS551  ARG553  GLY616  TRP617  ASP618  TYR619  PRO620  LYS621  CYS622 
 ASP623  PHE694  ASN695  SER759  ASP760  ASP761  ALA762  ILE779  LEU786  VAL792 
 PHE793  MET794  SER795  GLU796  ALA797  LYS798  CYS799  TRP800  GLU811  SER814 

> <Gold.Protein.RotatedAtoms>
  152.2988  134.7636  160.0362 H   0  0  0  0  0  0  0  0  0  0  0  0  # atno 6907 bound_to 6896
  151.8156  133.3382  159.3577 H   0  0  0  0  0  0  0  0  0  0  0  0  # atno 6908 bound_to 6896
  150.7264  134.5552  159.5859 H   0  0  0  0  0  0  0  0  0  0  0  0  # atno 6909 bound_to 6896
  146.2027  139.7880  142.8749 H   0  0  0  0  0  0  0  0  0  0  0  0  # atno 7974 bound_to 7965
  154.5553  140.2328  155.8421 H   0  0  0  0  0  0  0  0  0  0  0  0  # atno 8008 bound_to 7997
  156.1982  140.3059  155.9432 H   0  0  0  0  0  0  0  0  0  0  0  0  # atno 8009 bound_to 7997
  155.2993  140.0430  157.3019 H   0  0  0  0  0  0  0  0  0  0  0  0  # atno 8010 bound_to 7997
  140.1605  144.4375  150.6711 H   0  0  0  0  0  0  0  0  0  0  0  0  # atno 10167 bound_to 10162
  157.5176  130.8543  149.8516 H   0  0  0  0  0  0  0  0  0  0  0  0  # atno 10718 bound_to 10713
  154.8608  135.3582  154.5549 H   0  0  0  0  0  0  0  0  0  0  0  0  # atno 10763 bound_to 10752
  153.6166  135.7007  153.5331 H   0  0  0  0  0  0  0  0  0  0  0  0  # atno 10764 bound_to 10752
  153.3164  135.4164  155.1340 H   0  0  0  0  0  0  0  0  0  0  0  0  # atno 10765 bound_to 10752
  140.1870  134.8435  157.2869 H   0  0  0  0  0  0  0  0  0  0  0  0  # atno 11005 bound_to 11000
  145.3428  141.0291  143.3382 LP  0  0  0  0  0  0  0  0  0  0  0  0  # atno 17320 bound_to 7965
  144.8720  139.5025  143.6763 LP  0  0  0  0  0  0  0  0  0  0  0  0  # atno 17321 bound_to 7965
  140.6646  143.2263  151.5775 LP  0  0  0  0  0  0  0  0  0  0  0  0  # atno 17342 bound_to 10162
  139.5383  144.2718  152.1298 LP  0  0  0  0  0  0  0  0  0  0  0  0  # atno 17343 bound_to 10162
  156.0331  130.3759  150.1634 LP  0  0  0  0  0  0  0  0  0  0  0  0  # atno 17370 bound_to 10713
  156.9822  130.9867  151.3434 LP  0  0  0  0  0  0  0  0  0  0  0  0  # atno 17371 bound_to 10713
  140.2202  134.4032  155.7569 LP  0  0  0  0  0  0  0  0  0  0  0  0  # atno 17394 bound_to 11000
  141.2225  133.7162  156.8479 LP  0  0  0  0  0  0  0  0  0  0  0  0  # atno 17395 bound_to 11000

$$$$
