AV-unprocessed.smi:3265|AV-procd|sdf|12498|dock6
  -GOLD-   2272018403D 1   1.00000     0.00000
 Structure written by MMmdl.
 41 42  0  0  0  0  0  0  0  0  2 V2000
  151.0798  138.1255  153.9703 C   0  0  0  0  0  0  0  0  0  0  0  0
  150.0691  138.6456  155.0055 C   0  0  2  0  0  0  0  0  0  0  0  0
  149.5999  137.5521  155.9842 C   0  0  0  0  0  0  0  0  0  0  0  0
  148.6209  136.5796  155.3105 C   0  0  0  0  0  0  0  0  0  0  0  0
  147.4537  137.3363  154.6582 C   0  0  0  0  0  0  0  0  0  0  0  0
  147.9531  138.3463  153.6920 N   0  3  1  0  0  0  0  0  0  0  0  0
  146.8639  138.9893  152.9136 C   0  0  0  0  0  0  0  0  0  0  0  0
  146.5007  138.1933  151.6425 C   0  0  0  0  0  0  0  0  0  0  0  0
  146.6293  136.7511  151.8330 N   0  0  0  0  0  0  0  0  0  0  0  0
  145.6027  135.8875  151.8780 C   0  0  0  0  0  0  0  0  0  0  0  0
  144.4297  136.2203  151.7136 O   0  0  0  0  0  0  0  0  0  0  0  0
  145.9484  134.4308  152.1827 C   0  0  0  0  0  0  0  0  0  0  0  0
  145.4358  133.5530  151.1451 N   0  0  0  0  0  0  0  0  0  0  0  0
  146.1228  132.6245  150.3904 C   0  0  0  0  0  0  0  0  0  0  0  0
  145.2238  132.0440  149.5424 C   0  0  0  0  0  0  0  0  0  0  0  0
  143.9955  132.6876  149.8600 C   0  0  0  0  0  0  0  0  0  0  0  0
  144.1267  133.5951  150.8143 N   0  0  0  0  0  0  0  0  0  0  0  0
  148.8594  139.3318  154.3388 C   0  0  0  0  0  0  0  0  0  0  0  0
  150.6330  137.3831  153.3115 H   0  0  0  0  0  0  0  0  0  0  0  0
  151.9401  137.6649  154.4565 H   0  0  0  0  0  0  0  0  0  0  0  0
  151.4524  138.9367  153.3442 H   0  0  0  0  0  0  0  0  0  0  0  0
  150.5929  139.4022  155.5914 H   0  0  0  0  0  0  0  0  0  0  0  0
  150.4535  137.0092  156.3916 H   0  0  0  0  0  0  0  0  0  0  0  0
  149.1036  138.0220  156.8347 H   0  0  0  0  0  0  0  0  0  0  0  0
  149.1418  135.9878  154.5573 H   0  0  0  0  0  0  0  0  0  0  0  0
  148.2388  135.8702  156.0449 H   0  0  0  0  0  0  0  0  0  0  0  0
  146.8107  136.6203  154.1450 H   0  0  0  0  0  0  0  0  0  0  0  0
  146.8445  137.8264  155.4195 H   0  0  0  0  0  0  0  0  0  0  0  0
  145.9693  139.0576  153.5337 H   0  0  0  0  0  0  0  0  0  0  0  0
  147.1307  140.0173  152.6645 H   0  0  0  0  0  0  0  0  0  0  0  0
  145.4869  138.4372  151.3215 H   0  0  0  0  0  0  0  0  0  0  0  0
  147.1556  138.4797  150.8198 H   0  0  0  0  0  0  0  0  0  0  0  0
  147.5617  136.3853  151.9661 H   0  0  0  0  0  0  0  0  0  0  0  0
  147.0306  134.3077  152.2422 H   0  0  0  0  0  0  0  0  0  0  0  0
  145.5376  134.1394  153.1510 H   0  0  0  0  0  0  0  0  0  0  0  0
  147.1823  132.4577  150.5183 H   0  0  0  0  0  0  0  0  0  0  0  0
  145.4135  131.2742  148.8092 H   0  0  0  0  0  0  0  0  0  0  0  0
  143.0202  132.5289  149.4238 H   0  0  0  0  0  0  0  0  0  0  0  0
  148.2967  139.8926  155.0870 H   0  0  0  0  0  0  0  0  0  0  0  0
  149.2101  140.0589  153.6058 H   0  0  0  0  0  0  0  0  0  0  0  0
  148.5078  137.8326  153.0217 H   0  0  0  0  0  0  0  0  0  0  0  0
  1  2  1  0  0  0  0
  1 19  1  0  0  0  0
  1 20  1  0  0  0  0
  1 21  1  0  0  0  0
  2 18  1  0  0  0  0
  2  3  1  0  0  0  0
  2 22  1  0  0  0  0
  3  4  1  0  0  0  0
  3 23  1  0  0  0  0
  3 24  1  0  0  0  0
  4  5  1  0  0  0  0
  4 25  1  0  0  0  0
  4 26  1  0  0  0  0
  5  6  1  0  0  0  0
  5 27  1  0  0  0  0
  5 28  1  0  0  0  0
  6  7  1  0  0  0  0
  6 18  1  0  0  0  0
  6 41  1  0  0  0  0
  7  8  1  0  0  0  0
  7 29  1  0  0  0  0
  7 30  1  0  0  0  0
  8  9  1  0  0  0  0
  8 31  1  0  0  0  0
  8 32  1  0  0  0  0
  9 10  1  0  0  0  0
  9 33  1  0  0  0  0
 10 11  2  0  0  0  0
 10 12  1  0  0  0  0
 12 13  1  0  0  0  0
 12 34  1  0  0  0  0
 12 35  1  0  0  0  0
 13 17  1  0  0  0  0
 13 14  1  0  0  0  0
 14 15  2  0  0  0  0
 14 36  1  0  0  0  0
 15 16  1  0  0  0  0
 15 37  1  0  0  0  0
 16 17  2  0  0  0  0
 16 38  1  0  0  0  0
 18 39  1  0  0  0  0
 18 40  1  0  0  0  0
M  CHG  1   6   1
M  END
> <s_m_source_file>
AV-unprocessed.smi

> <i_m_source_file_index>
3265

> <i_lp_mmshare_version>
43012

> <i_f3d_flags>
0

> <s_epik_input>
W0NIM11bQ0BASF0xW0NIMl1bQ0gyXVtDSDJdTihbQ0gyXTEpW0NIMl1bQ0gyXVtOSF1DKD1PKVtDSDJdbjJbY0hdW2NIXVtjSF1uMg==

> <s_epik_cmdline>
J2VwaWtfcHl0aG9uJywgJy1waCcsICc3LjAnLCAnLXRuJywgJzgnLCAnLW1hJywgJzIwMCcsICctbWV0YWxfYmluZGluZycsICctaW1hZScsICc8aW5maWxlLm1hZT4nLCAnLW9tYWUnLCAnPG91dGZpbGUubWFlPic=

> <r_lp_tautomer_probability>
1

> <r_epik_Ionization_Penalty>
0.00231455

> <r_epik_Ionization_Penalty_Charging>
0.00230623

> <r_epik_Ionization_Penalty_Neutral>
8.31727e-06

> <r_epik_State_Penalty>
0.00159065

> <r_epik_Charging_Adjusted_Penalty>
0.00389688

> <i_epik_Tot_Q>
1

> <i_epik_Tot_abs_Q>
1

> <r_epik_Metal_State_Penalty>
-0

> <b_epik_Metal_Only>
0

> <s_lp_Force_Field>
OPLS_2005

> <r_lp_Energy>
23.6627

> <b_lp_Chiralities_Consistent>
1

> <s_lp_Variant>
AV-unprocessed.smi:3265-3

> <Gold.Version>
5.8.1

> <Gold.Id.Protein>
6NUR|6NUR_protein|mol2

> <Gold.PLP.Fitness>
43.0368

> <Gold.PLP.PLP>
-30.5943

> <Gold.PLP.part.hbond>
-1.6124

> <Gold.PLP.part.metal>
0.0000

> <Gold.PLP.part.buried>
-5.0671

> <Gold.PLP.part.nonpolar>
-26.7233

> <Gold.PLP.part.repulsive>
1.2638

> <Gold.PLP.ligand.clash>
0.0000

> <Gold.PLP.ligand.torsion>
0.6357

> <Gold.PLP.Chemscore.Hbond>
2.8125

> <Gold.PLP.Chemscore.CHOScore>
1.7472

> <Gold.PLP.Chemscore.Metal>
0.0000

> <Gold.Chemscore.Hbonds>
donor molecule, donor type, donor heavy atom, donor atom, acceptor molecule, acceptor atom, score
      L1  H     6    41       P1  7948  2.00
      L1  H     9    33       P1  7948  0.63
      L1  C    14    36       P1 10747  1.00
      L1  C    16    38       P1 10186  0.37

> <Gold.PLP.Chemscore.Internal.Correction>
0.0348

> <Gold.Rescore>
     Score         DG    S(hbond)    S(metal)    S(lipo)     H(rot)  DE(clash)    DE(int)     intcor
     13.93     -16.49       1.96        0.00      78.24       1.84       0.41       2.15       ----

> <Gold.Chemscore.Fitness>
13.9303

> <Gold.Chemscore.DG>
-16.4853

> <Gold.Chemscore.ZeroCoef>
-5.4800

> <Gold.Chemscore.Hbond>
1.9633

> <Gold.Chemscore.Metal>
0.0000

> <Gold.Chemscore.Lipo>
78.2446

> <Gold.Chemscore.Internal_Hbond>
0.0000

> <Gold.Chemscore.DEClash>
0.4072

> <Gold.Chemscore.DEInternal>
2.1478

> <Gold.Chemscore.Rot>
1.8386

> <Gold.Chemscore.Internal.Correction>
   9.000000E+99

> <Gold.Chemscore.Hbonds>
donor molecule, donor type, donor heavy atom, donor atom, acceptor molecule, acceptor atom, score
      L1  H     6    41       P1  7948  0.94
      L1  H     9    33       P1  7948  0.62

> <Gold.Chemscore.Hbond.Weighted>
-6.5576

> <Gold.Chemscore.Metal.Weighted>
-0.0000

> <Gold.Chemscore.Lipo.Weighted>
-9.1546

> <Gold.Chemscore.Internal_Hbond.Weighted>
0.0000

> <Gold.Chemscore.DEClash.Weighted>
0.4072

> <Gold.Chemscore.DEInternal.Weighted>
2.1478

> <Gold.Chemscore.Rot.Weighted>
4.7069

> <Gold.Chemscore.Internal.Correction.Weighted>
   9.000000E+99

> <Gold.Protein.RotatedTorsions>
[ 6907 6896 6895 6894 ] final  -91.21 input  -60.11 | X-H torsion
[ 7974 7965 7964 7962 ] final  -99.64 input  175.53 | X-H torsion
[ 8008 7997 7996 7995 ] final -151.01 input   59.86 | X-H torsion
[ 10167 10162 10161 10158 ] final -113.92 input  -65.29 | X-H torsion
[ 10718 10713 10712 10709 ] final   86.90 input   66.30 | X-H torsion
[ 10763 10752 10751 10750 ] final  115.75 input  -60.55 | X-H torsion
[ 11005 11000 10999 10996 ] final  -95.18 input  -57.11 | X-H torsion

> <Gold.Protein.ActiveResidues>
 VAL166  LYS551  ARG553  GLY616  TRP617  ASP618  TYR619  PRO620  LYS621  CYS622 
 ASP623  PHE694  ASN695  SER759  ASP760  ASP761  ALA762  ILE779  LEU786  VAL792 
 PHE793  MET794  SER795  GLU796  ALA797  LYS798  CYS799  TRP800  GLU811  SER814 

> <Gold.Protein.RotatedAtoms>
  150.6890  134.2312  159.4434 H   0  0  0  0  0  0  0  0  0  0  0  0  # atno 6907 bound_to 6896
  152.0263  134.9791  160.0581 H   0  0  0  0  0  0  0  0  0  0  0  0  # atno 6908 bound_to 6896
  152.1349  133.4394  159.4775 H   0  0  0  0  0  0  0  0  0  0  0  0  # atno 6909 bound_to 6896
  145.3049  140.9386  143.2802 H   0  0  0  0  0  0  0  0  0  0  0  0  # atno 7974 bound_to 7965
  155.6326  140.0693  157.2644 H   0  0  0  0  0  0  0  0  0  0  0  0  # atno 8008 bound_to 7997
  154.4202  140.1764  156.1537 H   0  0  0  0  0  0  0  0  0  0  0  0  # atno 8009 bound_to 7997
  155.9920  140.3344  155.6766 H   0  0  0  0  0  0  0  0  0  0  0  0  # atno 8010 bound_to 7997
  140.1065  143.4565  152.1779 H   0  0  0  0  0  0  0  0  0  0  0  0  # atno 10167 bound_to 10162
  157.6934  131.0234  150.3042 H   0  0  0  0  0  0  0  0  0  0  0  0  # atno 10718 bound_to 10713
  153.5269  135.3586  155.2658 H   0  0  0  0  0  0  0  0  0  0  0  0  # atno 10763 bound_to 10752
  154.8730  135.4059  154.3195 H   0  0  0  0  0  0  0  0  0  0  0  0  # atno 10764 bound_to 10752
  153.3877  135.7070  153.6585 H   0  0  0  0  0  0  0  0  0  0  0  0  # atno 10765 bound_to 10752
  141.1449  133.8008  157.0399 H   0  0  0  0  0  0  0  0  0  0  0  0  # atno 11005 bound_to 11000
  144.9063  139.4585  143.6608 LP  0  0  0  0  0  0  0  0  0  0  0  0  # atno 17320 bound_to 7965
  146.3139  139.7846  142.8999 LP  0  0  0  0  0  0  0  0  0  0  0  0  # atno 17321 bound_to 7965
  139.5642  144.7425  151.4069 LP  0  0  0  0  0  0  0  0  0  0  0  0  # atno 17342 bound_to 10162
  140.6949  143.7773  150.7311 LP  0  0  0  0  0  0  0  0  0  0  0  0  # atno 17343 bound_to 10162
  156.3553  130.3838  149.7295 LP  0  0  0  0  0  0  0  0  0  0  0  0  # atno 17370 bound_to 10713
  156.4759  130.8018  151.3035 LP  0  0  0  0  0  0  0  0  0  0  0  0  # atno 17371 bound_to 10713
  140.0699  134.9708  157.1450 LP  0  0  0  0  0  0  0  0  0  0  0  0  # atno 17394 bound_to 11000
  140.3726  134.2374  155.7177 LP  0  0  0  0  0  0  0  0  0  0  0  0  # atno 17395 bound_to 11000

$$$$
