#       Name:                AV-unprocessed.smi:1700
#       Creating user name   scv26
#       Creation time:       Fri Mar 27 07:59:50 2020


#       File generated by GOLD software.
#

@<TRIPOS>MOLECULE
AV-unprocessed.smi:1700
    39    40     1
SMALL
NO_CHARGES


@<TRIPOS>ATOM
      1 ****        -2.3964  -3.3695   0.2046 C.3            1 S1                 0.0000
      2 ****        -3.2082  -2.0884   0.3082 C.ar           1 S1                 0.0000
      3 ****        -4.6123  -2.1498   0.1819 C.ar           1 S1                 0.0000
      4 ****        -5.3622  -0.9652   0.2786 C.ar           1 S1                 0.0000
      5 ****        -4.6714   0.2385   0.4993 C.ar           1 S1                 0.0000
      6 ****        -3.3300   0.3064   0.6205 N.ar           1 S1                 0.0000
      7 ****        -2.5909  -0.8278   0.5290 C.ar           1 S1                 0.0000
      8 ****        -1.1717  -0.8309   0.6446 N.am           1 S1                 0.0000
      9 ****        -0.3469   0.2096   0.8584 C.2            1 S1                 0.0000
     10 ****        -0.6977   1.3809   1.0052 O.2            1 S1                 0.0000
     11 ****         0.9335  -0.1863   0.8932 N.am           1 S1                 0.0000
     12 ****         2.0764   0.6978   1.0909 C.3            1 S1                 0.0000
     13 ****         2.4663   1.4195  -0.2094 C.3            1 S1                 0.0000
     14 ****         3.6216   2.4020  -0.0431 C.3            1 S1                 0.0000
     15 ****         4.1222   2.5222  -1.4648 C.3            1 S1                 0.0000
     16 ****         3.9325   1.1038  -2.0009 C.3            1 S1                 0.0000
     17 ****         2.9408   0.4911  -1.1793 O.3            1 S1                 0.0000
     18 ****        -3.0383  -4.2336   0.0311 H              1 S1                 0.0000
     19 ****        -1.8400  -3.5445   1.1258 H              1 S1                 0.0000
     20 ****        -1.6885  -3.3071  -0.6224 H              1 S1                 0.0000
     21 ****        -5.1122  -3.0922   0.0131 H              1 S1                 0.0000
     22 ****        -6.4381  -0.9790   0.1863 H              1 S1                 0.0000
     23 ****        -5.2088   1.1718   0.5808 H              1 S1                 0.0000
     24 ****        -0.7332  -1.7343   0.5480 H              1 S1                 0.0000
     25 ****         1.1356  -1.1663   0.7596 H              1 S1                 0.0000
     26 ****         1.8498   1.4249   1.8726 H              1 S1                 0.0000
     27 ****         2.9140   0.1028   1.4556 H              1 S1                 0.0000
     28 ****         1.6093   1.9482  -0.6305 H              1 S1                 0.0000
     29 ****         3.3099   3.3561   0.3827 H              1 S1                 0.0000
     30 ****         4.3999   1.9785   0.5934 H              1 S1                 0.0000
     31 ****         3.4937   3.2192  -2.0208 H              1 S1                 0.0000
     32 ****         5.1543   2.8682  -1.5288 H              1 S1                 0.0000
     33 ****         3.6293   1.1034  -3.0481 H              1 S1                 0.0000
     34 ****         4.8562   0.5306  -1.9161 H              1 S1                 0.0000
     35 ****        -2.8828   1.1871   0.7768 LP             1 S1                 0.0000
     36 ****        -1.6679   1.6205   0.9693 LP             1 S1                 0.0000
     37 ****        -0.0123   2.0924   1.1603 LP             1 S1                 0.0000
     38 ****         2.1772   0.1908  -1.7509 LP             1 S1                 0.0000
     39 ****         3.3393  -0.2990  -0.7135 LP             1 S1                 0.0000
@<TRIPOS>BOND
    1    1    2 1     
    2    1   18 1     
    3    1   19 1     
    4    1   20 1     
    5    2    7 ar    
    6    2    3 ar    
    7    3    4 ar    
    8    3   21 1     
    9    4    5 ar    
   10    4   22 1     
   11    5    6 ar    
   12    5   23 1     
   13    6    7 ar    
   14    7    8 1     
   15    8    9 am    
   16    8   24 1     
   17    9   10 2     
   18    9   11 am    
   19   11   12 1     
   20   11   25 1     
   21   12   13 1     
   22   12   26 1     
   23   12   27 1     
   24   13   17 1     
   25   13   14 1     
   26   13   28 1     
   27   14   15 1     
   28   14   29 1     
   29   14   30 1     
   30   15   16 1     
   31   15   31 1     
   32   15   32 1     
   33   16   17 1     
   34   16   33 1     
   35   16   34 1     
   36    6   35 1     
   37   10   36 1     
   38   10   37 1     
   39   17   38 1     
   40   17   39 1     
@<TRIPOS>SUBSTRUCTURE
      1 S1             1
@<TRIPOS>SET
LONE_PAIRS      STATIC     ATOMS    <user>   **** ""
5 35 36 37 38 39
DONOR_HYDROGENS      STATIC     ATOMS    <user>   **** ""
2 24 25
ATOM$BLUE        STATIC     ATOMS    COLORGROUP SYSTEM
5 35 36 37 38 39
ATOM$RED        STATIC     ATOMS    COLORGROUP SYSTEM
2 24 25
