AV-unprocessed.smi:49|AV-procd|sdf|466|dock3
  -GOLD-   2262016333D 1   1.00000     0.00000
 Structure written by MMmdl.
 28 29  0  0  0  0  0  0  0  0  2 V2000
  150.2388  130.4010  154.6204 C   0  0  0  0  0  0  0  0  0  0  0  0
  149.5989  131.7783  154.8246 C   0  0  0  0  0  0  0  0  0  0  0  0
  148.4880  132.0438  153.8625 C   0  0  0  0  0  0  0  0  0  0  0  0
  148.4448  133.0567  153.0033 N   0  0  0  0  0  0  0  0  0  0  0  0
  147.2501  132.8054  152.3888 C   0  0  0  0  0  0  0  0  0  0  0  0
  146.7348  133.6556  151.2695 C   0  0  1  0  0  0  0  0  0  0  0  0
  145.3954  133.1680  150.6916 C   0  0  0  0  0  0  0  0  0  0  0  0
  144.5551  134.4360  150.4751 C   0  0  2  0  0  0  0  0  0  0  0  0
  144.0202  134.4987  149.1697 O   0  0  0  0  0  0  0  0  0  0  0  0
  145.5092  135.6024  150.7466 C   0  0  0  0  0  0  0  0  0  0  0  0
  146.5175  135.0579  151.6663 N   0  3  0  0  0  0  0  0  0  0  0  0
  146.6030  131.7132  152.7980 N   0  0  0  0  0  0  0  0  0  0  0  0
  147.4251  131.2431  153.7601 N   0  0  0  0  0  0  0  0  0  0  0  0
  147.4752  133.6680  150.4680 H   0  0  0  0  0  0  0  0  0  0  0  0
  143.7374  134.4575  151.1970 H   0  0  0  0  0  0  0  0  0  0  0  0
  147.2343  130.4045  154.2906 H   0  0  0  0  0  0  0  0  0  0  0  0
  151.0470  130.2389  155.3339 H   0  0  0  0  0  0  0  0  0  0  0  0
  150.6557  130.3051  153.6175 H   0  0  0  0  0  0  0  0  0  0  0  0
  149.5077  129.6038  154.7577 H   0  0  0  0  0  0  0  0  0  0  0  0
  149.2168  131.8635  155.8427 H   0  0  0  0  0  0  0  0  0  0  0  0
  150.3537  132.5570  154.7095 H   0  0  0  0  0  0  0  0  0  0  0  0
  145.5556  132.5976  149.7755 H   0  0  0  0  0  0  0  0  0  0  0  0
  144.8763  132.5116  151.3917 H   0  0  0  0  0  0  0  0  0  0  0  0
  144.7303  134.6118  148.5556 H   0  0  0  0  0  0  0  0  0  0  0  0
  146.0181  135.9081  149.8308 H   0  0  0  0  0  0  0  0  0  0  0  0
  145.0057  136.4754  151.1626 H   0  0  0  0  0  0  0  0  0  0  0  0
  146.1341  135.0606  152.6009 H   0  0  0  0  0  0  0  0  0  0  0  0
  147.3762  135.5891  151.6458 H   0  0  0  0  0  0  0  0  0  0  0  0
  1  2  1  0  0  0  0
  1 17  1  0  0  0  0
  1 18  1  0  0  0  0
  1 19  1  0  0  0  0
  2  3  1  0  0  0  0
  2 20  1  0  0  0  0
  2 21  1  0  0  0  0
  3 13  1  0  0  0  0
  3  4  2  0  0  0  0
  4  5  1  0  0  0  0
  5  6  1  0  0  0  0
  5 12  2  0  0  0  0
  6 14  1  0  0  0  0
  6 11  1  0  0  0  0
  6  7  1  0  0  0  0
  7  8  1  0  0  0  0
  7 22  1  0  0  0  0
  7 23  1  0  0  0  0
  8 15  1  0  0  0  0
  8  9  1  0  0  0  0
  8 10  1  0  0  0  0
  9 24  1  0  0  0  0
 10 11  1  0  0  0  0
 10 25  1  0  0  0  0
 10 26  1  0  0  0  0
 11 27  1  0  0  0  0
 11 28  1  0  0  0  0
 12 13  1  0  0  0  0
 13 16  1  0  0  0  0
M  CHG  1  11   1
M  END
> <s_m_source_file>
AV-unprocessed.smi

> <i_m_source_file_index>
49

> <i_lp_mmshare_version>
43012

> <i_f3d_flags>
0

> <s_epik_input>
W0NIM11bQ0gyXWMxbmMobltuSF0xKVtDQEBIXTJbQ0gyXVtDQEBIXShbT0hdKVtDSDJdW05IXTI=

> <s_epik_cmdline>
J2VwaWtfcHl0aG9uJywgJy1waCcsICc3LjAnLCAnLXRuJywgJzgnLCAnLW1hJywgJzIwMCcsICctbWV0YWxfYmluZGluZycsICctaW1hZScsICc8aW5maWxlLm1hZT4nLCAnLW9tYWUnLCAnPG91dGZpbGUubWFlPic=

> <r_lp_tautomer_probability>
0.948284

> <r_epik_Ionization_Penalty>
0.045643

> <r_epik_Ionization_Penalty_Charging>
0.0371552

> <r_epik_Ionization_Penalty_Neutral>
0.00848778

> <r_epik_State_Penalty>
0.283309

> <r_epik_Charging_Adjusted_Penalty>
0.320465

> <i_epik_Tot_Q>
1

> <i_epik_Tot_abs_Q>
1

> <r_epik_Metal_State_Penalty>
0.558162

> <b_epik_Metal_Only>
0

> <s_lp_Force_Field>
OPLS_2005

> <r_lp_Energy>
17.9317

> <b_lp_Chiralities_Consistent>
1

> <s_lp_Variant>
AV-unprocessed.smi:49-4

> <Gold.Version>
5.8.1

> <Gold.Id.Protein>
6NUR|6NUR_protein|mol2

> <Gold.PLP.Fitness>
34.1979

> <Gold.PLP.PLP>
-25.2060

> <Gold.PLP.part.hbond>
-3.0000

> <Gold.PLP.part.metal>
0.0000

> <Gold.PLP.part.buried>
-4.6347

> <Gold.PLP.part.nonpolar>
-17.6258

> <Gold.PLP.part.repulsive>
0.4127

> <Gold.PLP.ligand.clash>
0.0000

> <Gold.PLP.ligand.torsion>
0.0119

> <Gold.PLP.Chemscore.Hbond>
3.0000

> <Gold.PLP.Chemscore.CHOScore>
0.0000

> <Gold.PLP.Chemscore.Metal>
0.0000

> <Gold.Chemscore.Hbonds>
donor molecule, donor type, donor heavy atom, donor atom, acceptor molecule, acceptor atom, score
      L1  H     9    24       P1  7921  1.00
      L1  H    11    28       P1  7948  2.00

> <Gold.PLP.Chemscore.Internal.Correction>
0.0157

> <Gold.Rescore>
     Score         DG    S(hbond)    S(metal)    S(lipo)     H(rot)  DE(clash)    DE(int)     intcor
     11.72     -11.73       1.99        0.00      37.92       1.89       0.00       0.01       ----

> <Gold.Chemscore.Fitness>
11.7243

> <Gold.Chemscore.DG>
-11.7331

> <Gold.Chemscore.ZeroCoef>
-5.4800

> <Gold.Chemscore.Hbond>
1.9911

> <Gold.Chemscore.Metal>
0.0000

> <Gold.Chemscore.Lipo>
37.9226

> <Gold.Chemscore.Internal_Hbond>
0.0000

> <Gold.Chemscore.DEClash>
0.0000

> <Gold.Chemscore.DEInternal>
0.0088

> <Gold.Chemscore.Rot>
1.8883

> <Gold.Chemscore.Internal.Correction>
   9.000000E+99

> <Gold.Chemscore.Hbonds>
donor molecule, donor type, donor heavy atom, donor atom, acceptor molecule, acceptor atom, score
      L1  H     9    24       P1  7921  1.00
      L1  H    11    28       P1  7948  0.99

> <Gold.Chemscore.Hbond.Weighted>
-6.6501

> <Gold.Chemscore.Metal.Weighted>
-0.0000

> <Gold.Chemscore.Lipo.Weighted>
-4.4369

> <Gold.Chemscore.Internal_Hbond.Weighted>
0.0000

> <Gold.Chemscore.DEClash.Weighted>
0.0000

> <Gold.Chemscore.DEInternal.Weighted>
0.0088

> <Gold.Chemscore.Rot.Weighted>
4.8340

> <Gold.Chemscore.Internal.Correction.Weighted>
   9.000000E+99

> <Gold.Protein.RotatedTorsions>
[ 6907 6896 6895 6894 ] final  -93.64 input  -60.11 | X-H torsion
[ 7974 7965 7964 7962 ] final -120.64 input  175.53 | X-H torsion
[ 8008 7997 7996 7995 ] final  -50.57 input   59.86 | X-H torsion
[ 10167 10162 10161 10158 ] final  -79.41 input  -65.29 | X-H torsion
[ 10718 10713 10712 10709 ] final    5.11 input   66.30 | X-H torsion
[ 10763 10752 10751 10750 ] final  154.85 input  -60.55 | X-H torsion
[ 11005 11000 10999 10996 ] final  -66.76 input  -57.11 | X-H torsion

> <Gold.Protein.ActiveResidues>
 VAL166  LYS551  ARG553  GLY616  TRP617  ASP618  TYR619  PRO620  LYS621  CYS622 
 ASP623  PHE694  ASN695  SER759  ASP760  ASP761  ALA762  ILE779  LEU786  VAL792 
 PHE793  MET794  SER795  GLU796  ALA797  LYS798  CYS799  TRP800  GLU811  SER814 

> <Gold.Protein.RotatedAtoms>
  150.6926  134.1936  159.4294 H   0  0  0  0  0  0  0  0  0  0  0  0  # atno 6907 bound_to 6896
  151.9905  134.9979  160.0570 H   0  0  0  0  0  0  0  0  0  0  0  0  # atno 6908 bound_to 6896
  152.1672  133.4584  159.4927 H   0  0  0  0  0  0  0  0  0  0  0  0  # atno 6909 bound_to 6896
  145.0491  140.8204  143.4220 H   0  0  0  0  0  0  0  0  0  0  0  0  # atno 7974 bound_to 7965
  154.4065  140.1269  156.4687 H   0  0  0  0  0  0  0  0  0  0  0  0  # atno 8008 bound_to 7997
  155.7201  140.3493  155.4992 H   0  0  0  0  0  0  0  0  0  0  0  0  # atno 8009 bound_to 7997
  155.9222  140.1054  157.1188 H   0  0  0  0  0  0  0  0  0  0  0  0  # atno 8010 bound_to 7997
  140.4595  143.2458  151.8369 H   0  0  0  0  0  0  0  0  0  0  0  0  # atno 10167 bound_to 10162
  156.9025  130.5727  149.5648 H   0  0  0  0  0  0  0  0  0  0  0  0  # atno 10718 bound_to 10713
  154.1589  135.2811  155.3114 H   0  0  0  0  0  0  0  0  0  0  0  0  # atno 10763 bound_to 10752
  154.6161  135.5482  153.7528 H   0  0  0  0  0  0  0  0  0  0  0  0  # atno 10764 bound_to 10752
  153.0198  135.6427  154.1732 H   0  0  0  0  0  0  0  0  0  0  0  0  # atno 10765 bound_to 10752
  141.1490  133.6705  156.6188 H   0  0  0  0  0  0  0  0  0  0  0  0  # atno 11005 bound_to 11000
  145.1550  139.2492  143.5421 LP  0  0  0  0  0  0  0  0  0  0  0  0  # atno 17320 bound_to 7965
  146.3516  140.1262  142.8598 LP  0  0  0  0  0  0  0  0  0  0  0  0  # atno 17321 bound_to 7965
  139.4805  144.5024  151.9042 LP  0  0  0  0  0  0  0  0  0  0  0  0  # atno 17342 bound_to 10162
  140.4110  144.2369  150.5889 LP  0  0  0  0  0  0  0  0  0  0  0  0  # atno 17343 bound_to 10162
  156.0575  130.5634  150.9122 LP  0  0  0  0  0  0  0  0  0  0  0  0  # atno 17370 bound_to 10713
  157.6017  131.0941  150.8948 LP  0  0  0  0  0  0  0  0  0  0  0  0  # atno 17371 bound_to 10713
  140.3557  134.7731  157.4498 LP  0  0  0  0  0  0  0  0  0  0  0  0  # atno 17394 bound_to 11000
  140.0825  134.5711  155.8525 LP  0  0  0  0  0  0  0  0  0  0  0  0  # atno 17395 bound_to 11000

$$$$
