#       Name:                AV-unprocessed.smi:821
#       Creating user name   scv26
#       Creation time:       Fri Mar 27 01:28:33 2020


#       File generated by GOLD software.
#

@<TRIPOS>MOLECULE
AV-unprocessed.smi:821
    51    52     1
SMALL
NO_CHARGES


@<TRIPOS>ATOM
      1 ****        -2.7258  -2.7195   2.3526 C.3            1 S1                 0.0000
      2 ****        -2.1257  -1.5907   1.5037 C.3            1 S1                 0.0000
      3 ****        -2.3869  -1.8124  -0.0044 C.3            1 S1                 0.0000
      4 ****        -1.7039  -0.8217  -0.8773 N.4            1 S1                 1.0000
      5 ****        -1.5476  -1.2978  -2.2722 C.3            1 S1                 0.0000
      6 ****        -0.7815  -0.2624  -3.1148 C.3            1 S1                 0.0000
      7 ****        -1.4407   0.9965  -3.0533 O.3            1 S1                 0.0000
      8 ****        -1.5181   1.4962  -1.7240 C.3            1 S1                 0.0000
      9 ****        -2.3333   0.5208  -0.8600 C.3            1 S1                 0.0000
     10 ****        -0.6908  -1.4920   1.7717 N.am           1 S1                 0.0000
     11 ****        -0.0110  -0.3588   2.0078 C.2            1 S1                 0.0000
     12 ****        -0.5438   0.7470   2.1008 O.2            1 S1                 0.0000
     13 ****         1.5113  -0.4970   2.1398 C.3            1 S1                 0.0000
     14 ****         2.2332   0.5915   1.4576 N.am           1 S1                 0.0000
     15 ****         2.8173   1.5806   2.2685 C.2            1 S1                 0.0000
     16 ****         3.4847   2.6178   1.7452 C.2            1 S1                 0.0000
     17 ****         3.5943   2.7053   0.3094 C.2            1 S1                 0.0000
     18 ****         3.0397   1.7714  -0.4974 C.2            1 S1                 0.0000
     19 ****         3.1462   1.8487  -2.0188 C.3            1 S1                 0.0000
     20 ****         3.6912   0.7363  -2.5127 F              1 S1                 0.0000
     21 ****         1.9369   1.9952  -2.5614 F              1 S1                 0.0000
     22 ****         3.8973   2.8786  -2.4112 F              1 S1                 0.0000
     23 ****         2.3115   0.6288   0.0903 C.2            1 S1                 0.0000
     24 ****         1.7882  -0.2469  -0.6019 O.2            1 S1                 0.0000
     25 ****        -3.8006  -2.8028   2.1891 H              1 S1                 0.0000
     26 ****        -2.5689  -2.5367   3.4162 H              1 S1                 0.0000
     27 ****        -2.2771  -3.6838   2.1111 H              1 S1                 0.0000
     28 ****        -2.6229  -0.6699   1.8114 H              1 S1                 0.0000
     29 ****        -2.0249  -2.8082  -0.2652 H              1 S1                 0.0000
     30 ****        -3.4576  -1.8138  -0.2143 H              1 S1                 0.0000
     31 ****        -1.0096  -2.2465  -2.2831 H              1 S1                 0.0000
     32 ****        -2.5312  -1.4806  -2.7079 H              1 S1                 0.0000
     33 ****         0.2480  -0.1628  -2.7709 H              1 S1                 0.0000
     34 ****        -0.7357  -0.5855  -4.1548 H              1 S1                 0.0000
     35 ****        -0.5175   1.6386  -1.3124 H              1 S1                 0.0000
     36 ****        -1.9980   2.4746  -1.7418 H              1 S1                 0.0000
     37 ****        -3.3555   0.4533  -1.2355 H              1 S1                 0.0000
     38 ****        -2.3943   0.9043   0.1573 H              1 S1                 0.0000
     39 ****        -0.1647  -2.3534   1.7325 H              1 S1                 0.0000
     40 ****         1.7569  -0.5306   3.2019 H              1 S1                 0.0000
     41 ****         1.8369  -1.4586   1.7375 H              1 S1                 0.0000
     42 ****         2.6849   1.4472   3.3324 H              1 S1                 0.0000
     43 ****         3.9256   3.3711   2.3816 H              1 S1                 0.0000
     44 ****         4.1302   3.5417  -0.1137 H              1 S1                 0.0000
     45 ****        -0.7688  -0.7134  -0.5099 H              1 S1                 0.0000
     46 ****        -2.3679   0.8928  -3.4132 LP             1 S1                 0.0000
     47 ****        -0.9364   1.6522  -3.6153 LP             1 S1                 0.0000
     48 ****        -1.5347   0.8347   1.9992 LP             1 S1                 0.0000
     49 ****         0.0144   1.5576   2.2780 LP             1 S1                 0.0000
     50 ****         1.2963  -1.0009  -0.1666 LP             1 S1                 0.0000
     51 ****         1.8557  -0.2032  -1.5987 LP             1 S1                 0.0000
@<TRIPOS>BOND
    1    1    2 1     
    2    1   25 1     
    3    1   26 1     
    4    1   27 1     
    5    2    3 1     
    6    2   10 1     
    7    2   28 1     
    8    3    4 1     
    9    3   29 1     
   10    3   30 1     
   11    4    9 1     
   12    4    5 1     
   13    4   45 1     
   14    5    6 1     
   15    5   31 1     
   16    5   32 1     
   17    6    7 1     
   18    6   33 1     
   19    6   34 1     
   20    7    8 1     
   21    8    9 1     
   22    8   35 1     
   23    8   36 1     
   24    9   37 1     
   25    9   38 1     
   26   10   11 am    
   27   10   39 1     
   28   11   12 2     
   29   11   13 1     
   30   13   14 1     
   31   13   40 1     
   32   13   41 1     
   33   14   23 am    
   34   14   15 1     
   35   15   16 2     
   36   15   42 1     
   37   16   17 1     
   38   16   43 1     
   39   17   18 2     
   40   17   44 1     
   41   18   19 1     
   42   18   23 1     
   43   19   20 1     
   44   19   21 1     
   45   19   22 1     
   46   23   24 2     
   47    7   46 1     
   48    7   47 1     
   49   12   48 1     
   50   12   49 1     
   51   24   50 1     
   52   24   51 1     
@<TRIPOS>SUBSTRUCTURE
      1 S1             1
@<TRIPOS>SET
LONE_PAIRS      STATIC     ATOMS    <user>   **** ""
6 46 47 48 49 50 51
DONOR_HYDROGENS      STATIC     ATOMS    <user>   **** ""
2 45 39
ATOM$BLUE        STATIC     ATOMS    COLORGROUP SYSTEM
6 46 47 48 49 50 51
ATOM$RED        STATIC     ATOMS    COLORGROUP SYSTEM
2 45 39
