AV-unprocessed.smi:322|AV-procd|sdf|2337|dock6
  -GOLD-   2262022243D 1   1.00000     0.00000
 Structure written by MMmdl.
 44 46  0  0  0  0  0  0  0  0  2 V2000
  150.3824  140.0932  153.9803 O   0  0  0  0  0  0  0  0  0  0  0  0
  149.5857  140.7697  154.9271 C   0  0  0  0  0  0  0  0  0  0  0  0
  150.3900  141.3059  156.0649 C   0  0  0  0  0  0  0  0  0  0  0  0
  150.3619  142.5883  156.5262 N   0  3  0  0  0  0  0  0  0  0  0  0
  151.2390  142.7227  157.6033 C   0  0  0  0  0  0  0  0  0  0  0  0
  151.5523  143.8249  158.3926 C   0  0  0  0  0  0  0  0  0  0  0  0
  152.4967  143.6194  159.4198 C   0  0  0  0  0  0  0  0  0  0  0  0
  153.0898  142.3574  159.6311 C   0  0  0  0  0  0  0  0  0  0  0  0
  152.7638  141.2471  158.8245 C   0  0  0  0  0  0  0  0  0  0  0  0
  151.8301  141.4597  157.8109 C   0  0  0  0  0  0  0  0  0  0  0  0
  151.2789  140.6182  156.8389 N   0  0  0  0  0  0  0  0  0  0  0  0
  151.6969  139.2081  156.7935 C   0  0  0  0  0  0  0  0  0  0  0  0
  151.4231  138.4574  158.1118 C   0  0  2  0  0  0  0  0  0  0  0  0
  152.6591  138.1033  158.7007 O   0  0  0  0  0  0  0  0  0  0  0  0
  150.6040  137.1786  157.8835 C   0  0  0  0  0  0  0  0  0  0  0  0
  150.2989  136.5986  159.1439 O   0  0  0  0  0  0  0  0  0  0  0  0
  149.1665  137.1725  159.7812 C   0  0  0  0  0  0  0  0  0  0  0  0
  148.2802  136.1453  160.4653 C   0  0  0  0  0  0  0  0  0  0  0  0
  147.9363  136.3006  161.8249 C   0  0  0  0  0  0  0  0  0  0  0  0
  147.1095  135.3531  162.4590 C   0  0  0  0  0  0  0  0  0  0  0  0
  146.6176  134.2500  161.7341 C   0  0  0  0  0  0  0  0  0  0  0  0
  145.6044  133.0890  162.5102 Cl  0  0  0  0  0  0  0  0  0  0  0  0
  146.9520  134.0963  160.3745 C   0  0  0  0  0  0  0  0  0  0  0  0
  147.7797  135.0434  159.7404 C   0  0  0  0  0  0  0  0  0  0  0  0
  149.8702  139.9584  153.1974 H   0  0  0  0  0  0  0  0  0  0  0  0
  149.0578  141.5864  154.4346 H   0  0  0  0  0  0  0  0  0  0  0  0
  148.8292  140.0840  155.3095 H   0  0  0  0  0  0  0  0  0  0  0  0
  151.0997  144.7926  158.2328 H   0  0  0  0  0  0  0  0  0  0  0  0
  152.7719  144.4461  160.0588 H   0  0  0  0  0  0  0  0  0  0  0  0
  153.8096  142.2382  160.4278 H   0  0  0  0  0  0  0  0  0  0  0  0
  153.2237  140.2846  158.9930 H   0  0  0  0  0  0  0  0  0  0  0  0
  151.1860  138.7279  155.9578 H   0  0  0  0  0  0  0  0  0  0  0  0
  152.7610  139.1818  156.5552 H   0  0  0  0  0  0  0  0  0  0  0  0
  150.8849  139.1148  158.7953 H   0  0  0  0  0  0  0  0  0  0  0  0
  153.3551  138.4066  158.1385 H   0  0  0  0  0  0  0  0  0  0  0  0
  149.6636  137.4275  157.3891 H   0  0  0  0  0  0  0  0  0  0  0  0
  151.1373  136.4862  157.2299 H   0  0  0  0  0  0  0  0  0  0  0  0
  149.5256  137.8638  160.5437 H   0  0  0  0  0  0  0  0  0  0  0  0
  148.5936  137.7686  159.0690 H   0  0  0  0  0  0  0  0  0  0  0  0
  148.3095  137.1452  162.3855 H   0  0  0  0  0  0  0  0  0  0  0  0
  146.8525  135.4748  163.5010 H   0  0  0  0  0  0  0  0  0  0  0  0
  146.5740  133.2527  159.8160 H   0  0  0  0  0  0  0  0  0  0  0  0
  148.0304  134.9190  158.6972 H   0  0  0  0  0  0  0  0  0  0  0  0
  149.7794  143.3157  156.1322 H   0  0  0  0  0  0  0  0  0  0  0  0
  1  2  1  0  0  0  0
  1 25  1  0  0  0  0
  2  3  1  0  0  0  0
  2 26  1  0  0  0  0
  2 27  1  0  0  0  0
  3 11  1  0  0  0  0
  3  4  2  0  0  0  0
  4  5  1  0  0  0  0
  4 44  1  0  0  0  0
  5 10  2  0  0  0  0
  5  6  1  0  0  0  0
  6  7  2  0  0  0  0
  6 28  1  0  0  0  0
  7  8  1  0  0  0  0
  7 29  1  0  0  0  0
  8  9  2  0  0  0  0
  8 30  1  0  0  0  0
  9 10  1  0  0  0  0
  9 31  1  0  0  0  0
 10 11  1  0  0  0  0
 11 12  1  0  0  0  0
 12 13  1  0  0  0  0
 12 32  1  0  0  0  0
 12 33  1  0  0  0  0
 13 14  1  0  0  0  0
 13 15  1  0  0  0  0
 13 34  1  0  0  0  0
 14 35  1  0  0  0  0
 15 16  1  0  0  0  0
 15 36  1  0  0  0  0
 15 37  1  0  0  0  0
 16 17  1  0  0  0  0
 17 18  1  0  0  0  0
 17 38  1  0  0  0  0
 17 39  1  0  0  0  0
 18 24  1  0  0  0  0
 18 19  2  0  0  0  0
 19 20  1  0  0  0  0
 19 40  1  0  0  0  0
 20 21  2  0  0  0  0
 20 41  1  0  0  0  0
 21 22  1  0  0  0  0
 21 23  1  0  0  0  0
 23 24  2  0  0  0  0
 23 42  1  0  0  0  0
 24 43  1  0  0  0  0
M  CHG  1   4   1
M  END
> <s_m_source_file>
AV-unprocessed.smi

> <i_m_source_file_index>
322

> <i_lp_mmshare_version>
43012

> <i_f3d_flags>
0

> <s_epik_input>
W2NIXTFbY0hdW2NIXVtjSF1jKGMxMiluKGMobjIpW0NIMl1bT0hdKVtDSDJdW0NASF0oW09IXSlbQ0gyXU9bQ0gyXWMzW2NIXVtjSF1jKENsKVtjSF1bY0hdMw==

> <s_epik_cmdline>
J2VwaWtfcHl0aG9uJywgJy1waCcsICc3LjAnLCAnLXRuJywgJzgnLCAnLW1hJywgJzIwMCcsICctbWV0YWxfYmluZGluZycsICctaW1hZScsICc8aW5maWxlLm1hZT4nLCAnLW9tYWUnLCAnPG91dGZpbGUubWFlPic=

> <r_epik_Ionization_Penalty>
1.34314

> <r_epik_Ionization_Penalty_Charging>
1.34228

> <r_epik_Ionization_Penalty_Neutral>
0.000856898

> <r_epik_State_Penalty>
1.41963

> <r_epik_Charging_Adjusted_Penalty>
2.76191

> <i_epik_Tot_Q>
1

> <i_epik_Tot_abs_Q>
1

> <r_epik_Metal_State_Penalty>
5.45585

> <b_epik_Metal_Only>
0

> <s_lp_Force_Field>
OPLS_2005

> <r_lp_Energy>
17.7001

> <b_lp_Chiralities_Consistent>
1

> <s_lp_Variant>
AV-unprocessed.smi:322-3

> <Gold.Version>
5.8.1

> <Gold.Id.Protein>
6NUR|6NUR_protein|mol2

> <Gold.PLP.Fitness>
62.8758

> <Gold.PLP.PLP>
-50.3929

> <Gold.PLP.part.hbond>
-3.7533

> <Gold.PLP.part.metal>
0.0000

> <Gold.PLP.part.buried>
-3.5191

> <Gold.PLP.part.nonpolar>
-42.5717

> <Gold.PLP.part.repulsive>
0.0677

> <Gold.PLP.ligand.clash>
0.0000

> <Gold.PLP.ligand.torsion>
1.2480

> <Gold.PLP.Chemscore.Hbond>
4.9508

> <Gold.PLP.Chemscore.CHOScore>
0.0000

> <Gold.PLP.Chemscore.Metal>
0.0000

> <Gold.Chemscore.Hbonds>
donor molecule, donor type, donor heavy atom, donor atom, acceptor molecule, acceptor atom, score
      L1  H     1    25       P1  7957  0.94
      L1  H     4    44       P1  8028  2.00
      P1  H  6896  6907       L1    16  1.00
      P1  H  7989  7998       L1     1  1.00

> <Gold.PLP.Chemscore.Internal.Correction>
0.1265

> <Gold.Rescore>
     Score         DG    S(hbond)    S(metal)    S(lipo)     H(rot)  DE(clash)    DE(int)     intcor
     22.99     -24.31       3.47        0.00     132.77       3.24       0.04       1.27       ----

> <Gold.Chemscore.Fitness>
22.9949

> <Gold.Chemscore.DG>
-24.3053

> <Gold.Chemscore.ZeroCoef>
-5.4800

> <Gold.Chemscore.Hbond>
3.4675

> <Gold.Chemscore.Metal>
0.0000

> <Gold.Chemscore.Lipo>
132.7697

> <Gold.Chemscore.Internal_Hbond>
0.0000

> <Gold.Chemscore.DEClash>
0.0449

> <Gold.Chemscore.DEInternal>
1.2655

> <Gold.Chemscore.Rot>
3.2383

> <Gold.Chemscore.Internal.Correction>
   9.000000E+99

> <Gold.Chemscore.Hbonds>
donor molecule, donor type, donor heavy atom, donor atom, acceptor molecule, acceptor atom, score
      L1  H     1    25       P1  7957  0.87
      L1  H     4    44       P1  8028  1.00
      P1  H  6896  6907       L1    16  0.94
      P1  H  7989  7998       L1     1  0.32

> <Gold.Chemscore.Hbond.Weighted>
-11.5814

> <Gold.Chemscore.Metal.Weighted>
-0.0000

> <Gold.Chemscore.Lipo.Weighted>
-15.5341

> <Gold.Chemscore.Internal_Hbond.Weighted>
0.0000

> <Gold.Chemscore.DEClash.Weighted>
0.0449

> <Gold.Chemscore.DEInternal.Weighted>
1.2655

> <Gold.Chemscore.Rot.Weighted>
8.2901

> <Gold.Chemscore.Internal.Correction.Weighted>
   9.000000E+99

> <Gold.Protein.RotatedTorsions>
[ 6907 6896 6895 6894 ] final  -50.46 input  -60.11 | X-H torsion
[ 7974 7965 7964 7962 ] final -118.47 input  175.53 | X-H torsion
[ 8008 7997 7996 7995 ] final  -28.39 input   59.86 | X-H torsion
[ 10167 10162 10161 10158 ] final   44.50 input  -65.29 | X-H torsion
[ 10718 10713 10712 10709 ] final  156.15 input   66.30 | X-H torsion
[ 10763 10752 10751 10750 ] final   71.61 input  -60.55 | X-H torsion
[ 11005 11000 10999 10996 ] final  155.46 input  -57.11 | X-H torsion

> <Gold.Protein.ActiveResidues>
 VAL166  LYS551  ARG553  GLY616  TRP617  ASP618  TYR619  PRO620  LYS621  CYS622 
 ASP623  PHE694  ASN695  SER759  ASP760  ASP761  ALA762  ILE779  LEU786  VAL792 
 PHE793  MET794  SER795  GLU796  ALA797  LYS798  CYS799  TRP800  GLU811  SER814 

> <Gold.Protein.RotatedAtoms>
  150.8705  134.8078  159.7151 H   0  0  0  0  0  0  0  0  0  0  0  0  # atno 6907 bound_to 6896
  152.4711  134.4954  159.9718 H   0  0  0  0  0  0  0  0  0  0  0  0  # atno 6908 bound_to 6896
  151.5043  133.3459  159.2909 H   0  0  0  0  0  0  0  0  0  0  0  0  # atno 6909 bound_to 6896
  145.0734  140.8375  143.4082 H   0  0  0  0  0  0  0  0  0  0  0  0  # atno 7974 bound_to 7965
  154.4334  140.1846  156.1082 H   0  0  0  0  0  0  0  0  0  0  0  0  # atno 8008 bound_to 7997
  156.0239  140.3338  155.7042 H   0  0  0  0  0  0  0  0  0  0  0  0  # atno 8009 bound_to 7997
  155.5937  140.0633  157.2742 H   0  0  0  0  0  0  0  0  0  0  0  0  # atno 8010 bound_to 7997
  140.3337  144.2557  150.6164 H   0  0  0  0  0  0  0  0  0  0  0  0  # atno 10167 bound_to 10162
  157.2088  131.0693  151.1982 H   0  0  0  0  0  0  0  0  0  0  0  0  # atno 10718 bound_to 10713
  153.0409  135.5130  154.7619 H   0  0  0  0  0  0  0  0  0  0  0  0  # atno 10763 bound_to 10752
  154.6557  135.2931  154.9933 H   0  0  0  0  0  0  0  0  0  0  0  0  # atno 10764 bound_to 10752
  154.0801  135.6665  153.4889 H   0  0  0  0  0  0  0  0  0  0  0  0  # atno 10765 bound_to 10752
  140.1583  134.8627  157.2542 H   0  0  0  0  0  0  0  0  0  0  0  0  # atno 11005 bound_to 11000
  145.1265  139.2660  143.5561 LP  0  0  0  0  0  0  0  0  0  0  0  0  # atno 17320 bound_to 7965
  146.3529  140.0903  142.8613 LP  0  0  0  0  0  0  0  0  0  0  0  0  # atno 17321 bound_to 7965
  140.5374  143.2230  151.8141 LP  0  0  0  0  0  0  0  0  0  0  0  0  # atno 17342 bound_to 10162
  139.4852  144.4644  151.9501 LP  0  0  0  0  0  0  0  0  0  0  0  0  # atno 17343 bound_to 10162
  157.3693  130.7172  149.6554 LP  0  0  0  0  0  0  0  0  0  0  0  0  # atno 17370 bound_to 10713
  155.9693  130.4203  150.4417 LP  0  0  0  0  0  0  0  0  0  0  0  0  # atno 17371 bound_to 10713
  140.2520  134.3671  155.7438 LP  0  0  0  0  0  0  0  0  0  0  0  0  # atno 17394 bound_to 11000
  141.2207  133.7322  156.8950 LP  0  0  0  0  0  0  0  0  0  0  0  0  # atno 17395 bound_to 11000

$$$$
