AV-unprocessed.smi:239|AV-procd|sdf|1821|dock8
  -GOLD-   2262020413D 1   1.00000     0.00000
 Structure written by MMmdl.
 54 58  0  0  0  0  0  0  0  0  1 V2000
  154.2754  140.7082  161.7769 C   0  0  0  0  0  0  0  0  0  0  0  0
  153.8280  141.4687  160.5242 C   0  0  1  0  0  0  0  0  0  0  0  0
  153.0490  140.5678  159.5490 C   0  0  0  0  0  0  0  0  0  0  0  0
  152.5461  141.3552  158.4263 N   0  0  0  0  0  0  0  0  0  0  0  0
  152.0509  140.6900  157.3510 C   0  0  0  0  0  0  0  0  0  0  0  0
  152.8033  139.7370  156.7375 N   0  0  0  0  0  0  0  0  0  0  0  0
  152.3235  139.0703  155.6837 C   0  0  0  0  0  0  0  0  0  0  0  0
  151.1385  139.1981  155.0847 N   0  0  0  0  0  0  0  0  0  0  0  0
  150.3821  140.1600  155.6861 C   0  0  0  0  0  0  0  0  0  0  0  0
  150.7559  140.9438  156.8148 C   0  0  0  0  0  0  0  0  0  0  0  0
  149.7283  141.8227  157.1383 N   0  0  0  0  0  0  0  0  0  0  0  0
  148.7976  141.5642  156.2609 C   0  0  0  0  0  0  0  0  0  0  0  0
  149.1108  140.5870  155.3434 N   0  0  0  0  0  0  0  0  0  0  0  0
  148.2687  140.1077  154.2572 C   0  0  0  0  0  0  0  0  0  0  0  0
  146.9154  140.8516  154.1307 C   0  0  0  0  0  0  0  0  0  0  0  0
  146.2273  140.3134  153.0151 O   0  0  0  0  0  0  0  0  0  0  0  0
  146.0558  140.6190  155.3898 C   0  0  0  0  0  0  0  0  0  0  0  0
  144.7763  141.4744  155.3863 C   0  0  0  0  0  0  0  0  0  0  0  0
  145.1113  142.8485  155.2367 O   0  0  0  0  0  0  0  0  0  0  0  0
  145.7511  143.1262  153.9973 C   0  0  0  0  0  0  0  0  0  0  0  0
  147.0890  142.3702  153.9096 C   0  0  0  0  0  0  0  0  0  0  0  0
  151.7697  142.5172  158.8462 C   0  0  0  0  0  0  0  0  0  0  0  0
  152.5803  143.3699  159.8395 C   0  0  1  0  0  0  0  0  0  0  0  0
  151.7754  144.5578  160.3394 C   0  0  0  0  0  0  0  0  0  0  0  0
  150.8771  145.3461  159.4100 C   0  0  0  0  0  0  0  0  0  0  0  0
  152.1376  145.9741  159.9465 C   0  0  0  0  0  0  0  0  0  0  0  0
  152.9900  142.5464  160.9310 O   0  0  0  0  0  0  0  0  0  0  0  0
  154.9291  139.8753  161.5177 H   0  0  0  0  0  0  0  0  0  0  0  0
  153.4201  140.3057  162.3206 H   0  0  0  0  0  0  0  0  0  0  0  0
  154.8236  141.3627  162.4552 H   0  0  0  0  0  0  0  0  0  0  0  0
  154.7123  141.8709  160.0267 H   0  0  0  0  0  0  0  0  0  0  0  0
  153.7006  139.7718  159.1856 H   0  0  0  0  0  0  0  0  0  0  0  0
  152.2109  140.0952  160.0637 H   0  0  0  0  0  0  0  0  0  0  0  0
  152.9837  138.3280  155.2601 H   0  0  0  0  0  0  0  0  0  0  0  0
  147.8542  142.0903  156.2521 H   0  0  0  0  0  0  0  0  0  0  0  0
  148.8323  140.1876  153.3265 H   0  0  0  0  0  0  0  0  0  0  0  0
  148.0953  139.0422  154.4138 H   0  0  0  0  0  0  0  0  0  0  0  0
  145.5340  140.9083  152.7737 H   0  0  0  0  0  0  0  0  0  0  0  0
  145.7998  139.5635  155.4899 H   0  0  0  0  0  0  0  0  0  0  0  0
  146.6377  140.8761  156.2759 H   0  0  0  0  0  0  0  0  0  0  0  0
  144.0955  141.1648  154.5921 H   0  0  0  0  0  0  0  0  0  0  0  0
  144.2406  141.3454  156.3269 H   0  0  0  0  0  0  0  0  0  0  0  0
  145.0941  142.8599  153.1679 H   0  0  0  0  0  0  0  0  0  0  0  0
  145.9258  144.1998  153.9266 H   0  0  0  0  0  0  0  0  0  0  0  0
  147.7623  142.7687  154.6696 H   0  0  0  0  0  0  0  0  0  0  0  0
  147.5580  142.5734  152.9464 H   0  0  0  0  0  0  0  0  0  0  0  0
  151.4793  143.1316  157.9950 H   0  0  0  0  0  0  0  0  0  0  0  0
  150.8470  142.1726  159.3154 H   0  0  0  0  0  0  0  0  0  0  0  0
  153.4679  143.7650  159.3422 H   0  0  0  0  0  0  0  0  0  0  0  0
  151.4039  144.4310  161.3547 H   0  0  0  0  0  0  0  0  0  0  0  0
  150.8617  145.0736  158.3565 H   0  0  0  0  0  0  0  0  0  0  0  0
  149.9294  145.6994  159.8112 H   0  0  0  0  0  0  0  0  0  0  0  0
  152.0316  146.7460  160.7060 H   0  0  0  0  0  0  0  0  0  0  0  0
  152.9629  146.1175  159.2519 H   0  0  0  0  0  0  0  0  0  0  0  0
  1  2  1  0  0  0  0
  1 28  1  0  0  0  0
  1 29  1  0  0  0  0
  1 30  1  0  0  0  0
  2 27  1  0  0  0  0
  2  3  1  0  0  0  0
  2 31  1  0  0  0  0
  3  4  1  0  0  0  0
  3 32  1  0  0  0  0
  3 33  1  0  0  0  0
  4  5  1  0  0  0  0
  4 22  1  0  0  0  0
  5 10  1  0  0  0  0
  5  6  2  0  0  0  0
  6  7  1  0  0  0  0
  7  8  2  0  0  0  0
  7 34  1  0  0  0  0
  8  9  1  0  0  0  0
  9 13  1  0  0  0  0
  9 10  2  0  0  0  0
 10 11  1  0  0  0  0
 11 12  2  0  0  0  0
 12 13  1  0  0  0  0
 12 35  1  0  0  0  0
 13 14  1  0  0  0  0
 14 15  1  0  0  0  0
 14 36  1  0  0  0  0
 14 37  1  0  0  0  0
 15 21  1  0  0  0  0
 15 16  1  0  0  0  0
 15 17  1  0  0  0  0
 16 38  1  0  0  0  0
 17 18  1  0  0  0  0
 17 39  1  0  0  0  0
 17 40  1  0  0  0  0
 18 19  1  0  0  0  0
 18 41  1  0  0  0  0
 18 42  1  0  0  0  0
 19 20  1  0  0  0  0
 20 21  1  0  0  0  0
 20 43  1  0  0  0  0
 20 44  1  0  0  0  0
 21 45  1  0  0  0  0
 21 46  1  0  0  0  0
 22 23  1  0  0  0  0
 22 47  1  0  0  0  0
 22 48  1  0  0  0  0
 23 24  1  0  0  0  0
 23 27  1  0  0  0  0
 23 49  1  0  0  0  0
 24 26  1  0  0  0  0
 24 25  1  0  0  0  0
 24 50  1  0  0  0  0
 25 26  1  0  0  0  0
 25 51  1  0  0  0  0
 25 52  1  0  0  0  0
 26 53  1  0  0  0  0
 26 54  1  0  0  0  0
M  END
> <s_m_source_file>
AV-unprocessed.smi

> <i_m_source_file_index>
239

> <i_lp_mmshare_version>
43012

> <i_f3d_flags>
0

> <s_epik_input>
W0NIMl0xW0NIMl1bQ0hdMVtDQEBIXShPMilbQ0gyXU4oW0NIMl1bQ0BIXTJbQ0gzXSljKG5bY0hdbjMpYyhjMzQpbltjSF1uNFtDSDJdQzUoW09IXSlbQ0gyXVtDSDJdT1tDSDJdW0NIMl01

> <s_epik_cmdline>
J2VwaWtfcHl0aG9uJywgJy1waCcsICc3LjAnLCAnLXRuJywgJzgnLCAnLW1hJywgJzIwMCcsICctbWV0YWxfYmluZGluZycsICctaW1hZScsICc8aW5maWxlLm1hZT4nLCAnLW9tYWUnLCAnPG91dGZpbGUubWFlPic=

> <r_lp_tautomer_probability>
1

> <r_epik_Ionization_Penalty>
9.13091e-05

> <r_epik_Ionization_Penalty_Charging>
0

> <r_epik_Ionization_Penalty_Neutral>
9.13091e-05

> <r_epik_State_Penalty>
-0

> <r_epik_Charging_Adjusted_Penalty>
0

> <i_epik_Tot_Q>
0

> <i_epik_Tot_abs_Q>
0

> <r_epik_Metal_State_Penalty>
-0

> <b_epik_Metal_Only>
0

> <s_lp_Force_Field>
OPLS_2005

> <r_lp_Energy>
35.8814

> <b_lp_Chiralities_Consistent>
1

> <s_lp_Variant>
AV-unprocessed.smi:239-2

> <Gold.Version>
5.8.1

> <Gold.Id.Protein>
6NUR|6NUR_protein|mol2

> <Gold.PLP.Fitness>
55.3354

> <Gold.PLP.PLP>
-50.4266

> <Gold.PLP.part.hbond>
-2.3243

> <Gold.PLP.part.metal>
0.0000

> <Gold.PLP.part.buried>
-6.3573

> <Gold.PLP.part.nonpolar>
-42.2327

> <Gold.PLP.part.repulsive>
0.3392

> <Gold.PLP.ligand.clash>
0.0000

> <Gold.PLP.ligand.torsion>
1.0592

> <Gold.PLP.Chemscore.Hbond>
1.8804

> <Gold.PLP.Chemscore.CHOScore>
0.0000

> <Gold.PLP.Chemscore.Metal>
0.0000

> <Gold.Chemscore.Hbonds>
donor molecule, donor type, donor heavy atom, donor atom, acceptor molecule, acceptor atom, score
      L1  H    16    38       P1 10175  0.56
      P1  H  7989  7998       L1     8  0.06
      P1  H  7997  8008       L1     6  1.00
      L1  C    12    35       P1  8028  0.06

> <Gold.PLP.Chemscore.Internal.Correction>
1.3858

> <Gold.Rescore>
     Score         DG    S(hbond)    S(metal)    S(lipo)     H(rot)  DE(clash)    DE(int)     intcor
     14.34     -18.31       1.74        0.00     108.90       2.24       0.24       3.74       ----

> <Gold.Chemscore.Fitness>
14.3350

> <Gold.Chemscore.DG>
-18.3150

> <Gold.Chemscore.ZeroCoef>
-5.4800

> <Gold.Chemscore.Hbond>
1.7441

> <Gold.Chemscore.Metal>
0.0000

> <Gold.Chemscore.Lipo>
108.8960

> <Gold.Chemscore.Internal_Hbond>
0.0000

> <Gold.Chemscore.DEClash>
0.2384

> <Gold.Chemscore.DEInternal>
3.7416

> <Gold.Chemscore.Rot>
2.2387

> <Gold.Chemscore.Internal.Correction>
   9.000000E+99

> <Gold.Chemscore.Hbonds>
donor molecule, donor type, donor heavy atom, donor atom, acceptor molecule, acceptor atom, score
      L1  H    16    38       P1 10175  0.14
      P1  H  7997  8008       L1     6  0.61

> <Gold.Chemscore.Hbond.Weighted>
-5.8253

> <Gold.Chemscore.Metal.Weighted>
-0.0000

> <Gold.Chemscore.Lipo.Weighted>
-12.7408

> <Gold.Chemscore.Internal_Hbond.Weighted>
0.0000

> <Gold.Chemscore.DEClash.Weighted>
0.2384

> <Gold.Chemscore.DEInternal.Weighted>
3.7416

> <Gold.Chemscore.Rot.Weighted>
5.7311

> <Gold.Chemscore.Internal.Correction.Weighted>
   9.000000E+99

> <Gold.Protein.RotatedTorsions>
[ 6907 6896 6895 6894 ] final  164.63 input  -60.11 | X-H torsion
[ 7974 7965 7964 7962 ] final  -46.02 input  175.53 | X-H torsion
[ 8008 7997 7996 7995 ] final  -47.54 input   59.86 | X-H torsion
[ 10167 10162 10161 10158 ] final  121.88 input  -65.29 | X-H torsion
[ 10718 10713 10712 10709 ] final -113.69 input   66.30 | X-H torsion
[ 10763 10752 10751 10750 ] final   46.20 input  -60.55 | X-H torsion
[ 11005 11000 10999 10996 ] final  150.03 input  -57.11 | X-H torsion

> <Gold.Protein.ActiveResidues>
 VAL166  LYS551  ARG553  GLY616  TRP617  ASP618  TYR619  PRO620  LYS621  CYS622 
 ASP623  PHE694  ASN695  SER759  ASP760  ASP761  ALA762  ILE779  LEU786  VAL792 
 PHE793  MET794  SER795  GLU796  ALA797  LYS798  CYS799  TRP800  GLU811  SER814 

> <Gold.Protein.RotatedAtoms>
  151.9069  133.3551  159.3849 H   0  0  0  0  0  0  0  0  0  0  0  0  # atno 6907 bound_to 6896
  150.7067  134.4772  159.5462 H   0  0  0  0  0  0  0  0  0  0  0  0  # atno 6908 bound_to 6896
  152.2370  134.8266  160.0516 H   0  0  0  0  0  0  0  0  0  0  0  0  # atno 6909 bound_to 6896
  145.9762  140.7332  142.9386 H   0  0  0  0  0  0  0  0  0  0  0  0  # atno 7974 bound_to 7965
  154.4018  140.1344  156.4192 H   0  0  0  0  0  0  0  0  0  0  0  0  # atno 8008 bound_to 7997
  155.7659  140.3485  155.5201 H   0  0  0  0  0  0  0  0  0  0  0  0  # atno 8009 bound_to 7997
  155.8814  140.0988  157.1473 H   0  0  0  0  0  0  0  0  0  0  0  0  # atno 8010 bound_to 7997
  139.5893  144.7019  151.3331 H   0  0  0  0  0  0  0  0  0  0  0  0  # atno 10167 bound_to 10162
  156.0782  130.5986  150.8675 H   0  0  0  0  0  0  0  0  0  0  0  0  # atno 10718 bound_to 10713
  152.9814  135.6015  154.3561 H   0  0  0  0  0  0  0  0  0  0  0  0  # atno 10763 bound_to 10752
  154.3246  135.2769  155.2504 H   0  0  0  0  0  0  0  0  0  0  0  0  # atno 10764 bound_to 10752
  154.4655  135.5955  153.6341 H   0  0  0  0  0  0  0  0  0  0  0  0  # atno 10765 bound_to 10752
  140.1096  134.8932  157.1917 H   0  0  0  0  0  0  0  0  0  0  0  0  # atno 11005 bound_to 11000
  144.6849  140.2831  143.7289 LP  0  0  0  0  0  0  0  0  0  0  0  0  # atno 17320 bound_to 7965
  145.7835  139.1900  143.2144 LP  0  0  0  0  0  0  0  0  0  0  0  0  # atno 17321 bound_to 7965
  140.7159  143.7268  150.7654 LP  0  0  0  0  0  0  0  0  0  0  0  0  # atno 17342 bound_to 10162
  140.0820  143.4959  152.2525 LP  0  0  0  0  0  0  0  0  0  0  0  0  # atno 17343 bound_to 10162
  157.5888  131.0945  150.9153 LP  0  0  0  0  0  0  0  0  0  0  0  0  # atno 17370 bound_to 10713
  156.9334  130.5358  149.5279 LP  0  0  0  0  0  0  0  0  0  0  0  0  # atno 17371 bound_to 10713
  140.3109  134.3025  155.7267 LP  0  0  0  0  0  0  0  0  0  0  0  0  # atno 17394 bound_to 11000
  141.2127  133.7649  156.9775 LP  0  0  0  0  0  0  0  0  0  0  0  0  # atno 17395 bound_to 11000

$$$$
