AV-unprocessed.smi:2225|AV-procd|sdf|8999|dock2
  -GOLD-   2272012203D 1   1.00000     0.00000
 Structure written by MMmdl.
 33 34  0  0  0  0  0  0  0  0  1 V2000
  149.5043  144.3084  161.1733 O   0  0  0  0  0  0  0  0  0  0  0  0
  149.3301  144.8244  160.0700 C   0  0  0  0  0  0  0  0  0  0  0  0
  150.4498  144.7316  159.0185 C   0  0  0  0  0  0  0  0  0  0  0  0
  151.2154  143.4709  159.0279 N   0  0  0  0  0  0  0  0  0  0  0  0
  152.3510  143.4248  159.8561 C   0  0  0  0  0  0  0  0  0  0  0  0
  153.1214  142.3317  159.9372 C   0  0  0  0  0  0  0  0  0  0  0  0
  152.7608  141.1829  159.1427 C   0  0  0  0  0  0  0  0  0  0  0  0
  151.6703  141.1946  158.3419 C   0  0  0  0  0  0  0  0  0  0  0  0
  151.2778  139.9894  157.4901 C   0  0  0  0  0  0  0  0  0  0  0  0
  150.0700  139.5450  157.8394 F   0  0  0  0  0  0  0  0  0  0  0  0
  151.2439  140.3172  156.1980 F   0  0  0  0  0  0  0  0  0  0  0  0
  152.1400  138.9815  157.6316 F   0  0  0  0  0  0  0  0  0  0  0  0
  150.8228  142.4023  158.2670 C   0  0  0  0  0  0  0  0  0  0  0  0
  149.8112  142.4555  157.5658 O   0  0  0  0  0  0  0  0  0  0  0  0
  148.1971  145.4676  159.7417 N   0  0  0  0  0  0  0  0  0  0  0  0
  147.0479  145.6496  160.6226 C   0  0  2  0  0  0  0  0  0  0  0  0
  146.7640  144.4050  161.4635 C   0  0  0  0  0  0  0  0  0  0  0  0
  145.2694  144.1717  161.2738 C   0  0  0  0  0  0  0  0  0  0  0  0
  145.0389  144.6327  159.9544 O   0  0  0  0  0  0  0  0  0  0  0  0
  145.7625  145.8453  159.8058 C   0  0  0  0  0  0  0  0  0  0  0  0
  150.0126  144.9020  158.0330 H   0  0  0  0  0  0  0  0  0  0  0  0
  151.1222  145.5769  159.1723 H   0  0  0  0  0  0  0  0  0  0  0  0
  152.5482  144.3250  160.4203 H   0  0  0  0  0  0  0  0  0  0  0  0
  153.9885  142.3109  160.5810 H   0  0  0  0  0  0  0  0  0  0  0  0
  153.3859  140.3043  159.1995 H   0  0  0  0  0  0  0  0  0  0  0  0
  148.1259  145.8619  158.8148 H   0  0  0  0  0  0  0  0  0  0  0  0
  147.2054  146.5223  161.2592 H   0  0  0  0  0  0  0  0  0  0  0  0
  147.3136  143.5427  161.0823 H   0  0  0  0  0  0  0  0  0  0  0  0
  147.0351  144.5336  162.5118 H   0  0  0  0  0  0  0  0  0  0  0  0
  144.9870  143.1256  161.3926 H   0  0  0  0  0  0  0  0  0  0  0  0
  144.6884  144.7695  161.9779 H   0  0  0  0  0  0  0  0  0  0  0  0
  145.1703  146.6613  160.2226 H   0  0  0  0  0  0  0  0  0  0  0  0
  145.9428  146.0701  158.7537 H   0  0  0  0  0  0  0  0  0  0  0  0
  1  2  2  0  0  0  0
  2  3  1  0  0  0  0
  2 15  1  0  0  0  0
  3  4  1  0  0  0  0
  3 21  1  0  0  0  0
  3 22  1  0  0  0  0
  4 13  1  0  0  0  0
  4  5  1  0  0  0  0
  5  6  2  0  0  0  0
  5 23  1  0  0  0  0
  6  7  1  0  0  0  0
  6 24  1  0  0  0  0
  7  8  2  0  0  0  0
  7 25  1  0  0  0  0
  8  9  1  0  0  0  0
  8 13  1  0  0  0  0
  9 10  1  0  0  0  0
  9 11  1  0  0  0  0
  9 12  1  0  0  0  0
 13 14  2  0  0  0  0
 15 16  1  0  0  0  0
 15 26  1  0  0  0  0
 16 20  1  0  0  0  0
 16 17  1  0  0  0  0
 16 27  1  0  0  0  0
 17 18  1  0  0  0  0
 17 28  1  0  0  0  0
 17 29  1  0  0  0  0
 18 19  1  0  0  0  0
 18 30  1  0  0  0  0
 18 31  1  0  0  0  0
 19 20  1  0  0  0  0
 20 32  1  0  0  0  0
 20 33  1  0  0  0  0
M  END
> <s_m_source_file>
AV-unprocessed.smi

> <i_m_source_file_index>
2225

> <i_lp_mmshare_version>
43012

> <i_f3d_flags>
0

> <s_epik_input>
W0NIMl0xT1tDSDJdW0NIMl1bQ0BIXTFbTkhdQyg9TylbQ0gyXW4yW2NIXVtjSF1bY0hdYyhDKEYpKEYpRiljMj1P

> <s_epik_cmdline>
J2VwaWtfcHl0aG9uJywgJy1waCcsICc3LjAnLCAnLXRuJywgJzgnLCAnLW1hJywgJzIwMCcsICctbWV0YWxfYmluZGluZycsICctaW1hZScsICc8aW5maWxlLm1hZT4nLCAnLW9tYWUnLCAnPG91dGZpbGUubWFlPic=

> <r_lp_tautomer_probability>
1

> <r_epik_Ionization_Penalty>
3.32109e-08

> <r_epik_Ionization_Penalty_Charging>
1.91399e-09

> <r_epik_Ionization_Penalty_Neutral>
3.1297e-08

> <r_epik_State_Penalty>
-0

> <r_epik_Charging_Adjusted_Penalty>
1.91399e-09

> <i_epik_Tot_Q>
0

> <i_epik_Tot_abs_Q>
0

> <r_epik_Metal_State_Penalty>
-0

> <b_epik_Metal_Only>
0

> <s_lp_Force_Field>
OPLS_2005

> <r_lp_Energy>
26.4099

> <b_lp_Chiralities_Consistent>
1

> <s_lp_Variant>
AV-unprocessed.smi:2225-1

> <Gold.Version>
5.8.1

> <Gold.Id.Protein>
6NUR|6NUR_protein|mol2

> <Gold.PLP.Fitness>
43.8025

> <Gold.PLP.PLP>
-42.3038

> <Gold.PLP.part.hbond>
-2.0000

> <Gold.PLP.part.metal>
0.0000

> <Gold.PLP.part.buried>
-8.0897

> <Gold.PLP.part.nonpolar>
-33.3519

> <Gold.PLP.part.repulsive>
1.0080

> <Gold.PLP.ligand.clash>
0.3129

> <Gold.PLP.ligand.torsion>
1.0422

> <Gold.PLP.Chemscore.Hbond>
1.1794

> <Gold.PLP.Chemscore.CHOScore>
0.0000

> <Gold.PLP.Chemscore.Metal>
0.0000

> <Gold.Chemscore.Hbonds>
donor molecule, donor type, donor heavy atom, donor atom, acceptor molecule, acceptor atom, score
      L1  H    15    26       P1  8029  1.00
      P1  H  6933  6944       L1     1  0.24

> <Gold.PLP.Chemscore.Internal.Correction>
0.3578

> <Gold.Rescore>
     Score         DG    S(hbond)    S(metal)    S(lipo)     H(rot)  DE(clash)    DE(int)     intcor
     11.11     -15.16       1.58        0.00      73.58       1.64       0.00       4.05       ----

> <Gold.Chemscore.Fitness>
11.1141

> <Gold.Chemscore.DG>
-15.1650

> <Gold.Chemscore.ZeroCoef>
-5.4800

> <Gold.Chemscore.Hbond>
1.5785

> <Gold.Chemscore.Metal>
0.0000

> <Gold.Chemscore.Lipo>
73.5768

> <Gold.Chemscore.Internal_Hbond>
0.0000

> <Gold.Chemscore.DEClash>
0.0026

> <Gold.Chemscore.DEInternal>
4.0483

> <Gold.Chemscore.Rot>
1.6389

> <Gold.Chemscore.Internal.Correction>
   9.000000E+99

> <Gold.Chemscore.Hbonds>
donor molecule, donor type, donor heavy atom, donor atom, acceptor molecule, acceptor atom, score
      L1  H    15    26       P1  8029  0.95
      P1  H  6933  6944       L1     1  0.23

> <Gold.Chemscore.Hbond.Weighted>
-5.2721

> <Gold.Chemscore.Metal.Weighted>
-0.0000

> <Gold.Chemscore.Lipo.Weighted>
-8.6085

> <Gold.Chemscore.Internal_Hbond.Weighted>
0.0000

> <Gold.Chemscore.DEClash.Weighted>
0.0026

> <Gold.Chemscore.DEInternal.Weighted>
4.0483

> <Gold.Chemscore.Rot.Weighted>
4.1956

> <Gold.Chemscore.Internal.Correction.Weighted>
   9.000000E+99

> <Gold.Protein.RotatedTorsions>
[ 6907 6896 6895 6894 ] final   57.69 input  -60.11 | X-H torsion
[ 7974 7965 7964 7962 ] final  124.89 input  175.53 | X-H torsion
[ 8008 7997 7996 7995 ] final   19.35 input   59.86 | X-H torsion
[ 10167 10162 10161 10158 ] final  -98.55 input  -65.29 | X-H torsion
[ 10718 10713 10712 10709 ] final  -15.63 input   66.30 | X-H torsion
[ 10763 10752 10751 10750 ] final  -69.09 input  -60.55 | X-H torsion
[ 11005 11000 10999 10996 ] final  -97.36 input  -57.11 | X-H torsion

> <Gold.Protein.ActiveResidues>
 VAL166  LYS551  ARG553  GLY616  TRP617  ASP618  TYR619  PRO620  LYS621  CYS622 
 ASP623  PHE694  ASN695  SER759  ASP760  ASP761  ALA762  ILE779  LEU786  VAL792 
 PHE793  MET794  SER795  GLU796  ALA797  LYS798  CYS799  TRP800  GLU811  SER814 

> <Gold.Protein.RotatedAtoms>
  152.3755  134.6670  160.0161 H   0  0  0  0  0  0  0  0  0  0  0  0  # atno 6907 bound_to 6896
  151.6950  133.3305  159.3260 H   0  0  0  0  0  0  0  0  0  0  0  0  # atno 6908 bound_to 6896
  150.7706  134.6601  159.6379 H   0  0  0  0  0  0  0  0  0  0  0  0  # atno 6909 bound_to 6896
  145.0792  139.3670  143.4918 H   0  0  0  0  0  0  0  0  0  0  0  0  # atno 7974 bound_to 7965
  154.9194  140.3025  155.5224 H   0  0  0  0  0  0  0  0  0  0  0  0  # atno 8008 bound_to 7997
  156.3010  140.2374  156.4178 H   0  0  0  0  0  0  0  0  0  0  0  0  # atno 8009 bound_to 7997
  154.8346  140.0417  157.1489 H   0  0  0  0  0  0  0  0  0  0  0  0  # atno 8010 bound_to 7997
  140.2717  143.3339  152.0527 H   0  0  0  0  0  0  0  0  0  0  0  0  # atno 10167 bound_to 10162
  156.5990  130.4819  149.6247 H   0  0  0  0  0  0  0  0  0  0  0  0  # atno 10718 bound_to 10713
  154.3984  135.6037  153.5883 H   0  0  0  0  0  0  0  0  0  0  0  0  # atno 10763 bound_to 10752
  152.9788  135.5900  154.4214 H   0  0  0  0  0  0  0  0  0  0  0  0  # atno 10764 bound_to 10752
  154.4009  135.2843  155.2075 H   0  0  0  0  0  0  0  0  0  0  0  0  # atno 10765 bound_to 10752
  141.1381  133.8165  157.0695 H   0  0  0  0  0  0  0  0  0  0  0  0  # atno 11005 bound_to 11000
  146.3530  140.0574  142.8631 LP  0  0  0  0  0  0  0  0  0  0  0  0  # atno 17320 bound_to 7965
  145.1199  140.9456  143.4607 LP  0  0  0  0  0  0  0  0  0  0  0  0  # atno 17321 bound_to 7965
  139.4987  144.6651  151.6374 LP  0  0  0  0  0  0  0  0  0  0  0  0  # atno 17342 bound_to 10162
  140.5884  143.9823  150.6309 LP  0  0  0  0  0  0  0  0  0  0  0  0  # atno 17343 bound_to 10162
  156.2485  130.6893  151.1622 LP  0  0  0  0  0  0  0  0  0  0  0  0  # atno 17370 bound_to 10713
  157.7284  131.0632  150.5820 LP  0  0  0  0  0  0  0  0  0  0  0  0  # atno 17371 bound_to 10713
  140.0520  134.9800  157.1153 LP  0  0  0  0  0  0  0  0  0  0  0  0  # atno 17394 bound_to 11000
  140.3975  134.2118  155.7164 LP  0  0  0  0  0  0  0  0  0  0  0  0  # atno 17395 bound_to 11000

$$$$
