AV-unprocessed.smi:3130|AV-procd|sdf|11926|dock4
  -GOLD-   2272017313D 1   1.00000     0.00000
 Structure written by MMmdl.
 40 40  0  0  0  0  0  0  0  0  2 V2000
  145.7632  132.1051  149.6863 C   0  0  0  0  0  0  0  0  0  0  0  0
  145.7163  133.3476  150.5279 C   0  0  0  0  0  0  0  0  0  0  0  0
  146.7607  133.9138  151.3131 C   0  0  0  0  0  0  0  0  0  0  0  0
  146.3896  135.0167  151.9433 N   0  0  0  0  0  0  0  0  0  0  0  0
  145.1018  135.1951  151.5813 N   0  0  0  0  0  0  0  0  0  0  0  0
  144.3569  136.3247  152.1034 C   0  0  0  0  0  0  0  0  0  0  0  0
  145.2626  137.3096  152.8573 C   0  0  0  0  0  0  0  0  0  0  0  0
  145.5737  138.4875  152.0246 N   0  3  0  0  0  0  0  0  0  0  0  0
  146.9277  139.0338  152.2403 C   0  0  0  0  0  0  0  0  0  0  0  0
  146.9734  139.9132  153.5015 C   0  0  0  0  0  0  0  0  0  0  0  0
  148.3968  140.3312  153.8821 C   0  0  0  0  0  0  0  0  0  0  0  0
  148.7131  141.5208  153.8987 O   0  0  0  0  0  0  0  0  0  0  0  0
  149.2479  139.3374  154.1820 N   0  0  0  0  0  0  0  0  0  0  0  0
  150.6478  139.5056  154.5625 C   0  0  0  0  0  0  0  0  0  0  0  0
  151.3073  138.1268  154.6993 C   0  0  0  0  0  0  0  0  0  0  0  0
  150.7597  140.3180  155.8624 C   0  0  0  0  0  0  0  0  0  0  0  0
  144.6687  134.2006  150.7301 C   0  0  0  0  0  0  0  0  0  0  0  0
  146.7723  131.6976  149.6185 H   0  0  0  0  0  0  0  0  0  0  0  0
  145.4253  132.2958  148.6674 H   0  0  0  0  0  0  0  0  0  0  0  0
  145.1269  131.3200  150.0953 H   0  0  0  0  0  0  0  0  0  0  0  0
  147.7713  133.5560  151.4448 H   0  0  0  0  0  0  0  0  0  0  0  0
  143.8607  136.8261  151.2713 H   0  0  0  0  0  0  0  0  0  0  0  0
  143.5717  135.9458  152.7594 H   0  0  0  0  0  0  0  0  0  0  0  0
  144.7751  137.6416  153.7750 H   0  0  0  0  0  0  0  0  0  0  0  0
  146.1928  136.8174  153.1448 H   0  0  0  0  0  0  0  0  0  0  0  0
  145.4817  138.2271  151.0530 H   0  0  0  0  0  0  0  0  0  0  0  0
  147.6308  138.2041  152.3290 H   0  0  0  0  0  0  0  0  0  0  0  0
  147.2216  139.6161  151.3652 H   0  0  0  0  0  0  0  0  0  0  0  0
  146.3655  140.8062  153.3471 H   0  0  0  0  0  0  0  0  0  0  0  0
  146.5372  139.3791  154.3464 H   0  0  0  0  0  0  0  0  0  0  0  0
  148.9030  138.3893  154.1400 H   0  0  0  0  0  0  0  0  0  0  0  0
  151.1690  140.0452  153.7697 H   0  0  0  0  0  0  0  0  0  0  0  0
  152.3625  138.2205  154.9574 H   0  0  0  0  0  0  0  0  0  0  0  0
  151.2467  137.5670  153.7653 H   0  0  0  0  0  0  0  0  0  0  0  0
  150.8272  137.5315  155.4768 H   0  0  0  0  0  0  0  0  0  0  0  0
  151.8027  140.4496  156.1521 H   0  0  0  0  0  0  0  0  0  0  0  0
  150.2463  139.8221  156.6867 H   0  0  0  0  0  0  0  0  0  0  0  0
  150.3252  141.3117  155.7483 H   0  0  0  0  0  0  0  0  0  0  0  0
  143.6606  134.1800  150.3426 H   0  0  0  0  0  0  0  0  0  0  0  0
  144.9003  139.2116  152.2307 H   0  0  0  0  0  0  0  0  0  0  0  0
  1  2  1  0  0  0  0
  1 18  1  0  0  0  0
  1 19  1  0  0  0  0
  1 20  1  0  0  0  0
  2 17  2  0  0  0  0
  2  3  1  0  0  0  0
  3  4  2  0  0  0  0
  3 21  1  0  0  0  0
  4  5  1  0  0  0  0
  5  6  1  0  0  0  0
  5 17  1  0  0  0  0
  6  7  1  0  0  0  0
  6 22  1  0  0  0  0
  6 23  1  0  0  0  0
  7  8  1  0  0  0  0
  7 24  1  0  0  0  0
  7 25  1  0  0  0  0
  8  9  1  0  0  0  0
  8 26  1  0  0  0  0
  8 40  1  0  0  0  0
  9 10  1  0  0  0  0
  9 27  1  0  0  0  0
  9 28  1  0  0  0  0
 10 11  1  0  0  0  0
 10 29  1  0  0  0  0
 10 30  1  0  0  0  0
 11 12  2  0  0  0  0
 11 13  1  0  0  0  0
 13 14  1  0  0  0  0
 13 31  1  0  0  0  0
 14 15  1  0  0  0  0
 14 16  1  0  0  0  0
 14 32  1  0  0  0  0
 15 33  1  0  0  0  0
 15 34  1  0  0  0  0
 15 35  1  0  0  0  0
 16 36  1  0  0  0  0
 16 37  1  0  0  0  0
 16 38  1  0  0  0  0
 17 39  1  0  0  0  0
M  CHG  1   8   1
M  END
> <s_m_source_file>
AV-unprocessed.smi

> <i_m_source_file_index>
3130

> <i_lp_mmshare_version>
43012

> <i_f3d_flags>
0

> <s_epik_input>
W0NIM11jMVtjSF1ubihbY0hdMSlbQ0gyXVtDSDJdW05IXVtDSDJdW0NIMl1DKD1PKVtOSF1bQ0hdKFtDSDNdKVtDSDNd

> <s_epik_cmdline>
J2VwaWtfcHl0aG9uJywgJy1waCcsICc3LjAnLCAnLXRuJywgJzgnLCAnLW1hJywgJzIwMCcsICctbWV0YWxfYmluZGluZycsICctaW1hZScsICc8aW5maWxlLm1hZT4nLCAnLW9tYWUnLCAnPG91dGZpbGUubWFlPic=

> <r_lp_tautomer_probability>
1

> <r_epik_Ionization_Penalty>
0.00578341

> <r_epik_Ionization_Penalty_Charging>
0.00577767

> <r_epik_Ionization_Penalty_Neutral>
5.73237e-06

> <r_epik_State_Penalty>
-0

> <r_epik_Charging_Adjusted_Penalty>
0.00577767

> <i_epik_Tot_Q>
1

> <i_epik_Tot_abs_Q>
1

> <r_epik_Metal_State_Penalty>
-0

> <b_epik_Metal_Only>
0

> <s_lp_Force_Field>
OPLS_2005

> <r_lp_Energy>
3.33075

> <b_lp_Chiralities_Consistent>
1

> <s_lp_Variant>
AV-unprocessed.smi:3130-1

> <Gold.Version>
5.8.1

> <Gold.Id.Protein>
6NUR|6NUR_protein|mol2

> <Gold.PLP.Fitness>
47.4080

> <Gold.PLP.PLP>
-35.5377

> <Gold.PLP.part.hbond>
-4.0000

> <Gold.PLP.part.metal>
0.0000

> <Gold.PLP.part.buried>
-1.3282

> <Gold.PLP.part.nonpolar>
-30.6629

> <Gold.PLP.part.repulsive>
1.6697

> <Gold.PLP.ligand.clash>
0.0000

> <Gold.PLP.ligand.torsion>
0.7319

> <Gold.PLP.Chemscore.Hbond>
3.4013

> <Gold.PLP.Chemscore.CHOScore>
1.0000

> <Gold.PLP.Chemscore.Metal>
0.0000

> <Gold.Chemscore.Hbonds>
donor molecule, donor type, donor heavy atom, donor atom, acceptor molecule, acceptor atom, score
      L1  H     8    26       P1 10171  0.50
      L1  H     8    40       P1 10175  2.00
      P1  H  8011  8017       L1    12  0.56
      L1  C     3    21       P1  7948  0.01
      L1  C    17    39       P1 10186  0.39

> <Gold.PLP.Chemscore.Internal.Correction>
0.1303

> <Gold.Rescore>
     Score         DG    S(hbond)    S(metal)    S(lipo)     H(rot)  DE(clash)    DE(int)     intcor
     15.06     -16.25       2.31        0.00      75.53       2.26       0.37       0.83       ----

> <Gold.Chemscore.Fitness>
15.0593

> <Gold.Chemscore.DG>
-16.2533

> <Gold.Chemscore.ZeroCoef>
-5.4800

> <Gold.Chemscore.Hbond>
2.3114

> <Gold.Chemscore.Metal>
0.0000

> <Gold.Chemscore.Lipo>
75.5254

> <Gold.Chemscore.Internal_Hbond>
0.0000

> <Gold.Chemscore.DEClash>
0.3666

> <Gold.Chemscore.DEInternal>
0.8274

> <Gold.Chemscore.Rot>
2.2591

> <Gold.Chemscore.Internal.Correction>
   9.000000E+99

> <Gold.Chemscore.Hbonds>
donor molecule, donor type, donor heavy atom, donor atom, acceptor molecule, acceptor atom, score
      L1  H     8    26       P1 10171  0.48
      L1  H     8    40       P1 10175  1.00
      P1  H  8011  8017       L1    12  0.54

> <Gold.Chemscore.Hbond.Weighted>
-7.7202

> <Gold.Chemscore.Metal.Weighted>
-0.0000

> <Gold.Chemscore.Lipo.Weighted>
-8.8365

> <Gold.Chemscore.Internal_Hbond.Weighted>
0.0000

> <Gold.Chemscore.DEClash.Weighted>
0.3666

> <Gold.Chemscore.DEInternal.Weighted>
0.8274

> <Gold.Chemscore.Rot.Weighted>
5.7834

> <Gold.Chemscore.Internal.Correction.Weighted>
   9.000000E+99

> <Gold.Protein.RotatedTorsions>
[ 6907 6896 6895 6894 ] final   66.77 input  -60.11 | X-H torsion
[ 7974 7965 7964 7962 ] final   19.81 input  175.53 | X-H torsion
[ 8008 7997 7996 7995 ] final  170.69 input   59.86 | X-H torsion
[ 10167 10162 10161 10158 ] final  -25.92 input  -65.29 | X-H torsion
[ 10718 10713 10712 10709 ] final  -58.48 input   66.30 | X-H torsion
[ 10763 10752 10751 10750 ] final   78.68 input  -60.55 | X-H torsion
[ 11005 11000 10999 10996 ] final -143.37 input  -57.11 | X-H torsion

> <Gold.Protein.ActiveResidues>
 VAL166  LYS551  ARG553  GLY616  TRP617  ASP618  TYR619  PRO620  LYS621  CYS622 
 ASP623  PHE694  ASN695  SER759  ASP760  ASP761  ALA762  ILE779  LEU786  VAL792 
 PHE793  MET794  SER795  GLU796  ALA797  LYS798  CYS799  TRP800  GLU811  SER814 

> <Gold.Protein.RotatedAtoms>
  152.4505  134.5404  159.9836 H   0  0  0  0  0  0  0  0  0  0  0  0  # atno 6907 bound_to 6896
  151.5477  133.3416  159.2955 H   0  0  0  0  0  0  0  0  0  0  0  0  # atno 6908 bound_to 6896
  150.8433  134.7764  159.7013 H   0  0  0  0  0  0  0  0  0  0  0  0  # atno 6909 bound_to 6896
  146.2135  139.8260  142.8670 H   0  0  0  0  0  0  0  0  0  0  0  0  # atno 7974 bound_to 7965
  156.1341  140.1531  156.9020 H   0  0  0  0  0  0  0  0  0  0  0  0  # atno 8008 bound_to 7997
  154.4933  140.0845  156.7682 H   0  0  0  0  0  0  0  0  0  0  0  0  # atno 8009 bound_to 7997
  155.4200  140.3422  155.4273 H   0  0  0  0  0  0  0  0  0  0  0  0  # atno 8010 bound_to 7997
  140.7285  143.4223  151.0932 H   0  0  0  0  0  0  0  0  0  0  0  0  # atno 10167 bound_to 10162
  156.1132  130.4173  150.0583 H   0  0  0  0  0  0  0  0  0  0  0  0  # atno 10718 bound_to 10713
  153.0893  135.4868  154.8658 H   0  0  0  0  0  0  0  0  0  0  0  0  # atno 10763 bound_to 10752
  154.7249  135.3047  154.8989 H   0  0  0  0  0  0  0  0  0  0  0  0  # atno 10764 bound_to 10752
  153.9642  135.6809  153.4799 H   0  0  0  0  0  0  0  0  0  0  0  0  # atno 10765 bound_to 10752
  140.8132  134.2719  157.4932 H   0  0  0  0  0  0  0  0  0  0  0  0  # atno 11005 bound_to 11000
  145.3046  141.0203  143.3589 LP  0  0  0  0  0  0  0  0  0  0  0  0  # atno 17320 bound_to 7965
  144.8980  139.4686  143.6646 LP  0  0  0  0  0  0  0  0  0  0  0  0  # atno 17321 bound_to 7965
  139.7870  143.8273  152.3146 LP  0  0  0  0  0  0  0  0  0  0  0  0  # atno 17342 bound_to 10162
  139.8244  144.7282  150.9531 LP  0  0  0  0  0  0  0  0  0  0  0  0  # atno 17343 bound_to 10162
  156.8540  130.9469  151.3623 LP  0  0  0  0  0  0  0  0  0  0  0  0  # atno 17370 bound_to 10713
  157.6314  130.8732  149.9281 LP  0  0  0  0  0  0  0  0  0  0  0  0  # atno 17371 bound_to 10713
  139.8713  134.9494  156.4026 LP  0  0  0  0  0  0  0  0  0  0  0  0  # atno 17394 bound_to 11000
  140.9176  133.7667  155.9867 LP  0  0  0  0  0  0  0  0  0  0  0  0  # atno 17395 bound_to 11000

$$$$
