#       Name:                AV-unprocessed.smi:2505
#       Creating user name   scv26
#       Creation time:       Fri Mar 27 13:48:38 2020


#       File generated by GOLD software.
#

@<TRIPOS>MOLECULE
AV-unprocessed.smi:2505
    54    58     1
SMALL
NO_CHARGES


@<TRIPOS>ATOM
      1 ****         0.4590   2.7269  -0.5138 O.2            1 S1                 0.0000
      2 ****         0.1198   1.5500  -0.4171 C.2            1 S1                 0.0000
      3 ****         0.9669   0.5103  -0.2897 N.am           1 S1                 0.0000
      4 ****         2.3864   0.5180  -0.2455 C.ar           1 S1                 0.0000
      5 ****         3.2136   1.5979  -0.6415 C.ar           1 S1                 0.0000
      6 ****         4.5607   1.5176  -0.5833 N.ar           1 S1                 0.0000
      7 ****         5.0818   0.3671  -0.1484 C.ar           1 S1                 0.0000
      8 ****         6.5742   0.2993  -0.0517 C.3            1 S1                 0.0000
      9 ****         7.4436   0.5972  -1.2562 C.3            1 S1                 0.0000
     10 ****         7.3455  -0.8102  -0.7370 C.3            1 S1                 0.0000
     11 ****         4.4046  -0.7115   0.2548 N.ar           1 S1                 0.0000
     12 ****         3.0576  -0.6404   0.1989 C.ar           1 S1                 0.0000
     13 ****        -1.1772   1.1986  -0.4076 N.am           1 S1                 0.0000
     14 ****        -2.3456   2.0859  -0.5257 C.3            1 S1                 0.0000
     15 ****        -2.6792   2.4997  -1.9640 C.3            1 S1                 0.0000
     16 ****        -1.9404   2.5573  -3.2532 C.3            1 S1                 0.0000
     17 ****        -3.0685   1.9874  -4.1534 C.3            1 S1                 0.0000
     18 ****        -4.0931   1.5018  -3.2496 O.3            1 S1                 0.0000
     19 ****        -3.3852   1.1644  -2.0723 C.3            1 S1                 0.0000
     20 ****        -3.7308   1.3326  -0.5736 C.3            1 S1                 0.0000
     21 ****        -3.8764   0.0506   0.2553 C.3            1 S1                 0.0000
     22 ****        -5.3454  -0.0829   0.6439 C.3            1 S1                 0.0000
     23 ****        -5.8062   1.3580   0.8059 C.3            1 S1                 0.0000
     24 ****        -5.0050   2.1356  -0.2395 C.3            1 S1                 0.0000
     25 ****         0.5355  -0.3938  -0.1624 H              1 S1                 0.0000
     26 ****         2.8229   2.5278  -1.0229 H              1 S1                 0.0000
     27 ****         6.9235   0.6346   0.9229 H              1 S1                 0.0000
     28 ****         6.9475   0.8178  -2.1995 H              1 S1                 0.0000
     29 ****         8.3730   1.1350  -1.0815 H              1 S1                 0.0000
     30 ****         8.2098  -1.2154  -0.2150 H              1 S1                 0.0000
     31 ****         6.7842  -1.5255  -1.3350 H              1 S1                 0.0000
     32 ****         2.5114  -1.5168   0.5162 H              1 S1                 0.0000
     33 ****        -1.3794   0.2162  -0.2906 H              1 S1                 0.0000
     34 ****        -2.3392   2.9173   0.1811 H              1 S1                 0.0000
     35 ****        -3.3830   3.3373  -1.9213 H              1 S1                 0.0000
     36 ****        -1.6499   3.5705  -3.5317 H              1 S1                 0.0000
     37 ****        -1.0572   1.9173  -3.2536 H              1 S1                 0.0000
     38 ****        -3.4913   2.7489  -4.8090 H              1 S1                 0.0000
     39 ****        -2.6939   1.1738  -4.7758 H              1 S1                 0.0000
     40 ****        -2.7191   0.3160  -2.2590 H              1 S1                 0.0000
     41 ****        -3.5312  -0.8345  -0.2803 H              1 S1                 0.0000
     42 ****        -3.2756   0.1238   1.1628 H              1 S1                 0.0000
     43 ****        -5.8991  -0.5569  -0.1676 H              1 S1                 0.0000
     44 ****        -5.4927  -0.6784   1.5453 H              1 S1                 0.0000
     45 ****        -6.8835   1.4720   0.6815 H              1 S1                 0.0000
     46 ****        -5.5469   1.7130   1.8043 H              1 S1                 0.0000
     47 ****        -4.7784   3.1387   0.1232 H              1 S1                 0.0000
     48 ****        -5.6162   2.2604  -1.1342 H              1 S1                 0.0000
     49 ****         1.4288   2.9704  -0.5009 LP             1 S1                 0.0000
     50 ****        -0.2347   3.4413  -0.6054 LP             1 S1                 0.0000
     51 ****         5.1419   2.2851  -0.8537 LP             1 S1                 0.0000
     52 ****         4.8729  -1.5321   0.5823 LP             1 S1                 0.0000
     53 ****        -4.5508   0.6986  -3.6309 LP             1 S1                 0.0000
     54 ****        -4.7698   2.2145  -3.0648 LP             1 S1                 0.0000
@<TRIPOS>BOND
    1    1    2 2     
    2    2    3 am    
    3    2   13 am    
    4    3    4 1     
    5    3   25 1     
    6    4   12 ar    
    7    4    5 ar    
    8    5    6 ar    
    9    5   26 1     
   10    6    7 ar    
   11    7    8 1     
   12    7   11 ar    
   13    8   10 1     
   14    8    9 1     
   15    8   27 1     
   16    9   10 1     
   17    9   28 1     
   18    9   29 1     
   19   10   30 1     
   20   10   31 1     
   21   11   12 ar    
   22   12   32 1     
   23   13   14 1     
   24   13   33 1     
   25   14   20 1     
   26   14   15 1     
   27   14   34 1     
   28   15   19 1     
   29   15   16 1     
   30   15   35 1     
   31   16   17 1     
   32   16   36 1     
   33   16   37 1     
   34   17   18 1     
   35   17   38 1     
   36   17   39 1     
   37   18   19 1     
   38   19   20 1     
   39   19   40 1     
   40   20   24 1     
   41   20   21 1     
   42   21   22 1     
   43   21   41 1     
   44   21   42 1     
   45   22   23 1     
   46   22   43 1     
   47   22   44 1     
   48   23   24 1     
   49   23   45 1     
   50   23   46 1     
   51   24   47 1     
   52   24   48 1     
   53    1   49 1     
   54    1   50 1     
   55    6   51 1     
   56   11   52 1     
   57   18   53 1     
   58   18   54 1     
@<TRIPOS>SUBSTRUCTURE
      1 S1             1
@<TRIPOS>SET
LONE_PAIRS      STATIC     ATOMS    <user>   **** ""
6 49 50 51 52 53 54
DONOR_HYDROGENS      STATIC     ATOMS    <user>   **** ""
2 25 33
ATOM$BLUE        STATIC     ATOMS    COLORGROUP SYSTEM
6 49 50 51 52 53 54
ATOM$RED        STATIC     ATOMS    COLORGROUP SYSTEM
2 25 33
