AV-unprocessed.smi:159|AV-procd|sdf|1339|dock7
  -GOLD-   2262019 33D 1   1.00000     0.00000
 Structure written by MMmdl.
 28 29  0  0  0  0  0  0  0  0  1 V2000
  152.8414  141.3872  159.1038 N   0  0  0  0  0  0  0  0  0  0  0  0
  152.1460  141.1882  157.9753 C   0  0  0  0  0  0  0  0  0  0  0  0
  151.0898  142.1002  157.5976 C   0  0  0  0  0  0  0  0  0  0  0  0
  150.4383  141.8347  156.4441 C   0  0  0  0  0  0  0  0  0  0  0  0
  150.7630  140.7479  155.6441 N   0  0  0  0  0  0  0  0  0  0  0  0
  150.0128  140.4726  154.3599 C   0  0  1  0  0  0  0  0  0  0  0  0
  149.1065  139.2467  154.5213 C   0  0  0  0  0  0  0  0  0  0  0  0
  147.7393  139.8813  154.6645 C   0  0  0  0  0  0  0  0  0  0  0  0
  147.8747  141.1260  153.7901 C   0  0  1  0  0  0  0  0  0  0  0  0
  146.8568  142.2245  154.1297 C   0  0  0  0  0  0  0  0  0  0  0  0
  147.0513  142.6722  155.4540 O   0  0  0  0  0  0  0  0  0  0  0  0
  149.1983  141.5709  154.0689 O   0  0  0  0  0  0  0  0  0  0  0  0
  151.7877  139.8598  156.0520 C   0  0  0  0  0  0  0  0  0  0  0  0
  152.0839  138.8614  155.3963 O   0  0  0  0  0  0  0  0  0  0  0  0
  152.4395  140.1466  157.2215 N   0  0  0  0  0  0  0  0  0  0  0  0
  150.7538  140.3656  153.5660 H   0  0  0  0  0  0  0  0  0  0  0  0
  147.8032  140.8335  152.7405 H   0  0  0  0  0  0  0  0  0  0  0  0
  153.5764  140.7469  159.3667 H   0  0  0  0  0  0  0  0  0  0  0  0
  152.6238  142.1782  159.6929 H   0  0  0  0  0  0  0  0  0  0  0  0
  150.8094  142.9623  158.1859 H   0  0  0  0  0  0  0  0  0  0  0  0
  149.6410  142.5021  156.1519 H   0  0  0  0  0  0  0  0  0  0  0  0
  149.1605  138.6508  153.6093 H   0  0  0  0  0  0  0  0  0  0  0  0
  149.3958  138.6237  155.3687 H   0  0  0  0  0  0  0  0  0  0  0  0
  146.9300  139.2241  154.3455 H   0  0  0  0  0  0  0  0  0  0  0  0
  147.5632  140.1593  155.7045 H   0  0  0  0  0  0  0  0  0  0  0  0
  146.9981  143.0822  153.4714 H   0  0  0  0  0  0  0  0  0  0  0  0
  145.8332  141.8748  153.9918 H   0  0  0  0  0  0  0  0  0  0  0  0
  147.8850  143.1146  155.5027 H   0  0  0  0  0  0  0  0  0  0  0  0
  1  2  1  0  0  0  0
  1 18  1  0  0  0  0
  1 19  1  0  0  0  0
  2 15  2  0  0  0  0
  2  3  1  0  0  0  0
  3  4  2  0  0  0  0
  3 20  1  0  0  0  0
  4  5  1  0  0  0  0
  4 21  1  0  0  0  0
  5  6  1  0  0  0  0
  5 13  1  0  0  0  0
  6 16  1  0  0  0  0
  6 12  1  0  0  0  0
  6  7  1  0  0  0  0
  7  8  1  0  0  0  0
  7 22  1  0  0  0  0
  7 23  1  0  0  0  0
  8  9  1  0  0  0  0
  8 24  1  0  0  0  0
  8 25  1  0  0  0  0
  9 17  1  0  0  0  0
  9 10  1  0  0  0  0
  9 12  1  0  0  0  0
 10 11  1  0  0  0  0
 10 26  1  0  0  0  0
 10 27  1  0  0  0  0
 11 28  1  0  0  0  0
 13 14  2  0  0  0  0
 13 15  1  0  0  0  0
M  END
> <s_m_source_file>
AV-unprocessed.smi

> <i_m_source_file_index>
159

> <i_lp_mmshare_version>
43012

> <i_f3d_flags>
0

> <s_epik_input>
W05IMl1jMVtjSF1bY0hdbihjKD1PKW4xKVtDQEhdMltDSDJdW0NIMl1bQ0BIXShPMilbQ0gyXVtPSF0=

> <s_epik_cmdline>
J2VwaWtfcHl0aG9uJywgJy1waCcsICc3LjAnLCAnLXRuJywgJzgnLCAnLW1hJywgJzIwMCcsICctbWV0YWxfYmluZGluZycsICctaW1hZScsICc8aW5maWxlLm1hZT4nLCAnLW9tYWUnLCAnPG91dGZpbGUubWFlPic=

> <r_lp_tautomer_probability>
0.99996

> <r_epik_Ionization_Penalty>
0.00126102

> <r_epik_Ionization_Penalty_Charging>
4.46248e-08

> <r_epik_Ionization_Penalty_Neutral>
0.00126097

> <r_epik_State_Penalty>
1.15523e-05

> <r_epik_Charging_Adjusted_Penalty>
1.1597e-05

> <i_epik_Tot_Q>
0

> <i_epik_Tot_abs_Q>
0

> <r_epik_Metal_State_Penalty>
-0

> <b_epik_Metal_Only>
0

> <s_epik_Chemistry_Notes>
This compound contains an acetal/aminal-like group ( X-CH(R)-Y where X, Y are N, S, or O) that may be acid/base labile, releasing an aldehyde.

> <s_lp_Force_Field>
OPLS_2005

> <r_lp_Energy>
25.8801

> <b_lp_Chiralities_Consistent>
1

> <s_lp_Variant>
AV-unprocessed.smi:159-1

> <Gold.Version>
5.8.1

> <Gold.Id.Protein>
6NUR|6NUR_protein|mol2

> <Gold.PLP.Fitness>
37.4307

> <Gold.PLP.PLP>
-26.9738

> <Gold.PLP.part.hbond>
-3.8602

> <Gold.PLP.part.metal>
0.0000

> <Gold.PLP.part.buried>
0.2980

> <Gold.PLP.part.nonpolar>
-22.8939

> <Gold.PLP.part.repulsive>
0.2907

> <Gold.PLP.ligand.clash>
0.0000

> <Gold.PLP.ligand.torsion>
0.2142

> <Gold.PLP.Chemscore.Hbond>
2.6240

> <Gold.PLP.Chemscore.CHOScore>
1.0000

> <Gold.PLP.Chemscore.Metal>
0.0000

> <Gold.Chemscore.Hbonds>
donor molecule, donor type, donor heavy atom, donor atom, acceptor molecule, acceptor atom, score
      L1  H    11    28       P1  8028  0.96
      P1  H  7997  8010       L1    15  1.00
      P1  H  8011  8017       L1    12  0.64
      L1  C     4    21       P1  8028  1.00

> <Gold.PLP.Chemscore.Internal.Correction>
0.0134

> <Gold.Rescore>
     Score         DG    S(hbond)    S(metal)    S(lipo)     H(rot)  DE(clash)    DE(int)     intcor
      9.09     -10.01       1.67        0.00      36.74       2.09       0.59       0.33       ----

> <Gold.Chemscore.Fitness>
9.0863

> <Gold.Chemscore.DG>
-10.0079

> <Gold.Chemscore.ZeroCoef>
-5.4800

> <Gold.Chemscore.Hbond>
1.6731

> <Gold.Chemscore.Metal>
0.0000

> <Gold.Chemscore.Lipo>
36.7446

> <Gold.Chemscore.Internal_Hbond>
0.0000

> <Gold.Chemscore.DEClash>
0.5920

> <Gold.Chemscore.DEInternal>
0.3296

> <Gold.Chemscore.Rot>
2.0935

> <Gold.Chemscore.Internal.Correction>
   9.000000E+99

> <Gold.Chemscore.Hbonds>
donor molecule, donor type, donor heavy atom, donor atom, acceptor molecule, acceptor atom, score
      L1  H    11    28       P1  8028  0.60
      P1  H  7997  8010       L1    15  0.27
      P1  H  8011  8017       L1    12  0.20

> <Gold.Chemscore.Hbond.Weighted>
-5.5881

> <Gold.Chemscore.Metal.Weighted>
-0.0000

> <Gold.Chemscore.Lipo.Weighted>
-4.2991

> <Gold.Chemscore.Internal_Hbond.Weighted>
0.0000

> <Gold.Chemscore.DEClash.Weighted>
0.5920

> <Gold.Chemscore.DEInternal.Weighted>
0.3296

> <Gold.Chemscore.Rot.Weighted>
5.3594

> <Gold.Chemscore.Internal.Correction.Weighted>
   9.000000E+99

> <Gold.Protein.RotatedTorsions>
[ 6907 6896 6895 6894 ] final -166.73 input  -60.11 | X-H torsion
[ 7974 7965 7964 7962 ] final  -35.92 input  175.53 | X-H torsion
[ 8008 7997 7996 7995 ] final   60.77 input   59.86 | X-H torsion
[ 10167 10162 10161 10158 ] final  -95.00 input  -65.29 | X-H torsion
[ 10718 10713 10712 10709 ] final  -85.55 input   66.30 | X-H torsion
[ 10763 10752 10751 10750 ] final  128.65 input  -60.55 | X-H torsion
[ 11005 11000 10999 10996 ] final  -14.24 input  -57.11 | X-H torsion

> <Gold.Protein.ActiveResidues>
 VAL166  LYS551  ARG553  GLY616  TRP617  ASP618  TYR619  PRO620  LYS621  CYS622 
 ASP623  PHE694  ASN695  SER759  ASP760  ASP761  ALA762  ILE779  LEU786  VAL792 
 PHE793  MET794  SER795  GLU796  ALA797  LYS798  CYS799  TRP800  GLU811  SER814 

> <Gold.Protein.RotatedAtoms>
  151.4482  133.3624  159.2791 H   0  0  0  0  0  0  0  0  0  0  0  0  # atno 6907 bound_to 6896
  150.9109  134.8528  159.7435 H   0  0  0  0  0  0  0  0  0  0  0  0  # atno 6908 bound_to 6896
  152.4932  134.4412  159.9596 H   0  0  0  0  0  0  0  0  0  0  0  0  # atno 6909 bound_to 6896
  146.0706  140.6217  142.8954 H   0  0  0  0  0  0  0  0  0  0  0  0  # atno 7974 bound_to 7965
  155.5877  140.3492  155.4558 H   0  0  0  0  0  0  0  0  0  0  0  0  # atno 8008 bound_to 7997
  156.0325  140.1278  157.0268 H   0  0  0  0  0  0  0  0  0  0  0  0  # atno 8009 bound_to 7997
  154.4358  140.1040  156.6106 H   0  0  0  0  0  0  0  0  0  0  0  0  # atno 8010 bound_to 7997
  140.3086  143.3118  152.0172 H   0  0  0  0  0  0  0  0  0  0  0  0  # atno 10167 bound_to 10162
  155.9996  130.4735  150.4579 H   0  0  0  0  0  0  0  0  0  0  0  0  # atno 10718 bound_to 10713
  153.7290  135.3241  155.3282 H   0  0  0  0  0  0  0  0  0  0  0  0  # atno 10763 bound_to 10752
  154.8332  135.4517  154.1141 H   0  0  0  0  0  0  0  0  0  0  0  0  # atno 10764 bound_to 10752
  153.2283  135.6957  153.8000 H   0  0  0  0  0  0  0  0  0  0  0  0  # atno 10765 bound_to 10752
  140.7844  133.8337  155.9321 H   0  0  0  0  0  0  0  0  0  0  0  0  # atno 11005 bound_to 11000
  144.7229  140.4432  143.6994 LP  0  0  0  0  0  0  0  0  0  0  0  0  # atno 17320 bound_to 7965
  145.6399  139.1548  143.2921 LP  0  0  0  0  0  0  0  0  0  0  0  0  # atno 17321 bound_to 7965
  139.4899  144.6401  151.6894 LP  0  0  0  0  0  0  0  0  0  0  0  0  # atno 17342 bound_to 10162
  140.5588  144.0303  150.6160 LP  0  0  0  0  0  0  0  0  0  0  0  0  # atno 17343 bound_to 10162
  157.2606  131.0566  151.2322 LP  0  0  0  0  0  0  0  0  0  0  0  0  # atno 17370 bound_to 10713
  157.3438  130.7047  149.6398 LP  0  0  0  0  0  0  0  0  0  0  0  0  # atno 17371 bound_to 10713
  140.9451  134.1851  157.4769 LP  0  0  0  0  0  0  0  0  0  0  0  0  # atno 17394 bound_to 11000
  139.8738  134.9887  156.5425 LP  0  0  0  0  0  0  0  0  0  0  0  0  # atno 17395 bound_to 11000

$$$$
