AV-unprocessed.smi:1047|AV-procd|sdf|4578|dock2
  -GOLD-   22720 3 43D 1   1.00000     0.00000
 Structure written by MMmdl.
 56 58  0  0  0  0  0  0  0  0  2 V2000
  143.9325  132.8419  150.8797 C   0  0  0  0  0  0  0  0  0  0  0  0
  144.5264  133.8823  151.8393 C   0  0  0  0  0  0  0  0  0  0  0  0
  145.0652  133.2653  153.0802 N   0  3  1  0  0  0  0  0  0  0  0  0
  146.1247  132.2483  152.8594 C   0  0  0  0  0  0  0  0  0  0  0  0
  147.4849  132.9066  152.5594 C   0  0  0  0  0  0  0  0  0  0  0  0
  147.8164  133.8175  153.6003 O   0  0  0  0  0  0  0  0  0  0  0  0
  146.8690  134.8740  153.7242 C   0  0  2  0  0  0  0  0  0  0  0  0
  147.3681  135.8360  154.8120 C   0  0  0  0  0  0  0  0  0  0  0  0
  148.5091  136.6146  154.3419 N   0  0  0  0  0  0  0  0  0  0  0  0
  148.7129  137.8497  155.0931 C   0  0  0  0  0  0  0  0  0  0  0  0
  149.8000  138.7263  154.4413 C   0  0  1  0  0  0  0  0  0  0  0  0
  149.4409  138.9490  153.0934 O   0  0  0  0  0  0  0  0  0  0  0  0
  149.9601  140.1074  155.1064 C   0  0  0  0  0  0  0  0  0  0  0  0
  151.0147  140.1287  156.1040 N   0  0  0  0  0  0  0  0  0  0  0  0
  152.0335  139.2554  156.2210 C   0  0  0  0  0  0  0  0  0  0  0  0
  152.8941  139.4530  157.2152 N   0  0  0  0  0  0  0  0  0  0  0  0
  152.3773  140.5916  157.8092 C   0  0  0  0  0  0  0  0  0  0  0  0
  152.8268  141.3254  158.9289 C   0  0  0  0  0  0  0  0  0  0  0  0
  152.1320  142.4746  159.3689 C   0  0  0  0  0  0  0  0  0  0  0  0
  152.6499  143.2334  160.5782 C   0  0  0  0  0  0  0  0  0  0  0  0
  150.9669  142.9055  158.6848 C   0  0  0  0  0  0  0  0  0  0  0  0
  150.2037  144.1370  159.1394 C   0  0  0  0  0  0  0  0  0  0  0  0
  150.5036  142.1834  157.5650 C   0  0  0  0  0  0  0  0  0  0  0  0
  151.2035  141.0416  157.1367 C   0  0  0  0  0  0  0  0  0  0  0  0
  145.5034  134.2567  154.0935 C   0  0  0  0  0  0  0  0  0  0  0  0
  143.4542  133.3331  150.0320 H   0  0  0  0  0  0  0  0  0  0  0  0
  143.1765  132.2331  151.3765 H   0  0  0  0  0  0  0  0  0  0  0  0
  144.6933  132.1735  150.4774 H   0  0  0  0  0  0  0  0  0  0  0  0
  145.2896  134.4736  151.3338 H   0  0  0  0  0  0  0  0  0  0  0  0
  143.7291  134.5772  152.1058 H   0  0  0  0  0  0  0  0  0  0  0  0
  146.2124  131.6502  153.7673 H   0  0  0  0  0  0  0  0  0  0  0  0
  145.8494  131.5542  152.0663 H   0  0  0  0  0  0  0  0  0  0  0  0
  148.2622  132.1445  152.5018 H   0  0  0  0  0  0  0  0  0  0  0  0
  147.4783  133.4200  151.5973 H   0  0  0  0  0  0  0  0  0  0  0  0
  146.7857  135.4144  152.7793 H   0  0  0  0  0  0  0  0  0  0  0  0
  146.5621  136.5160  155.0904 H   0  0  0  0  0  0  0  0  0  0  0  0
  147.6287  135.2767  155.7117 H   0  0  0  0  0  0  0  0  0  0  0  0
  149.3503  136.0474  154.3858 H   0  0  0  0  0  0  0  0  0  0  0  0
  147.7796  138.4066  155.1883 H   0  0  0  0  0  0  0  0  0  0  0  0
  149.0154  137.5870  156.1066 H   0  0  0  0  0  0  0  0  0  0  0  0
  150.7613  138.2108  154.4642 H   0  0  0  0  0  0  0  0  0  0  0  0
  149.5141  138.1305  152.6264 H   0  0  0  0  0  0  0  0  0  0  0  0
  150.1921  140.8636  154.3548 H   0  0  0  0  0  0  0  0  0  0  0  0
  149.0255  140.4149  155.5773 H   0  0  0  0  0  0  0  0  0  0  0  0
  152.1465  138.4249  155.5393 H   0  0  0  0  0  0  0  0  0  0  0  0
  153.7137  140.9959  159.4498 H   0  0  0  0  0  0  0  0  0  0  0  0
  152.8925  144.2616  160.3095 H   0  0  0  0  0  0  0  0  0  0  0  0
  153.5515  142.7721  160.9822 H   0  0  0  0  0  0  0  0  0  0  0  0
  151.8996  143.2489  161.3691 H   0  0  0  0  0  0  0  0  0  0  0  0
  149.3390  144.3265  158.5029 H   0  0  0  0  0  0  0  0  0  0  0  0
  150.8443  145.0184  159.1045 H   0  0  0  0  0  0  0  0  0  0  0  0
  149.8451  144.0088  160.1610 H   0  0  0  0  0  0  0  0  0  0  0  0
  149.6164  142.5001  157.0372 H   0  0  0  0  0  0  0  0  0  0  0  0
  144.7463  135.0316  154.2192 H   0  0  0  0  0  0  0  0  0  0  0  0
  145.5818  133.7493  155.0561 H   0  0  0  0  0  0  0  0  0  0  0  0
  144.2810  132.7800  153.4927 H   0  0  0  0  0  0  0  0  0  0  0  0
  1  2  1  0  0  0  0
  1 26  1  0  0  0  0
  1 27  1  0  0  0  0
  1 28  1  0  0  0  0
  2  3  1  0  0  0  0
  2 29  1  0  0  0  0
  2 30  1  0  0  0  0
  3 25  1  0  0  0  0
  3  4  1  0  0  0  0
  3 56  1  0  0  0  0
  4  5  1  0  0  0  0
  4 31  1  0  0  0  0
  4 32  1  0  0  0  0
  5  6  1  0  0  0  0
  5 33  1  0  0  0  0
  5 34  1  0  0  0  0
  6  7  1  0  0  0  0
  7  8  1  0  0  0  0
  7 25  1  0  0  0  0
  7 35  1  0  0  0  0
  8  9  1  0  0  0  0
  8 36  1  0  0  0  0
  8 37  1  0  0  0  0
  9 10  1  0  0  0  0
  9 38  1  0  0  0  0
 10 11  1  0  0  0  0
 10 39  1  0  0  0  0
 10 40  1  0  0  0  0
 11 12  1  0  0  0  0
 11 13  1  0  0  0  0
 11 41  1  0  0  0  0
 12 42  1  0  0  0  0
 13 14  1  0  0  0  0
 13 43  1  0  0  0  0
 13 44  1  0  0  0  0
 14 24  1  0  0  0  0
 14 15  1  0  0  0  0
 15 16  2  0  0  0  0
 15 45  1  0  0  0  0
 16 17  1  0  0  0  0
 17 24  2  0  0  0  0
 17 18  1  0  0  0  0
 18 19  2  0  0  0  0
 18 46  1  0  0  0  0
 19 20  1  0  0  0  0
 19 21  1  0  0  0  0
 20 47  1  0  0  0  0
 20 48  1  0  0  0  0
 20 49  1  0  0  0  0
 21 22  1  0  0  0  0
 21 23  2  0  0  0  0
 22 50  1  0  0  0  0
 22 51  1  0  0  0  0
 22 52  1  0  0  0  0
 23 24  1  0  0  0  0
 23 53  1  0  0  0  0
 25 54  1  0  0  0  0
 25 55  1  0  0  0  0
M  CHG  1   3   1
M  END
> <s_m_source_file>
AV-unprocessed.smi

> <i_m_source_file_index>
1047

> <i_lp_mmshare_version>
43012

> <i_f3d_flags>
0

> <s_epik_input>
W0NIM11bQ0gyXU4xW0NIMl1bQ0gyXU9bQ0BIXShbQ0gyXTEpW0NIMl1bTkhdW0NIMl1bQ0BIXShbT0hdKVtDSDJdbihbY0hdbjIpYyhjMjMpW2NIXWMoW0NIM10pYyhbY0hdMylbQ0gzXQ==

> <s_epik_cmdline>
J2VwaWtfcHl0aG9uJywgJy1waCcsICc3LjAnLCAnLXRuJywgJzgnLCAnLW1hJywgJzIwMCcsICctbWV0YWxfYmluZGluZycsICctaW1hZScsICc8aW5maWxlLm1hZT4nLCAnLW9tYWUnLCAnPG91dGZpbGUubWFlPic=

> <r_epik_Ionization_Penalty>
1.19246

> <r_epik_Ionization_Penalty_Charging>
0.210041

> <r_epik_Ionization_Penalty_Neutral>
0.982415

> <r_epik_State_Penalty>
1.57595

> <r_epik_Charging_Adjusted_Penalty>
1.78599

> <i_epik_Tot_Q>
1

> <i_epik_Tot_abs_Q>
1

> <r_epik_Metal_State_Penalty>
1.46172

> <b_epik_Metal_Only>
0

> <s_lp_Force_Field>
OPLS_2005

> <r_lp_Energy>
33.2573

> <b_lp_Chiralities_Consistent>
1

> <s_lp_Variant>
AV-unprocessed.smi:1047-19

> <Gold.Version>
5.8.1

> <Gold.Id.Protein>
6NUR|6NUR_protein|mol2

> <Gold.PLP.Fitness>
52.2535

> <Gold.PLP.PLP>
-41.9280

> <Gold.PLP.part.hbond>
-4.2979

> <Gold.PLP.part.metal>
0.0000

> <Gold.PLP.part.buried>
-6.6737

> <Gold.PLP.part.nonpolar>
-31.7414

> <Gold.PLP.part.repulsive>
0.1168

> <Gold.PLP.ligand.clash>
0.0000

> <Gold.PLP.ligand.torsion>
0.9636

> <Gold.PLP.Chemscore.Hbond>
4.0000

> <Gold.PLP.Chemscore.CHOScore>
0.0000

> <Gold.PLP.Chemscore.Metal>
0.0000

> <Gold.Chemscore.Hbonds>
donor molecule, donor type, donor heavy atom, donor atom, acceptor molecule, acceptor atom, score
      L1  H     3    56       P1 10957  0.68
      L1  H    12    42       P1  7948  0.89
      P1  H  7997  8010       L1    16  1.00

> <Gold.PLP.Chemscore.Internal.Correction>
0.2526

> <Gold.Rescore>
     Score         DG    S(hbond)    S(metal)    S(lipo)     H(rot)  DE(clash)    DE(int)     intcor
     18.82     -19.96       2.83        0.00     100.28       2.62       0.00       1.14       ----

> <Gold.Chemscore.Fitness>
18.8194

> <Gold.Chemscore.DG>
-19.9612

> <Gold.Chemscore.ZeroCoef>
-5.4800

> <Gold.Chemscore.Hbond>
2.8318

> <Gold.Chemscore.Metal>
0.0000

> <Gold.Chemscore.Lipo>
100.2780

> <Gold.Chemscore.Internal_Hbond>
0.0000

> <Gold.Chemscore.DEClash>
0.0030

> <Gold.Chemscore.DEInternal>
1.1388

> <Gold.Chemscore.Rot>
2.6209

> <Gold.Chemscore.Internal.Correction>
   9.000000E+99

> <Gold.Chemscore.Hbonds>
donor molecule, donor type, donor heavy atom, donor atom, acceptor molecule, acceptor atom, score
      L1  H     3    56       P1 10957  0.19
      L1  H    12    42       P1  7948  0.63
      P1  H  7997  8010       L1    16  0.16

> <Gold.Chemscore.Hbond.Weighted>
-9.4583

> <Gold.Chemscore.Metal.Weighted>
-0.0000

> <Gold.Chemscore.Lipo.Weighted>
-11.7325

> <Gold.Chemscore.Internal_Hbond.Weighted>
0.0000

> <Gold.Chemscore.DEClash.Weighted>
0.0030

> <Gold.Chemscore.DEInternal.Weighted>
1.1388

> <Gold.Chemscore.Rot.Weighted>
6.7096

> <Gold.Chemscore.Internal.Correction.Weighted>
   9.000000E+99

> <Gold.Protein.RotatedTorsions>
[ 6907 6896 6895 6894 ] final   97.61 input  -60.11 | X-H torsion
[ 7974 7965 7964 7962 ] final   -8.44 input  175.53 | X-H torsion
[ 8008 7997 7996 7995 ] final   70.01 input   59.86 | X-H torsion
[ 10167 10162 10161 10158 ] final -101.54 input  -65.29 | X-H torsion
[ 10718 10713 10712 10709 ] final  132.28 input   66.30 | X-H torsion
[ 10763 10752 10751 10750 ] final -175.95 input  -60.55 | X-H torsion
[ 11005 11000 10999 10996 ] final  -77.81 input  -57.11 | X-H torsion

> <Gold.Protein.ActiveResidues>
 VAL166  LYS551  ARG553  GLY616  TRP617  ASP618  TYR619  PRO620  LYS621  CYS622 
 ASP623  PHE694  ASN695  SER759  ASP760  ASP761  ALA762  ILE779  LEU786  VAL792 
 PHE793  MET794  SER795  GLU796  ALA797  LYS798  CYS799  TRP800  GLU811  SER814 

> <Gold.Protein.RotatedAtoms>
  152.5421  134.0706  159.8192 H   0  0  0  0  0  0  0  0  0  0  0  0  # atno 6907 bound_to 6896
  151.0821  133.5374  159.2627 H   0  0  0  0  0  0  0  0  0  0  0  0  # atno 6908 bound_to 6896
  151.2197  135.0522  159.8999 H   0  0  0  0  0  0  0  0  0  0  0  0  # atno 6909 bound_to 6896
  146.2280  140.2468  142.8345 H   0  0  0  0  0  0  0  0  0  0  0  0  # atno 7974 bound_to 7965
  155.7323  140.3491  155.5065 H   0  0  0  0  0  0  0  0  0  0  0  0  # atno 8008 bound_to 7997
  155.9171  140.1060  157.1257 H   0  0  0  0  0  0  0  0  0  0  0  0  # atno 8009 bound_to 7997
  154.4064  140.1256  156.4618 H   0  0  0  0  0  0  0  0  0  0  0  0  # atno 8010 bound_to 7997
  140.2402  143.3544  152.0808 H   0  0  0  0  0  0  0  0  0  0  0  0  # atno 10167 bound_to 10162
  157.4886  131.1089  150.9586 H   0  0  0  0  0  0  0  0  0  0  0  0  # atno 10718 bound_to 10713
  154.5782  135.2834  155.0759 H   0  0  0  0  0  0  0  0  0  0  0  0  # atno 10763 bound_to 10752
  154.2106  135.6408  153.5118 H   0  0  0  0  0  0  0  0  0  0  0  0  # atno 10764 bound_to 10752
  153.0079  135.5491  154.6427 H   0  0  0  0  0  0  0  0  0  0  0  0  # atno 10765 bound_to 10752
  141.1662  133.7037  156.7876 H   0  0  0  0  0  0  0  0  0  0  0  0  # atno 11005 bound_to 11000
  144.9442  140.8111  143.5611 LP  0  0  0  0  0  0  0  0  0  0  0  0  # atno 17320 bound_to 7965
  145.2422  139.2067  143.4986 LP  0  0  0  0  0  0  0  0  0  0  0  0  # atno 17321 bound_to 7965
  139.5080  144.6841  151.5932 LP  0  0  0  0  0  0  0  0  0  0  0  0  # atno 17342 bound_to 10162
  140.6119  143.9420  150.6459 LP  0  0  0  0  0  0  0  0  0  0  0  0  # atno 17343 bound_to 10162
  157.0295  130.5706  149.5341 LP  0  0  0  0  0  0  0  0  0  0  0  0  # atno 17370 bound_to 10713
  156.0161  130.5255  150.8138 LP  0  0  0  0  0  0  0  0  0  0  0  0  # atno 17371 bound_to 10713
  140.2348  134.8658  157.3514 LP  0  0  0  0  0  0  0  0  0  0  0  0  # atno 17394 bound_to 11000
  140.1854  134.4437  155.7747 LP  0  0  0  0  0  0  0  0  0  0  0  0  # atno 17395 bound_to 11000

$$$$
