AV-unprocessed.smi:2706|AV-procd|sdf|10444|dock4
  -GOLD-   2272014483D 1   1.00000     0.00000
 Structure written by MMmdl.
 43 46  0  0  0  0  0  0  0  0  1 V2000
  146.3741  136.2202  153.9231 C   0  0  0  0  0  0  0  0  0  0  0  0
  146.9642  137.2691  154.7453 N   0  0  0  0  0  0  0  0  0  0  0  0
  147.3623  136.9813  156.1197 C   0  0  0  0  0  0  0  0  0  0  0  0
  147.2011  138.5516  154.2003 C   0  0  0  0  0  0  0  0  0  0  0  0
  146.7937  138.8863  152.8864 C   0  0  0  0  0  0  0  0  0  0  0  0
  147.0598  140.1787  152.3999 C   0  0  0  0  0  0  0  0  0  0  0  0
  147.7221  141.0982  153.2326 C   0  0  0  0  0  0  0  0  0  0  0  0
  148.1001  140.7015  154.5323 C   0  0  0  0  0  0  0  0  0  0  0  0
  148.7641  141.6953  155.2994 N   0  0  0  0  0  0  0  0  0  0  0  0
  149.6042  141.5222  156.3354 C   0  0  0  0  0  0  0  0  0  0  0  0
  149.9348  140.4347  156.8099 O   0  0  0  0  0  0  0  0  0  0  0  0
  150.0455  142.6994  156.7999 N   0  0  0  0  0  0  0  0  0  0  0  0
  150.9405  142.8761  157.8972 C   0  0  2  0  0  0  0  0  0  0  0  0
  150.4863  143.7982  159.0103 C   0  0  1  0  0  0  0  0  0  0  0  0
  151.1359  143.9760  160.3806 C   0  0  1  0  0  0  0  0  0  0  0  0
  152.2350  142.9204  160.6210 C   0  0  0  0  0  0  0  0  0  0  0  0
  153.3466  143.3690  159.6465 C   0  0  0  0  0  0  0  0  0  0  0  0
  152.7264  144.6180  158.9861 C   0  0  2  0  0  0  0  0  0  0  0  0
  151.9818  145.2279  160.1695 C   0  0  0  0  0  0  0  0  0  0  0  0
  151.5791  144.2407  158.0519 C   0  0  1  0  0  0  0  0  0  0  0  0
  147.8371  139.4526  154.9878 N   0  0  0  0  0  0  0  0  0  0  0  0
  145.3784  136.5111  153.5875 H   0  0  0  0  0  0  0  0  0  0  0  0
  146.2776  135.2875  154.4790 H   0  0  0  0  0  0  0  0  0  0  0  0
  146.9954  136.0231  153.0488 H   0  0  0  0  0  0  0  0  0  0  0  0
  146.8585  137.6546  156.8140 H   0  0  0  0  0  0  0  0  0  0  0  0
  148.4392  137.1038  156.2401 H   0  0  0  0  0  0  0  0  0  0  0  0
  147.1085  135.9598  156.4032 H   0  0  0  0  0  0  0  0  0  0  0  0
  146.2848  138.1823  152.2456 H   0  0  0  0  0  0  0  0  0  0  0  0
  146.7603  140.4606  151.4015 H   0  0  0  0  0  0  0  0  0  0  0  0
  147.9343  142.0947  152.8732 H   0  0  0  0  0  0  0  0  0  0  0  0
  148.5788  142.6489  155.0266 H   0  0  0  0  0  0  0  0  0  0  0  0
  149.7192  143.5394  156.3452 H   0  0  0  0  0  0  0  0  0  0  0  0
  151.5326  142.0075  158.1747 H   0  0  0  0  0  0  0  0  0  0  0  0
  149.5273  144.3004  158.8931 H   0  0  0  0  0  0  0  0  0  0  0  0
  150.3994  144.0471  161.1812 H   0  0  0  0  0  0  0  0  0  0  0  0
  152.5919  142.9637  161.6509 H   0  0  0  0  0  0  0  0  0  0  0  0
  151.8874  141.9035  160.4372 H   0  0  0  0  0  0  0  0  0  0  0  0
  154.2507  143.6327  160.1968 H   0  0  0  0  0  0  0  0  0  0  0  0
  153.6168  142.6011  158.9211 H   0  0  0  0  0  0  0  0  0  0  0  0
  153.4494  145.2784  158.5067 H   0  0  0  0  0  0  0  0  0  0  0  0
  151.3918  146.1062  159.9010 H   0  0  0  0  0  0  0  0  0  0  0  0
  152.6255  145.4728  161.0165 H   0  0  0  0  0  0  0  0  0  0  0  0
  151.2969  145.0154  157.3409 H   0  0  0  0  0  0  0  0  0  0  0  0
  1  2  1  0  0  0  0
  1 22  1  0  0  0  0
  1 23  1  0  0  0  0
  1 24  1  0  0  0  0
  2  3  1  0  0  0  0
  2  4  1  0  0  0  0
  3 25  1  0  0  0  0
  3 26  1  0  0  0  0
  3 27  1  0  0  0  0
  4 21  1  0  0  0  0
  4  5  2  0  0  0  0
  5  6  1  0  0  0  0
  5 28  1  0  0  0  0
  6  7  2  0  0  0  0
  6 29  1  0  0  0  0
  7  8  1  0  0  0  0
  7 30  1  0  0  0  0
  8  9  1  0  0  0  0
  8 21  2  0  0  0  0
  9 10  1  0  0  0  0
  9 31  1  0  0  0  0
 10 11  2  0  0  0  0
 10 12  1  0  0  0  0
 12 13  1  0  0  0  0
 12 32  1  0  0  0  0
 13 20  1  0  0  0  0
 13 14  1  0  0  0  0
 13 33  1  0  0  0  0
 14 20  1  0  0  0  0
 14 15  1  0  0  0  0
 14 34  1  0  0  0  0
 15 19  1  0  0  0  0
 15 16  1  0  0  0  0
 15 35  1  0  0  0  0
 16 17  1  0  0  0  0
 16 36  1  0  0  0  0
 16 37  1  0  0  0  0
 17 18  1  0  0  0  0
 17 38  1  0  0  0  0
 17 39  1  0  0  0  0
 18 19  1  0  0  0  0
 18 20  1  0  0  0  0
 18 40  1  0  0  0  0
 19 41  1  0  0  0  0
 19 42  1  0  0  0  0
 20 43  1  0  0  0  0
M  END
> <s_m_source_file>
AV-unprocessed.smi

> <i_m_source_file_index>
2706

> <i_lp_mmshare_version>
43012

> <i_f3d_flags>
0

> <s_epik_input>
W0NIM11OKFtDSDNdKWMxW2NIXVtjSF1bY0hdYyhuMSlbTkhdQyg9TylbTkhdW0NASF0yW0NAQEhdM1tDQEBIXShbQ0gyXTQpW0NIMl1bQ0gyXVtDQEBIXTRbQ0BIXTIz

> <s_epik_cmdline>
J2VwaWtfcHl0aG9uJywgJy1waCcsICc3LjAnLCAnLXRuJywgJzgnLCAnLW1hJywgJzIwMCcsICctbWV0YWxfYmluZGluZycsICctaW1hZScsICc8aW5maWxlLm1hZT4nLCAnLW9tYWUnLCAnPG91dGZpbGUubWFlPic=

> <r_lp_tautomer_probability>
1

> <r_epik_Ionization_Penalty>
0.0296788

> <r_epik_Ionization_Penalty_Charging>
0

> <r_epik_Ionization_Penalty_Neutral>
0.0296788

> <r_epik_State_Penalty>
0.0248512

> <r_epik_Charging_Adjusted_Penalty>
0.0248512

> <i_epik_Tot_Q>
0

> <i_epik_Tot_abs_Q>
0

> <r_epik_Metal_State_Penalty>
0.0237882

> <b_epik_Metal_Only>
0

> <s_lp_Force_Field>
OPLS_2005

> <r_lp_Energy>
79.5337

> <b_lp_Chiralities_Consistent>
1

> <s_lp_Variant>
AV-unprocessed.smi:2706-1

> <Gold.Version>
5.8.1

> <Gold.Id.Protein>
6NUR|6NUR_protein|mol2

> <Gold.PLP.Fitness>
42.2822

> <Gold.PLP.PLP>
-37.9245

> <Gold.PLP.part.hbond>
-1.9880

> <Gold.PLP.part.metal>
0.0000

> <Gold.PLP.part.buried>
-1.9933

> <Gold.PLP.part.nonpolar>
-33.4263

> <Gold.PLP.part.repulsive>
0.2521

> <Gold.PLP.ligand.clash>
0.0000

> <Gold.PLP.ligand.torsion>
0.2378

> <Gold.PLP.Chemscore.Hbond>
1.5976

> <Gold.PLP.Chemscore.CHOScore>
0.0000

> <Gold.PLP.Chemscore.Metal>
0.0000

> <Gold.Chemscore.Hbonds>
donor molecule, donor type, donor heavy atom, donor atom, acceptor molecule, acceptor atom, score
      L1  H     9    31       P1  8028  0.56
      L1  H    12    32       P1  8028  1.00

> <Gold.PLP.Chemscore.Internal.Correction>
0.0406

> <Gold.Rescore>
     Score         DG    S(hbond)    S(metal)    S(lipo)     H(rot)  DE(clash)    DE(int)     intcor
     20.67     -22.28       1.81        0.00     113.73       1.00       0.31       1.30       ----

> <Gold.Chemscore.Fitness>
20.6731

> <Gold.Chemscore.DG>
-22.2792

> <Gold.Chemscore.ZeroCoef>
-5.4800

> <Gold.Chemscore.Hbond>
1.8122

> <Gold.Chemscore.Metal>
0.0000

> <Gold.Chemscore.Lipo>
113.7293

> <Gold.Chemscore.Internal_Hbond>
0.0000

> <Gold.Chemscore.DEClash>
0.3077

> <Gold.Chemscore.DEInternal>
1.2983

> <Gold.Chemscore.Rot>
1.0000

> <Gold.Chemscore.Internal.Correction>
   9.000000E+99

> <Gold.Chemscore.Hbonds>
donor molecule, donor type, donor heavy atom, donor atom, acceptor molecule, acceptor atom, score
      L1  H     9    31       P1  8028  0.55
      L1  H    12    32       P1  8028  0.98

> <Gold.Chemscore.Hbond.Weighted>
-6.0529

> <Gold.Chemscore.Metal.Weighted>
-0.0000

> <Gold.Chemscore.Lipo.Weighted>
-13.3063

> <Gold.Chemscore.Internal_Hbond.Weighted>
0.0000

> <Gold.Chemscore.DEClash.Weighted>
0.3077

> <Gold.Chemscore.DEInternal.Weighted>
1.2983

> <Gold.Chemscore.Rot.Weighted>
2.5600

> <Gold.Chemscore.Internal.Correction.Weighted>
   9.000000E+99

> <Gold.Protein.RotatedTorsions>
[ 6907 6896 6895 6894 ] final  -78.68 input  -60.11 | X-H torsion
[ 7974 7965 7964 7962 ] final   15.86 input  175.53 | X-H torsion
[ 8008 7997 7996 7995 ] final  145.93 input   59.86 | X-H torsion
[ 10167 10162 10161 10158 ] final  149.27 input  -65.29 | X-H torsion
[ 10718 10713 10712 10709 ] final  178.60 input   66.30 | X-H torsion
[ 10763 10752 10751 10750 ] final   64.07 input  -60.55 | X-H torsion
[ 11005 11000 10999 10996 ] final  -25.32 input  -57.11 | X-H torsion

> <Gold.Protein.ActiveResidues>
 VAL166  LYS551  ARG553  GLY616  TRP617  ASP618  TYR619  PRO620  LYS621  CYS622 
 ASP623  PHE694  ASN695  SER759  ASP760  ASP761  ALA762  ILE779  LEU786  VAL792 
 PHE793  MET794  SER795  GLU796  ALA797  LYS798  CYS799  TRP800  GLU811  SER814 

> <Gold.Protein.RotatedAtoms>
  150.6967  134.4235  159.5215 H   0  0  0  0  0  0  0  0  0  0  0  0  # atno 6907 bound_to 6896
  152.1974  134.8615  160.0520 H   0  0  0  0  0  0  0  0  0  0  0  0  # atno 6908 bound_to 6896
  151.9548  133.3642  159.4050 H   0  0  0  0  0  0  0  0  0  0  0  0  # atno 6909 bound_to 6896
  146.2266  139.8832  142.8567 H   0  0  0  0  0  0  0  0  0  0  0  0  # atno 7974 bound_to 7965
  156.2869  140.2196  156.5295 H   0  0  0  0  0  0  0  0  0  0  0  0  # atno 8008 bound_to 7997
  154.7461  140.0484  157.0875 H   0  0  0  0  0  0  0  0  0  0  0  0  # atno 8009 bound_to 7997
  155.0169  140.3119  155.4811 H   0  0  0  0  0  0  0  0  0  0  0  0  # atno 8010 bound_to 7997
  139.4864  144.5615  151.7222 H   0  0  0  0  0  0  0  0  0  0  0  0  # atno 10167 bound_to 10162
  156.8882  130.9838  151.3053 H   0  0  0  0  0  0  0  0  0  0  0  0  # atno 10718 bound_to 10713
  153.0042  135.5406  154.6452 H   0  0  0  0  0  0  0  0  0  0  0  0  # atno 10763 bound_to 10752
  154.5698  135.2840  155.0841 H   0  0  0  0  0  0  0  0  0  0  0  0  # atno 10764 bound_to 10752
  154.2011  135.6484  153.5140 H   0  0  0  0  0  0  0  0  0  0  0  0  # atno 10765 bound_to 10752
  140.8927  133.7578  156.0441 H   0  0  0  0  0  0  0  0  0  0  0  0  # atno 11005 bound_to 11000
  145.2492  141.0037  143.3891 LP  0  0  0  0  0  0  0  0  0  0  0  0  # atno 17320 bound_to 7965
  144.9388  139.4212  143.6459 LP  0  0  0  0  0  0  0  0  0  0  0  0  # atno 17321 bound_to 7965
  140.5186  144.0915  150.6015 LP  0  0  0  0  0  0  0  0  0  0  0  0  # atno 17342 bound_to 10162
  140.3865  143.2775  152.0110 LP  0  0  0  0  0  0  0  0  0  0  0  0  # atno 17343 bound_to 10162
  157.6100  130.8575  149.8936 LP  0  0  0  0  0  0  0  0  0  0  0  0  # atno 17370 bound_to 10713
  156.0642  130.3695  150.0914 LP  0  0  0  0  0  0  0  0  0  0  0  0  # atno 17371 bound_to 10713
  140.8327  134.3159  157.5343 LP  0  0  0  0  0  0  0  0  0  0  0  0  # atno 17394 bound_to 11000
  139.8731  134.9372  156.3682 LP  0  0  0  0  0  0  0  0  0  0  0  0  # atno 17395 bound_to 11000

$$$$
