AV-unprocessed.smi:1110|AV-procd|sdf|4790|dock1
  -GOLD-   22720 3333D 1   1.00000     0.00000
 Structure written by MMmdl.
 44 45  0  0  0  0  0  0  0  0  2 V2000
  148.1686  139.6612  153.1144 C   0  0  0  0  0  0  0  0  0  0  0  0
  147.9719  139.8791  154.6208 C   0  0  0  0  0  0  0  0  0  0  0  0
  148.4789  141.2568  155.1186 C   0  0  2  0  0  0  0  0  0  0  0  0
  148.7831  141.2617  156.6367 C   0  0  0  0  0  0  0  0  0  0  0  0
  149.6810  142.3540  157.0044 N   0  0  0  0  0  0  0  0  0  0  0  0
  150.8012  142.2287  157.7323 C   0  0  0  0  0  0  0  0  0  0  0  0
  151.2651  141.1438  158.0830 O   0  0  0  0  0  0  0  0  0  0  0  0
  151.4865  143.5357  158.1499 C   0  0  0  0  0  0  0  0  0  0  0  0
  151.7151  143.6089  159.6035 N   0  0  0  0  0  0  0  0  0  0  0  0
  152.5137  142.6021  160.1819 C   0  0  0  0  0  0  0  0  0  0  0  0
  152.7858  142.5790  161.4964 C   0  0  0  0  0  0  0  0  0  0  0  0
  152.2369  143.6250  162.3263 C   0  0  0  0  0  0  0  0  0  0  0  0
  151.4682  144.5908  161.7852 C   0  0  0  0  0  0  0  0  0  0  0  0
  151.1648  144.6182  160.3500 C   0  0  0  0  0  0  0  0  0  0  0  0
  150.4549  145.4923  159.8494 O   0  0  0  0  0  0  0  0  0  0  0  0
  147.5828  142.3902  154.7419 N   0  3  0  0  0  0  0  0  0  0  0  0
  147.3038  142.5296  153.2940 C   0  0  0  0  0  0  0  0  0  0  0  0
  145.9341  143.1984  153.2053 C   0  0  0  0  0  0  0  0  0  0  0  0
  145.2030  142.6326  154.4172 C   0  0  0  0  0  0  0  0  0  0  0  0
  146.3006  142.5239  155.4784 C   0  0  0  0  0  0  0  0  0  0  0  0
  147.7443  138.7056  152.8058 H   0  0  0  0  0  0  0  0  0  0  0  0
  149.2237  139.6507  152.8423 H   0  0  0  0  0  0  0  0  0  0  0  0
  147.6780  140.4428  152.5338 H   0  0  0  0  0  0  0  0  0  0  0  0
  146.9098  139.7671  154.8353 H   0  0  0  0  0  0  0  0  0  0  0  0
  148.4707  139.0709  155.1551 H   0  0  0  0  0  0  0  0  0  0  0  0
  149.4257  141.4590  154.6145 H   0  0  0  0  0  0  0  0  0  0  0  0
  147.8552  141.3083  157.2092 H   0  0  0  0  0  0  0  0  0  0  0  0
  149.2689  140.3302  156.9263 H   0  0  0  0  0  0  0  0  0  0  0  0
  149.3932  143.2858  156.7410 H   0  0  0  0  0  0  0  0  0  0  0  0
  152.4225  143.6190  157.5962 H   0  0  0  0  0  0  0  0  0  0  0  0
  150.8860  144.3918  157.8355 H   0  0  0  0  0  0  0  0  0  0  0  0
  152.8833  141.8535  159.4965 H   0  0  0  0  0  0  0  0  0  0  0  0
  153.3979  141.7976  161.9224 H   0  0  0  0  0  0  0  0  0  0  0  0
  152.4444  143.6336  163.3864 H   0  0  0  0  0  0  0  0  0  0  0  0
  151.0671  145.3657  162.4222 H   0  0  0  0  0  0  0  0  0  0  0  0
  148.0816  143.1104  152.7975 H   0  0  0  0  0  0  0  0  0  0  0  0
  147.2617  141.5535  152.8107 H   0  0  0  0  0  0  0  0  0  0  0  0
  146.0398  144.2796  153.3067 H   0  0  0  0  0  0  0  0  0  0  0  0
  145.4217  142.9941  152.2649 H   0  0  0  0  0  0  0  0  0  0  0  0
  144.3653  143.2536  154.7365 H   0  0  0  0  0  0  0  0  0  0  0  0
  144.8158  141.6398  154.1826 H   0  0  0  0  0  0  0  0  0  0  0  0
  146.1038  141.7233  156.1900 H   0  0  0  0  0  0  0  0  0  0  0  0
  146.3448  143.4511  156.0502 H   0  0  0  0  0  0  0  0  0  0  0  0
  148.1006  143.2248  154.9797 H   0  0  0  0  0  0  0  0  0  0  0  0
  1  2  1  0  0  0  0
  1 21  1  0  0  0  0
  1 22  1  0  0  0  0
  1 23  1  0  0  0  0
  2  3  1  0  0  0  0
  2 24  1  0  0  0  0
  2 25  1  0  0  0  0
  3  4  1  0  0  0  0
  3 16  1  0  0  0  0
  3 26  1  0  0  0  0
  4  5  1  0  0  0  0
  4 27  1  0  0  0  0
  4 28  1  0  0  0  0
  5  6  1  0  0  0  0
  5 29  1  0  0  0  0
  6  7  2  0  0  0  0
  6  8  1  0  0  0  0
  8  9  1  0  0  0  0
  8 30  1  0  0  0  0
  8 31  1  0  0  0  0
  9 14  1  0  0  0  0
  9 10  1  0  0  0  0
 10 11  2  0  0  0  0
 10 32  1  0  0  0  0
 11 12  1  0  0  0  0
 11 33  1  0  0  0  0
 12 13  2  0  0  0  0
 12 34  1  0  0  0  0
 13 14  1  0  0  0  0
 13 35  1  0  0  0  0
 14 15  2  0  0  0  0
 16 20  1  0  0  0  0
 16 17  1  0  0  0  0
 16 44  1  0  0  0  0
 17 18  1  0  0  0  0
 17 36  1  0  0  0  0
 17 37  1  0  0  0  0
 18 19  1  0  0  0  0
 18 38  1  0  0  0  0
 18 39  1  0  0  0  0
 19 20  1  0  0  0  0
 19 40  1  0  0  0  0
 19 41  1  0  0  0  0
 20 42  1  0  0  0  0
 20 43  1  0  0  0  0
M  CHG  1  16   1
M  END
> <s_m_source_file>
AV-unprocessed.smi

> <i_m_source_file_index>
1110

> <i_lp_mmshare_version>
43012

> <i_f3d_flags>
0

> <s_epik_input>
W0NIMl0xW0NIMl1bQ0gyXVtDSDJdTjFbQ0BIXShbQ0gyXVtDSDNdKVtDSDJdW05IXUMoPU8pW0NIMl1uMltjSF1bY0hdW2NIXVtjSF1jMj1P

> <s_epik_cmdline>
J2VwaWtfcHl0aG9uJywgJy1waCcsICc3LjAnLCAnLXRuJywgJzgnLCAnLW1hJywgJzIwMCcsICctbWV0YWxfYmluZGluZycsICctaW1hZScsICc8aW5maWxlLm1hZT4nLCAnLW9tYWUnLCAnPG91dGZpbGUubWFlPic=

> <r_lp_tautomer_probability>
1

> <r_epik_Ionization_Penalty>
0.00361135

> <r_epik_Ionization_Penalty_Charging>
0.00361127

> <r_epik_Ionization_Penalty_Neutral>
7.8489e-08

> <r_epik_State_Penalty>
0.00256751

> <r_epik_Charging_Adjusted_Penalty>
0.00617878

> <i_epik_Tot_Q>
1

> <i_epik_Tot_abs_Q>
1

> <r_epik_Metal_State_Penalty>
-0

> <b_epik_Metal_Only>
0

> <s_lp_Force_Field>
OPLS_2005

> <r_lp_Energy>
45.664

> <b_lp_Chiralities_Consistent>
1

> <s_lp_Variant>
AV-unprocessed.smi:1110-1

> <Gold.Version>
5.8.1

> <Gold.Id.Protein>
6NUR|6NUR_protein|mol2

> <Gold.PLP.Fitness>
54.4140

> <Gold.PLP.PLP>
-45.9324

> <Gold.PLP.part.hbond>
-2.0000

> <Gold.PLP.part.metal>
0.0000

> <Gold.PLP.part.buried>
-7.5168

> <Gold.PLP.part.nonpolar>
-36.3398

> <Gold.PLP.part.repulsive>
0.2743

> <Gold.PLP.ligand.clash>
0.0000

> <Gold.PLP.ligand.torsion>
0.4521

> <Gold.PLP.Chemscore.Hbond>
3.0000

> <Gold.PLP.Chemscore.CHOScore>
0.0000

> <Gold.PLP.Chemscore.Metal>
0.0000

> <Gold.Chemscore.Hbonds>
donor molecule, donor type, donor heavy atom, donor atom, acceptor molecule, acceptor atom, score
      L1  H     5    29       P1  8028  1.00
      L1  H    16    44       P1  8028  2.00

> <Gold.PLP.Chemscore.Internal.Correction>
0.3857

> <Gold.Rescore>
     Score         DG    S(hbond)    S(metal)    S(lipo)     H(rot)  DE(clash)    DE(int)     intcor
     14.90     -17.14       1.63        0.00      96.53       1.99       0.61       1.63       ----

> <Gold.Chemscore.Fitness>
14.8980

> <Gold.Chemscore.DG>
-17.1403

> <Gold.Chemscore.ZeroCoef>
-5.4800

> <Gold.Chemscore.Hbond>
1.6344

> <Gold.Chemscore.Metal>
0.0000

> <Gold.Chemscore.Lipo>
96.5306

> <Gold.Chemscore.Internal_Hbond>
0.0000

> <Gold.Chemscore.DEClash>
0.6120

> <Gold.Chemscore.DEInternal>
1.6303

> <Gold.Chemscore.Rot>
1.9893

> <Gold.Chemscore.Internal.Correction>
   9.000000E+99

> <Gold.Chemscore.Hbonds>
donor molecule, donor type, donor heavy atom, donor atom, acceptor molecule, acceptor atom, score
      L1  H     5    29       P1  8028  0.99
      L1  H    16    44       P1  8028  0.93

> <Gold.Chemscore.Hbond.Weighted>
-5.4588

> <Gold.Chemscore.Metal.Weighted>
-0.0000

> <Gold.Chemscore.Lipo.Weighted>
-11.2941

> <Gold.Chemscore.Internal_Hbond.Weighted>
0.0000

> <Gold.Chemscore.DEClash.Weighted>
0.6120

> <Gold.Chemscore.DEInternal.Weighted>
1.6303

> <Gold.Chemscore.Rot.Weighted>
5.0927

> <Gold.Chemscore.Internal.Correction.Weighted>
   9.000000E+99

> <Gold.Protein.RotatedTorsions>
[ 6907 6896 6895 6894 ] final   17.60 input  -60.11 | X-H torsion
[ 7974 7965 7964 7962 ] final  -43.09 input  175.53 | X-H torsion
[ 8008 7997 7996 7995 ] final  153.13 input   59.86 | X-H torsion
[ 10167 10162 10161 10158 ] final  -36.79 input  -65.29 | X-H torsion
[ 10718 10713 10712 10709 ] final  141.54 input   66.30 | X-H torsion
[ 10763 10752 10751 10750 ] final  101.71 input  -60.55 | X-H torsion
[ 11005 11000 10999 10996 ] final  -70.94 input  -57.11 | X-H torsion

> <Gold.Protein.ActiveResidues>
 VAL166  LYS551  ARG553  GLY616  TRP617  ASP618  TYR619  PRO620  LYS621  CYS622 
 ASP623  PHE694  ASN695  SER759  ASP760  ASP761  ALA762  ILE779  LEU786  VAL792 
 PHE793  MET794  SER795  GLU796  ALA797  LYS798  CYS799  TRP800  GLU811  SER814 

> <Gold.Protein.RotatedAtoms>
  151.8522  135.0553  160.0459 H   0  0  0  0  0  0  0  0  0  0  0  0  # atno 6907 bound_to 6896
  152.2727  133.5393  159.5457 H   0  0  0  0  0  0  0  0  0  0  0  0  # atno 6908 bound_to 6896
  150.7158  134.0590  159.3867 H   0  0  0  0  0  0  0  0  0  0  0  0  # atno 6909 bound_to 6896
  146.0053  140.7027  142.9250 H   0  0  0  0  0  0  0  0  0  0  0  0  # atno 7974 bound_to 7965
  156.2596  140.2002  156.6442 H   0  0  0  0  0  0  0  0  0  0  0  0  # atno 8008 bound_to 7997
  154.6586  140.0563  157.0062 H   0  0  0  0  0  0  0  0  0  0  0  0  # atno 8009 bound_to 7997
  155.1310  140.3233  155.4477 H   0  0  0  0  0  0  0  0  0  0  0  0  # atno 8010 bound_to 7997
  140.7134  143.3385  151.2409 H   0  0  0  0  0  0  0  0  0  0  0  0  # atno 10167 bound_to 10162
  157.3908  131.1004  151.0648 H   0  0  0  0  0  0  0  0  0  0  0  0  # atno 10718 bound_to 10713
  153.3301  135.4035  155.1488 H   0  0  0  0  0  0  0  0  0  0  0  0  # atno 10763 bound_to 10752
  154.8621  135.3608  154.5481 H   0  0  0  0  0  0  0  0  0  0  0  0  # atno 10764 bound_to 10752
  153.5920  135.7073  153.5479 H   0  0  0  0  0  0  0  0  0  0  0  0  # atno 10765 bound_to 10752
  141.1583  133.6803  156.6830 H   0  0  0  0  0  0  0  0  0  0  0  0  # atno 11005 bound_to 11000
  144.6933  140.3304  143.7217 LP  0  0  0  0  0  0  0  0  0  0  0  0  # atno 17320 bound_to 7965
  145.7425  139.1768  143.2367 LP  0  0  0  0  0  0  0  0  0  0  0  0  # atno 17321 bound_to 7965
  139.6886  143.9730  152.2847 LP  0  0  0  0  0  0  0  0  0  0  0  0  # atno 17342 bound_to 10162
  139.9384  144.6697  150.8291 LP  0  0  0  0  0  0  0  0  0  0  0  0  # atno 17343 bound_to 10162
  157.1682  130.6256  149.5632 LP  0  0  0  0  0  0  0  0  0  0  0  0  # atno 17370 bound_to 10713
  155.9798  130.4794  150.6735 LP  0  0  0  0  0  0  0  0  0  0  0  0  # atno 17371 bound_to 10713
  140.3088  134.8103  157.4159 LP  0  0  0  0  0  0  0  0  0  0  0  0  # atno 17394 bound_to 11000
  140.1197  134.5236  155.8195 LP  0  0  0  0  0  0  0  0  0  0  0  0  # atno 17395 bound_to 11000

$$$$
