AV-unprocessed.smi:2607|AV-procd|sdf|10198|dock9
  -GOLD-   2272014213D 1   1.00000     0.00000
 Structure written by MMmdl.
 22 23  0  0  0  0  0  0  0  0  1 V2000
  151.8715  139.9026  156.4067 C   0  0  0  0  0  0  0  0  0  0  0  0
  151.9298  139.6769  157.9299 C   0  0  1  0  0  0  0  0  0  0  0  0
  152.1180  140.9948  158.6987 C   0  0  0  0  0  0  0  0  0  0  0  0
  151.2235  142.0875  158.5669 C   0  0  0  0  0  0  0  0  0  0  0  0
  151.3967  143.2442  159.2444 N   0  0  0  0  0  0  0  0  0  0  0  0
  152.4717  143.3146  160.0589 C   0  0  0  0  0  0  0  0  0  0  0  0
  153.3701  142.2366  160.1938 C   0  0  0  0  0  0  0  0  0  0  0  0
  153.1975  141.0809  159.5161 N   0  0  0  0  0  0  0  0  0  0  0  0
  150.7589  138.9229  158.3613 N   0  0  0  0  0  0  0  0  0  0  0  0
  151.0666  137.7566  158.9431 C   0  0  0  0  0  0  0  0  0  0  0  0
  150.2678  136.9538  159.4194 O   0  0  0  0  0  0  0  0  0  0  0  0
  152.3939  137.6172  158.9025 N   0  0  0  0  0  0  0  0  0  0  0  0
  152.9955  138.6493  158.3141 C   0  0  0  0  0  0  0  0  0  0  0  0
  154.2011  138.7625  158.0970 O   0  0  0  0  0  0  0  0  0  0  0  0
  152.7712  140.3983  156.0400 H   0  0  0  0  0  0  0  0  0  0  0  0
  151.0196  140.5276  156.1368 H   0  0  0  0  0  0  0  0  0  0  0  0
  151.7734  138.9615  155.8634 H   0  0  0  0  0  0  0  0  0  0  0  0
  150.3611  142.0488  157.9185 H   0  0  0  0  0  0  0  0  0  0  0  0
  152.6172  144.2352  160.6044 H   0  0  0  0  0  0  0  0  0  0  0  0
  154.2285  142.3011  160.8457 H   0  0  0  0  0  0  0  0  0  0  0  0
  149.8175  139.2726  158.2569 H   0  0  0  0  0  0  0  0  0  0  0  0
  152.8848  136.8102  159.2589 H   0  0  0  0  0  0  0  0  0  0  0  0
  1  2  1  0  0  0  0
  1 15  1  0  0  0  0
  1 16  1  0  0  0  0
  1 17  1  0  0  0  0
  2 13  1  0  0  0  0
  2  3  1  0  0  0  0
  2  9  1  0  0  0  0
  3  8  1  0  0  0  0
  3  4  2  0  0  0  0
  4  5  1  0  0  0  0
  4 18  1  0  0  0  0
  5  6  2  0  0  0  0
  6  7  1  0  0  0  0
  6 19  1  0  0  0  0
  7  8  2  0  0  0  0
  7 20  1  0  0  0  0
  9 10  1  0  0  0  0
  9 21  1  0  0  0  0
 10 11  2  0  0  0  0
 10 12  1  0  0  0  0
 12 13  1  0  0  0  0
 12 22  1  0  0  0  0
 13 14  2  0  0  0  0
M  END
> <s_m_source_file>
AV-unprocessed.smi

> <i_m_source_file_index>
2607

> <i_lp_mmshare_version>
43012

> <i_f3d_flags>
0

> <s_epik_input>
Tz1DMVtOSF1DKD1PKVtOSF1bQ0BAXTEoW0NIM10pYzJbY0hdbltjSF1bY0hdbjI=

> <s_epik_cmdline>
J2VwaWtfcHl0aG9uJywgJy1waCcsICc3LjAnLCAnLXRuJywgJzgnLCAnLW1hJywgJzIwMCcsICctbWV0YWxfYmluZGluZycsICctaW1hZScsICc8aW5maWxlLm1hZT4nLCAnLW9tYWUnLCAnPG91dGZpbGUubWFlPic=

> <r_lp_tautomer_probability>
1

> <r_epik_Ionization_Penalty>
0.0333762

> <r_epik_Ionization_Penalty_Charging>
0

> <r_epik_Ionization_Penalty_Neutral>
0.0333762

> <r_epik_State_Penalty>
0.027503

> <r_epik_Charging_Adjusted_Penalty>
0.027503

> <i_epik_Tot_Q>
0

> <i_epik_Tot_abs_Q>
0

> <r_epik_Metal_State_Penalty>
0.445281

> <b_epik_Metal_Only>
0

> <s_lp_Force_Field>
OPLS_2005

> <r_lp_Energy>
24.1998

> <b_lp_Chiralities_Consistent>
1

> <s_lp_Variant>
AV-unprocessed.smi:2607-1

> <Gold.Version>
5.8.1

> <Gold.Id.Protein>
6NUR|6NUR_protein|mol2

> <Gold.PLP.Fitness>
28.5158

> <Gold.PLP.PLP>
-22.5510

> <Gold.PLP.part.hbond>
-1.9886

> <Gold.PLP.part.metal>
0.0000

> <Gold.PLP.part.buried>
-4.2900

> <Gold.PLP.part.nonpolar>
-16.4623

> <Gold.PLP.part.repulsive>
0.2425

> <Gold.PLP.ligand.clash>
0.0000

> <Gold.PLP.ligand.torsion>
0.0764

> <Gold.PLP.Chemscore.Hbond>
2.0000

> <Gold.PLP.Chemscore.CHOScore>
0.0000

> <Gold.PLP.Chemscore.Metal>
0.0000

> <Gold.Chemscore.Hbonds>
donor molecule, donor type, donor heavy atom, donor atom, acceptor molecule, acceptor atom, score
      P1  H  6896  6908       L1    11  0.83
      P1  H  7997  8008       L1    14  1.00

> <Gold.PLP.Chemscore.Internal.Correction>
0.1176

> <Gold.Rescore>
     Score         DG    S(hbond)    S(metal)    S(lipo)     H(rot)  DE(clash)    DE(int)     intcor
     13.89     -15.23       1.98        0.00      48.79       1.00       0.00       1.33       ----

> <Gold.Chemscore.Fitness>
13.8934

> <Gold.Chemscore.DG>
-15.2272

> <Gold.Chemscore.ZeroCoef>
-5.4800

> <Gold.Chemscore.Hbond>
1.9756

> <Gold.Chemscore.Metal>
0.0000

> <Gold.Chemscore.Lipo>
48.7925

> <Gold.Chemscore.Internal_Hbond>
0.0000

> <Gold.Chemscore.DEClash>
0.0000

> <Gold.Chemscore.DEInternal>
1.3338

> <Gold.Chemscore.Rot>
1.0000

> <Gold.Chemscore.Internal.Correction>
   9.000000E+99

> <Gold.Chemscore.Hbonds>
donor molecule, donor type, donor heavy atom, donor atom, acceptor molecule, acceptor atom, score
      P1  H  6896  6908       L1    11  0.73
      P1  H  7997  8008       L1    14  0.98

> <Gold.Chemscore.Hbond.Weighted>
-6.5984

> <Gold.Chemscore.Metal.Weighted>
-0.0000

> <Gold.Chemscore.Lipo.Weighted>
-5.7087

> <Gold.Chemscore.Internal_Hbond.Weighted>
0.0000

> <Gold.Chemscore.DEClash.Weighted>
0.0000

> <Gold.Chemscore.DEInternal.Weighted>
1.3338

> <Gold.Chemscore.Rot.Weighted>
2.5600

> <Gold.Chemscore.Internal.Correction.Weighted>
   9.000000E+99

> <Gold.Protein.RotatedTorsions>
[ 6907 6896 6895 6894 ] final -152.05 input  -60.11 | X-H torsion
[ 7974 7965 7964 7962 ] final  154.79 input  175.53 | X-H torsion
[ 8008 7997 7996 7995 ] final -102.02 input   59.86 | X-H torsion
[ 10167 10162 10161 10158 ] final   19.78 input  -65.29 | X-H torsion
[ 10718 10713 10712 10709 ] final  -84.93 input   66.30 | X-H torsion
[ 10763 10752 10751 10750 ] final   44.40 input  -60.55 | X-H torsion
[ 11005 11000 10999 10996 ] final -105.03 input  -57.11 | X-H torsion

> <Gold.Protein.ActiveResidues>
 VAL166  LYS551  ARG553  GLY616  TRP617  ASP618  TYR619  PRO620  LYS621  CYS622 
 ASP623  PHE694  ASN695  SER759  ASP760  ASP761  ALA762  ILE779  LEU786  VAL792 
 PHE793  MET794  SER795  GLU796  ALA797  LYS798  CYS799  TRP800  GLU811  SER814 

> <Gold.Protein.RotatedAtoms>
  151.2221  133.4496  159.2600 H   0  0  0  0  0  0  0  0  0  0  0  0  # atno 6907 bound_to 6896
  151.0874  134.9896  159.8396 H   0  0  0  0  0  0  0  0  0  0  0  0  # atno 6908 bound_to 6896
  152.5431  134.2157  159.8820 H   0  0  0  0  0  0  0  0  0  0  0  0  # atno 6909 bound_to 6896
  144.8066  139.6981  143.6159 H   0  0  0  0  0  0  0  0  0  0  0  0  # atno 7974 bound_to 7965
  154.8508  140.0431  157.1602 H   0  0  0  0  0  0  0  0  0  0  0  0  # atno 8008 bound_to 7997
  154.8945  140.2991  155.5331 H   0  0  0  0  0  0  0  0  0  0  0  0  # atno 8009 bound_to 7997
  156.2996  140.2387  156.3965 H   0  0  0  0  0  0  0  0  0  0  0  0  # atno 8010 bound_to 7997
  140.5553  143.9436  150.6605 H   0  0  0  0  0  0  0  0  0  0  0  0  # atno 10167 bound_to 10162
  156.0001  130.4714  150.4485 H   0  0  0  0  0  0  0  0  0  0  0  0  # atno 10718 bound_to 10713
  152.9842  135.6072  154.3268 H   0  0  0  0  0  0  0  0  0  0  0  0  # atno 10763 bound_to 10752
  154.2974  135.2773  155.2628 H   0  0  0  0  0  0  0  0  0  0  0  0  # atno 10764 bound_to 10752
  154.4896  135.5895  153.6506 H   0  0  0  0  0  0  0  0  0  0  0  0  # atno 10765 bound_to 10752
  141.1072  133.8774  157.1684 H   0  0  0  0  0  0  0  0  0  0  0  0  # atno 11005 bound_to 11000
  146.2358  139.5902  142.9525 LP  0  0  0  0  0  0  0  0  0  0  0  0  # atno 17320 bound_to 7965
  145.5424  141.0420  143.2323 LP  0  0  0  0  0  0  0  0  0  0  0  0  # atno 17321 bound_to 7965
  140.2872  143.3349  152.1096 LP  0  0  0  0  0  0  0  0  0  0  0  0  # atno 17342 bound_to 10162
  139.5045  144.6777  151.6088 LP  0  0  0  0  0  0  0  0  0  0  0  0  # atno 17343 bound_to 10162
  157.2520  131.0548  151.2373 LP  0  0  0  0  0  0  0  0  0  0  0  0  # atno 17370 bound_to 10713
  157.3519  130.7086  149.6446 LP  0  0  0  0  0  0  0  0  0  0  0  0  # atno 17371 bound_to 10713
  139.9948  135.0051  157.0058 LP  0  0  0  0  0  0  0  0  0  0  0  0  # atno 17394 bound_to 11000
  140.4870  134.1232  155.7226 LP  0  0  0  0  0  0  0  0  0  0  0  0  # atno 17395 bound_to 11000

$$$$
