AV-unprocessed.smi:3179|AV-procd|sdf|12132|dock3
  -GOLD-   2272017573D 1   1.00000     0.00000
 Structure written by MMmdl.
 34 34  0  0  0  0  0  0  0  0  2 V2000
  150.5915  137.8187  154.3903 C   0  0  0  0  0  0  0  0  0  0  0  0
  149.7528  139.0666  154.1001 C   0  0  0  0  0  0  0  0  0  0  0  0
  148.4952  138.7171  153.4267 N   0  3  0  0  0  0  0  0  0  0  0  0
  147.3453  139.4157  153.4998 C   0  0  0  0  0  0  0  0  0  0  0  0
  147.2841  140.5362  154.2458 N   0  0  0  0  0  0  0  0  0  0  0  0
  146.1000  141.3888  154.4152 C   0  0  0  0  0  0  0  0  0  0  0  0
  146.4071  142.5920  155.3110 C   0  0  0  0  0  0  0  0  0  0  0  0
  146.2563  138.9948  152.8272 N   0  0  0  0  0  0  0  0  0  0  0  0
  146.1771  137.7903  151.9896 C   0  0  0  0  0  0  0  0  0  0  0  0
  145.8687  136.5474  152.8328 C   0  0  0  0  0  0  0  0  0  0  0  0
  145.8915  135.2919  152.0272 C   0  0  0  0  0  0  0  0  0  0  0  0
  146.7804  134.3125  152.2153 N   0  0  0  0  0  0  0  0  0  0  0  0
  146.6066  133.2537  151.3203 C   0  0  0  0  0  0  0  0  0  0  0  0
  145.5798  133.4511  150.4322 C   0  0  0  0  0  0  0  0  0  0  0  0
  144.7891  134.9825  150.6897 S   0  0  0  0  0  0  0  0  0  0  0  0
  151.5267  138.0878  154.8823 H   0  0  0  0  0  0  0  0  0  0  0  0
  150.8410  137.2880  153.4710 H   0  0  0  0  0  0  0  0  0  0  0  0
  150.0586  137.1284  155.0446 H   0  0  0  0  0  0  0  0  0  0  0  0
  149.5264  139.5908  155.0288 H   0  0  0  0  0  0  0  0  0  0  0  0
  150.3149  139.7542  153.4676 H   0  0  0  0  0  0  0  0  0  0  0  0
  148.1177  140.8248  154.7375 H   0  0  0  0  0  0  0  0  0  0  0  0
  145.7615  141.7278  153.4359 H   0  0  0  0  0  0  0  0  0  0  0  0
  145.2949  140.7958  154.8499 H   0  0  0  0  0  0  0  0  0  0  0  0
  145.5208  143.2136  155.4402 H   0  0  0  0  0  0  0  0  0  0  0  0
  147.1902  143.2160  154.8793 H   0  0  0  0  0  0  0  0  0  0  0  0
  146.7364  142.2740  156.3007 H   0  0  0  0  0  0  0  0  0  0  0  0
  145.4062  139.5325  152.9187 H   0  0  0  0  0  0  0  0  0  0  0  0
  145.4010  137.9306  151.2364 H   0  0  0  0  0  0  0  0  0  0  0  0
  147.1235  137.6661  151.4622 H   0  0  0  0  0  0  0  0  0  0  0  0
  146.5902  136.4554  153.6459 H   0  0  0  0  0  0  0  0  0  0  0  0
  144.8865  136.6428  153.2970 H   0  0  0  0  0  0  0  0  0  0  0  0
  147.2614  132.3971  151.3857 H   0  0  0  0  0  0  0  0  0  0  0  0
  145.2440  132.7924  149.6448 H   0  0  0  0  0  0  0  0  0  0  0  0
  148.5057  137.8758  152.8679 H   0  0  0  0  0  0  0  0  0  0  0  0
  1  2  1  0  0  0  0
  1 16  1  0  0  0  0
  1 17  1  0  0  0  0
  1 18  1  0  0  0  0
  2  3  1  0  0  0  0
  2 19  1  0  0  0  0
  2 20  1  0  0  0  0
  3  4  2  0  0  0  0
  3 34  1  0  0  0  0
  4  5  1  0  0  0  0
  4  8  1  0  0  0  0
  5  6  1  0  0  0  0
  5 21  1  0  0  0  0
  6  7  1  0  0  0  0
  6 22  1  0  0  0  0
  6 23  1  0  0  0  0
  7 24  1  0  0  0  0
  7 25  1  0  0  0  0
  7 26  1  0  0  0  0
  8  9  1  0  0  0  0
  8 27  1  0  0  0  0
  9 10  1  0  0  0  0
  9 28  1  0  0  0  0
  9 29  1  0  0  0  0
 10 11  1  0  0  0  0
 10 30  1  0  0  0  0
 10 31  1  0  0  0  0
 11 15  1  0  0  0  0
 11 12  2  0  0  0  0
 12 13  1  0  0  0  0
 13 14  2  0  0  0  0
 13 32  1  0  0  0  0
 14 15  1  0  0  0  0
 14 33  1  0  0  0  0
M  CHG  1   3   1
M  END
> <s_m_source_file>
AV-unprocessed.smi

> <i_m_source_file_index>
3179

> <i_lp_mmshare_version>
43012

> <i_f3d_flags>
0

> <s_epik_input>
W0NIM11bQ0gyXS9OPUMoXFtOSF1bQ0gyXVtDSDNdKVtOSF1bQ0gyXVtDSDJdYzFuW2NIXVtjSF1zMQ==

> <s_epik_cmdline>
J2VwaWtfcHl0aG9uJywgJy1waCcsICc3LjAnLCAnLXRuJywgJzgnLCAnLW1hJywgJzIwMCcsICctbWV0YWxfYmluZGluZycsICctaW1hZScsICc8aW5maWxlLm1hZT4nLCAnLW9tYWUnLCAnPG91dGZpbGUubWFlPic=

> <r_lp_tautomer_probability>
1

> <r_epik_Ionization_Penalty>
3.28801e-05

> <r_epik_Ionization_Penalty_Charging>
8.99277e-08

> <r_epik_Ionization_Penalty_Neutral>
3.27902e-05

> <r_epik_State_Penalty>
-0

> <r_epik_Charging_Adjusted_Penalty>
8.99277e-08

> <i_epik_Tot_Q>
1

> <i_epik_Tot_abs_Q>
1

> <r_epik_Metal_State_Penalty>
-0

> <b_epik_Metal_Only>
0

> <s_epik_Chemistry_Notes>
This compound has an imine and may undergo hydrolysis.

> <s_lp_Force_Field>
OPLS_2005

> <r_lp_Energy>
0.386487

> <b_lp_Chiralities_Consistent>
1

> <s_lp_Variant>
AV-unprocessed.smi:3179-1

> <Gold.Version>
5.8.1

> <Gold.Id.Protein>
6NUR|6NUR_protein|mol2

> <Gold.PLP.Fitness>
39.3319

> <Gold.PLP.PLP>
-25.2327

> <Gold.PLP.part.hbond>
-3.0000

> <Gold.PLP.part.metal>
0.0000

> <Gold.PLP.part.buried>
0.2988

> <Gold.PLP.part.nonpolar>
-22.9645

> <Gold.PLP.part.repulsive>
1.7433

> <Gold.PLP.ligand.clash>
0.0000

> <Gold.PLP.ligand.torsion>
0.3793

> <Gold.PLP.Chemscore.Hbond>
4.0000

> <Gold.PLP.Chemscore.CHOScore>
0.9462

> <Gold.PLP.Chemscore.Metal>
0.0000

> <Gold.Chemscore.Hbonds>
donor molecule, donor type, donor heavy atom, donor atom, acceptor molecule, acceptor atom, score
      L1  H     3    34       P1  7948  2.00
      L1  H     8    27       P1 10175  2.00
      L1  C    13    32       P1 10747  0.93

> <Gold.PLP.Chemscore.Internal.Correction>
0.0190

> <Gold.Rescore>
     Score         DG    S(hbond)    S(metal)    S(lipo)     H(rot)  DE(clash)    DE(int)     intcor
     14.04     -14.57       1.91        0.00      60.68       1.72       0.09       0.44       ----

> <Gold.Chemscore.Fitness>
14.0399

> <Gold.Chemscore.DG>
-14.5695

> <Gold.Chemscore.ZeroCoef>
-5.4800

> <Gold.Chemscore.Hbond>
1.9132

> <Gold.Chemscore.Metal>
0.0000

> <Gold.Chemscore.Lipo>
60.6765

> <Gold.Chemscore.Internal_Hbond>
0.0000

> <Gold.Chemscore.DEClash>
0.0889

> <Gold.Chemscore.DEInternal>
0.4406

> <Gold.Chemscore.Rot>
1.7187

> <Gold.Chemscore.Internal.Correction>
   9.000000E+99

> <Gold.Chemscore.Hbonds>
donor molecule, donor type, donor heavy atom, donor atom, acceptor molecule, acceptor atom, score
      L1  H     3    34       P1  7948  0.99
      L1  H     8    27       P1 10175  0.95

> <Gold.Chemscore.Hbond.Weighted>
-6.3901

> <Gold.Chemscore.Metal.Weighted>
-0.0000

> <Gold.Chemscore.Lipo.Weighted>
-7.0991

> <Gold.Chemscore.Internal_Hbond.Weighted>
0.0000

> <Gold.Chemscore.DEClash.Weighted>
0.0889

> <Gold.Chemscore.DEInternal.Weighted>
0.4406

> <Gold.Chemscore.Rot.Weighted>
4.3998

> <Gold.Chemscore.Internal.Correction.Weighted>
   9.000000E+99

> <Gold.Protein.RotatedTorsions>
[ 6907 6896 6895 6894 ] final -120.64 input  -60.11 | X-H torsion
[ 7974 7965 7964 7962 ] final -175.42 input  175.53 | X-H torsion
[ 8008 7997 7996 7995 ] final  -51.93 input   59.86 | X-H torsion
[ 10167 10162 10161 10158 ] final -172.98 input  -65.29 | X-H torsion
[ 10718 10713 10712 10709 ] final  -54.36 input   66.30 | X-H torsion
[ 10763 10752 10751 10750 ] final -122.71 input  -60.55 | X-H torsion
[ 11005 11000 10999 10996 ] final -176.83 input  -57.11 | X-H torsion

> <Gold.Protein.ActiveResidues>
 VAL166  LYS551  ARG553  GLY616  TRP617  ASP618  TYR619  PRO620  LYS621  CYS622 
 ASP623  PHE694  ASN695  SER759  ASP760  ASP761  ALA762  ILE779  LEU786  VAL792 
 PHE793  MET794  SER795  GLU796  ALA797  LYS798  CYS799  TRP800  GLU811  SER814 

> <Gold.Protein.RotatedAtoms>
  150.8411  133.7935  159.3060 H   0  0  0  0  0  0  0  0  0  0  0  0  # atno 6907 bound_to 6896
  151.5636  135.1063  159.9988 H   0  0  0  0  0  0  0  0  0  0  0  0  # atno 6908 bound_to 6896
  152.4474  133.7521  159.6756 H   0  0  0  0  0  0  0  0  0  0  0  0  # atno 6909 bound_to 6896
  144.7128  140.1324  143.6398 H   0  0  0  0  0  0  0  0  0  0  0  0  # atno 7974 bound_to 7965
  154.4094  140.1236  156.4910 H   0  0  0  0  0  0  0  0  0  0  0  0  # atno 8008 bound_to 7997
  155.6991  140.3495  155.4906 H   0  0  0  0  0  0  0  0  0  0  0  0  # atno 8009 bound_to 7997
  155.9401  140.1085  157.1052 H   0  0  0  0  0  0  0  0  0  0  0  0  # atno 8010 bound_to 7997
  139.5714  144.1634  152.1389 H   0  0  0  0  0  0  0  0  0  0  0  0  # atno 10167 bound_to 10162
  156.1457  130.4153  150.0028 H   0  0  0  0  0  0  0  0  0  0  0  0  # atno 10718 bound_to 10713
  154.8694  135.4123  154.2825 H   0  0  0  0  0  0  0  0  0  0  0  0  # atno 10763 bound_to 10752
  153.3715  135.7008  153.6639 H   0  0  0  0  0  0  0  0  0  0  0  0  # atno 10764 bound_to 10752
  153.5499  135.3631  155.2727 H   0  0  0  0  0  0  0  0  0  0  0  0  # atno 10765 bound_to 10752
  140.4477  134.6372  157.4787 H   0  0  0  0  0  0  0  0  0  0  0  0  # atno 11005 bound_to 11000
  145.9275  139.2585  143.1345 LP  0  0  0  0  0  0  0  0  0  0  0  0  # atno 17320 bound_to 7965
  145.9557  140.8874  143.0236 LP  0  0  0  0  0  0  0  0  0  0  0  0  # atno 17321 bound_to 7965
  140.1167  144.5409  150.6889 LP  0  0  0  0  0  0  0  0  0  0  0  0  # atno 17342 bound_to 10162
  140.6998  143.2427  151.4897 LP  0  0  0  0  0  0  0  0  0  0  0  0  # atno 17343 bound_to 10162
  156.7900  130.9252  151.3646 LP  0  0  0  0  0  0  0  0  0  0  0  0  # atno 17370 bound_to 10713
  157.6614  130.8970  149.9839 LP  0  0  0  0  0  0  0  0  0  0  0  0  # atno 17371 bound_to 10713
  140.0027  134.6811  155.9504 LP  0  0  0  0  0  0  0  0  0  0  0  0  # atno 17394 bound_to 11000
  141.1678  133.6537  156.4541 LP  0  0  0  0  0  0  0  0  0  0  0  0  # atno 17395 bound_to 11000

$$$$
