AV-unprocessed.smi:1760|AV-procd|sdf|7092|dock5
  -GOLD-   22720 8313D 1   1.00000     0.00000
 Structure written by MMmdl.
 43 45  0  0  0  0  0  0  0  0  3 V2000
  149.0815  140.8320  156.6744 O   0  0  0  0  0  0  0  0  0  0  0  0
  149.7332  139.7918  156.7639 C   0  0  0  0  0  0  0  0  0  0  0  0
  150.9004  139.6440  157.4161 N   0  0  0  0  0  0  0  0  0  0  0  0
  151.6308  140.5828  158.1645 C   0  0  0  0  0  0  0  0  0  0  0  0
  151.3299  141.9079  158.2578 C   0  0  0  0  0  0  0  0  0  0  0  0
  152.1217  142.8308  159.0617 C   0  0  0  0  0  0  0  0  0  0  0  0
  151.8434  144.3178  159.1819 C   0  0  0  0  0  0  0  0  0  0  0  0
  152.6947  145.0075  158.4232 F   0  0  0  0  0  0  0  0  0  0  0  0
  150.6071  144.5912  158.7664 F   0  0  0  0  0  0  0  0  0  0  0  0
  151.9670  144.7373  160.4411 F   0  0  0  0  0  0  0  0  0  0  0  0
  153.1735  142.2040  159.6992 C   0  0  0  0  0  0  0  0  0  0  0  0
  153.5313  140.9016  159.6712 N   0  5  0  0  0  0  0  0  0  0  0  0
  152.7861  140.0470  158.9148 C   0  0  0  0  0  0  0  0  0  0  0  0
  153.0545  138.8470  158.8450 O   0  0  0  0  0  0  0  0  0  0  0  0
  149.3637  138.6381  156.1888 N   0  0  0  0  0  0  0  0  0  0  0  0
  148.1635  138.4282  155.3834 C   0  0  2  0  0  0  0  0  0  0  0  0
  148.0782  136.9581  154.9405 C   0  0  0  0  0  0  0  0  0  0  0  0
  146.8880  136.7331  153.9930 C   0  0  0  0  0  0  0  0  0  0  0  0
  146.9669  137.6336  152.8160 N   0  3  1  0  0  0  0  0  0  0  0  0
  145.8993  137.3584  151.8302 C   0  0  0  0  0  0  0  0  0  0  0  0
  144.6139  136.8603  152.4489 C   0  0  0  0  0  0  0  0  0  0  0  0
  145.5302  135.8968  151.7279 C   0  0  0  0  0  0  0  0  0  0  0  0
  147.0017  139.0618  153.2182 C   0  0  0  0  0  0  0  0  0  0  0  0
  148.1931  139.3446  154.1486 C   0  0  0  0  0  0  0  0  0  0  0  0
  151.3486  138.7428  157.3372 H   0  0  0  0  0  0  0  0  0  0  0  0
  150.4743  142.3166  157.7464 H   0  0  0  0  0  0  0  0  0  0  0  0
  153.8246  142.8496  160.3265 H   0  0  0  0  0  0  0  0  0  0  0  0
  149.9689  137.8401  156.3163 H   0  0  0  0  0  0  0  0  0  0  0  0
  147.2675  138.6623  155.9612 H   0  0  0  0  0  0  0  0  0  0  0  0
  149.0014  136.6662  154.4373 H   0  0  0  0  0  0  0  0  0  0  0  0
  147.9833  136.3099  155.8125 H   0  0  0  0  0  0  0  0  0  0  0  0
  146.8797  135.6944  153.6604 H   0  0  0  0  0  0  0  0  0  0  0  0
  145.9484  136.9035  154.5213 H   0  0  0  0  0  0  0  0  0  0  0  0
  145.8771  137.9976  150.9491 H   0  0  0  0  0  0  0  0  0  0  0  0
  144.5584  136.7831  153.5333 H   0  0  0  0  0  0  0  0  0  0  0  0
  143.6822  137.1265  151.9538 H   0  0  0  0  0  0  0  0  0  0  0  0
  145.2021  135.5282  150.7581 H   0  0  0  0  0  0  0  0  0  0  0  0
  146.0821  135.1810  152.3345 H   0  0  0  0  0  0  0  0  0  0  0  0
  147.0762  139.6906  152.3303 H   0  0  0  0  0  0  0  0  0  0  0  0
  146.0659  139.3243  153.7146 H   0  0  0  0  0  0  0  0  0  0  0  0
  148.1788  140.3902  154.4588 H   0  0  0  0  0  0  0  0  0  0  0  0
  149.1238  139.1980  153.5985 H   0  0  0  0  0  0  0  0  0  0  0  0
  147.8441  137.4374  152.3554 H   0  0  0  0  0  0  0  0  0  0  0  0
  1  2  2  0  0  0  0
  2  3  1  0  0  0  0
  2 15  1  0  0  0  0
  3  4  1  0  0  0  0
  3 25  1  0  0  0  0
  4 13  1  0  0  0  0
  4  5  2  0  0  0  0
  5  6  1  0  0  0  0
  5 26  1  0  0  0  0
  6  7  1  0  0  0  0
  6 11  2  0  0  0  0
  7  8  1  0  0  0  0
  7  9  1  0  0  0  0
  7 10  1  0  0  0  0
 11 12  1  0  0  0  0
 11 27  1  0  0  0  0
 12 13  1  0  0  0  0
 13 14  2  0  0  0  0
 15 16  1  0  0  0  0
 15 28  1  0  0  0  0
 16 24  1  0  0  0  0
 16 17  1  0  0  0  0
 16 29  1  0  0  0  0
 17 18  1  0  0  0  0
 17 30  1  0  0  0  0
 17 31  1  0  0  0  0
 18 19  1  0  0  0  0
 18 32  1  0  0  0  0
 18 33  1  0  0  0  0
 19 20  1  0  0  0  0
 19 23  1  0  0  0  0
 19 43  1  0  0  0  0
 20 22  1  0  0  0  0
 20 21  1  0  0  0  0
 20 34  1  0  0  0  0
 21 22  1  0  0  0  0
 21 35  1  0  0  0  0
 21 36  1  0  0  0  0
 22 37  1  0  0  0  0
 22 38  1  0  0  0  0
 23 24  1  0  0  0  0
 23 39  1  0  0  0  0
 23 40  1  0  0  0  0
 24 41  1  0  0  0  0
 24 42  1  0  0  0  0
M  CHG  1  12  -1
M  CHG  1  19   1
M  END
> <s_m_source_file>
AV-unprocessed.smi

> <i_m_source_file_index>
1760

> <i_lp_mmshare_version>
43012

> <i_f3d_flags>
0

> <s_epik_input>
W0NIMl0xW0NIMl1bQ0hdMU4oW0NIMl1bQ0gyXTIpW0NIMl1bQ0gyXVtDSF0yW05IXUMoPU8pW05IXWMzW2NIXWMoQyhGKShGKUYpW2NIXVtuSF1jMz1P

> <s_epik_cmdline>
J2VwaWtfcHl0aG9uJywgJy1waCcsICc3LjAnLCAnLXRuJywgJzgnLCAnLW1hJywgJzIwMCcsICctbWV0YWxfYmluZGluZycsICctaW1hZScsICc8aW5maWxlLm1hZT4nLCAnLW9tYWUnLCAnPG91dGZpbGUubWFlPic=

> <r_lp_tautomer_probability>
0.999

> <r_epik_Ionization_Penalty>
3.16043

> <r_epik_Ionization_Penalty_Charging>
0.268029

> <r_epik_Ionization_Penalty_Neutral>
2.8924

> <r_epik_State_Penalty>
3.0039

> <r_epik_Charging_Adjusted_Penalty>
3.27193

> <i_epik_Tot_Q>
0

> <i_epik_Tot_abs_Q>
2

> <r_epik_Metal_State_Penalty>
0.560618

> <b_epik_Metal_Only>
1

> <s_lp_Force_Field>
OPLS_2005

> <r_lp_Energy>
39.9714

> <b_lp_Chiralities_Consistent>
1

> <s_lp_Variant>
AV-unprocessed.smi:1760-4

> <Gold.Version>
5.8.1

> <Gold.Id.Protein>
6NUR|6NUR_protein|mol2

> <Gold.PLP.Fitness>
44.6628

> <Gold.PLP.PLP>
-40.0122

> <Gold.PLP.part.hbond>
-1.0000

> <Gold.PLP.part.metal>
0.0000

> <Gold.PLP.part.buried>
-4.4694

> <Gold.PLP.part.nonpolar>
-34.2673

> <Gold.PLP.part.repulsive>
0.1255

> <Gold.PLP.ligand.clash>
0.0000

> <Gold.PLP.ligand.torsion>
1.3129

> <Gold.PLP.Chemscore.Hbond>
2.0000

> <Gold.PLP.Chemscore.CHOScore>
0.0000

> <Gold.PLP.Chemscore.Metal>
0.0000

> <Gold.Chemscore.Hbonds>
donor molecule, donor type, donor heavy atom, donor atom, acceptor molecule, acceptor atom, score
      L1  H    19    43       P1  7948  1.89

> <Gold.PLP.Chemscore.Internal.Correction>
1.2764

> <Gold.Rescore>
     Score         DG    S(hbond)    S(metal)    S(lipo)     H(rot)  DE(clash)    DE(int)     intcor
     12.10     -14.03       0.99        0.00      72.81       1.28       0.05       1.88       ----

> <Gold.Chemscore.Fitness>
12.1003

> <Gold.Chemscore.DG>
-14.0294

> <Gold.Chemscore.ZeroCoef>
-5.4800

> <Gold.Chemscore.Hbond>
0.9893

> <Gold.Chemscore.Metal>
0.0000

> <Gold.Chemscore.Lipo>
72.8089

> <Gold.Chemscore.Internal_Hbond>
0.0000

> <Gold.Chemscore.DEClash>
0.0531

> <Gold.Chemscore.DEInternal>
1.8760

> <Gold.Chemscore.Rot>
1.2787

> <Gold.Chemscore.Internal.Correction>
   9.000000E+99

> <Gold.Chemscore.Hbonds>
donor molecule, donor type, donor heavy atom, donor atom, acceptor molecule, acceptor atom, score
      L1  H    19    43       P1  7948  0.91

> <Gold.Chemscore.Hbond.Weighted>
-3.3043

> <Gold.Chemscore.Metal.Weighted>
-0.0000

> <Gold.Chemscore.Lipo.Weighted>
-8.5186

> <Gold.Chemscore.Internal_Hbond.Weighted>
0.0000

> <Gold.Chemscore.DEClash.Weighted>
0.0531

> <Gold.Chemscore.DEInternal.Weighted>
1.8760

> <Gold.Chemscore.Rot.Weighted>
3.2735

> <Gold.Chemscore.Internal.Correction.Weighted>
   9.000000E+99

> <Gold.Protein.RotatedTorsions>
[ 6907 6896 6895 6894 ] final  -29.37 input  -60.11 | X-H torsion
[ 7974 7965 7964 7962 ] final -123.44 input  175.53 | X-H torsion
[ 8008 7997 7996 7995 ] final  -29.01 input   59.86 | X-H torsion
[ 10167 10162 10161 10158 ] final   42.63 input  -65.29 | X-H torsion
[ 10718 10713 10712 10709 ] final -153.11 input   66.30 | X-H torsion
[ 10763 10752 10751 10750 ] final  152.10 input  -60.55 | X-H torsion
[ 11005 11000 10999 10996 ] final -106.24 input  -57.11 | X-H torsion

> <Gold.Protein.ActiveResidues>
 VAL166  LYS551  ARG553  GLY616  TRP617  ASP618  TYR619  PRO620  LYS621  CYS622 
 ASP623  PHE694  ASN695  SER759  ASP760  ASP761  ALA762  ILE779  LEU786  VAL792 
 PHE793  MET794  SER795  GLU796  ALA797  LYS798  CYS799  TRP800  GLU811  SER814 

> <Gold.Protein.RotatedAtoms>
  151.1202  135.0075  159.8534 H   0  0  0  0  0  0  0  0  0  0  0  0  # atno 6907 bound_to 6896
  152.5447  134.1732  159.8615 H   0  0  0  0  0  0  0  0  0  0  0  0  # atno 6908 bound_to 6896
  151.1790  133.4692  159.2627 H   0  0  0  0  0  0  0  0  0  0  0  0  # atno 6909 bound_to 6896
  145.0187  140.7969  143.4394 H   0  0  0  0  0  0  0  0  0  0  0  0  # atno 7974 bound_to 7965
  154.4308  140.1830  156.1180 H   0  0  0  0  0  0  0  0  0  0  0  0  # atno 8008 bound_to 7997
  156.0165  140.3345  155.6969 H   0  0  0  0  0  0  0  0  0  0  0  0  # atno 8009 bound_to 7997
  155.6037  140.0643  157.2716 H   0  0  0  0  0  0  0  0  0  0  0  0  # atno 8010 bound_to 7997
  140.3524  144.2333  150.6144 H   0  0  0  0  0  0  0  0  0  0  0  0  # atno 10167 bound_to 10162
  156.4815  130.8305  151.2532 H   0  0  0  0  0  0  0  0  0  0  0  0  # atno 10718 bound_to 10713
  154.1146  135.2837  155.3222 H   0  0  0  0  0  0  0  0  0  0  0  0  # atno 10763 bound_to 10752
  154.6466  135.5384  153.7855 H   0  0  0  0  0  0  0  0  0  0  0  0  # atno 10764 bound_to 10752
  153.0333  135.6499  154.1303 H   0  0  0  0  0  0  0  0  0  0  0  0  # atno 10765 bound_to 10752
  141.1014  133.8876  157.1831 H   0  0  0  0  0  0  0  0  0  0  0  0  # atno 11005 bound_to 11000
  145.1925  139.2294  143.5235 LP  0  0  0  0  0  0  0  0  0  0  0  0  # atno 17320 bound_to 7965
  146.3482  140.1724  142.8589 LP  0  0  0  0  0  0  0  0  0  0  0  0  # atno 17321 bound_to 7965
  140.5206  143.2267  151.8395 LP  0  0  0  0  0  0  0  0  0  0  0  0  # atno 17342 bound_to 10162
  139.4824  144.4841  151.9269 LP  0  0  0  0  0  0  0  0  0  0  0  0  # atno 17343 bound_to 10162
  157.7483  131.0043  150.3072 LP  0  0  0  0  0  0  0  0  0  0  0  0  # atno 17370 bound_to 10713
  156.3517  130.3832  149.7323 LP  0  0  0  0  0  0  0  0  0  0  0  0  # atno 17371 bound_to 10713
  139.9868  135.0079  156.9880 LP  0  0  0  0  0  0  0  0  0  0  0  0  # atno 17394 bound_to 11000
  140.5011  134.1096  155.7251 LP  0  0  0  0  0  0  0  0  0  0  0  0  # atno 17395 bound_to 11000

$$$$
