AV-unprocessed.smi:623|AV-procd|sdf|3091|dock10
  -GOLD-   22720 0 13D 1   1.00000     0.00000
 Structure written by MMmdl.
 45 47  0  0  0  0  0  0  0  0  1 V2000
  150.5369  138.2590  157.8338 C   0  0  0  0  0  0  0  0  0  0  0  0
  150.8691  138.5588  156.3452 C   0  0  0  0  0  0  0  0  0  0  0  0
  151.9514  139.6745  156.3804 C   0  0  0  0  0  0  0  0  0  0  0  0
  151.2707  137.3180  155.5225 C   0  0  2  0  0  0  0  0  0  0  0  0
  151.4119  137.8634  154.0840 C   0  0  0  0  0  0  0  0  0  0  0  0
  150.3091  138.9389  154.0239 C   0  0  0  0  0  0  0  0  0  0  0  0
  149.6467  138.8292  155.4255 C   0  0  2  0  0  0  0  0  0  0  0  0
  148.7984  140.0606  155.7884 C   0  0  0  0  0  0  0  0  0  0  0  0
  148.8604  137.4809  155.4929 C   0  0  1  0  0  0  0  0  0  0  0  0
  147.9770  137.2360  154.3524 N   0  0  0  0  0  0  0  0  0  0  0  0
  146.6726  137.5438  154.2989 C   0  0  0  0  0  0  0  0  0  0  0  0
  146.0675  138.0828  155.2269 O   0  0  0  0  0  0  0  0  0  0  0  0
  145.9556  137.2127  152.9829 C   0  0  0  0  0  0  0  0  0  0  0  0
  144.6441  136.5821  153.1908 N   0  0  0  0  0  0  0  0  0  0  0  0
  143.4938  137.1813  152.6972 C   0  0  0  0  0  0  0  0  0  0  0  0
  142.2528  136.6677  152.8701 C   0  0  0  0  0  0  0  0  0  0  0  0
  142.0650  135.4220  153.6063 C   0  0  0  0  0  0  0  0  0  0  0  0
  140.9831  134.8774  153.8146 O   0  0  0  0  0  0  0  0  0  0  0  0
  143.2459  134.8508  154.0883 N   0  0  0  0  0  0  0  0  0  0  0  0
  144.5273  135.3761  153.9157 C   0  0  0  0  0  0  0  0  0  0  0  0
  145.5029  134.7937  154.3884 O   0  0  0  0  0  0  0  0  0  0  0  0
  150.0009  136.4390  155.5461 C   0  0  0  0  0  0  0  0  0  0  0  0
  143.1647  133.9883  154.6066 H   0  0  0  0  0  0  0  0  0  0  0  0
  151.4319  137.9391  158.3682 H   0  0  0  0  0  0  0  0  0  0  0  0
  149.7916  137.4842  157.9964 H   0  0  0  0  0  0  0  0  0  0  0  0
  150.1682  139.1540  158.3356 H   0  0  0  0  0  0  0  0  0  0  0  0
  152.3168  139.9968  155.4080 H   0  0  0  0  0  0  0  0  0  0  0  0
  152.8260  139.3409  156.9395 H   0  0  0  0  0  0  0  0  0  0  0  0
  151.5735  140.5658  156.8819 H   0  0  0  0  0  0  0  0  0  0  0  0
  152.1613  136.7984  155.8773 H   0  0  0  0  0  0  0  0  0  0  0  0
  152.3975  138.2965  153.9124 H   0  0  0  0  0  0  0  0  0  0  0  0
  151.2686  137.0868  153.3319 H   0  0  0  0  0  0  0  0  0  0  0  0
  150.7401  139.9273  153.8632 H   0  0  0  0  0  0  0  0  0  0  0  0
  149.6202  138.7792  153.1950 H   0  0  0  0  0  0  0  0  0  0  0  0
  147.9870  140.2023  155.0745 H   0  0  0  0  0  0  0  0  0  0  0  0
  149.3962  140.9718  155.7851 H   0  0  0  0  0  0  0  0  0  0  0  0
  148.3526  139.9582  156.7777 H   0  0  0  0  0  0  0  0  0  0  0  0
  148.2756  137.4207  156.4120 H   0  0  0  0  0  0  0  0  0  0  0  0
  148.3935  136.8024  153.5413 H   0  0  0  0  0  0  0  0  0  0  0  0
  145.8421  138.1386  152.4172 H   0  0  0  0  0  0  0  0  0  0  0  0
  146.5903  136.5740  152.3652 H   0  0  0  0  0  0  0  0  0  0  0  0
  143.5857  138.1093  152.1505 H   0  0  0  0  0  0  0  0  0  0  0  0
  141.3943  137.1823  152.4632 H   0  0  0  0  0  0  0  0  0  0  0  0
  149.9778  135.7353  154.7123 H   0  0  0  0  0  0  0  0  0  0  0  0
  149.9453  135.8427  156.4570 H   0  0  0  0  0  0  0  0  0  0  0  0
  1  2  1  0  0  0  0
  1 24  1  0  0  0  0
  1 25  1  0  0  0  0
  1 26  1  0  0  0  0
  2  7  1  0  0  0  0
  2  3  1  0  0  0  0
  2  4  1  0  0  0  0
  3 27  1  0  0  0  0
  3 28  1  0  0  0  0
  3 29  1  0  0  0  0
  4 22  1  0  0  0  0
  4  5  1  0  0  0  0
  4 30  1  0  0  0  0
  5  6  1  0  0  0  0
  5 31  1  0  0  0  0
  5 32  1  0  0  0  0
  6  7  1  0  0  0  0
  6 33  1  0  0  0  0
  6 34  1  0  0  0  0
  7  8  1  0  0  0  0
  7  9  1  0  0  0  0
  8 35  1  0  0  0  0
  8 36  1  0  0  0  0
  8 37  1  0  0  0  0
  9 10  1  0  0  0  0
  9 22  1  0  0  0  0
  9 38  1  0  0  0  0
 10 11  1  0  0  0  0
 10 39  1  0  0  0  0
 11 12  2  0  0  0  0
 11 13  1  0  0  0  0
 13 14  1  0  0  0  0
 13 40  1  0  0  0  0
 13 41  1  0  0  0  0
 14 20  1  0  0  0  0
 14 15  1  0  0  0  0
 15 16  2  0  0  0  0
 15 42  1  0  0  0  0
 16 17  1  0  0  0  0
 16 43  1  0  0  0  0
 17 18  2  0  0  0  0
 17 19  1  0  0  0  0
 19 23  1  0  0  0  0
 19 20  1  0  0  0  0
 20 21  2  0  0  0  0
 22 44  1  0  0  0  0
 22 45  1  0  0  0  0
M  END
> <s_m_source_file>
AV-unprocessed.smi

> <i_m_source_file_index>
623

> <i_lp_mmshare_version>
43012

> <i_f3d_flags>
0

> <s_epik_input>
W0NIM11bQ0BdMTJDKFtDSDNdKShbQ0gzXSlbQ0BIXShbQ0gyXVtDSDJdMSlbQ0gyXVtDQEBIXTJbTkhdQyg9TylbQ0gyXW4zW2NIXVtjSF1jKD1PKVtuSF1jMz1P

> <s_epik_cmdline>
J2VwaWtfcHl0aG9uJywgJy1waCcsICc3LjAnLCAnLXRuJywgJzgnLCAnLW1hJywgJzIwMCcsICctbWV0YWxfYmluZGluZycsICctaW1hZScsICc8aW5maWxlLm1hZT4nLCAnLW9tYWUnLCAnPG91dGZpbGUubWFlPic=

> <r_lp_tautomer_probability>
0.999537

> <r_epik_Ionization_Penalty>
0.00303563

> <r_epik_Ionization_Penalty_Charging>
0.00303561

> <r_epik_Ionization_Penalty_Neutral>
2.03238e-08

> <r_epik_State_Penalty>
0.00213308

> <r_epik_Charging_Adjusted_Penalty>
0.00516869

> <i_epik_Tot_Q>
0

> <i_epik_Tot_abs_Q>
0

> <r_epik_Metal_State_Penalty>
0.361714

> <b_epik_Metal_Only>
0

> <s_lp_Force_Field>
OPLS_2005

> <r_lp_Energy>
55.109

> <b_lp_Chiralities_Consistent>
1

> <s_lp_Variant>
AV-unprocessed.smi:623-1

> <Gold.Version>
5.8.1

> <Gold.Id.Protein>
6NUR|6NUR_protein|mol2

> <Gold.PLP.Fitness>
40.0802

> <Gold.PLP.PLP>
-26.2808

> <Gold.PLP.part.hbond>
-3.7568

> <Gold.PLP.part.metal>
0.0000

> <Gold.PLP.part.buried>
-5.4735

> <Gold.PLP.part.nonpolar>
-17.1644

> <Gold.PLP.part.repulsive>
0.3105

> <Gold.PLP.ligand.clash>
0.0000

> <Gold.PLP.ligand.torsion>
0.5571

> <Gold.PLP.Chemscore.Hbond>
2.9825

> <Gold.PLP.Chemscore.CHOScore>
1.9841

> <Gold.PLP.Chemscore.Metal>
0.0000

> <Gold.Chemscore.Hbonds>
donor molecule, donor type, donor heavy atom, donor atom, acceptor molecule, acceptor atom, score
      L1  H    10    39       P1  7948  1.00
      L1  H    19    23       P1 10957  0.37
      P1  H 11000 11005       L1    18  0.86
      L1  C    15    42       P1 10171  1.00
      L1  C    15    42       P1 10175  1.00

> <Gold.PLP.Chemscore.Internal.Correction>
0.0139

> <Gold.Rescore>
     Score         DG    S(hbond)    S(metal)    S(lipo)     H(rot)  DE(clash)    DE(int)     intcor
     15.60     -17.42       2.86        0.00      56.82       1.66       0.13       1.69       ----

> <Gold.Chemscore.Fitness>
15.5961

> <Gold.Chemscore.DG>
-17.4197

> <Gold.Chemscore.ZeroCoef>
-5.4800

> <Gold.Chemscore.Hbond>
2.8603

> <Gold.Chemscore.Metal>
0.0000

> <Gold.Chemscore.Lipo>
56.8207

> <Gold.Chemscore.Internal_Hbond>
0.0000

> <Gold.Chemscore.DEClash>
0.1341

> <Gold.Chemscore.DEInternal>
1.6895

> <Gold.Chemscore.Rot>
1.6647

> <Gold.Chemscore.Internal.Correction>
   9.000000E+99

> <Gold.Chemscore.Hbonds>
donor molecule, donor type, donor heavy atom, donor atom, acceptor molecule, acceptor atom, score
      L1  H    10    39       P1  7948  1.00
      L1  H    19    23       P1 10957  0.36
      P1  H 11000 11005       L1    18  0.83

> <Gold.Chemscore.Hbond.Weighted>
-9.5533

> <Gold.Chemscore.Metal.Weighted>
-0.0000

> <Gold.Chemscore.Lipo.Weighted>
-6.6480

> <Gold.Chemscore.Internal_Hbond.Weighted>
0.0000

> <Gold.Chemscore.DEClash.Weighted>
0.1341

> <Gold.Chemscore.DEInternal.Weighted>
1.6895

> <Gold.Chemscore.Rot.Weighted>
4.2617

> <Gold.Chemscore.Internal.Correction.Weighted>
   9.000000E+99

> <Gold.Protein.RotatedTorsions>
[ 6907 6896 6895 6894 ] final    1.10 input  -60.11 | X-H torsion
[ 7974 7965 7964 7962 ] final -167.00 input  175.53 | X-H torsion
[ 8008 7997 7996 7995 ] final -110.38 input   59.86 | X-H torsion
[ 10167 10162 10161 10158 ] final  -63.89 input  -65.29 | X-H torsion
[ 10718 10713 10712 10709 ] final  161.58 input   66.30 | X-H torsion
[ 10763 10752 10751 10750 ] final  123.73 input  -60.55 | X-H torsion
[ 11005 11000 10999 10996 ] final   19.96 input  -57.11 | X-H torsion

> <Gold.Protein.ActiveResidues>
 VAL166  LYS551  ARG553  GLY616  TRP617  ASP618  TYR619  PRO620  LYS621  CYS622 
 ASP623  PHE694  ASN695  SER759  ASP760  ASP761  ALA762  ILE779  LEU786  VAL792 
 PHE793  MET794  SER795  GLU796  ALA797  LYS798  CYS799  TRP800  GLU811  SER814 

> <Gold.Protein.RotatedAtoms>
  151.5871  135.1055  160.0030 H   0  0  0  0  0  0  0  0  0  0  0  0  # atno 6907 bound_to 6896
  152.4325  133.7298  159.6591 H   0  0  0  0  0  0  0  0  0  0  0  0  # atno 6908 bound_to 6896
  150.8219  133.8168  159.3158 H   0  0  0  0  0  0  0  0  0  0  0  0  # atno 6909 bound_to 6896
  144.7233  140.2584  143.6268 H   0  0  0  0  0  0  0  0  0  0  0  0  # atno 7974 bound_to 7965
  154.9736  140.0397  157.2246 H   0  0  0  0  0  0  0  0  0  0  0  0  # atno 8008 bound_to 7997
  154.7778  140.2813  155.6065 H   0  0  0  0  0  0  0  0  0  0  0  0  # atno 8009 bound_to 7997
  156.2931  140.2597  156.2597 H   0  0  0  0  0  0  0  0  0  0  0  0  # atno 8010 bound_to 7997
  140.5839  143.2331  151.6284 H   0  0  0  0  0  0  0  0  0  0  0  0  # atno 10167 bound_to 10162
  157.1345  131.0525  151.2356 H   0  0  0  0  0  0  0  0  0  0  0  0  # atno 10718 bound_to 10713
  153.6502  135.3364  155.3097 H   0  0  0  0  0  0  0  0  0  0  0  0  # atno 10763 bound_to 10752
  154.8539  135.4339  154.1912 H   0  0  0  0  0  0  0  0  0  0  0  0  # atno 10764 bound_to 10752
  153.2853  135.7012  153.7420 H   0  0  0  0  0  0  0  0  0  0  0  0  # atno 10765 bound_to 10752
  140.4079  134.1649  155.7666 H   0  0  0  0  0  0  0  0  0  0  0  0  # atno 11005 bound_to 11000
  145.8160  139.2023  143.1965 LP  0  0  0  0  0  0  0  0  0  0  0  0  # atno 17320 bound_to 7965
  146.0555  140.8025  142.9760 LP  0  0  0  0  0  0  0  0  0  0  0  0  # atno 17321 bound_to 7965
  139.5186  144.3280  152.0852 LP  0  0  0  0  0  0  0  0  0  0  0  0  # atno 17342 bound_to 10162
  140.2434  144.4246  150.6251 LP  0  0  0  0  0  0  0  0  0  0  0  0  # atno 17343 bound_to 10162
  157.4362  130.7518  149.7031 LP  0  0  0  0  0  0  0  0  0  0  0  0  # atno 17370 bound_to 10713
  155.9801  130.4033  150.3549 LP  0  0  0  0  0  0  0  0  0  0  0  0  # atno 17371 bound_to 10713
  141.1832  133.8369  157.1182 LP  0  0  0  0  0  0  0  0  0  0  0  0  # atno 17394 bound_to 11000
  140.0289  134.9911  157.0740 LP  0  0  0  0  0  0  0  0  0  0  0  0  # atno 17395 bound_to 11000

$$$$
