AV-unprocessed.smi:2636|AV-procd|sdf|10257|dock4
  -GOLD-   2272014263D 1   1.00000     0.00000
 Structure written by MMmdl.
 36 37  0  0  0  0  0  0  0  0  1 V2000
  147.4840  139.4957  153.5057 C   0  0  0  0  0  0  0  0  0  0  0  0
  148.6882  138.7699  154.0820 C   0  0  0  0  0  0  0  0  0  0  0  0
  149.9360  139.3052  154.0677 C   0  0  0  0  0  0  0  0  0  0  0  0
  151.0482  138.6638  154.5877 N   0  0  0  0  0  0  0  0  0  0  0  0
  152.3853  139.2248  154.5135 C   0  0  0  0  0  0  0  0  0  0  0  0
  152.6995  139.8083  155.7367 O   0  0  0  0  0  0  0  0  0  0  0  0
  151.6625  140.6288  156.2479 C   0  0  0  0  0  0  0  0  0  0  0  0
  151.9660  141.0307  157.6742 C   0  0  0  0  0  0  0  0  0  0  0  0
  152.0071  142.3038  158.1075 C   0  0  0  0  0  0  0  0  0  0  0  0
  152.2956  142.7562  159.4802 C   0  0  0  0  0  0  0  0  0  0  0  0
  151.8765  144.0150  159.9726 C   0  0  0  0  0  0  0  0  0  0  0  0
  152.1743  144.4019  161.2941 C   0  0  0  0  0  0  0  0  0  0  0  0
  152.8935  143.5364  162.1387 C   0  0  0  0  0  0  0  0  0  0  0  0
  153.3148  142.2823  161.6593 C   0  0  0  0  0  0  0  0  0  0  0  0
  153.0165  141.8967  160.3380 C   0  0  0  0  0  0  0  0  0  0  0  0
  150.9187  137.3748  155.1457 C   0  0  0  0  0  0  0  0  0  0  0  0
  151.8692  136.7405  155.6039 O   0  0  0  0  0  0  0  0  0  0  0  0
  149.6369  136.8269  155.1628 N   0  0  0  0  0  0  0  0  0  0  0  0
  148.4832  137.4402  154.6657 C   0  0  0  0  0  0  0  0  0  0  0  0
  147.4046  136.8540  154.7400 O   0  0  0  0  0  0  0  0  0  0  0  0
  149.5335  135.9068  155.5650 H   0  0  0  0  0  0  0  0  0  0  0  0
  147.7532  140.4770  153.1140 H   0  0  0  0  0  0  0  0  0  0  0  0
  146.7220  139.6397  154.2726 H   0  0  0  0  0  0  0  0  0  0  0  0
  147.0457  138.9187  152.6908 H   0  0  0  0  0  0  0  0  0  0  0  0
  150.0722  140.2832  153.6285 H   0  0  0  0  0  0  0  0  0  0  0  0
  153.0939  138.4254  154.2888 H   0  0  0  0  0  0  0  0  0  0  0  0
  152.4235  139.9521  153.6986 H   0  0  0  0  0  0  0  0  0  0  0  0
  151.5433  141.5187  155.6274 H   0  0  0  0  0  0  0  0  0  0  0  0
  150.7149  140.0883  156.2360 H   0  0  0  0  0  0  0  0  0  0  0  0
  152.1552  140.2103  158.3490 H   0  0  0  0  0  0  0  0  0  0  0  0
  151.8104  143.0869  157.3893 H   0  0  0  0  0  0  0  0  0  0  0  0
  151.3236  144.7014  159.3504 H   0  0  0  0  0  0  0  0  0  0  0  0
  151.8494  145.3649  161.6596 H   0  0  0  0  0  0  0  0  0  0  0  0
  153.1213  143.8335  163.1518 H   0  0  0  0  0  0  0  0  0  0  0  0
  153.8666  141.6150  162.3047 H   0  0  0  0  0  0  0  0  0  0  0  0
  153.3459  140.9303  159.9850 H   0  0  0  0  0  0  0  0  0  0  0  0
  1  2  1  0  0  0  0
  1 22  1  0  0  0  0
  1 23  1  0  0  0  0
  1 24  1  0  0  0  0
  2 19  1  0  0  0  0
  2  3  2  0  0  0  0
  3  4  1  0  0  0  0
  3 25  1  0  0  0  0
  4  5  1  0  0  0  0
  4 16  1  0  0  0  0
  5  6  1  0  0  0  0
  5 26  1  0  0  0  0
  5 27  1  0  0  0  0
  6  7  1  0  0  0  0
  7  8  1  0  0  0  0
  7 28  1  0  0  0  0
  7 29  1  0  0  0  0
  8  9  2  0  0  0  0
  8 30  1  0  0  0  0
  9 10  1  0  0  0  0
  9 31  1  0  0  0  0
 10 15  1  0  0  0  0
 10 11  2  0  0  0  0
 11 12  1  0  0  0  0
 11 32  1  0  0  0  0
 12 13  2  0  0  0  0
 12 33  1  0  0  0  0
 13 14  1  0  0  0  0
 13 34  1  0  0  0  0
 14 15  2  0  0  0  0
 14 35  1  0  0  0  0
 15 36  1  0  0  0  0
 16 17  2  0  0  0  0
 16 18  1  0  0  0  0
 18 21  1  0  0  0  0
 18 19  1  0  0  0  0
 19 20  2  0  0  0  0
M  END
> <s_m_source_file>
AV-unprocessed.smi

> <i_m_source_file_index>
2636

> <i_lp_mmshare_version>
43012

> <i_f3d_flags>
0

> <s_epik_input>
Tz1jMVtuSF1jKD1PKW4oW2NIXWMxW0NIM10pW0NIMl1PW0NIMl0vW0NIXT1bQ0hdL2MyW2NIXVtjSF1bY0hdW2NIXVtjSF0y

> <s_epik_cmdline>
J2VwaWtfcHl0aG9uJywgJy1waCcsICc3LjAnLCAnLXRuJywgJzgnLCAnLW1hJywgJzIwMCcsICctbWV0YWxfYmluZGluZycsICctaW1hZScsICc8aW5maWxlLm1hZT4nLCAnLW9tYWUnLCAnPG91dGZpbGUubWFlPic=

> <r_lp_tautomer_probability>
0.999537

> <r_epik_Ionization_Penalty>
0.00179702

> <r_epik_Ionization_Penalty_Charging>
0.00179702

> <r_epik_Ionization_Penalty_Neutral>
9.83266e-13

> <r_epik_State_Penalty>
0.00121868

> <r_epik_Charging_Adjusted_Penalty>
0.0030157

> <i_epik_Tot_Q>
0

> <i_epik_Tot_abs_Q>
0

> <r_epik_Metal_State_Penalty>
0.826903

> <b_epik_Metal_Only>
0

> <s_epik_Chemistry_Notes>
This compound contains an acetal/aminal-like group ( X-CH(R)-Y where X, Y are N, S, or O) that may be acid/base labile, releasing an aldehyde.

> <s_lp_Force_Field>
OPLS_2005

> <r_lp_Energy>
1.95272

> <b_lp_Chiralities_Consistent>
1

> <s_lp_Variant>
AV-unprocessed.smi:2636-1

> <Gold.Version>
5.8.1

> <Gold.Id.Protein>
6NUR|6NUR_protein|mol2

> <Gold.PLP.Fitness>
50.7814

> <Gold.PLP.PLP>
-44.0096

> <Gold.PLP.part.hbond>
-2.0000

> <Gold.PLP.part.metal>
0.0000

> <Gold.PLP.part.buried>
-2.5189

> <Gold.PLP.part.nonpolar>
-37.8897

> <Gold.PLP.part.repulsive>
0.1354

> <Gold.PLP.ligand.clash>
0.0000

> <Gold.PLP.ligand.torsion>
0.4984

> <Gold.PLP.Chemscore.Hbond>
2.0000

> <Gold.PLP.Chemscore.CHOScore>
0.5775

> <Gold.PLP.Chemscore.Metal>
0.0000

> <Gold.Chemscore.Hbonds>
donor molecule, donor type, donor heavy atom, donor atom, acceptor molecule, acceptor atom, score
      P1  H  7997  8008       L1     6  1.00
      P1  H 10752 10765       L1    17  0.99
      L1  C     3    25       P1  7957  0.54

> <Gold.PLP.Chemscore.Internal.Correction>
0.0360

> <Gold.Rescore>
     Score         DG    S(hbond)    S(metal)    S(lipo)     H(rot)  DE(clash)    DE(int)     intcor
     17.86     -19.44       1.88        0.00     107.73       1.92       0.36       1.22       ----

> <Gold.Chemscore.Fitness>
17.8618

> <Gold.Chemscore.DG>
-19.4396

> <Gold.Chemscore.ZeroCoef>
-5.4800

> <Gold.Chemscore.Hbond>
1.8787

> <Gold.Chemscore.Metal>
0.0000

> <Gold.Chemscore.Lipo>
107.7280

> <Gold.Chemscore.Internal_Hbond>
0.0000

> <Gold.Chemscore.DEClash>
0.3565

> <Gold.Chemscore.DEInternal>
1.2213

> <Gold.Chemscore.Rot>
1.9216

> <Gold.Chemscore.Internal.Correction>
   9.000000E+99

> <Gold.Chemscore.Hbonds>
donor molecule, donor type, donor heavy atom, donor atom, acceptor molecule, acceptor atom, score
      P1  H  7997  8008       L1     6  0.94
      P1  H 10752 10765       L1    17  0.94

> <Gold.Chemscore.Hbond.Weighted>
-6.2747

> <Gold.Chemscore.Metal.Weighted>
-0.0000

> <Gold.Chemscore.Lipo.Weighted>
-12.6042

> <Gold.Chemscore.Internal_Hbond.Weighted>
0.0000

> <Gold.Chemscore.DEClash.Weighted>
0.3565

> <Gold.Chemscore.DEInternal.Weighted>
1.2213

> <Gold.Chemscore.Rot.Weighted>
4.9193

> <Gold.Chemscore.Internal.Correction.Weighted>
   9.000000E+99

> <Gold.Protein.RotatedTorsions>
[ 6907 6896 6895 6894 ] final  146.16 input  -60.11 | X-H torsion
[ 7974 7965 7964 7962 ] final -158.26 input  175.53 | X-H torsion
[ 8008 7997 7996 7995 ] final  -27.42 input   59.86 | X-H torsion
[ 10167 10162 10161 10158 ] final -131.29 input  -65.29 | X-H torsion
[ 10718 10713 10712 10709 ] final -131.84 input   66.30 | X-H torsion
[ 10763 10752 10751 10750 ] final  177.08 input  -60.55 | X-H torsion
[ 11005 11000 10999 10996 ] final    4.26 input  -57.11 | X-H torsion

> <Gold.Protein.ActiveResidues>
 VAL166  LYS551  ARG553  GLY616  TRP617  ASP618  TYR619  PRO620  LYS621  CYS622 
 ASP623  PHE694  ASN695  SER759  ASP760  ASP761  ALA762  ILE779  LEU786  VAL792 
 PHE793  MET794  SER795  GLU796  ALA797  LYS798  CYS799  TRP800  GLU811  SER814 

> <Gold.Protein.RotatedAtoms>
  152.1715  133.4646  159.4911 H   0  0  0  0  0  0  0  0  0  0  0  0  # atno 6907 bound_to 6896
  150.6920  134.1947  159.4308 H   0  0  0  0  0  0  0  0  0  0  0  0  # atno 6908 bound_to 6896
  151.9854  135.0006  160.0610 H   0  0  0  0  0  0  0  0  0  0  0  0  # atno 6909 bound_to 6896
  144.7513  140.3853  143.6046 H   0  0  0  0  0  0  0  0  0  0  0  0  # atno 7974 bound_to 7965
  154.4378  140.1873  156.0930 H   0  0  0  0  0  0  0  0  0  0  0  0  # atno 8008 bound_to 7997
  156.0351  140.3326  155.7156 H   0  0  0  0  0  0  0  0  0  0  0  0  # atno 8009 bound_to 7997
  155.5782  140.0619  157.2780 H   0  0  0  0  0  0  0  0  0  0  0  0  # atno 8010 bound_to 7997
  139.9204  143.6389  152.2555 H   0  0  0  0  0  0  0  0  0  0  0  0  # atno 10167 bound_to 10162
  156.2285  130.7022  151.0832 H   0  0  0  0  0  0  0  0  0  0  0  0  # atno 10718 bound_to 10713
  154.4897  135.2778  155.1506 H   0  0  0  0  0  0  0  0  0  0  0  0  # atno 10763 bound_to 10752
  154.3183  135.6215  153.5500 H   0  0  0  0  0  0  0  0  0  0  0  0  # atno 10764 bound_to 10752
  152.9886  135.5736  154.5316 H   0  0  0  0  0  0  0  0  0  0  0  0  # atno 10765 bound_to 10752
  140.5839  133.9987  155.8059 H   0  0  0  0  0  0  0  0  0  0  0  0  # atno 11005 bound_to 11000
  145.6934  139.1644  143.2634 LP  0  0  0  0  0  0  0  0  0  0  0  0  # atno 17320 bound_to 7965
  146.1467  140.6983  142.9341 LP  0  0  0  0  0  0  0  0  0  0  0  0  # atno 17321 bound_to 7965
  139.6866  144.7651  151.1512 LP  0  0  0  0  0  0  0  0  0  0  0  0  # atno 17342 bound_to 10162
  140.7663  143.5648  150.9060 LP  0  0  0  0  0  0  0  0  0  0  0  0  # atno 17343 bound_to 10162
  157.7122  131.0728  150.6461 LP  0  0  0  0  0  0  0  0  0  0  0  0  # atno 17370 bound_to 10713
  156.6527  130.4489  149.5714 LP  0  0  0  0  0  0  0  0  0  0  0  0  # atno 17371 bound_to 10713
  141.0979  133.9815  157.3129 LP  0  0  0  0  0  0  0  0  0  0  0  0  # atno 17394 bound_to 11000
  139.9305  135.0200  156.8383 LP  0  0  0  0  0  0  0  0  0  0  0  0  # atno 17395 bound_to 11000

$$$$
