AV-unprocessed.smi:2902|AV-procd|sdf|11156|dock4
  -GOLD-   2272016 43D 1   1.00000     0.00000
 Structure written by MMmdl.
 47 48  0  0  0  0  0  0  0  0  1 V2000
  150.4096  138.5196  158.2312 C   0  0  0  0  0  0  0  0  0  0  0  0
  151.3748  139.7008  158.0734 C   0  0  0  0  0  0  0  0  0  0  0  0
  150.7270  140.9107  157.3744 C   0  0  1  0  0  0  0  0  0  0  0  0
  151.6698  141.9818  157.3833 O   0  0  0  0  0  0  0  0  0  0  0  0
  151.4109  143.0475  158.2933 C   0  0  0  0  0  0  0  0  0  0  0  0
  151.9184  144.4018  157.7884 C   0  0  0  0  0  0  0  0  0  0  0  0
  152.1693  145.2324  159.0527 C   0  0  0  0  0  0  0  0  0  0  0  0
  152.3033  144.2299  160.2097 C   0  0  0  0  0  0  0  0  0  0  0  0
  152.2110  142.8381  159.5775 C   0  0  0  0  0  0  0  0  0  0  0  0
  150.3175  140.5642  155.9351 C   0  0  0  0  0  0  0  0  0  0  0  0
  151.1572  140.1567  155.1324 O   0  0  0  0  0  0  0  0  0  0  0  0
  149.0198  140.7297  155.6314 N   0  0  0  0  0  0  0  0  0  0  0  0
  148.3902  140.4155  154.3478 C   0  0  2  0  0  0  0  0  0  0  0  0
  147.6635  141.6789  153.8573 C   0  0  0  0  0  0  0  0  0  0  0  0
  147.4501  139.1872  154.4954 C   0  0  1  0  0  0  0  0  0  0  0  0
  146.2610  139.4442  155.4417 C   0  0  0  0  0  0  0  0  0  0  0  0
  146.9679  138.7273  153.1975 N   0  0  0  0  0  0  0  0  0  0  0  0
  147.1223  139.2612  151.9839 C   0  0  0  0  0  0  0  0  0  0  0  0
  146.4955  138.5999  151.0213 N   0  0  0  0  0  0  0  0  0  0  0  0
  145.9321  137.5999  151.7621 C   0  0  0  0  0  0  0  0  0  0  0  0
  146.1811  137.6307  153.0711 N   0  0  0  0  0  0  0  0  0  0  0  0
  150.9019  137.6797  158.7218 H   0  0  0  0  0  0  0  0  0  0  0  0
  150.0485  138.1737  157.2624 H   0  0  0  0  0  0  0  0  0  0  0  0
  149.5437  138.7947  158.8338 H   0  0  0  0  0  0  0  0  0  0  0  0
  151.7485  139.9929  159.0560 H   0  0  0  0  0  0  0  0  0  0  0  0
  152.2431  139.3665  157.5028 H   0  0  0  0  0  0  0  0  0  0  0  0
  149.8412  141.2007  157.9430 H   0  0  0  0  0  0  0  0  0  0  0  0
  150.3521  143.1144  158.5519 H   0  0  0  0  0  0  0  0  0  0  0  0
  152.8595  144.2625  157.2545 H   0  0  0  0  0  0  0  0  0  0  0  0
  151.2233  144.8898  157.1053 H   0  0  0  0  0  0  0  0  0  0  0  0
  153.0625  145.8489  158.9455 H   0  0  0  0  0  0  0  0  0  0  0  0
  151.3301  145.9038  159.2391 H   0  0  0  0  0  0  0  0  0  0  0  0
  153.2354  144.3596  160.7605 H   0  0  0  0  0  0  0  0  0  0  0  0
  151.4839  144.3721  160.9156 H   0  0  0  0  0  0  0  0  0  0  0  0
  151.7548  142.1025  160.2408 H   0  0  0  0  0  0  0  0  0  0  0  0
  153.2139  142.4849  159.3325 H   0  0  0  0  0  0  0  0  0  0  0  0
  148.4121  141.0803  156.3573 H   0  0  0  0  0  0  0  0  0  0  0  0
  149.1570  140.1783  153.6081 H   0  0  0  0  0  0  0  0  0  0  0  0
  147.2681  141.5509  152.8501 H   0  0  0  0  0  0  0  0  0  0  0  0
  148.3423  142.5319  153.8247 H   0  0  0  0  0  0  0  0  0  0  0  0
  146.8334  141.9410  154.5139 H   0  0  0  0  0  0  0  0  0  0  0  0
  148.0297  138.3669  154.9216 H   0  0  0  0  0  0  0  0  0  0  0  0
  146.5918  139.6091  156.4666 H   0  0  0  0  0  0  0  0  0  0  0  0
  145.5852  138.5886  155.4602 H   0  0  0  0  0  0  0  0  0  0  0  0
  145.6840  140.3165  155.1330 H   0  0  0  0  0  0  0  0  0  0  0  0
  147.6939  140.1596  151.8029 H   0  0  0  0  0  0  0  0  0  0  0  0
  145.3180  136.8270  151.3236 H   0  0  0  0  0  0  0  0  0  0  0  0
  1  2  1  0  0  0  0
  1 22  1  0  0  0  0
  1 23  1  0  0  0  0
  1 24  1  0  0  0  0
  2  3  1  0  0  0  0
  2 25  1  0  0  0  0
  2 26  1  0  0  0  0
  3  4  1  0  0  0  0
  3 10  1  0  0  0  0
  3 27  1  0  0  0  0
  4  5  1  0  0  0  0
  5  9  1  0  0  0  0
  5  6  1  0  0  0  0
  5 28  1  0  0  0  0
  6  7  1  0  0  0  0
  6 29  1  0  0  0  0
  6 30  1  0  0  0  0
  7  8  1  0  0  0  0
  7 31  1  0  0  0  0
  7 32  1  0  0  0  0
  8  9  1  0  0  0  0
  8 33  1  0  0  0  0
  8 34  1  0  0  0  0
  9 35  1  0  0  0  0
  9 36  1  0  0  0  0
 10 11  2  0  0  0  0
 10 12  1  0  0  0  0
 12 13  1  0  0  0  0
 12 37  1  0  0  0  0
 13 14  1  0  0  0  0
 13 15  1  0  0  0  0
 13 38  1  0  0  0  0
 14 39  1  0  0  0  0
 14 40  1  0  0  0  0
 14 41  1  0  0  0  0
 15 16  1  0  0  0  0
 15 17  1  0  0  0  0
 15 42  1  0  0  0  0
 16 43  1  0  0  0  0
 16 44  1  0  0  0  0
 16 45  1  0  0  0  0
 17 21  1  0  0  0  0
 17 18  1  0  0  0  0
 18 19  2  0  0  0  0
 18 46  1  0  0  0  0
 19 20  1  0  0  0  0
 20 21  2  0  0  0  0
 20 47  1  0  0  0  0
M  END
> <s_m_source_file>
AV-unprocessed.smi

> <i_m_source_file_index>
2902

> <i_lp_mmshare_version>
43012

> <i_f3d_flags>
0

> <s_epik_input>
W0NIMl0xW0NIMl1bQ0gyXVtDSDJdW0NIXTFPW0NAQEhdKFtDSDJdW0NIM10pQyg9TylbTkhdW0NASF0oW0NIM10pW0NASF0oW0NIM10pbjJbY0hdbltjSF1uMg==

> <s_epik_cmdline>
J2VwaWtfcHl0aG9uJywgJy1waCcsICc3LjAnLCAnLXRuJywgJzgnLCAnLW1hJywgJzIwMCcsICctbWV0YWxfYmluZGluZycsICctaW1hZScsICc8aW5maWxlLm1hZT4nLCAnLW9tYWUnLCAnPG91dGZpbGUubWFlPic=

> <r_lp_tautomer_probability>
1

> <r_epik_Ionization_Penalty>
6.95617e-05

> <r_epik_Ionization_Penalty_Charging>
0

> <r_epik_Ionization_Penalty_Neutral>
6.95617e-05

> <r_epik_State_Penalty>
-0

> <r_epik_Charging_Adjusted_Penalty>
0

> <i_epik_Tot_Q>
0

> <i_epik_Tot_abs_Q>
0

> <r_epik_Metal_State_Penalty>
-0

> <b_epik_Metal_Only>
0

> <s_lp_Force_Field>
OPLS_2005

> <r_lp_Energy>
29.6491

> <b_lp_Chiralities_Consistent>
1

> <s_lp_Variant>
AV-unprocessed.smi:2902-6

> <Gold.Version>
5.8.1

> <Gold.Id.Protein>
6NUR|6NUR_protein|mol2

> <Gold.PLP.Fitness>
43.7974

> <Gold.PLP.PLP>
-38.1054

> <Gold.PLP.part.hbond>
-2.0000

> <Gold.PLP.part.metal>
0.0000

> <Gold.PLP.part.buried>
-0.7056

> <Gold.PLP.part.nonpolar>
-38.2611

> <Gold.PLP.part.repulsive>
2.0510

> <Gold.PLP.ligand.clash>
0.0000

> <Gold.PLP.ligand.torsion>
1.2655

> <Gold.PLP.Chemscore.Hbond>
1.9516

> <Gold.PLP.Chemscore.CHOScore>
0.7153

> <Gold.PLP.Chemscore.Metal>
0.0000

> <Gold.Chemscore.Hbonds>
donor molecule, donor type, donor heavy atom, donor atom, acceptor molecule, acceptor atom, score
      P1  H  7954  7966       L1    19  0.71
      P1  H  7989  7998       L1    11  1.00
      L1  C    18    46       P1  7957  0.73
      L1  C    20    47       P1 10171  0.14

> <Gold.PLP.Chemscore.Internal.Correction>
0.2223

> <Gold.Rescore>
     Score         DG    S(hbond)    S(metal)    S(lipo)     H(rot)  DE(clash)    DE(int)     intcor
     10.96     -14.59       1.56        0.00      92.16       2.69       2.27       1.36       ----

> <Gold.Chemscore.Fitness>
10.9595

> <Gold.Chemscore.DG>
-14.5884

> <Gold.Chemscore.ZeroCoef>
-5.4800

> <Gold.Chemscore.Hbond>
1.5632

> <Gold.Chemscore.Metal>
0.0000

> <Gold.Chemscore.Lipo>
92.1597

> <Gold.Chemscore.Internal_Hbond>
0.0000

> <Gold.Chemscore.DEClash>
2.2674

> <Gold.Chemscore.DEInternal>
1.3616

> <Gold.Chemscore.Rot>
2.6935

> <Gold.Chemscore.Internal.Correction>
   9.000000E+99

> <Gold.Chemscore.Hbonds>
donor molecule, donor type, donor heavy atom, donor atom, acceptor molecule, acceptor atom, score
      P1  H  7954  7966       L1    19  0.17
      P1  H  7989  7998       L1    11  0.99

> <Gold.Chemscore.Hbond.Weighted>
-5.2211

> <Gold.Chemscore.Metal.Weighted>
-0.0000

> <Gold.Chemscore.Lipo.Weighted>
-10.7827

> <Gold.Chemscore.Internal_Hbond.Weighted>
0.0000

> <Gold.Chemscore.DEClash.Weighted>
2.2674

> <Gold.Chemscore.DEInternal.Weighted>
1.3616

> <Gold.Chemscore.Rot.Weighted>
6.8954

> <Gold.Chemscore.Internal.Correction.Weighted>
   9.000000E+99

> <Gold.Protein.RotatedTorsions>
[ 6907 6896 6895 6894 ] final  115.58 input  -60.11 | X-H torsion
[ 7974 7965 7964 7962 ] final -131.10 input  175.53 | X-H torsion
[ 8008 7997 7996 7995 ] final  -66.47 input   59.86 | X-H torsion
[ 10167 10162 10161 10158 ] final   -0.46 input  -65.29 | X-H torsion
[ 10718 10713 10712 10709 ] final  -57.20 input   66.30 | X-H torsion
[ 10763 10752 10751 10750 ] final    4.61 input  -60.55 | X-H torsion
[ 11005 11000 10999 10996 ] final -123.53 input  -57.11 | X-H torsion

> <Gold.Protein.ActiveResidues>
 VAL166  LYS551  ARG553  GLY616  TRP617  ASP618  TYR619  PRO620  LYS621  CYS622 
 ASP623  PHE694  ASN695  SER759  ASP760  ASP761  ALA762  ILE779  LEU786  VAL792 
 PHE793  MET794  SER795  GLU796  ALA797  LYS798  CYS799  TRP800  GLU811  SER814 

> <Gold.Protein.RotatedAtoms>
  152.4733  133.8079  159.6987 H   0  0  0  0  0  0  0  0  0  0  0  0  # atno 6907 bound_to 6896
  150.8734  133.7463  159.2960 H   0  0  0  0  0  0  0  0  0  0  0  0  # atno 6908 bound_to 6896
  151.4991  135.1064  159.9876 H   0  0  0  0  0  0  0  0  0  0  0  0  # atno 6909 bound_to 6896
  144.9411  140.7240  143.4846 H   0  0  0  0  0  0  0  0  0  0  0  0  # atno 7974 bound_to 7965
  154.4736  140.0912  156.7207 H   0  0  0  0  0  0  0  0  0  0  0  0  # atno 8008 bound_to 7997
  155.4656  140.3462  155.4300 H   0  0  0  0  0  0  0  0  0  0  0  0  # atno 8009 bound_to 7997
  156.1080  140.1440  156.9365 H   0  0  0  0  0  0  0  0  0  0  0  0  # atno 8010 bound_to 7997
  140.6768  143.6892  150.8042 H   0  0  0  0  0  0  0  0  0  0  0  0  # atno 10167 bound_to 10162
  156.1229  130.4165  150.0409 H   0  0  0  0  0  0  0  0  0  0  0  0  # atno 10718 bound_to 10713
  153.2692  135.6930  153.7498 H   0  0  0  0  0  0  0  0  0  0  0  0  # atno 10763 bound_to 10752
  153.6528  135.3374  155.3106 H   0  0  0  0  0  0  0  0  0  0  0  0  # atno 10764 bound_to 10752
  154.8458  135.4458  154.1708 H   0  0  0  0  0  0  0  0  0  0  0  0  # atno 10765 bound_to 10752
  140.9911  134.0537  157.3653 H   0  0  0  0  0  0  0  0  0  0  0  0  # atno 11005 bound_to 11000
  145.2989  139.1857  143.4700 LP  0  0  0  0  0  0  0  0  0  0  0  0  # atno 17320 bound_to 7965
  146.3286  140.2977  142.8619 LP  0  0  0  0  0  0  0  0  0  0  0  0  # atno 17321 bound_to 7965
  140.0586  143.5177  152.2639 LP  0  0  0  0  0  0  0  0  0  0  0  0  # atno 17342 bound_to 10162
  139.6066  144.7598  151.3049 LP  0  0  0  0  0  0  0  0  0  0  0  0  # atno 17343 bound_to 10162
  156.8342  130.9403  151.3635 LP  0  0  0  0  0  0  0  0  0  0  0  0  # atno 17370 bound_to 10713
  157.6411  130.8807  149.9451 LP  0  0  0  0  0  0  0  0  0  0  0  0  # atno 17371 bound_to 10713
  139.8993  135.0158  156.7189 LP  0  0  0  0  0  0  0  0  0  0  0  0  # atno 17394 bound_to 11000
  140.7038  133.9283  155.8041 LP  0  0  0  0  0  0  0  0  0  0  0  0  # atno 17395 bound_to 11000

$$$$
