AV-unprocessed.smi:1806|AV-procd|sdf|7299|dock2
  -GOLD-   22720 8553D 1   1.00000     0.00000
 Structure written by MMmdl.
 28 29  0  0  0  0  0  0  0  0  1 V2000
  152.5463  143.1923  162.4665 C   0  0  0  0  0  0  0  0  0  0  0  0
  152.3247  143.6058  161.0270 C   0  0  0  0  0  0  0  0  0  0  0  0
  152.2025  144.9639  160.6731 C   0  0  0  0  0  0  0  0  0  0  0  0
  151.9982  145.2799  159.3180 C   0  0  0  0  0  0  0  0  0  0  0  0
  151.9271  144.2325  158.3794 C   0  0  0  0  0  0  0  0  0  0  0  0
  152.0608  142.8958  158.8174 C   0  0  0  0  0  0  0  0  0  0  0  0
  151.9740  141.9160  157.7932 N   0  0  0  0  0  0  0  0  0  0  0  0
  152.0628  140.5759  157.9027 C   0  0  0  0  0  0  0  0  0  0  0  0
  152.2430  139.9827  158.9677 O   0  0  0  0  0  0  0  0  0  0  0  0
  151.9199  139.9263  156.6049 C   0  0  0  0  0  0  0  0  0  0  0  0
  150.9426  140.3313  155.7613 C   0  0  0  0  0  0  0  0  0  0  0  0
  150.7049  139.7568  154.5377 O   0  0  0  0  0  0  0  0  0  0  0  0
  151.3921  138.5315  154.3143 C   0  0  0  0  0  0  0  0  0  0  0  0
  152.8271  138.6179  154.8541 C   0  0  0  0  0  0  0  0  0  0  0  0
  152.8127  138.9418  156.2403 O   0  0  0  0  0  0  0  0  0  0  0  0
  152.2565  142.6015  160.1269 N   0  0  0  0  0  0  0  0  0  0  0  0
  152.4746  144.0476  163.1389 H   0  0  0  0  0  0  0  0  0  0  0  0
  153.5351  142.7480  162.5839 H   0  0  0  0  0  0  0  0  0  0  0  0
  151.8006  142.4573  162.7712 H   0  0  0  0  0  0  0  0  0  0  0  0
  152.2626  145.7445  161.4173 H   0  0  0  0  0  0  0  0  0  0  0  0
  151.8976  146.3081  159.0031 H   0  0  0  0  0  0  0  0  0  0  0  0
  151.7714  144.4580  157.3342 H   0  0  0  0  0  0  0  0  0  0  0  0
  151.8259  142.2729  156.8605 H   0  0  0  0  0  0  0  0  0  0  0  0
  150.2279  141.1131  155.9762 H   0  0  0  0  0  0  0  0  0  0  0  0
  150.8494  137.7217  154.8039 H   0  0  0  0  0  0  0  0  0  0  0  0
  151.3979  138.3145  153.2460 H   0  0  0  0  0  0  0  0  0  0  0  0
  153.3455  137.6693  154.7146 H   0  0  0  0  0  0  0  0  0  0  0  0
  153.3939  139.3768  154.3129 H   0  0  0  0  0  0  0  0  0  0  0  0
  1  2  1  0  0  0  0
  1 17  1  0  0  0  0
  1 18  1  0  0  0  0
  1 19  1  0  0  0  0
  2 16  1  0  0  0  0
  2  3  2  0  0  0  0
  3  4  1  0  0  0  0
  3 20  1  0  0  0  0
  4  5  2  0  0  0  0
  4 21  1  0  0  0  0
  5  6  1  0  0  0  0
  5 22  1  0  0  0  0
  6  7  1  0  0  0  0
  6 16  2  0  0  0  0
  7  8  1  0  0  0  0
  7 23  1  0  0  0  0
  8  9  2  0  0  0  0
  8 10  1  0  0  0  0
 10 15  1  0  0  0  0
 10 11  2  0  0  0  0
 11 12  1  0  0  0  0
 11 24  1  0  0  0  0
 12 13  1  0  0  0  0
 13 14  1  0  0  0  0
 13 25  1  0  0  0  0
 13 26  1  0  0  0  0
 14 15  1  0  0  0  0
 14 27  1  0  0  0  0
 14 28  1  0  0  0  0
M  END
> <s_m_source_file>
AV-unprocessed.smi

> <i_m_source_file_index>
1806

> <i_lp_mmshare_version>
43012

> <i_f3d_flags>
0

> <s_epik_input>
W0NIM11jMVtjSF1bY0hdW2NIXWMobjEpW05IXUMoPU8pQzI9W0NIXU9bQ0gyXVtDSDJdTzI=

> <s_epik_cmdline>
J2VwaWtfcHl0aG9uJywgJy1waCcsICc3LjAnLCAnLXRuJywgJzgnLCAnLW1hJywgJzIwMCcsICctbWV0YWxfYmluZGluZycsICctaW1hZScsICc8aW5maWxlLm1hZT4nLCAnLW9tYWUnLCAnPG91dGZpbGUubWFlPic=

> <r_lp_tautomer_probability>
1

> <r_epik_Ionization_Penalty>
0.000170398

> <r_epik_Ionization_Penalty_Charging>
0

> <r_epik_Ionization_Penalty_Neutral>
0.000170398

> <r_epik_State_Penalty>
-0

> <r_epik_Charging_Adjusted_Penalty>
0

> <i_epik_Tot_Q>
0

> <i_epik_Tot_abs_Q>
0

> <r_epik_Metal_State_Penalty>
0.0293809

> <b_epik_Metal_Only>
0

> <s_lp_Force_Field>
OPLS_2005

> <r_lp_Energy>
3.70878

> <b_lp_Chiralities_Consistent>
1

> <s_lp_Variant>
AV-unprocessed.smi:1806-1

> <Gold.Version>
5.8.1

> <Gold.Id.Protein>
6NUR|6NUR_protein|mol2

> <Gold.PLP.Fitness>
42.7866

> <Gold.PLP.PLP>
-39.0860

> <Gold.PLP.part.hbond>
-2.0000

> <Gold.PLP.part.metal>
0.0000

> <Gold.PLP.part.buried>
-4.5446

> <Gold.PLP.part.nonpolar>
-33.4019

> <Gold.PLP.part.repulsive>
0.1679

> <Gold.PLP.ligand.clash>
0.0000

> <Gold.PLP.ligand.torsion>
0.7753

> <Gold.PLP.Chemscore.Hbond>
1.7500

> <Gold.PLP.Chemscore.CHOScore>
0.0000

> <Gold.PLP.Chemscore.Metal>
0.0000

> <Gold.Chemscore.Hbonds>
donor molecule, donor type, donor heavy atom, donor atom, acceptor molecule, acceptor atom, score
      P1  H  7989  7998       L1    12  1.00
      P1  H  7997  8009       L1    15  0.70

> <Gold.PLP.Chemscore.Internal.Correction>
0.0012

> <Gold.Rescore>
     Score         DG    S(hbond)    S(metal)    S(lipo)     H(rot)  DE(clash)    DE(int)     intcor
     15.07     -17.67       0.37        0.00      93.46       0.00       0.81       1.78       ----

> <Gold.Chemscore.Fitness>
15.0703

> <Gold.Chemscore.DG>
-17.6668

> <Gold.Chemscore.ZeroCoef>
-5.4800

> <Gold.Chemscore.Hbond>
0.3748

> <Gold.Chemscore.Metal>
0.0000

> <Gold.Chemscore.Lipo>
93.4604

> <Gold.Chemscore.Internal_Hbond>
0.0000

> <Gold.Chemscore.DEClash>
0.8134

> <Gold.Chemscore.DEInternal>
1.7831

> <Gold.Chemscore.Rot>
0.0000

> <Gold.Chemscore.Internal.Correction>
   9.000000E+99

> <Gold.Chemscore.Hbonds>
donor molecule, donor type, donor heavy atom, donor atom, acceptor molecule, acceptor atom, score
      P1  H  7989  7998       L1    12  0.08
      P1  H  7997  8009       L1    15  0.03

> <Gold.Chemscore.Hbond.Weighted>
-1.2519

> <Gold.Chemscore.Metal.Weighted>
-0.0000

> <Gold.Chemscore.Lipo.Weighted>
-10.9349

> <Gold.Chemscore.Internal_Hbond.Weighted>
0.0000

> <Gold.Chemscore.DEClash.Weighted>
0.8134

> <Gold.Chemscore.DEInternal.Weighted>
1.7831

> <Gold.Chemscore.Rot.Weighted>
0.0000

> <Gold.Chemscore.Internal.Correction.Weighted>
   9.000000E+99

> <Gold.Protein.RotatedTorsions>
[ 6907 6896 6895 6894 ] final  111.97 input  -60.11 | X-H torsion
[ 7974 7965 7964 7962 ] final  -52.20 input  175.53 | X-H torsion
[ 8008 7997 7996 7995 ] final -166.04 input   59.86 | X-H torsion
[ 10167 10162 10161 10158 ] final  -52.71 input  -65.29 | X-H torsion
[ 10718 10713 10712 10709 ] final   64.14 input   66.30 | X-H torsion
[ 10763 10752 10751 10750 ] final  130.18 input  -60.55 | X-H torsion
[ 11005 11000 10999 10996 ] final  -11.09 input  -57.11 | X-H torsion

> <Gold.Protein.ActiveResidues>
 VAL166  LYS551  ARG553  GLY616  TRP617  ASP618  TYR619  PRO620  LYS621  CYS622 
 ASP623  PHE694  ASN695  SER759  ASP760  ASP761  ALA762  ILE779  LEU786  VAL792 
 PHE793  MET794  SER795  GLU796  ALA797  LYS798  CYS799  TRP800  GLU811  SER814 

> <Gold.Protein.RotatedAtoms>
  152.4941  133.8583  159.7236 H   0  0  0  0  0  0  0  0  0  0  0  0  # atno 6907 bound_to 6896
  150.9101  133.6999  159.2863 H   0  0  0  0  0  0  0  0  0  0  0  0  # atno 6908 bound_to 6896
  151.4411  135.1024  159.9723 H   0  0  0  0  0  0  0  0  0  0  0  0  # atno 6909 bound_to 6896
  145.9106  140.7918  142.9697 H   0  0  0  0  0  0  0  0  0  0  0  0  # atno 7974 bound_to 7965
  155.8583  140.0974  157.1630 H   0  0  0  0  0  0  0  0  0  0  0  0  # atno 8008 bound_to 7997
  154.3989  140.1370  156.3992 H   0  0  0  0  0  0  0  0  0  0  0  0  # atno 8009 bound_to 7997
  155.7885  140.3456  155.5338 H   0  0  0  0  0  0  0  0  0  0  0  0  # atno 8010 bound_to 7997
  140.6523  143.2574  151.4687 H   0  0  0  0  0  0  0  0  0  0  0  0  # atno 10167 bound_to 10162
  157.6019  130.9143  149.9806 H   0  0  0  0  0  0  0  0  0  0  0  0  # atno 10718 bound_to 10713
  153.7539  135.3206  155.3326 H   0  0  0  0  0  0  0  0  0  0  0  0  # atno 10763 bound_to 10752
  154.8253  135.4574  154.0904 H   0  0  0  0  0  0  0  0  0  0  0  0  # atno 10764 bound_to 10752
  153.2115  135.6936  153.8191 H   0  0  0  0  0  0  0  0  0  0  0  0  # atno 10765 bound_to 10752
  140.7517  133.8587  155.9050 H   0  0  0  0  0  0  0  0  0  0  0  0  # atno 11005 bound_to 11000
  144.6743  140.1820  143.7405 LP  0  0  0  0  0  0  0  0  0  0  0  0  # atno 17320 bound_to 7965
  145.8676  139.2255  143.1680 LP  0  0  0  0  0  0  0  0  0  0  0  0  # atno 17321 bound_to 7965
  139.5740  144.1862  152.1877 LP  0  0  0  0  0  0  0  0  0  0  0  0  # atno 17342 bound_to 10162
  140.1167  144.5409  150.6889 LP  0  0  0  0  0  0  0  0  0  0  0  0  # atno 17343 bound_to 10162
  156.1094  130.3651  150.0075 LP  0  0  0  0  0  0  0  0  0  0  0  0  # atno 17370 bound_to 10713
  156.8176  130.9347  151.3642 LP  0  0  0  0  0  0  0  0  0  0  0  0  # atno 17371 bound_to 10713
  140.9745  134.1487  157.4548 LP  0  0  0  0  0  0  0  0  0  0  0  0  # atno 17394 bound_to 11000
  139.8786  134.9990  156.5929 LP  0  0  0  0  0  0  0  0  0  0  0  0  # atno 17395 bound_to 11000

$$$$
