AV-unprocessed.smi:276|AV-procd|sdf|2071|dock3
  -GOLD-   2262021323D 1   1.00000     0.00000
 Structure written by MMmdl.
 57 61  0  0  0  0  0  0  0  0  1 V2000
  150.0406  141.5170  158.0817 C   0  0  0  0  0  0  0  0  0  0  0  0
  149.0545  141.0445  157.1809 O   0  0  0  0  0  0  0  0  0  0  0  0
  149.2867  141.4566  155.8408 C   0  0  1  0  0  0  0  0  0  0  0  0
  150.3472  140.6005  155.1317 C   0  0  0  0  0  0  0  0  0  0  0  0
  149.2262  139.6654  154.6362 C   0  0  1  0  0  0  0  0  0  0  0  0
  149.0575  138.5069  155.5252 N   0  0  0  0  0  0  0  0  0  0  0  0
  150.2721  137.7698  155.8588 C   0  0  0  0  0  0  0  0  0  0  0  0
  148.0733  137.6434  155.1910 C   0  0  0  0  0  0  0  0  0  0  0  0
  147.8280  136.6254  156.0529 N   0  0  0  0  0  0  0  0  0  0  0  0
  146.8555  135.7474  155.7904 C   0  0  0  0  0  0  0  0  0  0  0  0
  146.0308  135.7028  154.7417 N   0  0  0  0  0  0  0  0  0  0  0  0
  146.2884  136.7159  153.8652 C   0  0  0  0  0  0  0  0  0  0  0  0
  147.2880  137.7191  154.0052 C   0  0  0  0  0  0  0  0  0  0  0  0
  147.2563  138.5749  152.9103 N   0  0  0  0  0  0  0  0  0  0  0  0
  146.2830  138.1142  152.1735 C   0  0  0  0  0  0  0  0  0  0  0  0
  145.6456  137.0024  152.6741 N   0  0  0  0  0  0  0  0  0  0  0  0
  144.5302  136.2969  152.0666 C   0  0  0  0  0  0  0  0  0  0  0  0
  144.9858  135.2913  150.9841 C   0  0  2  0  0  0  0  0  0  0  0  0
  144.8408  135.9202  149.7236 O   0  0  0  0  0  0  0  0  0  0  0  0
  144.1565  133.9863  150.9421 C   0  0  2  0  0  0  0  0  0  0  0  0
  144.4256  132.9947  152.0889 C   0  0  0  0  0  0  0  0  0  0  0  0
  145.4605  132.0574  151.5106 C   0  0  0  0  0  0  0  0  0  0  0  0
  144.9918  131.9651  150.0685 C   0  0  0  0  0  0  0  0  0  0  0  0
  144.5445  133.2785  149.7601 O   0  0  0  0  0  0  0  0  0  0  0  0
  148.2530  140.8513  154.8756 C   0  0  0  0  0  0  0  0  0  0  0  0
  147.7965  141.7033  153.6782 C   0  0  0  0  0  0  0  0  0  0  0  0
  146.5238  142.0341  154.4611 C   0  0  0  0  0  0  0  0  0  0  0  0
  146.7602  140.7469  155.2523 C   0  0  0  0  0  0  0  0  0  0  0  0
  149.8059  141.1773  159.0903 H   0  0  0  0  0  0  0  0  0  0  0  0
  150.0711  142.6071  158.0934 H   0  0  0  0  0  0  0  0  0  0  0  0
  151.0315  141.1425  157.8239 H   0  0  0  0  0  0  0  0  0  0  0  0
  149.4161  142.5343  155.7283 H   0  0  0  0  0  0  0  0  0  0  0  0
  150.8259  141.1371  154.3109 H   0  0  0  0  0  0  0  0  0  0  0  0
  151.0939  140.1566  155.7889 H   0  0  0  0  0  0  0  0  0  0  0  0
  149.3459  139.4047  153.5847 H   0  0  0  0  0  0  0  0  0  0  0  0
  150.0546  136.7895  156.2865 H   0  0  0  0  0  0  0  0  0  0  0  0
  150.8607  138.3174  156.5941 H   0  0  0  0  0  0  0  0  0  0  0  0
  150.8875  137.6214  154.9708 H   0  0  0  0  0  0  0  0  0  0  0  0
  146.7163  134.9711  156.5283 H   0  0  0  0  0  0  0  0  0  0  0  0
  145.9983  138.5786  151.2407 H   0  0  0  0  0  0  0  0  0  0  0  0
  143.9938  135.7939  152.8699 H   0  0  0  0  0  0  0  0  0  0  0  0
  143.8421  137.0287  151.6414 H   0  0  0  0  0  0  0  0  0  0  0  0
  146.0402  135.0552  151.1336 H   0  0  0  0  0  0  0  0  0  0  0  0
  145.4724  135.5478  149.1274 H   0  0  0  0  0  0  0  0  0  0  0  0
  143.0910  134.2194  150.9055 H   0  0  0  0  0  0  0  0  0  0  0  0
  144.7439  133.4441  153.0270 H   0  0  0  0  0  0  0  0  0  0  0  0
  143.5143  132.4328  152.2994 H   0  0  0  0  0  0  0  0  0  0  0  0
  146.4525  132.5084  151.5608 H   0  0  0  0  0  0  0  0  0  0  0  0
  145.4932  131.0898  152.0121 H   0  0  0  0  0  0  0  0  0  0  0  0
  145.7785  131.6390  149.3878 H   0  0  0  0  0  0  0  0  0  0  0  0
  144.1525  131.2739  149.9803 H   0  0  0  0  0  0  0  0  0  0  0  0
  148.4293  142.5619  153.4508 H   0  0  0  0  0  0  0  0  0  0  0  0
  147.5979  141.1050  152.7872 H   0  0  0  0  0  0  0  0  0  0  0  0
  146.6233  142.9316  155.0737 H   0  0  0  0  0  0  0  0  0  0  0  0
  145.6100  142.0448  153.8665 H   0  0  0  0  0  0  0  0  0  0  0  0
  146.2420  139.9052  154.7938 H   0  0  0  0  0  0  0  0  0  0  0  0
  146.5426  140.8186  156.3181 H   0  0  0  0  0  0  0  0  0  0  0  0
  1  2  1  0  0  0  0
  1 29  1  0  0  0  0
  1 30  1  0  0  0  0
  1 31  1  0  0  0  0
  2  3  1  0  0  0  0
  3 25  1  0  0  0  0
  3  4  1  0  0  0  0
  3 32  1  0  0  0  0
  4  5  1  0  0  0  0
  4 33  1  0  0  0  0
  4 34  1  0  0  0  0
  5  6  1  0  0  0  0
  5 25  1  0  0  0  0
  5 35  1  0  0  0  0
  6  7  1  0  0  0  0
  6  8  1  0  0  0  0
  7 36  1  0  0  0  0
  7 37  1  0  0  0  0
  7 38  1  0  0  0  0
  8 13  1  0  0  0  0
  8  9  2  0  0  0  0
  9 10  1  0  0  0  0
 10 11  2  0  0  0  0
 10 39  1  0  0  0  0
 11 12  1  0  0  0  0
 12 16  1  0  0  0  0
 12 13  2  0  0  0  0
 13 14  1  0  0  0  0
 14 15  2  0  0  0  0
 15 16  1  0  0  0  0
 15 40  1  0  0  0  0
 16 17  1  0  0  0  0
 17 18  1  0  0  0  0
 17 41  1  0  0  0  0
 17 42  1  0  0  0  0
 18 19  1  0  0  0  0
 18 20  1  0  0  0  0
 18 43  1  0  0  0  0
 19 44  1  0  0  0  0
 20 24  1  0  0  0  0
 20 21  1  0  0  0  0
 20 45  1  0  0  0  0
 21 22  1  0  0  0  0
 21 46  1  0  0  0  0
 21 47  1  0  0  0  0
 22 23  1  0  0  0  0
 22 48  1  0  0  0  0
 22 49  1  0  0  0  0
 23 24  1  0  0  0  0
 23 50  1  0  0  0  0
 23 51  1  0  0  0  0
 25 28  1  0  0  0  0
 25 26  1  0  0  0  0
 26 27  1  0  0  0  0
 26 52  1  0  0  0  0
 26 53  1  0  0  0  0
 27 28  1  0  0  0  0
 27 54  1  0  0  0  0
 27 55  1  0  0  0  0
 28 56  1  0  0  0  0
 28 57  1  0  0  0  0
M  END
> <s_m_source_file>
AV-unprocessed.smi

> <i_m_source_file_index>
276

> <i_lp_mmshare_version>
43012

> <i_f3d_flags>
0

> <s_epik_input>
W0NIMl0xW0NIMl1bQ0gyXUMxMltDQEhdKE9bQ0gzXSlbQ0gyXVtDQEhdMk4oW0NIM10pYyhuW2NIXW4zKWMoYzM0KW5bY0hdbjRbQ0gyXVtDQEhdKFtPSF0pW0NAQEhdNVtDSDJdW0NIMl1bQ0gyXU81

> <s_epik_cmdline>
J2VwaWtfcHl0aG9uJywgJy1waCcsICc3LjAnLCAnLXRuJywgJzgnLCAnLW1hJywgJzIwMCcsICctbWV0YWxfYmluZGluZycsICctaW1hZScsICc8aW5maWxlLm1hZT4nLCAnLW9tYWUnLCAnPG91dGZpbGUubWFlPic=

> <r_lp_tautomer_probability>
1

> <r_epik_Ionization_Penalty>
0.00204117

> <r_epik_Ionization_Penalty_Charging>
0

> <r_epik_Ionization_Penalty_Neutral>
0.00204117

> <r_epik_State_Penalty>
0.00127401

> <r_epik_Charging_Adjusted_Penalty>
0.00127401

> <i_epik_Tot_Q>
0

> <i_epik_Tot_abs_Q>
0

> <r_epik_Metal_State_Penalty>
-0

> <b_epik_Metal_Only>
0

> <s_lp_Force_Field>
OPLS_2005

> <r_lp_Energy>
58.0583

> <b_lp_Chiralities_Consistent>
1

> <s_lp_Variant>
AV-unprocessed.smi:276-2

> <Gold.Version>
5.8.1

> <Gold.Id.Protein>
6NUR|6NUR_protein|mol2

> <Gold.PLP.Fitness>
41.2778

> <Gold.PLP.PLP>
-37.4138

> <Gold.PLP.part.hbond>
-2.0000

> <Gold.PLP.part.metal>
0.0000

> <Gold.PLP.part.buried>
-6.5879

> <Gold.PLP.part.nonpolar>
-31.5666

> <Gold.PLP.part.repulsive>
1.8404

> <Gold.PLP.ligand.clash>
0.0000

> <Gold.PLP.ligand.torsion>
1.5145

> <Gold.PLP.Chemscore.Hbond>
1.0000

> <Gold.PLP.Chemscore.CHOScore>
1.0000

> <Gold.PLP.Chemscore.Metal>
0.0000

> <Gold.Chemscore.Hbonds>
donor molecule, donor type, donor heavy atom, donor atom, acceptor molecule, acceptor atom, score
      L1  H    19    44       P1  7921  1.00
      L1  C    15    40       P1 10171  0.95

> <Gold.PLP.Chemscore.Internal.Correction>
0.8930

> <Gold.Rescore>
     Score         DG    S(hbond)    S(metal)    S(lipo)     H(rot)  DE(clash)    DE(int)     intcor
      9.04     -12.24       1.00        0.00      88.68       2.72       0.03       3.16       ----

> <Gold.Chemscore.Fitness>
9.0419

> <Gold.Chemscore.DG>
-12.2397

> <Gold.Chemscore.ZeroCoef>
-5.4800

> <Gold.Chemscore.Hbond>
0.9999

> <Gold.Chemscore.Metal>
0.0000

> <Gold.Chemscore.Lipo>
88.6839

> <Gold.Chemscore.Internal_Hbond>
0.0000

> <Gold.Chemscore.DEClash>
0.0329

> <Gold.Chemscore.DEInternal>
3.1649

> <Gold.Chemscore.Rot>
2.7172

> <Gold.Chemscore.Internal.Correction>
   9.000000E+99

> <Gold.Chemscore.Hbonds>
donor molecule, donor type, donor heavy atom, donor atom, acceptor molecule, acceptor atom, score
      L1  H    19    44       P1  7921  0.99

> <Gold.Chemscore.Hbond.Weighted>
-3.3397

> <Gold.Chemscore.Metal.Weighted>
-0.0000

> <Gold.Chemscore.Lipo.Weighted>
-10.3760

> <Gold.Chemscore.Internal_Hbond.Weighted>
0.0000

> <Gold.Chemscore.DEClash.Weighted>
0.0329

> <Gold.Chemscore.DEInternal.Weighted>
3.1649

> <Gold.Chemscore.Rot.Weighted>
6.9560

> <Gold.Chemscore.Internal.Correction.Weighted>
   9.000000E+99

> <Gold.Protein.RotatedTorsions>
[ 6907 6896 6895 6894 ] final    8.45 input  -60.11 | X-H torsion
[ 7974 7965 7964 7962 ] final  -49.24 input  175.53 | X-H torsion
[ 8008 7997 7996 7995 ] final  161.87 input   59.86 | X-H torsion
[ 10167 10162 10161 10158 ] final   39.94 input  -65.29 | X-H torsion
[ 10718 10713 10712 10709 ] final  148.18 input   66.30 | X-H torsion
[ 10763 10752 10751 10750 ] final   80.59 input  -60.55 | X-H torsion
[ 11005 11000 10999 10996 ] final  170.47 input  -57.11 | X-H torsion

> <Gold.Protein.ActiveResidues>
 VAL166  LYS551  ARG553  GLY616  TRP617  ASP618  TYR619  PRO620  LYS621  CYS622 
 ASP623  PHE694  ASN695  SER759  ASP760  ASP761  ALA762  ILE779  LEU786  VAL792 
 PHE793  MET794  SER795  GLU796  ALA797  LYS798  CYS799  TRP800  GLU811  SER814 

> <Gold.Protein.RotatedAtoms>
  151.7062  135.0921  160.0259 H   0  0  0  0  0  0  0  0  0  0  0  0  # atno 6907 bound_to 6896
  152.3690  133.6389  159.6081 H   0  0  0  0  0  0  0  0  0  0  0  0  # atno 6908 bound_to 6896
  150.7659  133.9218  159.3442 H   0  0  0  0  0  0  0  0  0  0  0  0  # atno 6909 bound_to 6896
  145.9426  140.7647  142.9544 H   0  0  0  0  0  0  0  0  0  0  0  0  # atno 7974 bound_to 7965
  156.2073  140.1766  156.7773 H   0  0  0  0  0  0  0  0  0  0  0  0  # atno 8008 bound_to 7997
  154.5672  140.0689  156.8940 H   0  0  0  0  0  0  0  0  0  0  0  0  # atno 8009 bound_to 7997
  155.2739  140.3344  155.4265 H   0  0  0  0  0  0  0  0  0  0  0  0  # atno 8010 bound_to 7997
  140.3791  144.2003  150.6131 H   0  0  0  0  0  0  0  0  0  0  0  0  # atno 10167 bound_to 10162
  157.3118  131.0889  151.1310 H   0  0  0  0  0  0  0  0  0  0  0  0  # atno 10718 bound_to 10713
  153.1046  135.4797  154.8929 H   0  0  0  0  0  0  0  0  0  0  0  0  # atno 10763 bound_to 10752
  154.7416  135.3084  154.8720 H   0  0  0  0  0  0  0  0  0  0  0  0  # atno 10764 bound_to 10752
  153.9326  135.6843  153.4798 H   0  0  0  0  0  0  0  0  0  0  0  0  # atno 10765 bound_to 10752
  140.3087  134.7535  157.3974 H   0  0  0  0  0  0  0  0  0  0  0  0  # atno 11005 bound_to 11000
  144.6782  140.2305  143.7356 LP  0  0  0  0  0  0  0  0  0  0  0  0  # atno 17320 bound_to 7965
  145.8279  139.2072  143.1900 LP  0  0  0  0  0  0  0  0  0  0  0  0  # atno 17321 bound_to 7965
  140.4956  143.2334  151.8755 LP  0  0  0  0  0  0  0  0  0  0  0  0  # atno 17342 bound_to 10162
  139.4797  144.5117  151.8923 LP  0  0  0  0  0  0  0  0  0  0  0  0  # atno 17343 bound_to 10162
  157.2629  130.6667  149.5983 LP  0  0  0  0  0  0  0  0  0  0  0  0  # atno 17370 bound_to 10713
  155.9678  130.4503  150.5691 LP  0  0  0  0  0  0  0  0  0  0  0  0  # atno 17371 bound_to 10713
  140.1044  134.5429  155.8323 LP  0  0  0  0  0  0  0  0  0  0  0  0  # atno 17394 bound_to 11000
  141.2113  133.6705  156.6571 LP  0  0  0  0  0  0  0  0  0  0  0  0  # atno 17395 bound_to 11000

$$$$
