#       Name:                AV-unprocessed.smi:739
#       Creating user name   scv26
#       Creation time:       Fri Mar 27 00:53:48 2020


#       File generated by GOLD software.
#

@<TRIPOS>MOLECULE
AV-unprocessed.smi:739
    35    37     1
SMALL
NO_CHARGES


@<TRIPOS>ATOM
      1 ****        -1.3642   2.9833   0.4861 O.3            1 S1                 0.0000
      2 ****        -0.8911   1.6706   0.2695 C.3            1 S1                 0.0000
      3 ****         0.6483   1.7218   0.2010 C.3            1 S1                 0.0000
      4 ****         1.2552   0.3864   0.1345 N.pl3          1 S1                 0.0000
      5 ****         1.7100  -0.3148  -0.9395 C.2            1 S1                 0.0000
      6 ****         2.1747  -1.5105  -0.4819 N.pl3          1 S1                 1.0000
      7 ****         2.0170  -1.5727   0.9048 C.ar           1 S1                 0.0000
      8 ****         2.3364  -2.5742   1.8160 C.ar           1 S1                 0.0000
      9 ****         2.0406  -2.3180   3.1714 C.ar           1 S1                 0.0000
     10 ****         2.3316  -3.2592   4.1003 F              1 S1                 0.0000
     11 ****         1.4483  -1.1027   3.5765 C.ar           1 S1                 0.0000
     12 ****         1.1798  -0.8976   4.8877 F              1 S1                 0.0000
     13 ****         1.1288  -0.0947   2.6430 C.ar           1 S1                 0.0000
     14 ****         1.4263  -0.3567   1.3068 C.ar           1 S1                 0.0000
     15 ****        -1.5028   1.0355  -0.9717 C.ar           1 S1                 0.0000
     16 ****        -1.5624   1.7485  -2.1897 C.ar           1 S1                 0.0000
     17 ****        -2.1167   1.1486  -3.3371 C.ar           1 S1                 0.0000
     18 ****        -2.6134  -0.1673  -3.2744 C.ar           1 S1                 0.0000
     19 ****        -3.1451  -0.7443  -4.3778 F              1 S1                 0.0000
     20 ****        -2.5540  -0.8840  -2.0638 C.ar           1 S1                 0.0000
     21 ****        -1.9996  -0.2847  -0.9160 C.ar           1 S1                 0.0000
     22 ****        -2.3001   2.9480   0.6139 H              1 S1                 0.0000
     23 ****        -1.1915   1.0889   1.1419 H              1 S1                 0.0000
     24 ****         0.9770   2.2801  -0.6768 H              1 S1                 0.0000
     25 ****         1.0617   2.2389   1.0682 H              1 S1                 0.0000
     26 ****         1.6978   0.0155  -1.9685 H              1 S1                 0.0000
     27 ****         2.7886  -3.5060   1.5104 H              1 S1                 0.0000
     28 ****         0.6754   0.8317   2.9631 H              1 S1                 0.0000
     29 ****        -1.1809   2.7574  -2.2490 H              1 S1                 0.0000
     30 ****        -2.1597   1.6984  -4.2659 H              1 S1                 0.0000
     31 ****        -2.9331  -1.8943  -2.0157 H              1 S1                 0.0000
     32 ****        -1.9542  -0.8446   0.0066 H              1 S1                 0.0000
     33 ****         2.5701  -2.2288  -1.0753 H              1 S1                 0.0000
     34 ****        -1.1536   3.5531  -0.3083 LP             1 S1                 0.0000
     35 ****        -0.9272   3.3695   1.2985 LP             1 S1                 0.0000
@<TRIPOS>BOND
    1    1    2 1     
    2    1   22 1     
    3    2    3 1     
    4    2   15 1     
    5    2   23 1     
    6    3    4 1     
    7    3   24 1     
    8    3   25 1     
    9    4   14 1     
   10    4    5 1     
   11    5    6 2     
   12    5   26 1     
   13    6    7 1     
   14    6   33 1     
   15    7   14 ar    
   16    7    8 ar    
   17    8    9 ar    
   18    8   27 1     
   19    9   10 1     
   20    9   11 ar    
   21   11   12 1     
   22   11   13 ar    
   23   13   14 ar    
   24   13   28 1     
   25   15   21 ar    
   26   15   16 ar    
   27   16   17 ar    
   28   16   29 1     
   29   17   18 ar    
   30   17   30 1     
   31   18   19 1     
   32   18   20 ar    
   33   20   21 ar    
   34   20   31 1     
   35   21   32 1     
   36    1   34 1     
   37    1   35 1     
@<TRIPOS>SUBSTRUCTURE
      1 S1             1
@<TRIPOS>SET
LONE_PAIRS      STATIC     ATOMS    <user>   **** ""
2 34 35
DONOR_HYDROGENS      STATIC     ATOMS    <user>   **** ""
2 22 33
ATOM$BLUE        STATIC     ATOMS    COLORGROUP SYSTEM
2 34 35
ATOM$RED        STATIC     ATOMS    COLORGROUP SYSTEM
2 22 33
