#       Name:                AV-unprocessed.smi:788
#       Creating user name   scv26
#       Creation time:       Fri Mar 27 01:17:17 2020


#       File generated by GOLD software.
#

@<TRIPOS>MOLECULE
AV-unprocessed.smi:788
    39    40     1
SMALL
NO_CHARGES


@<TRIPOS>ATOM
      1 ****        -0.5122  -1.4623  -1.7598 C.3            1 S1                 0.0000
      2 ****        -1.0968  -0.0530  -1.5274 C.3            1 S1                 0.0000
      3 ****        -2.6342  -0.0792  -1.4181 C.3            1 S1                 0.0000
      4 ****        -3.1120  -0.6656  -0.0809 C.3            1 S1                 0.0000
      5 ****        -2.4991   0.0926   1.1052 C.3            1 S1                 0.0000
      6 ****        -0.9591   0.1151   1.0413 C.3            1 S1                 0.0000
      7 ****        -0.3819   0.8766   2.2490 C.3            1 S1                 0.0000
      8 ****        -0.4806   0.6970  -0.3145 C.3            1 S1                 0.0000
      9 ****         0.9803   0.6995  -0.3795 N.am           1 S1                 0.0000
     10 ****         1.7541   1.5172  -1.1196 C.2            1 S1                 0.0000
     11 ****         1.2166   2.3558  -1.8417 O.2            1 S1                 0.0000
     12 ****         3.1018   1.3669  -1.0267 N.pl3          1 S1                -1.0000
     13 ****         3.6742   0.4651  -0.2076 C.2            1 S1                 0.0000
     14 ****         4.0350  -0.7595  -0.6236 N.2            1 S1                 0.0000
     15 ****         4.5988  -1.5330   0.3819 N.2            1 S1                 0.0000
     16 ****         4.6611  -0.8637   1.5328 C.2            1 S1                 0.0000
     17 ****         4.0303   0.7690   1.4950 S.3            1 S1                 0.0000
     18 ****        -0.6596  -2.1145  -0.8998 H              1 S1                 0.0000
     19 ****         0.5581  -1.4235  -1.9638 H              1 S1                 0.0000
     20 ****        -0.9828  -1.9406  -2.6189 H              1 S1                 0.0000
     21 ****        -0.8580   0.5226  -2.4229 H              1 S1                 0.0000
     22 ****        -3.0152   0.9384  -1.5138 H              1 S1                 0.0000
     23 ****        -3.0643  -0.6403  -2.2483 H              1 S1                 0.0000
     24 ****        -4.2000  -0.6192  -0.0262 H              1 S1                 0.0000
     25 ****        -2.8482  -1.7216  -0.0195 H              1 S1                 0.0000
     26 ****        -2.8804   1.1147   1.1154 H              1 S1                 0.0000
     27 ****        -2.8274  -0.3673   2.0377 H              1 S1                 0.0000
     28 ****        -0.6082  -0.9148   1.1172 H              1 S1                 0.0000
     29 ****        -0.6604   1.9304   2.2217 H              1 S1                 0.0000
     30 ****         0.7066   0.8211   2.2788 H              1 S1                 0.0000
     31 ****        -0.7500   0.4597   3.1867 H              1 S1                 0.0000
     32 ****        -0.8206   1.7339  -0.3544 H              1 S1                 0.0000
     33 ****         1.4535   0.0169   0.1938 H              1 S1                 0.0000
     34 ****         5.0810  -1.3338   2.4095 H              1 S1                 0.0000
     35 ****         0.2193   2.4230  -1.8731 LP             1 S1                 0.0000
     36 ****         1.7769   2.9702  -2.3972 LP             1 S1                 0.0000
     37 ****         3.6904   1.9484  -1.5882 LP             1 S1                 0.0000
     38 ****         3.9103  -1.0816  -1.5620 LP             1 S1                 0.0000
     39 ****         4.9176  -2.4728   0.2584 LP             1 S1                 0.0000
@<TRIPOS>BOND
    1    1    2 1     
    2    1   18 1     
    3    1   19 1     
    4    1   20 1     
    5    2    8 1     
    6    2    3 1     
    7    2   21 1     
    8    3    4 1     
    9    3   22 1     
   10    3   23 1     
   11    4    5 1     
   12    4   24 1     
   13    4   25 1     
   14    5    6 1     
   15    5   26 1     
   16    5   27 1     
   17    6    7 1     
   18    6    8 1     
   19    6   28 1     
   20    7   29 1     
   21    7   30 1     
   22    7   31 1     
   23    8    9 1     
   24    8   32 1     
   25    9   10 am    
   26    9   33 1     
   27   10   11 2     
   28   10   12 1     
   29   12   13 1     
   30   13   17 1     
   31   13   14 2     
   32   14   15 1     
   33   15   16 2     
   34   16   17 1     
   35   16   34 1     
   36   11   35 1     
   37   11   36 1     
   38   12   37 1     
   39   14   38 1     
   40   15   39 1     
@<TRIPOS>SUBSTRUCTURE
      1 S1             1
@<TRIPOS>SET
LONE_PAIRS      STATIC     ATOMS    <user>   **** ""
5 35 36 37 38 39
DONOR_HYDROGENS      STATIC     ATOMS    <user>   **** ""
1 33
ATOM$BLUE        STATIC     ATOMS    COLORGROUP SYSTEM
5 35 36 37 38 39
ATOM$RED        STATIC     ATOMS    COLORGROUP SYSTEM
1 33
