#       Name:                AV-unprocessed.smi:1512
#       Creating user name   scv26
#       Creation time:       Fri Mar 27 06:23:50 2020


#       File generated by GOLD software.
#

@<TRIPOS>MOLECULE
AV-unprocessed.smi:1512
    50    52     1
SMALL
NO_CHARGES


@<TRIPOS>ATOM
      1 ****        -1.1078  -1.9958   2.2511 C.3            1 S1                 0.0000
      2 ****        -0.8915  -0.6907   1.4675 C.3            1 S1                 0.0000
      3 ****         0.5288  -0.3603   1.4310 N.am           1 S1                 0.0000
      4 ****         1.2081   0.3364   2.3578 C.2            1 S1                 0.0000
      5 ****         0.7112   0.6928   3.4251 O.2            1 S1                 0.0000
      6 ****         2.6636   0.7228   2.0390 C.3            1 S1                 0.0000
      7 ****         3.0685   0.4865   0.6393 N.am           1 S1                 0.0000
      8 ****         3.8264  -0.6711   0.3816 C.2            1 S1                 0.0000
      9 ****         4.2216  -0.9981  -0.8569 C.2            1 S1                 0.0000
     10 ****         3.8375  -0.1345  -1.9469 C.2            1 S1                 0.0000
     11 ****         3.1088   0.9831  -1.7239 C.2            1 S1                 0.0000
     12 ****         2.7324   1.7885  -2.8619 N.pl3          1 S1                 1.0000
     13 ****         1.5900   2.2335  -2.9193 O.2            1 S1                 0.0000
     14 ****         3.5652   1.9852  -3.7416 O.2            1 S1                -1.0000
     15 ****         2.7007   1.3556  -0.3542 C.2            1 S1                 0.0000
     16 ****         2.0618   2.3789  -0.1026 O.2            1 S1                 0.0000
     17 ****        -1.4133  -0.7818   0.0140 C.3            1 S1                 0.0000
     18 ****        -1.1923   0.4874  -0.8429 C.3            1 S1                 0.0000
     19 ****        -2.5768   0.7233  -1.4734 C.3            1 S1                 0.0000
     20 ****        -3.5280   1.2780  -0.3977 C.3            1 S1                 0.0000
     21 ****        -3.7949   0.0449   0.4848 C.3            1 S1                 0.0000
     22 ****        -2.9274  -1.0463  -0.1767 C.3            1 S1                 0.0000
     23 ****        -3.0984  -0.6985  -1.6524 C.3            1 S1                 0.0000
     24 ****        -2.1676  -2.2393   2.3274 H              1 S1                 0.0000
     25 ****        -0.7205  -1.9156   3.2673 H              1 S1                 0.0000
     26 ****        -0.6065  -2.8357   1.7692 H              1 S1                 0.0000
     27 ****        -1.4093   0.1179   1.9835 H              1 S1                 0.0000
     28 ****         1.0246  -0.6227   0.5916 H              1 S1                 0.0000
     29 ****         2.8076   1.7742   2.2940 H              1 S1                 0.0000
     30 ****         3.3126   0.1763   2.7243 H              1 S1                 0.0000
     31 ****         4.0617  -1.2723   1.2479 H              1 S1                 0.0000
     32 ****         4.8026  -1.8911  -1.0355 H              1 S1                 0.0000
     33 ****         4.1251  -0.4059  -2.9524 H              1 S1                 0.0000
     34 ****        -0.8794  -1.6013  -0.4714 H              1 S1                 0.0000
     35 ****        -0.8657   1.3492  -0.2591 H              1 S1                 0.0000
     36 ****        -0.4365   0.3049  -1.6080 H              1 S1                 0.0000
     37 ****        -2.5466   1.3242  -2.3826 H              1 S1                 0.0000
     38 ****        -3.0844   2.1022   0.1622 H              1 S1                 0.0000
     39 ****        -4.4553   1.6382  -0.8446 H              1 S1                 0.0000
     40 ****        -3.5593   0.2150   1.5343 H              1 S1                 0.0000
     41 ****        -4.8493  -0.2297   0.4353 H              1 S1                 0.0000
     42 ****        -3.2305  -2.0609   0.0833 H              1 S1                 0.0000
     43 ****        -4.1353  -0.7402  -1.9906 H              1 S1                 0.0000
     44 ****        -2.4816  -1.3054  -2.3180 H              1 S1                 0.0000
     45 ****        -0.2398   0.4652   3.6346 LP             1 S1                 0.0000
     46 ****         1.2582   1.2100   4.0833 LP             1 S1                 0.0000
     47 ****         0.9391   2.0362  -2.1862 LP             1 S1                 0.0000
     48 ****         1.3101   2.7933  -3.6992 LP             1 S1                 0.0000
     49 ****         1.8025   2.5873   0.8405 LP             1 S1                 0.0000
     50 ****         1.8026   3.0008  -0.8415 LP             1 S1                 0.0000
@<TRIPOS>BOND
    1    1    2 1     
    2    1   24 1     
    3    1   25 1     
    4    1   26 1     
    5    2    3 1     
    6    2   17 1     
    7    2   27 1     
    8    3    4 am    
    9    3   28 1     
   10    4    5 2     
   11    4    6 1     
   12    6    7 1     
   13    6   29 1     
   14    6   30 1     
   15    7   15 am    
   16    7    8 1     
   17    8    9 2     
   18    8   31 1     
   19    9   10 1     
   20    9   32 1     
   21   10   11 2     
   22   10   33 1     
   23   11   12 1     
   24   11   15 1     
   25   12   13 2     
   26   12   14 1     
   27   15   16 2     
   28   17   22 1     
   29   17   18 1     
   30   17   34 1     
   31   18   19 1     
   32   18   35 1     
   33   18   36 1     
   34   19   23 1     
   35   19   20 1     
   36   19   37 1     
   37   20   21 1     
   38   20   38 1     
   39   20   39 1     
   40   21   22 1     
   41   21   40 1     
   42   21   41 1     
   43   22   23 1     
   44   22   42 1     
   45   23   43 1     
   46   23   44 1     
   47    5   45 1     
   48    5   46 1     
   49   13   47 1     
   50   13   48 1     
   51   16   49 1     
   52   16   50 1     
@<TRIPOS>SUBSTRUCTURE
      1 S1             1
@<TRIPOS>SET
LONE_PAIRS      STATIC     ATOMS    <user>   **** ""
7 45 46 47 48 14 49 50
DONOR_HYDROGENS      STATIC     ATOMS    <user>   **** ""
1 28
ATOM$BLUE        STATIC     ATOMS    COLORGROUP SYSTEM
7 45 46 47 48 14 49 50
ATOM$RED        STATIC     ATOMS    COLORGROUP SYSTEM
1 28
