AV-unprocessed.smi:1570|AV-procd|sdf|6324|dock7
  -GOLD-   22720 6533D 1   1.00000     0.00000
 Structure written by MMmdl.
 52 54  0  0  0  0  0  0  0  0  2 V2000
  143.9080  134.2901  151.6465 C   0  0  0  0  0  0  0  0  0  0  0  0
  145.2450  135.0422  151.6457 C   0  0  0  0  0  0  0  0  0  0  0  0
  146.1815  134.4553  152.6006 N   0  0  0  0  0  0  0  0  0  0  0  0
  146.7949  135.0926  153.6254 C   0  0  0  0  0  0  0  0  0  0  0  0
  146.6860  136.2860  153.9075 O   0  0  0  0  0  0  0  0  0  0  0  0
  147.5544  134.1891  154.2885 N   0  0  0  0  0  0  0  0  0  0  0  0
  148.3840  134.4501  155.4632 C   0  0  0  0  0  0  0  0  0  0  0  0
  149.5804  135.3623  155.1240 C   0  0  2  0  0  0  0  0  0  0  0  0
  150.6133  135.0943  156.0526 O   0  0  0  0  0  0  0  0  0  0  0  0
  149.2092  136.8542  155.2503 C   0  0  0  0  0  0  0  0  0  0  0  0
  149.6506  137.6615  154.0801 N   0  3  1  0  0  0  0  0  0  0  0  0
  148.9651  138.9701  153.9210 C   0  0  0  0  0  0  0  0  0  0  0  0
  149.5224  140.0319  154.8939 C   0  0  2  0  0  0  0  0  0  0  0  0
  148.9182  141.4170  154.6378 C   0  0  0  0  0  0  0  0  0  0  0  0
  150.9334  140.1296  154.7286 O   0  0  0  0  0  0  0  0  0  0  0  0
  151.6088  138.9066  155.0024 C   0  0  2  0  0  0  0  0  0  0  0  0
  153.1164  139.1579  154.8901 C   0  0  0  0  0  0  0  0  0  0  0  0
  151.1215  137.8368  154.0040 C   0  0  0  0  0  0  0  0  0  0  0  0
  147.4306  132.9393  153.6656 C   0  0  0  0  0  0  0  0  0  0  0  0
  148.0156  131.6954  153.9604 C   0  0  0  0  0  0  0  0  0  0  0  0
  147.6767  130.6068  153.1235 C   0  0  0  0  0  0  0  0  0  0  0  0
  146.7818  130.7773  152.0355 C   0  0  0  0  0  0  0  0  0  0  0  0
  146.2084  132.0406  151.7599 C   0  0  0  0  0  0  0  0  0  0  0  0
  146.5639  133.1061  152.6053 C   0  0  0  0  0  0  0  0  0  0  0  0
  143.2146  134.7316  150.9306 H   0  0  0  0  0  0  0  0  0  0  0  0
  143.4368  134.3237  152.6293 H   0  0  0  0  0  0  0  0  0  0  0  0
  144.0436  133.2426  151.3752 H   0  0  0  0  0  0  0  0  0  0  0  0
  145.6823  135.0270  150.6473 H   0  0  0  0  0  0  0  0  0  0  0  0
  145.0783  136.0934  151.8858 H   0  0  0  0  0  0  0  0  0  0  0  0
  147.7502  134.9368  156.2065 H   0  0  0  0  0  0  0  0  0  0  0  0
  148.7095  133.5189  155.9290 H   0  0  0  0  0  0  0  0  0  0  0  0
  149.9376  135.1458  154.1178 H   0  0  0  0  0  0  0  0  0  0  0  0
  150.6183  134.1682  156.2424 H   0  0  0  0  0  0  0  0  0  0  0  0
  148.1338  136.9638  155.3888 H   0  0  0  0  0  0  0  0  0  0  0  0
  149.6694  137.2467  156.1586 H   0  0  0  0  0  0  0  0  0  0  0  0
  149.1234  139.3049  152.8949 H   0  0  0  0  0  0  0  0  0  0  0  0
  147.8872  138.8703  154.0394 H   0  0  0  0  0  0  0  0  0  0  0  0
  149.3017  139.7517  155.9246 H   0  0  0  0  0  0  0  0  0  0  0  0
  147.8346  141.4014  154.7582 H   0  0  0  0  0  0  0  0  0  0  0  0
  149.1379  141.7638  153.6276 H   0  0  0  0  0  0  0  0  0  0  0  0
  149.3190  142.1521  155.3364 H   0  0  0  0  0  0  0  0  0  0  0  0
  151.3900  138.5940  156.0248 H   0  0  0  0  0  0  0  0  0  0  0  0
  153.6824  138.2501  155.1004 H   0  0  0  0  0  0  0  0  0  0  0  0
  153.4377  139.9203  155.6002 H   0  0  0  0  0  0  0  0  0  0  0  0
  153.3879  139.4983  153.8904 H   0  0  0  0  0  0  0  0  0  0  0  0
  151.6291  136.8858  154.1710 H   0  0  0  0  0  0  0  0  0  0  0  0
  151.3765  138.1435  152.9885 H   0  0  0  0  0  0  0  0  0  0  0  0
  148.6966  131.5705  154.7890 H   0  0  0  0  0  0  0  0  0  0  0  0
  148.1038  129.6337  153.3154 H   0  0  0  0  0  0  0  0  0  0  0  0
  146.5356  129.9322  151.4097 H   0  0  0  0  0  0  0  0  0  0  0  0
  145.5268  132.1757  150.9332 H   0  0  0  0  0  0  0  0  0  0  0  0
  149.3970  137.1049  153.2757 H   0  0  0  0  0  0  0  0  0  0  0  0
  1  2  1  0  0  0  0
  1 25  1  0  0  0  0
  1 26  1  0  0  0  0
  1 27  1  0  0  0  0
  2  3  1  0  0  0  0
  2 28  1  0  0  0  0
  2 29  1  0  0  0  0
  3 24  1  0  0  0  0
  3  4  1  0  0  0  0
  4  5  2  0  0  0  0
  4  6  1  0  0  0  0
  6  7  1  0  0  0  0
  6 19  1  0  0  0  0
  7  8  1  0  0  0  0
  7 30  1  0  0  0  0
  7 31  1  0  0  0  0
  8  9  1  0  0  0  0
  8 10  1  0  0  0  0
  8 32  1  0  0  0  0
  9 33  1  0  0  0  0
 10 11  1  0  0  0  0
 10 34  1  0  0  0  0
 10 35  1  0  0  0  0
 11 18  1  0  0  0  0
 11 12  1  0  0  0  0
 11 52  1  0  0  0  0
 12 13  1  0  0  0  0
 12 36  1  0  0  0  0
 12 37  1  0  0  0  0
 13 14  1  0  0  0  0
 13 15  1  0  0  0  0
 13 38  1  0  0  0  0
 14 39  1  0  0  0  0
 14 40  1  0  0  0  0
 14 41  1  0  0  0  0
 15 16  1  0  0  0  0
 16 17  1  0  0  0  0
 16 18  1  0  0  0  0
 16 42  1  0  0  0  0
 17 43  1  0  0  0  0
 17 44  1  0  0  0  0
 17 45  1  0  0  0  0
 18 46  1  0  0  0  0
 18 47  1  0  0  0  0
 19 24  2  0  0  0  0
 19 20  1  0  0  0  0
 20 21  2  0  0  0  0
 20 48  1  0  0  0  0
 21 22  1  0  0  0  0
 21 49  1  0  0  0  0
 22 23  2  0  0  0  0
 22 50  1  0  0  0  0
 23 24  1  0  0  0  0
 23 51  1  0  0  0  0
M  CHG  1  11   1
M  END
> <s_m_source_file>
AV-unprocessed.smi

> <i_m_source_file_index>
1570

> <i_lp_mmshare_version>
43012

> <i_f3d_flags>
0

> <s_epik_input>
W2NIXTFbY0hdW2NIXVtjSF1jKGMxMiluKFtDSDJdW0NIM10pYyg9TyluMltDSDJdW0NASF0oW09IXSlbQ0gyXU4zW0NIMl1bQ0BASF0oW0NIM10pT1tDQEBIXShbQ0gzXSlbQ0gyXTM=

> <s_epik_cmdline>
J2VwaWtfcHl0aG9uJywgJy1waCcsICc3LjAnLCAnLXRuJywgJzgnLCAnLW1hJywgJzIwMCcsICctbWV0YWxfYmluZGluZycsICctaW1hZScsICc8aW5maWxlLm1hZT4nLCAnLW9tYWUnLCAnPG91dGZpbGUubWFlPic=

> <r_epik_Ionization_Penalty>
0.706332

> <r_epik_Ionization_Penalty_Charging>
0.706318

> <r_epik_Ionization_Penalty_Neutral>
1.42224e-05

> <r_epik_State_Penalty>
0.729493

> <r_epik_Charging_Adjusted_Penalty>
1.43581

> <i_epik_Tot_Q>
1

> <i_epik_Tot_abs_Q>
1

> <r_epik_Metal_State_Penalty>
0.729493

> <b_epik_Metal_Only>
0

> <s_lp_Force_Field>
OPLS_2005

> <r_lp_Energy>
54.3222

> <b_lp_Chiralities_Consistent>
1

> <s_lp_Variant>
AV-unprocessed.smi:1570-13

> <Gold.Version>
5.8.1

> <Gold.Id.Protein>
6NUR|6NUR_protein|mol2

> <Gold.PLP.Fitness>
42.3080

> <Gold.PLP.PLP>
-35.5218

> <Gold.PLP.part.hbond>
-2.0000

> <Gold.PLP.part.metal>
0.0000

> <Gold.PLP.part.buried>
-0.4129

> <Gold.PLP.part.nonpolar>
-33.1667

> <Gold.PLP.part.repulsive>
0.1871

> <Gold.PLP.ligand.clash>
0.0000

> <Gold.PLP.ligand.torsion>
1.1791

> <Gold.PLP.Chemscore.Hbond>
3.0000

> <Gold.PLP.Chemscore.CHOScore>
0.0000

> <Gold.PLP.Chemscore.Metal>
0.0000

> <Gold.Chemscore.Hbonds>
donor molecule, donor type, donor heavy atom, donor atom, acceptor molecule, acceptor atom, score
      L1  H    11    52       P1  7948  2.00
      P1  H  7989  7998       L1    15  1.00

> <Gold.PLP.Chemscore.Internal.Correction>
0.1444

> <Gold.Rescore>
     Score         DG    S(hbond)    S(metal)    S(lipo)     H(rot)  DE(clash)    DE(int)     intcor
     15.60     -18.02       1.84        0.00     101.38       2.13       0.85       1.57       ----

> <Gold.Chemscore.Fitness>
15.6004

> <Gold.Chemscore.DG>
-18.0190

> <Gold.Chemscore.ZeroCoef>
-5.4800

> <Gold.Chemscore.Hbond>
1.8357

> <Gold.Chemscore.Metal>
0.0000

> <Gold.Chemscore.Lipo>
101.3778

> <Gold.Chemscore.Internal_Hbond>
0.0000

> <Gold.Chemscore.DEClash>
0.8513

> <Gold.Chemscore.DEInternal>
1.5673

> <Gold.Chemscore.Rot>
2.1303

> <Gold.Chemscore.Internal.Correction>
   9.000000E+99

> <Gold.Chemscore.Hbonds>
donor molecule, donor type, donor heavy atom, donor atom, acceptor molecule, acceptor atom, score
      L1  H    11    52       P1  7948  0.93
      P1  H  7989  7998       L1    15  0.73

> <Gold.Chemscore.Hbond.Weighted>
-6.1313

> <Gold.Chemscore.Metal.Weighted>
-0.0000

> <Gold.Chemscore.Lipo.Weighted>
-11.8612

> <Gold.Chemscore.Internal_Hbond.Weighted>
0.0000

> <Gold.Chemscore.DEClash.Weighted>
0.8513

> <Gold.Chemscore.DEInternal.Weighted>
1.5673

> <Gold.Chemscore.Rot.Weighted>
5.4535

> <Gold.Chemscore.Internal.Correction.Weighted>
   9.000000E+99

> <Gold.Protein.RotatedTorsions>
[ 6907 6896 6895 6894 ] final   97.54 input  -60.11 | X-H torsion
[ 7974 7965 7964 7962 ] final -156.53 input  175.53 | X-H torsion
[ 8008 7997 7996 7995 ] final -134.98 input   59.86 | X-H torsion
[ 10167 10162 10161 10158 ] final  114.97 input  -65.29 | X-H torsion
[ 10718 10713 10712 10709 ] final  100.26 input   66.30 | X-H torsion
[ 10763 10752 10751 10750 ] final   29.45 input  -60.55 | X-H torsion
[ 11005 11000 10999 10996 ] final  -37.47 input  -57.11 | X-H torsion

> <Gold.Protein.ActiveResidues>
 VAL166  LYS551  ARG553  GLY616  TRP617  ASP618  TYR619  PRO620  LYS621  CYS622 
 ASP623  PHE694  ASN695  SER759  ASP760  ASP761  ALA762  ILE779  LEU786  VAL792 
 PHE793  MET794  SER795  GLU796  ALA797  LYS798  CYS799  TRP800  GLU811  SER814 

> <Gold.Protein.RotatedAtoms>
  152.5422  134.0717  159.8196 H   0  0  0  0  0  0  0  0  0  0  0  0  # atno 6907 bound_to 6896
  151.0831  133.5367  159.2626 H   0  0  0  0  0  0  0  0  0  0  0  0  # atno 6908 bound_to 6896
  151.2187  135.0518  159.8995 H   0  0  0  0  0  0  0  0  0  0  0  0  # atno 6909 bound_to 6896
  144.7589  140.4097  143.5991 H   0  0  0  0  0  0  0  0  0  0  0  0  # atno 7974 bound_to 7965
  155.3711  140.0488  157.3045 H   0  0  0  0  0  0  0  0  0  0  0  0  # atno 8008 bound_to 7997
  154.5129  140.2198  155.9084 H   0  0  0  0  0  0  0  0  0  0  0  0  # atno 8009 bound_to 7997
  156.1603  140.3117  155.8802 H   0  0  0  0  0  0  0  0  0  0  0  0  # atno 8010 bound_to 7997
  139.6350  144.7119  151.2353 H   0  0  0  0  0  0  0  0  0  0  0  0  # atno 10167 bound_to 10162
  157.6858  131.0693  150.5073 H   0  0  0  0  0  0  0  0  0  0  0  0  # atno 10718 bound_to 10713
  153.0430  135.6488  154.0892 H   0  0  0  0  0  0  0  0  0  0  0  0  # atno 10763 bound_to 10752
  154.0595  135.2889  155.3328 H   0  0  0  0  0  0  0  0  0  0  0  0  # atno 10764 bound_to 10752
  154.6667  135.5371  153.8151 H   0  0  0  0  0  0  0  0  0  0  0  0  # atno 10765 bound_to 10752
  140.9955  133.6982  156.1926 H   0  0  0  0  0  0  0  0  0  0  0  0  # atno 11005 bound_to 11000
  145.6685  139.1595  143.2768 LP  0  0  0  0  0  0  0  0  0  0  0  0  # atno 17320 bound_to 7965
  146.1630  140.6759  142.9268 LP  0  0  0  0  0  0  0  0  0  0  0  0  # atno 17321 bound_to 7965
  140.7460  143.6412  150.8333 LP  0  0  0  0  0  0  0  0  0  0  0  0  # atno 17342 bound_to 10162
  140.0042  143.5712  152.2864 LP  0  0  0  0  0  0  0  0  0  0  0  0  # atno 17343 bound_to 10162
  156.5392  130.4204  149.6163 LP  0  0  0  0  0  0  0  0  0  0  0  0  # atno 17370 bound_to 10713
  156.3001  130.7172  151.2041 LP  0  0  0  0  0  0  0  0  0  0  0  0  # atno 17371 bound_to 10713
  140.6973  134.4602  157.5587 LP  0  0  0  0  0  0  0  0  0  0  0  0  # atno 17394 bound_to 11000
  139.9012  134.8551  156.1887 LP  0  0  0  0  0  0  0  0  0  0  0  0  # atno 17395 bound_to 11000

$$$$
