AV-unprocessed.smi:2060|AV-procd|sdf|8358|dock4
  -GOLD-   2272011 23D 1   1.00000     0.00000
 Structure written by MMmdl.
 45 46  0  0  0  0  0  0  0  0  3 V2000
  150.1339  137.5823  158.4338 C   0  0  0  0  0  0  0  0  0  0  0  0
  151.3839  138.0738  157.6638 C   0  0  0  0  0  0  0  0  0  0  0  0
  151.3989  138.0039  156.0851 C   0  0  1  0  0  0  0  0  0  0  0  0
  152.8815  138.1713  155.6369 C   0  0  0  0  0  0  0  0  0  0  0  0
  150.8357  136.6206  155.5891 C   0  0  0  0  0  0  0  0  0  0  0  0
  151.5843  135.5075  156.1824 N   0  5  0  0  0  0  0  0  0  0  0  0
  151.1142  134.2360  156.2985 C   0  0  0  0  0  0  0  0  0  0  0  0
  151.3481  133.4265  157.2033 O   0  0  0  0  0  0  0  0  0  0  0  0
  150.3126  133.8972  155.2722 N   0  0  0  0  0  0  0  0  0  0  0  0
  149.6273  132.6747  155.0449 C   0  0  0  0  0  0  0  0  0  0  0  0
  148.9065  132.4625  153.8394 C   0  0  0  0  0  0  0  0  0  0  0  0
  148.3987  131.2041  154.0004 C   0  0  0  0  0  0  0  0  0  0  0  0
  147.5456  130.3364  153.1403 C   0  0  0  0  0  0  0  0  0  0  0  0
  148.7791  130.6896  155.2011 O   0  0  0  0  0  0  0  0  0  0  0  0
  149.5664  131.6368  155.8660 N   0  0  0  0  0  0  0  0  0  0  0  0
  150.5356  139.0932  155.4659 N   0  3  0  0  0  0  0  0  0  0  0  0
  150.9005  140.5120  155.7472 C   0  0  0  0  0  0  0  0  0  0  0  0
  149.8009  141.4682  155.2508 C   0  0  0  0  0  0  0  0  0  0  0  0
  149.5544  141.2657  153.8672 O   0  0  0  0  0  0  0  0  0  0  0  0
  149.1116  139.9424  153.6061 C   0  0  0  0  0  0  0  0  0  0  0  0
  150.2164  138.9562  154.0103 C   0  0  0  0  0  0  0  0  0  0  0  0
  150.3023  137.6674  159.5075 H   0  0  0  0  0  0  0  0  0  0  0  0
  149.9094  136.5356  158.2342 H   0  0  0  0  0  0  0  0  0  0  0  0
  149.2441  138.1711  158.2118 H   0  0  0  0  0  0  0  0  0  0  0  0
  151.5940  139.0902  158.0034 H   0  0  0  0  0  0  0  0  0  0  0  0
  152.2004  137.4633  158.0499 H   0  0  0  0  0  0  0  0  0  0  0  0
  153.5395  137.4130  156.0627 H   0  0  0  0  0  0  0  0  0  0  0  0
  153.2726  139.1390  155.9533 H   0  0  0  0  0  0  0  0  0  0  0  0
  153.0244  138.1068  154.5572 H   0  0  0  0  0  0  0  0  0  0  0  0
  149.7793  136.5539  155.8500 H   0  0  0  0  0  0  0  0  0  0  0  0
  150.8558  136.5935  154.4995 H   0  0  0  0  0  0  0  0  0  0  0  0
  150.1718  134.6104  154.5726 H   0  0  0  0  0  0  0  0  0  0  0  0
  148.7802  133.1237  152.9950 H   0  0  0  0  0  0  0  0  0  0  0  0
  147.2332  130.8665  152.2403 H   0  0  0  0  0  0  0  0  0  0  0  0
  146.6497  130.0226  153.6758 H   0  0  0  0  0  0  0  0  0  0  0  0
  148.0890  129.4421  152.8350 H   0  0  0  0  0  0  0  0  0  0  0  0
  151.0063  140.7013  156.8138 H   0  0  0  0  0  0  0  0  0  0  0  0
  151.8542  140.7478  155.2729 H   0  0  0  0  0  0  0  0  0  0  0  0
  148.8799  141.3246  155.8184 H   0  0  0  0  0  0  0  0  0  0  0  0
  150.1080  142.5028  155.4045 H   0  0  0  0  0  0  0  0  0  0  0  0
  148.1840  139.7343  154.1423 H   0  0  0  0  0  0  0  0  0  0  0  0
  148.8944  139.8476  152.5422 H   0  0  0  0  0  0  0  0  0  0  0  0
  151.1065  139.1533  153.4110 H   0  0  0  0  0  0  0  0  0  0  0  0
  149.8829  137.9487  153.7644 H   0  0  0  0  0  0  0  0  0  0  0  0
  149.6534  138.9649  155.9439 H   0  0  0  0  0  0  0  0  0  0  0  0
  1  2  1  0  0  0  0
  1 22  1  0  0  0  0
  1 23  1  0  0  0  0
  1 24  1  0  0  0  0
  2  3  1  0  0  0  0
  2 25  1  0  0  0  0
  2 26  1  0  0  0  0
  3  4  1  0  0  0  0
  3  5  1  0  0  0  0
  3 16  1  0  0  0  0
  4 27  1  0  0  0  0
  4 28  1  0  0  0  0
  4 29  1  0  0  0  0
  5  6  1  0  0  0  0
  5 30  1  0  0  0  0
  5 31  1  0  0  0  0
  6  7  1  0  0  0  0
  7  8  2  0  0  0  0
  7  9  1  0  0  0  0
  9 10  1  0  0  0  0
  9 32  1  0  0  0  0
 10 15  2  0  0  0  0
 10 11  1  0  0  0  0
 11 12  2  0  0  0  0
 11 33  1  0  0  0  0
 12 13  1  0  0  0  0
 12 14  1  0  0  0  0
 13 34  1  0  0  0  0
 13 35  1  0  0  0  0
 13 36  1  0  0  0  0
 14 15  1  0  0  0  0
 16 21  1  0  0  0  0
 16 17  1  0  0  0  0
 16 45  1  0  0  0  0
 17 18  1  0  0  0  0
 17 37  1  0  0  0  0
 17 38  1  0  0  0  0
 18 19  1  0  0  0  0
 18 39  1  0  0  0  0
 18 40  1  0  0  0  0
 19 20  1  0  0  0  0
 20 21  1  0  0  0  0
 20 41  1  0  0  0  0
 20 42  1  0  0  0  0
 21 43  1  0  0  0  0
 21 44  1  0  0  0  0
M  CHG  1   6  -1
M  CHG  1  16   1
M  END
> <s_m_source_file>
AV-unprocessed.smi

> <i_m_source_file_index>
2060

> <i_lp_mmshare_version>
43012

> <i_f3d_flags>
0

> <s_epik_input>
W0NIMl0xW0NIMl1PW0NIMl1bQ0gyXU4xW0NAQF0oW0NIM10pKFtDSDJdW0NIM10pW0NIMl1bTkhdQyg9TylbTkhdYzJbY0hdYyhbQ0gzXSlvbjI=

> <s_epik_cmdline>
J2VwaWtfcHl0aG9uJywgJy1waCcsICc3LjAnLCAnLXRuJywgJzgnLCAnLW1hJywgJzIwMCcsICctbWV0YWxfYmluZGluZycsICctaW1hZScsICc8aW5maWxlLm1hZT4nLCAnLW9tYWUnLCAnPG91dGZpbGUubWFlPic=

> <r_epik_Ionization_Penalty>
6.79469

> <r_epik_Ionization_Penalty_Charging>
6.79469

> <r_epik_Ionization_Penalty_Neutral>
5.68576e-06

> <r_epik_State_Penalty>
7.33145

> <r_epik_Charging_Adjusted_Penalty>
14.1261

> <i_epik_Tot_Q>
0

> <i_epik_Tot_abs_Q>
2

> <r_epik_Metal_State_Penalty>
3.24803

> <b_epik_Metal_Only>
1

> <s_lp_Force_Field>
OPLS_2005

> <r_lp_Energy>
29.3309

> <b_lp_Chiralities_Consistent>
1

> <s_lp_Variant>
AV-unprocessed.smi:2060-5

> <Gold.Version>
5.8.1

> <Gold.Id.Protein>
6NUR|6NUR_protein|mol2

> <Gold.PLP.Fitness>
38.9538

> <Gold.PLP.PLP>
-29.9107

> <Gold.PLP.part.hbond>
-4.0000

> <Gold.PLP.part.metal>
0.0000

> <Gold.PLP.part.buried>
-0.3817

> <Gold.PLP.part.nonpolar>
-26.0469

> <Gold.PLP.part.repulsive>
0.3435

> <Gold.PLP.ligand.clash>
0.0000

> <Gold.PLP.ligand.torsion>
0.7192

> <Gold.PLP.Chemscore.Hbond>
3.4161

> <Gold.PLP.Chemscore.CHOScore>
0.0000

> <Gold.PLP.Chemscore.Metal>
0.0000

> <Gold.Chemscore.Hbonds>
donor molecule, donor type, donor heavy atom, donor atom, acceptor molecule, acceptor atom, score
      P1  H  6896  6908       L1     8  0.62
      P1  H  7989  7998       L1    19  0.11
      P1  H  8011  8017       L1    19  0.82
      P1  H 10752 10763       L1     6  2.00

> <Gold.PLP.Chemscore.Internal.Correction>
0.2332

> <Gold.Rescore>
     Score         DG    S(hbond)    S(metal)    S(lipo)     H(rot)  DE(clash)    DE(int)     intcor
     11.65     -15.64       1.83        0.00      72.38       1.73       1.64       2.36       ----

> <Gold.Chemscore.Fitness>
11.6451

> <Gold.Chemscore.DG>
-15.6404

> <Gold.Chemscore.ZeroCoef>
-5.4800

> <Gold.Chemscore.Hbond>
1.8322

> <Gold.Chemscore.Metal>
0.0000

> <Gold.Chemscore.Lipo>
72.3780

> <Gold.Chemscore.Internal_Hbond>
0.0000

> <Gold.Chemscore.DEClash>
1.6361

> <Gold.Chemscore.DEInternal>
2.3592

> <Gold.Chemscore.Rot>
1.7294

> <Gold.Chemscore.Internal.Correction>
   9.000000E+99

> <Gold.Chemscore.Hbonds>
donor molecule, donor type, donor heavy atom, donor atom, acceptor molecule, acceptor atom, score
      P1  H  6896  6908       L1     8  0.59
      P1  H  8011  8017       L1    19  0.76
      P1  H 10752 10763       L1     6  0.24

> <Gold.Chemscore.Hbond.Weighted>
-6.1194

> <Gold.Chemscore.Metal.Weighted>
-0.0000

> <Gold.Chemscore.Lipo.Weighted>
-8.4682

> <Gold.Chemscore.Internal_Hbond.Weighted>
0.0000

> <Gold.Chemscore.DEClash.Weighted>
1.6361

> <Gold.Chemscore.DEInternal.Weighted>
2.3592

> <Gold.Chemscore.Rot.Weighted>
4.4272

> <Gold.Chemscore.Internal.Correction.Weighted>
   9.000000E+99

> <Gold.Protein.RotatedTorsions>
[ 6907 6896 6895 6894 ] final   72.95 input  -60.11 | X-H torsion
[ 7974 7965 7964 7962 ] final  155.68 input  175.53 | X-H torsion
[ 8008 7997 7996 7995 ] final -111.27 input   59.86 | X-H torsion
[ 10167 10162 10161 10158 ] final  -27.30 input  -65.29 | X-H torsion
[ 10718 10713 10712 10709 ] final  165.84 input   66.30 | X-H torsion
[ 10763 10752 10751 10750 ] final   95.03 input  -60.55 | X-H torsion
[ 11005 11000 10999 10996 ] final  -80.18 input  -57.11 | X-H torsion

> <Gold.Protein.ActiveResidues>
 VAL166  LYS551  ARG553  GLY616  TRP617  ASP618  TYR619  PRO620  LYS621  CYS622 
 ASP623  PHE694  ASN695  SER759  ASP760  ASP761  ALA762  ILE779  LEU786  VAL792 
 PHE793  MET794  SER795  GLU796  ALA797  LYS798  CYS799  TRP800  GLU811  SER814 

> <Gold.Protein.RotatedAtoms>
  152.4896  134.4494  159.9569 H   0  0  0  0  0  0  0  0  0  0  0  0  # atno 6907 bound_to 6896
  151.4484  133.3618  159.2799 H   0  0  0  0  0  0  0  0  0  0  0  0  # atno 6908 bound_to 6896
  150.9039  134.8477  159.7439 H   0  0  0  0  0  0  0  0  0  0  0  0  # atno 6909 bound_to 6896
  144.8010  139.7101  143.6182 H   0  0  0  0  0  0  0  0  0  0  0  0  # atno 7974 bound_to 7965
  154.9873  140.0395  157.2304 H   0  0  0  0  0  0  0  0  0  0  0  0  # atno 8008 bound_to 7997
  154.7660  140.2793  155.6153 H   0  0  0  0  0  0  0  0  0  0  0  0  # atno 8009 bound_to 7997
  156.2912  140.2619  156.2450 H   0  0  0  0  0  0  0  0  0  0  0  0  # atno 8010 bound_to 7997
  140.7278  143.4105  151.1114 H   0  0  0  0  0  0  0  0  0  0  0  0  # atno 10167 bound_to 10162
  157.0745  131.0375  151.2599 H   0  0  0  0  0  0  0  0  0  0  0  0  # atno 10718 bound_to 10713
  153.2484  135.4268  155.0772 H   0  0  0  0  0  0  0  0  0  0  0  0  # atno 10763 bound_to 10752
  154.8371  135.3420  154.6548 H   0  0  0  0  0  0  0  0  0  0  0  0  # atno 10764 bound_to 10752
  153.6970  135.7030  153.5130 H   0  0  0  0  0  0  0  0  0  0  0  0  # atno 10765 bound_to 10752
  141.1668  133.7139  156.8234 H   0  0  0  0  0  0  0  0  0  0  0  0  # atno 11005 bound_to 11000
  146.2291  139.5778  142.9567 LP  0  0  0  0  0  0  0  0  0  0  0  0  # atno 17320 bound_to 7965
  145.5554  141.0409  143.2255 LP  0  0  0  0  0  0  0  0  0  0  0  0  # atno 17321 bound_to 7965
  139.7737  143.8456  152.3125 LP  0  0  0  0  0  0  0  0  0  0  0  0  # atno 17342 bound_to 10162
  139.8383  144.7222  150.9363 LP  0  0  0  0  0  0  0  0  0  0  0  0  # atno 17343 bound_to 10162
  157.4851  130.7788  149.7452 LP  0  0  0  0  0  0  0  0  0  0  0  0  # atno 17370 bound_to 10713
  155.9941  130.3920  150.2873 LP  0  0  0  0  0  0  0  0  0  0  0  0  # atno 17371 bound_to 10713
  140.2102  134.8833  157.3266 LP  0  0  0  0  0  0  0  0  0  0  0  0  # atno 17394 bound_to 11000
  140.2094  134.4157  155.7620 LP  0  0  0  0  0  0  0  0  0  0  0  0  # atno 17395 bound_to 11000

$$$$
