AV-unprocessed.smi:1224|AV-procd|sdf|5135|dock2
  -GOLD-   22720 4193D 1   1.00000     0.00000
 Structure written by MMmdl.
 44 46  0  0  0  0  0  0  0  0  2 V2000
  152.1827  144.6203  160.4537 C   0  0  0  0  0  0  0  0  0  0  0  0
  151.9778  143.5072  159.4402 C   0  0  0  0  0  0  0  0  0  0  0  0
  151.1602  143.7613  158.3156 C   0  0  0  0  0  0  0  0  0  0  0  0
  150.9939  142.7245  157.4050 C   0  0  0  0  0  0  0  0  0  0  0  0
  150.2652  142.6577  156.2152 N   0  3  0  0  0  0  0  0  0  0  0  0
  150.4088  141.4210  155.6631 C   0  0  0  0  0  0  0  0  0  0  0  0
  151.2136  140.6962  156.4867 N   0  0  0  0  0  0  0  0  0  0  0  0
  151.6875  139.3110  156.3687 C   0  0  0  0  0  0  0  0  0  0  0  0
  152.3146  139.0065  154.9916 C   0  0  1  0  0  0  0  0  0  0  0  0
  153.6395  138.5531  155.1813 O   0  0  0  0  0  0  0  0  0  0  0  0
  151.5464  137.9231  154.2193 C   0  0  0  0  0  0  0  0  0  0  0  0
  151.4331  136.6917  154.9993 N   0  0  0  0  0  0  0  0  0  0  0  0
  150.0944  136.1078  154.9984 C   0  0  0  0  0  0  0  0  0  0  0  0
  150.1142  134.6138  154.9872 C   0  0  0  0  0  0  0  0  0  0  0  0
  149.5100  133.7716  154.0883 C   0  0  0  0  0  0  0  0  0  0  0  0
  149.7271  132.3928  154.3786 C   0  0  0  0  0  0  0  0  0  0  0  0
  150.4947  132.2004  155.4964 C   0  0  0  0  0  0  0  0  0  0  0  0
  150.9674  133.7148  156.2164 S   0  0  0  0  0  0  0  0  0  0  0  0
  151.6069  141.4696  157.5832 C   0  0  0  0  0  0  0  0  0  0  0  0
  152.4156  141.2017  158.6845 C   0  0  0  0  0  0  0  0  0  0  0  0
  152.5970  142.2432  159.6225 C   0  0  0  0  0  0  0  0  0  0  0  0
  153.4740  141.9813  160.8352 C   0  0  0  0  0  0  0  0  0  0  0  0
  151.6493  145.5264  160.1648 H   0  0  0  0  0  0  0  0  0  0  0  0
  153.2405  144.8697  160.5397 H   0  0  0  0  0  0  0  0  0  0  0  0
  151.8170  144.3170  161.4349 H   0  0  0  0  0  0  0  0  0  0  0  0
  150.6860  144.7209  158.1699 H   0  0  0  0  0  0  0  0  0  0  0  0
  149.9622  141.0763  154.7414 H   0  0  0  0  0  0  0  0  0  0  0  0
  152.4179  139.1456  157.1622 H   0  0  0  0  0  0  0  0  0  0  0  0
  150.8495  138.6449  156.5778 H   0  0  0  0  0  0  0  0  0  0  0  0
  152.3627  139.9151  154.3899 H   0  0  0  0  0  0  0  0  0  0  0  0
  153.6366  137.6084  155.1708 H   0  0  0  0  0  0  0  0  0  0  0  0
  150.5468  138.2904  153.9831 H   0  0  0  0  0  0  0  0  0  0  0  0
  152.0387  137.7298  153.2653 H   0  0  0  0  0  0  0  0  0  0  0  0
  151.7340  136.8561  155.9544 H   0  0  0  0  0  0  0  0  0  0  0  0
  149.5647  136.4360  155.8930 H   0  0  0  0  0  0  0  0  0  0  0  0
  149.5170  136.4873  154.1545 H   0  0  0  0  0  0  0  0  0  0  0  0
  148.9236  134.0956  153.2413 H   0  0  0  0  0  0  0  0  0  0  0  0
  149.3185  131.6024  153.7666 H   0  0  0  0  0  0  0  0  0  0  0  0
  150.8102  131.2671  155.9388 H   0  0  0  0  0  0  0  0  0  0  0  0
  152.8867  140.2391  158.8203 H   0  0  0  0  0  0  0  0  0  0  0  0
  153.8462  140.9562  160.8445 H   0  0  0  0  0  0  0  0  0  0  0  0
  152.9128  142.1390  161.7565 H   0  0  0  0  0  0  0  0  0  0  0  0
  154.3356  142.6492  160.8351 H   0  0  0  0  0  0  0  0  0  0  0  0
  149.7122  143.4005  155.8067 H   0  0  0  0  0  0  0  0  0  0  0  0
  1  2  1  0  0  0  0
  1 23  1  0  0  0  0
  1 24  1  0  0  0  0
  1 25  1  0  0  0  0
  2 21  1  0  0  0  0
  2  3  2  0  0  0  0
  3  4  1  0  0  0  0
  3 26  1  0  0  0  0
  4 19  2  0  0  0  0
  4  5  1  0  0  0  0
  5  6  2  0  0  0  0
  5 44  1  0  0  0  0
  6  7  1  0  0  0  0
  6 27  1  0  0  0  0
  7  8  1  0  0  0  0
  7 19  1  0  0  0  0
  8  9  1  0  0  0  0
  8 28  1  0  0  0  0
  8 29  1  0  0  0  0
  9 10  1  0  0  0  0
  9 11  1  0  0  0  0
  9 30  1  0  0  0  0
 10 31  1  0  0  0  0
 11 12  1  0  0  0  0
 11 32  1  0  0  0  0
 11 33  1  0  0  0  0
 12 13  1  0  0  0  0
 12 34  1  0  0  0  0
 13 14  1  0  0  0  0
 13 35  1  0  0  0  0
 13 36  1  0  0  0  0
 14 18  1  0  0  0  0
 14 15  2  0  0  0  0
 15 16  1  0  0  0  0
 15 37  1  0  0  0  0
 16 17  2  0  0  0  0
 16 38  1  0  0  0  0
 17 18  1  0  0  0  0
 17 39  1  0  0  0  0
 19 20  1  0  0  0  0
 20 21  2  0  0  0  0
 20 40  1  0  0  0  0
 21 22  1  0  0  0  0
 22 41  1  0  0  0  0
 22 42  1  0  0  0  0
 22 43  1  0  0  0  0
M  CHG  1   5   1
M  END
> <s_m_source_file>
AV-unprocessed.smi

> <i_m_source_file_index>
1224

> <i_lp_mmshare_version>
43012

> <i_f3d_flags>
0

> <s_epik_input>
W0NIM11jKFtjSF0xKWMoW0NIM10pW2NIXWMoYzEyKW4oW2NIXW4yKVtDSDJdW0NASF0oW09IXSlbQ0gyXVtOSF1bQ0gyXWMzW2NIXVtjSF1bY0hdczM=

> <s_epik_cmdline>
J2VwaWtfcHl0aG9uJywgJy1waCcsICc3LjAnLCAnLXRuJywgJzgnLCAnLW1hJywgJzIwMCcsICctbWV0YWxfYmluZGluZycsICctaW1hZScsICc8aW5maWxlLm1hZT4nLCAnLW9tYWUnLCAnPG91dGZpbGUubWFlPic=

> <r_epik_Ionization_Penalty>
2.3772

> <r_epik_Ionization_Penalty_Charging>
0.996291

> <r_epik_Ionization_Penalty_Neutral>
1.38091

> <r_epik_State_Penalty>
2.60954

> <r_epik_Charging_Adjusted_Penalty>
3.60583

> <i_epik_Tot_Q>
1

> <i_epik_Tot_abs_Q>
1

> <r_epik_Metal_State_Penalty>
6.5861

> <b_epik_Metal_Only>
0

> <s_lp_Force_Field>
OPLS_2005

> <r_lp_Energy>
14.7648

> <b_lp_Chiralities_Consistent>
1

> <s_lp_Variant>
AV-unprocessed.smi:1224-8

> <Gold.Version>
5.8.1

> <Gold.Id.Protein>
6NUR|6NUR_protein|mol2

> <Gold.PLP.Fitness>
63.8470

> <Gold.PLP.PLP>
-55.0292

> <Gold.PLP.part.hbond>
-3.0000

> <Gold.PLP.part.metal>
0.0000

> <Gold.PLP.part.buried>
-7.0309

> <Gold.PLP.part.nonpolar>
-44.9452

> <Gold.PLP.part.repulsive>
0.1106

> <Gold.PLP.ligand.clash>
0.0000

> <Gold.PLP.ligand.torsion>
1.4248

> <Gold.PLP.Chemscore.Hbond>
3.8320

> <Gold.PLP.Chemscore.CHOScore>
0.0000

> <Gold.PLP.Chemscore.Metal>
0.0000

> <Gold.Chemscore.Hbonds>
donor molecule, donor type, donor heavy atom, donor atom, acceptor molecule, acceptor atom, score
      L1  H     5    44       P1  8028  2.00
      P1  H  7997  8010       L1    10  0.83
      P1  H 10752 10764       L1    12  1.00

> <Gold.PLP.Chemscore.Internal.Correction>
0.1713

> <Gold.Rescore>
     Score         DG    S(hbond)    S(metal)    S(lipo)     H(rot)  DE(clash)    DE(int)     intcor
     19.81     -21.31       1.97        0.00     131.42       2.40       0.06       1.43       ----

> <Gold.Chemscore.Fitness>
19.8130

> <Gold.Chemscore.DG>
-21.3102

> <Gold.Chemscore.ZeroCoef>
-5.4800

> <Gold.Chemscore.Hbond>
1.9748

> <Gold.Chemscore.Metal>
0.0000

> <Gold.Chemscore.Lipo>
131.4165

> <Gold.Chemscore.Internal_Hbond>
0.0000

> <Gold.Chemscore.DEClash>
0.0648

> <Gold.Chemscore.DEInternal>
1.4323

> <Gold.Chemscore.Rot>
2.3990

> <Gold.Chemscore.Internal.Correction>
   9.000000E+99

> <Gold.Chemscore.Hbonds>
donor molecule, donor type, donor heavy atom, donor atom, acceptor molecule, acceptor atom, score
      L1  H     5    44       P1  8028  0.96
      P1  H  7997  8010       L1    10  0.21
      P1  H 10752 10764       L1    12  0.10

> <Gold.Chemscore.Hbond.Weighted>
-6.5960

> <Gold.Chemscore.Metal.Weighted>
-0.0000

> <Gold.Chemscore.Lipo.Weighted>
-15.3757

> <Gold.Chemscore.Internal_Hbond.Weighted>
0.0000

> <Gold.Chemscore.DEClash.Weighted>
0.0648

> <Gold.Chemscore.DEInternal.Weighted>
1.4323

> <Gold.Chemscore.Rot.Weighted>
6.1415

> <Gold.Chemscore.Internal.Correction.Weighted>
   9.000000E+99

> <Gold.Protein.RotatedTorsions>
[ 6907 6896 6895 6894 ] final -158.28 input  -60.11 | X-H torsion
[ 7974 7965 7964 7962 ] final  131.67 input  175.53 | X-H torsion
[ 8008 7997 7996 7995 ] final   98.31 input   59.86 | X-H torsion
[ 10167 10162 10161 10158 ] final  139.49 input  -65.29 | X-H torsion
[ 10718 10713 10712 10709 ] final -111.39 input   66.30 | X-H torsion
[ 10763 10752 10751 10750 ] final  -76.61 input  -60.55 | X-H torsion
[ 11005 11000 10999 10996 ] final  -46.95 input  -57.11 | X-H torsion

> <Gold.Protein.ActiveResidues>
 VAL166  LYS551  ARG553  GLY616  TRP617  ASP618  TYR619  PRO620  LYS621  CYS622 
 ASP623  PHE694  ASN695  SER759  ASP760  ASP761  ALA762  ILE779  LEU786  VAL792 
 PHE793  MET794  SER795  GLU796  ALA797  LYS798  CYS799  TRP800  GLU811  SER814 

> <Gold.Protein.RotatedAtoms>
  151.3158  133.4061  159.2650 H   0  0  0  0  0  0  0  0  0  0  0  0  # atno 6907 bound_to 6896
  151.0076  134.9372  159.7999 H   0  0  0  0  0  0  0  0  0  0  0  0  # atno 6908 bound_to 6896
  152.5292  134.3122  159.9170 H   0  0  0  0  0  0  0  0  0  0  0  0  # atno 6909 bound_to 6896
  145.0049  139.4276  143.5274 H   0  0  0  0  0  0  0  0  0  0  0  0  # atno 7974 bound_to 7965
  156.0992  140.3245  155.7918 H   0  0  0  0  0  0  0  0  0  0  0  0  # atno 8008 bound_to 7997
  155.4866  140.0558  157.2977 H   0  0  0  0  0  0  0  0  0  0  0  0  # atno 8009 bound_to 7997
  154.4686  140.2000  156.0069 H   0  0  0  0  0  0  0  0  0  0  0  0  # atno 8010 bound_to 7997
  139.5077  144.6292  151.5861 H   0  0  0  0  0  0  0  0  0  0  0  0  # atno 10167 bound_to 10162
  156.0644  130.5865  150.8367 H   0  0  0  0  0  0  0  0  0  0  0  0  # atno 10718 bound_to 10713
  154.5021  135.5792  153.6539 H   0  0  0  0  0  0  0  0  0  0  0  0  # atno 10763 bound_to 10752
  152.9881  135.6138  154.2989 H   0  0  0  0  0  0  0  0  0  0  0  0  # atno 10764 bound_to 10752
  154.2897  135.2849  155.2640 H   0  0  0  0  0  0  0  0  0  0  0  0  # atno 10765 bound_to 10752
  141.0611  133.6709  156.3228 H   0  0  0  0  0  0  0  0  0  0  0  0  # atno 11005 bound_to 11000
  146.3459  139.9459  142.8735 LP  0  0  0  0  0  0  0  0  0  0  0  0  # atno 17320 bound_to 7965
  145.2102  140.9892  143.4105 LP  0  0  0  0  0  0  0  0  0  0  0  0  # atno 17321 bound_to 7965
  140.6018  143.9595  150.6391 LP  0  0  0  0  0  0  0  0  0  0  0  0  # atno 17342 bound_to 10162
  140.2809  143.3390  152.1151 LP  0  0  0  0  0  0  0  0  0  0  0  0  # atno 17343 bound_to 10162
  157.5676  131.0946  150.9466 LP  0  0  0  0  0  0  0  0  0  0  0  0  # atno 17370 bound_to 10713
  156.9689  130.5483  149.5289 LP  0  0  0  0  0  0  0  0  0  0  0  0  # atno 17371 bound_to 10713
  140.5867  134.5691  157.5491 LP  0  0  0  0  0  0  0  0  0  0  0  0  # atno 17394 bound_to 11000
  139.9433  134.7747  156.0623 LP  0  0  0  0  0  0  0  0  0  0  0  0  # atno 17395 bound_to 11000

$$$$
