AV-unprocessed.smi:249|AV-procd|sdf|1898|dock1
  -GOLD-   2262020563D 1   1.00000     0.00000
 Structure written by MMmdl.
 64 67  0  0  0  0  0  0  0  0  2 V2000
  145.8917  132.4057  149.9461 C   0  0  0  0  0  0  0  0  0  0  0  0
  145.1125  132.4573  151.2705 C   0  0  0  0  0  0  0  0  0  0  0  0
  145.9441  132.8817  152.4340 N   0  3  2  0  0  0  0  0  0  0  0  0
  146.1725  134.3556  152.4443 C   0  0  0  0  0  0  0  0  0  0  0  0
  146.9117  134.8184  153.7067 C   0  0  0  0  0  0  0  0  0  0  0  0
  148.2619  134.0957  153.8388 C   0  0  1  0  0  0  0  0  0  0  0  0
  149.0603  134.5545  154.9837 N   0  0  0  0  0  0  0  0  0  0  0  0
  150.3761  133.9516  155.1654 C   0  0  0  0  0  0  0  0  0  0  0  0
  149.0211  135.8746  155.2845 C   0  0  0  0  0  0  0  0  0  0  0  0
  147.8859  136.4185  155.7969 N   0  0  0  0  0  0  0  0  0  0  0  0
  147.8468  137.7193  156.1022 C   0  0  0  0  0  0  0  0  0  0  0  0
  148.8090  138.6355  155.9756 N   0  0  0  0  0  0  0  0  0  0  0  0
  149.9458  138.0930  155.4523 C   0  0  0  0  0  0  0  0  0  0  0  0
  150.1342  136.7331  155.0797 C   0  0  0  0  0  0  0  0  0  0  0  0
  151.4175  136.5481  154.5807 N   0  0  0  0  0  0  0  0  0  0  0  0
  151.9599  137.7331  154.6563 C   0  0  0  0  0  0  0  0  0  0  0  0
  151.1494  138.7172  155.1760 N   0  0  0  0  0  0  0  0  0  0  0  0
  151.5007  140.1127  155.3729 C   0  0  0  0  0  0  0  0  0  0  0  0
  150.3569  140.9483  155.9995 C   0  0  2  0  0  0  0  0  0  0  0  0
  149.5073  141.6936  154.9407 C   0  0  0  0  0  0  0  0  0  0  0  0
  149.5116  141.0144  153.7019 O   0  0  0  0  0  0  0  0  0  0  0  0
  150.8850  141.9003  157.1023 C   0  0  2  0  0  0  0  0  0  0  0  0
  151.7846  141.2447  158.1353 C   0  0  0  0  0  0  0  0  0  0  0  0
  151.7453  142.2540  159.2766 C   0  0  0  0  0  0  0  0  0  0  0  0
  150.4343  142.8050  159.2485 O   0  0  0  0  0  0  0  0  0  0  0  0
  149.8017  142.4937  158.0106 C   0  0  0  0  0  0  0  0  0  0  0  0
  148.0035  132.5782  153.8276 C   0  0  0  0  0  0  0  0  0  0  0  0
  147.2336  132.1273  152.5679 C   0  0  1  0  0  0  0  0  0  0  0  0
  147.0429  130.5974  152.6331 C   0  0  0  0  0  0  0  0  0  0  0  0
  145.2082  132.2572  149.1097 H   0  0  0  0  0  0  0  0  0  0  0  0
  146.6067  131.5842  149.9150 H   0  0  0  0  0  0  0  0  0  0  0  0
  146.4311  133.3364  149.7674 H   0  0  0  0  0  0  0  0  0  0  0  0
  144.3021  133.1637  151.1061 H   0  0  0  0  0  0  0  0  0  0  0  0
  144.6471  131.4925  151.4766 H   0  0  0  0  0  0  0  0  0  0  0  0
  146.7353  134.6434  151.5547 H   0  0  0  0  0  0  0  0  0  0  0  0
  145.2270  134.8935  152.4047 H   0  0  0  0  0  0  0  0  0  0  0  0
  147.0584  135.8975  153.6588 H   0  0  0  0  0  0  0  0  0  0  0  0
  146.2867  134.6265  154.5795 H   0  0  0  0  0  0  0  0  0  0  0  0
  148.8523  134.3294  152.9518 H   0  0  0  0  0  0  0  0  0  0  0  0
  150.7801  134.1986  156.1480 H   0  0  0  0  0  0  0  0  0  0  0  0
  151.0816  134.2967  154.4091 H   0  0  0  0  0  0  0  0  0  0  0  0
  150.3086  132.8657  155.0968 H   0  0  0  0  0  0  0  0  0  0  0  0
  146.9109  138.0778  156.5048 H   0  0  0  0  0  0  0  0  0  0  0  0
  152.9745  137.9237  154.3375 H   0  0  0  0  0  0  0  0  0  0  0  0
  152.3871  140.1399  156.0070 H   0  0  0  0  0  0  0  0  0  0  0  0
  151.7973  140.5382  154.4134 H   0  0  0  0  0  0  0  0  0  0  0  0
  149.6831  140.2407  156.4852 H   0  0  0  0  0  0  0  0  0  0  0  0
  148.4759  141.8086  155.2740 H   0  0  0  0  0  0  0  0  0  0  0  0
  149.8840  142.7042  154.7836 H   0  0  0  0  0  0  0  0  0  0  0  0
  148.9333  140.2695  153.7638 H   0  0  0  0  0  0  0  0  0  0  0  0
  151.4389  142.7204  156.6420 H   0  0  0  0  0  0  0  0  0  0  0  0
  151.3633  140.2927  158.4617 H   0  0  0  0  0  0  0  0  0  0  0  0
  152.7979  141.0650  157.7744 H   0  0  0  0  0  0  0  0  0  0  0  0
  151.9702  141.8032  160.2433 H   0  0  0  0  0  0  0  0  0  0  0  0
  152.4635  143.0558  159.0997 H   0  0  0  0  0  0  0  0  0  0  0  0
  149.3362  143.3788  157.5766 H   0  0  0  0  0  0  0  0  0  0  0  0
  149.0164  141.7625  158.2066 H   0  0  0  0  0  0  0  0  0  0  0  0
  148.9572  132.0516  153.8790 H   0  0  0  0  0  0  0  0  0  0  0  0
  147.4359  132.2831  154.7116 H   0  0  0  0  0  0  0  0  0  0  0  0
  147.8474  132.3540  151.6944 H   0  0  0  0  0  0  0  0  0  0  0  0
  147.9781  130.0997  152.8921 H   0  0  0  0  0  0  0  0  0  0  0  0
  146.7350  130.1750  151.6773 H   0  0  0  0  0  0  0  0  0  0  0  0
  146.3057  130.3188  153.3869 H   0  0  0  0  0  0  0  0  0  0  0  0
  145.4052  132.6670  153.2609 H   0  0  0  0  0  0  0  0  0  0  0  0
  1  2  1  0  0  0  0
  1 30  1  0  0  0  0
  1 31  1  0  0  0  0
  1 32  1  0  0  0  0
  2  3  1  0  0  0  0
  2 33  1  0  0  0  0
  2 34  1  0  0  0  0
  3 28  1  0  0  0  0
  3  4  1  0  0  0  0
  3 64  1  0  0  0  0
  4  5  1  0  0  0  0
  4 35  1  0  0  0  0
  4 36  1  0  0  0  0
  5  6  1  0  0  0  0
  5 37  1  0  0  0  0
  5 38  1  0  0  0  0
  6  7  1  0  0  0  0
  6 27  1  0  0  0  0
  6 39  1  0  0  0  0
  7  8  1  0  0  0  0
  7  9  1  0  0  0  0
  8 40  1  0  0  0  0
  8 41  1  0  0  0  0
  8 42  1  0  0  0  0
  9 14  1  0  0  0  0
  9 10  2  0  0  0  0
 10 11  1  0  0  0  0
 11 12  2  0  0  0  0
 11 43  1  0  0  0  0
 12 13  1  0  0  0  0
 13 17  1  0  0  0  0
 13 14  2  0  0  0  0
 14 15  1  0  0  0  0
 15 16  2  0  0  0  0
 16 17  1  0  0  0  0
 16 44  1  0  0  0  0
 17 18  1  0  0  0  0
 18 19  1  0  0  0  0
 18 45  1  0  0  0  0
 18 46  1  0  0  0  0
 19 20  1  0  0  0  0
 19 22  1  0  0  0  0
 19 47  1  0  0  0  0
 20 21  1  0  0  0  0
 20 48  1  0  0  0  0
 20 49  1  0  0  0  0
 21 50  1  0  0  0  0
 22 26  1  0  0  0  0
 22 23  1  0  0  0  0
 22 51  1  0  0  0  0
 23 24  1  0  0  0  0
 23 52  1  0  0  0  0
 23 53  1  0  0  0  0
 24 25  1  0  0  0  0
 24 54  1  0  0  0  0
 24 55  1  0  0  0  0
 25 26  1  0  0  0  0
 26 56  1  0  0  0  0
 26 57  1  0  0  0  0
 27 28  1  0  0  0  0
 27 58  1  0  0  0  0
 27 59  1  0  0  0  0
 28 29  1  0  0  0  0
 28 60  1  0  0  0  0
 29 61  1  0  0  0  0
 29 62  1  0  0  0  0
 29 63  1  0  0  0  0
M  CHG  1   3   1
M  END
> <s_m_source_file>
AV-unprocessed.smi

> <i_m_source_file_index>
249

> <i_lp_mmshare_version>
43012

> <i_f3d_flags>
0

> <s_epik_input>
W0NIM11bQ0gyXU4xW0NIMl1bQ0gyXVtDQEhdKFtDSDJdW0NASF0xW0NIM10pTihbQ0gzXSljKG5bY0hdbjIpYyhjMjMpbltjSF1uM1tDSDJdW0NASF0oW0NIMl1bT0hdKVtDQEBIXTRbQ0gyXVtDSDJdT1tDSDJdNA==

> <s_epik_cmdline>
J2VwaWtfcHl0aG9uJywgJy1waCcsICc3LjAnLCAnLXRuJywgJzgnLCAnLW1hJywgJzIwMCcsICctbWV0YWxfYmluZGluZycsICctaW1hZScsICc8aW5maWxlLm1hZT4nLCAnLW9tYWUnLCAnPG91dGZpbGUubWFlPic=

> <r_lp_tautomer_probability>
1

> <r_epik_Ionization_Penalty>
0.00294688

> <r_epik_Ionization_Penalty_Charging>
0.00169971

> <r_epik_Ionization_Penalty_Neutral>
0.00124717

> <r_epik_State_Penalty>
-0

> <r_epik_Charging_Adjusted_Penalty>
0.00169971

> <i_epik_Tot_Q>
1

> <i_epik_Tot_abs_Q>
1

> <r_epik_Metal_State_Penalty>
-0

> <b_epik_Metal_Only>
0

> <s_lp_Force_Field>
OPLS_2005

> <r_lp_Energy>
53.6814

> <b_lp_Chiralities_Consistent>
1

> <s_lp_Variant>
AV-unprocessed.smi:249-1

> <Gold.Version>
5.8.1

> <Gold.Id.Protein>
6NUR|6NUR_protein|mol2

> <Gold.PLP.Fitness>
47.9328

> <Gold.PLP.PLP>
-43.6085

> <Gold.PLP.part.hbond>
-4.7693

> <Gold.PLP.part.metal>
0.0000

> <Gold.PLP.part.buried>
-1.1789

> <Gold.PLP.part.nonpolar>
-37.6036

> <Gold.PLP.part.repulsive>
0.3836

> <Gold.PLP.ligand.clash>
0.0034

> <Gold.PLP.ligand.torsion>
1.7578

> <Gold.PLP.Chemscore.Hbond>
1.9882

> <Gold.PLP.Chemscore.CHOScore>
0.0000

> <Gold.PLP.Chemscore.Metal>
0.0000

> <Gold.Chemscore.Hbonds>
donor molecule, donor type, donor heavy atom, donor atom, acceptor molecule, acceptor atom, score
      P1  H  7989  7998       L1    21  0.24
      P1  H  8011  8017       L1    21  0.99
      P1  H 10752 10764       L1    15  0.90

> <Gold.PLP.Chemscore.Internal.Correction>
1.8787

> <Gold.Rescore>
     Score         DG    S(hbond)    S(metal)    S(lipo)     H(rot)  DE(clash)    DE(int)     intcor
      7.97     -14.76       1.33        0.00     104.91       2.90       0.97       5.82       ----

> <Gold.Chemscore.Fitness>
7.9681

> <Gold.Chemscore.DG>
-14.7581

> <Gold.Chemscore.ZeroCoef>
-5.4800

> <Gold.Chemscore.Hbond>
1.3260

> <Gold.Chemscore.Metal>
0.0000

> <Gold.Chemscore.Lipo>
104.9142

> <Gold.Chemscore.Internal_Hbond>
0.0000

> <Gold.Chemscore.DEClash>
0.9684

> <Gold.Chemscore.DEInternal>
5.8216

> <Gold.Chemscore.Rot>
2.9006

> <Gold.Chemscore.Internal.Correction>
   9.000000E+99

> <Gold.Chemscore.Hbonds>
donor molecule, donor type, donor heavy atom, donor atom, acceptor molecule, acceptor atom, score
      P1  H  7989  7998       L1    21  0.04
      P1  H  8011  8017       L1    21  0.51
      P1  H 10752 10764       L1    15  0.17

> <Gold.Chemscore.Hbond.Weighted>
-4.4288

> <Gold.Chemscore.Metal.Weighted>
-0.0000

> <Gold.Chemscore.Lipo.Weighted>
-12.2750

> <Gold.Chemscore.Internal_Hbond.Weighted>
0.0000

> <Gold.Chemscore.DEClash.Weighted>
0.9684

> <Gold.Chemscore.DEInternal.Weighted>
5.8216

> <Gold.Chemscore.Rot.Weighted>
7.4256

> <Gold.Chemscore.Internal.Correction.Weighted>
   9.000000E+99

> <Gold.Protein.RotatedTorsions>
[ 6907 6896 6895 6894 ] final  142.69 input  -60.11 | X-H torsion
[ 7974 7965 7964 7962 ] final  -48.80 input  175.53 | X-H torsion
[ 8008 7997 7996 7995 ] final -114.77 input   59.86 | X-H torsion
[ 10167 10162 10161 10158 ] final -132.12 input  -65.29 | X-H torsion
[ 10718 10713 10712 10709 ] final  -53.16 input   66.30 | X-H torsion
[ 10763 10752 10751 10750 ] final  -52.04 input  -60.55 | X-H torsion
[ 11005 11000 10999 10996 ] final   66.92 input  -57.11 | X-H torsion

> <Gold.Protein.ActiveResidues>
 VAL166  LYS551  ARG553  GLY616  TRP617  ASP618  TYR619  PRO620  LYS621  CYS622 
 ASP623  PHE694  ASN695  SER759  ASP760  ASP761  ALA762  ILE779  LEU786  VAL792 
 PHE793  MET794  SER795  GLU796  ALA797  LYS798  CYS799  TRP800  GLU811  SER814 

> <Gold.Protein.RotatedAtoms>
  152.2156  133.4944  159.5133 H   0  0  0  0  0  0  0  0  0  0  0  0  # atno 6907 bound_to 6896
  150.7000  134.1410  159.4114 H   0  0  0  0  0  0  0  0  0  0  0  0  # atno 6908 bound_to 6896
  151.9330  135.0247  160.0581 H   0  0  0  0  0  0  0  0  0  0  0  0  # atno 6909 bound_to 6896
  145.9473  140.7606  142.9522 H   0  0  0  0  0  0  0  0  0  0  0  0  # atno 7974 bound_to 7965
  155.0416  140.0392  157.2511 H   0  0  0  0  0  0  0  0  0  0  0  0  # atno 8008 bound_to 7997
  154.7212  140.2712  155.6516 H   0  0  0  0  0  0  0  0  0  0  0  0  # atno 8009 bound_to 7997
  156.2817  140.2702  156.1884 H   0  0  0  0  0  0  0  0  0  0  0  0  # atno 8010 bound_to 7997
  139.9118  143.6485  152.2573 H   0  0  0  0  0  0  0  0  0  0  0  0  # atno 10167 bound_to 10162
  156.1558  130.4150  149.9871 H   0  0  0  0  0  0  0  0  0  0  0  0  # atno 10718 bound_to 10713
  154.1363  135.6512  153.4932 H   0  0  0  0  0  0  0  0  0  0  0  0  # atno 10763 bound_to 10752
  153.0179  135.5305  154.6950 H   0  0  0  0  0  0  0  0  0  0  0  0  # atno 10764 bound_to 10752
  154.6199  135.2963  155.0309 H   0  0  0  0  0  0  0  0  0  0  0  0  # atno 10765 bound_to 10752
  139.9802  134.6756  156.0277 H   0  0  0  0  0  0  0  0  0  0  0  0  # atno 11005 bound_to 11000
  144.6789  140.2377  143.7347 LP  0  0  0  0  0  0  0  0  0  0  0  0  # atno 17320 bound_to 7965
  145.8219  139.2047  143.1933 LP  0  0  0  0  0  0  0  0  0  0  0  0  # atno 17321 bound_to 7965
  139.6936  144.7644  151.1396 LP  0  0  0  0  0  0  0  0  0  0  0  0  # atno 17342 bound_to 10162
  140.7683  143.5555  150.9157 LP  0  0  0  0  0  0  0  0  0  0  0  0  # atno 17343 bound_to 10162
  156.7715  130.9188  151.3644 LP  0  0  0  0  0  0  0  0  0  0  0  0  # atno 17370 bound_to 10713
  157.6694  130.9037  150.0006 LP  0  0  0  0  0  0  0  0  0  0  0  0  # atno 17371 bound_to 10713
  141.1475  133.6553  156.3911 LP  0  0  0  0  0  0  0  0  0  0  0  0  # atno 17394 bound_to 11000
  140.5112  134.6393  157.5285 LP  0  0  0  0  0  0  0  0  0  0  0  0  # atno 17395 bound_to 11000

$$$$
