AV-unprocessed.smi:3123|AV-procd|sdf|11900|dock6
  -GOLD-   2272017283D 1   1.00000     0.00000
 Structure written by MMmdl.
 30 31  0  0  0  0  0  0  0  0  2 V2000
  150.5011  138.0124  153.5819 N   0  3  0  0  0  0  0  0  0  0  0  0
  151.5007  138.3740  154.5995 C   0  0  0  0  0  0  0  0  0  0  0  0
  151.0900  139.6370  155.3275 C   0  0  0  0  0  0  0  0  0  0  0  0
  149.9561  140.3660  154.9164 C   0  0  0  0  0  0  0  0  0  0  0  0
  149.6203  141.5370  155.6234 C   0  0  0  0  0  0  0  0  0  0  0  0
  150.3321  141.9965  156.6742 N   0  0  0  0  0  0  0  0  0  0  0  0
  151.4215  141.2950  157.0698 C   0  0  0  0  0  0  0  0  0  0  0  0
  152.1594  141.7683  158.1636 N   0  0  0  0  0  0  0  0  0  0  0  0
  151.7774  143.1105  158.5850 C   0  0  0  0  0  0  0  0  0  0  0  0
  152.7164  143.5986  159.7022 C   0  0  0  0  0  0  0  0  0  0  0  0
  152.7020  142.6671  160.7804 O   0  0  0  0  0  0  0  0  0  0  0  0
  153.1453  141.3742  160.3775 C   0  0  0  0  0  0  0  0  0  0  0  0
  152.2167  140.8298  159.2781 C   0  0  0  0  0  0  0  0  0  0  0  0
  151.8384  140.1116  156.4241 C   0  0  0  0  0  0  0  0  0  0  0  0
  150.8642  137.2730  152.9976 H   0  0  0  0  0  0  0  0  0  0  0  0
  150.2935  138.8215  153.0142 H   0  0  0  0  0  0  0  0  0  0  0  0
  151.6085  137.5533  155.3094 H   0  0  0  0  0  0  0  0  0  0  0  0
  152.4699  138.5162  154.1204 H   0  0  0  0  0  0  0  0  0  0  0  0
  149.3541  140.0395  154.0812 H   0  0  0  0  0  0  0  0  0  0  0  0
  148.7578  142.1204  155.3368 H   0  0  0  0  0  0  0  0  0  0  0  0
  151.8214  143.7918  157.7343 H   0  0  0  0  0  0  0  0  0  0  0  0
  150.7470  143.1064  158.9437 H   0  0  0  0  0  0  0  0  0  0  0  0
  153.7341  143.7227  159.3287 H   0  0  0  0  0  0  0  0  0  0  0  0
  152.3904  144.5721  160.0687 H   0  0  0  0  0  0  0  0  0  0  0  0
  154.1771  141.4250  160.0259 H   0  0  0  0  0  0  0  0  0  0  0  0
  153.1354  140.7094  161.2412 H   0  0  0  0  0  0  0  0  0  0  0  0
  151.2159  140.6747  159.6842 H   0  0  0  0  0  0  0  0  0  0  0  0
  152.5775  139.8617  158.9280 H   0  0  0  0  0  0  0  0  0  0  0  0
  152.7139  139.5790  156.7675 H   0  0  0  0  0  0  0  0  0  0  0  0
  149.6569  137.6984  154.0388 H   0  0  0  0  0  0  0  0  0  0  0  0
  1  2  1  0  0  0  0
  1 15  1  0  0  0  0
  1 16  1  0  0  0  0
  1 30  1  0  0  0  0
  2  3  1  0  0  0  0
  2 17  1  0  0  0  0
  2 18  1  0  0  0  0
  3 14  1  0  0  0  0
  3  4  2  0  0  0  0
  4  5  1  0  0  0  0
  4 19  1  0  0  0  0
  5  6  2  0  0  0  0
  5 20  1  0  0  0  0
  6  7  1  0  0  0  0
  7  8  1  0  0  0  0
  7 14  2  0  0  0  0
  8 13  1  0  0  0  0
  8  9  1  0  0  0  0
  9 10  1  0  0  0  0
  9 21  1  0  0  0  0
  9 22  1  0  0  0  0
 10 11  1  0  0  0  0
 10 23  1  0  0  0  0
 10 24  1  0  0  0  0
 11 12  1  0  0  0  0
 12 13  1  0  0  0  0
 12 25  1  0  0  0  0
 12 26  1  0  0  0  0
 13 27  1  0  0  0  0
 13 28  1  0  0  0  0
 14 29  1  0  0  0  0
M  CHG  1   1   1
M  END
> <s_m_source_file>
AV-unprocessed.smi

> <i_m_source_file_index>
3123

> <i_lp_mmshare_version>
43012

> <i_f3d_flags>
0

> <s_epik_input>
W05IMl1bQ0gyXWMxW2NIXVtjSF1uYyhbY0hdMSlOMltDSDJdW0NIMl1PW0NIMl1bQ0gyXTI=

> <s_epik_cmdline>
J2VwaWtfcHl0aG9uJywgJy1waCcsICc3LjAnLCAnLXRuJywgJzgnLCAnLW1hJywgJzIwMCcsICctbWV0YWxfYmluZGluZycsICctaW1hZScsICc8aW5maWxlLm1hZT4nLCAnLW9tYWUnLCAnPG91dGZpbGUubWFlPic=

> <r_lp_tautomer_probability>
1

> <r_epik_Ionization_Penalty>
0.0770075

> <r_epik_Ionization_Penalty_Charging>
0.0770037

> <r_epik_Ionization_Penalty_Neutral>
3.77435e-06

> <r_epik_State_Penalty>
0.00932976

> <r_epik_Charging_Adjusted_Penalty>
0.0863335

> <i_epik_Tot_Q>
1

> <i_epik_Tot_abs_Q>
1

> <r_epik_Metal_State_Penalty>
0.00963217

> <b_epik_Metal_Only>
0

> <s_lp_Force_Field>
OPLS_2005

> <r_lp_Energy>
15.1833

> <b_lp_Chiralities_Consistent>
1

> <s_lp_Variant>
AV-unprocessed.smi:3123-1

> <Gold.Version>
5.8.1

> <Gold.Id.Protein>
6NUR|6NUR_protein|mol2

> <Gold.PLP.Fitness>
39.1888

> <Gold.PLP.PLP>
-29.3164

> <Gold.PLP.part.hbond>
-2.5706

> <Gold.PLP.part.metal>
0.0000

> <Gold.PLP.part.buried>
0.6009

> <Gold.PLP.part.nonpolar>
-25.7595

> <Gold.PLP.part.repulsive>
0.2408

> <Gold.PLP.ligand.clash>
0.0000

> <Gold.PLP.ligand.torsion>
0.1351

> <Gold.PLP.Chemscore.Hbond>
2.5363

> <Gold.PLP.Chemscore.CHOScore>
0.8106

> <Gold.PLP.Chemscore.Metal>
0.0000

> <Gold.Chemscore.Hbonds>
donor molecule, donor type, donor heavy atom, donor atom, acceptor molecule, acceptor atom, score
      L1  H     1    15       P1  7949  1.70
      L1  H     1    16       P1  7957  0.32
      L1  C     5    20       P1  8028  0.61

> <Gold.PLP.Chemscore.Internal.Correction>
0.1022

> <Gold.Rescore>
     Score         DG    S(hbond)    S(metal)    S(lipo)     H(rot)  DE(clash)    DE(int)     intcor
     15.57     -16.79       1.84        0.00      72.85       1.32       1.13       0.10       ----

> <Gold.Chemscore.Fitness>
15.5677

> <Gold.Chemscore.DG>
-16.7928

> <Gold.Chemscore.ZeroCoef>
-5.4800

> <Gold.Chemscore.Hbond>
1.8438

> <Gold.Chemscore.Metal>
0.0000

> <Gold.Chemscore.Lipo>
72.8457

> <Gold.Chemscore.Internal_Hbond>
0.0000

> <Gold.Chemscore.DEClash>
1.1292

> <Gold.Chemscore.DEInternal>
0.0959

> <Gold.Chemscore.Rot>
1.3158

> <Gold.Chemscore.Internal.Correction>
   9.000000E+99

> <Gold.Chemscore.Hbonds>
donor molecule, donor type, donor heavy atom, donor atom, acceptor molecule, acceptor atom, score
      L1  H     1    15       P1  7949  0.14
      L1  H     1    16       P1  7957  0.19

> <Gold.Chemscore.Hbond.Weighted>
-6.1583

> <Gold.Chemscore.Metal.Weighted>
-0.0000

> <Gold.Chemscore.Lipo.Weighted>
-8.5229

> <Gold.Chemscore.Internal_Hbond.Weighted>
0.0000

> <Gold.Chemscore.DEClash.Weighted>
1.1292

> <Gold.Chemscore.DEInternal.Weighted>
0.0959

> <Gold.Chemscore.Rot.Weighted>
3.3684

> <Gold.Chemscore.Internal.Correction.Weighted>
   9.000000E+99

> <Gold.Protein.RotatedTorsions>
[ 6907 6896 6895 6894 ] final  -28.93 input  -60.11 | X-H torsion
[ 7974 7965 7964 7962 ] final  165.18 input  175.53 | X-H torsion
[ 8008 7997 7996 7995 ] final  -41.14 input   59.86 | X-H torsion
[ 10167 10162 10161 10158 ] final   87.72 input  -65.29 | X-H torsion
[ 10718 10713 10712 10709 ] final  -61.56 input   66.30 | X-H torsion
[ 10763 10752 10751 10750 ] final  126.91 input  -60.55 | X-H torsion
[ 11005 11000 10999 10996 ] final -131.16 input  -57.11 | X-H torsion

> <Gold.Protein.ActiveResidues>
 VAL166  LYS551  ARG553  GLY616  TRP617  ASP618  TYR619  PRO620  LYS621  CYS622 
 ASP623  PHE694  ASN695  SER759  ASP760  ASP761  ALA762  ILE779  LEU786  VAL792 
 PHE793  MET794  SER795  GLU796  ALA797  LYS798  CYS799  TRP800  GLU811  SER814 

> <Gold.Protein.RotatedAtoms>
  151.1262  135.0106  159.8561 H   0  0  0  0  0  0  0  0  0  0  0  0  # atno 6907 bound_to 6896
  152.5449  134.1664  159.8589 H   0  0  0  0  0  0  0  0  0  0  0  0  # atno 6908 bound_to 6896
  151.1727  133.4729  159.2627 H   0  0  0  0  0  0  0  0  0  0  0  0  # atno 6909 bound_to 6896
  144.7513  139.8434  143.6365 H   0  0  0  0  0  0  0  0  0  0  0  0  # atno 7974 bound_to 7965
  154.4006  140.1507  156.3142 H   0  0  0  0  0  0  0  0  0  0  0  0  # atno 8008 bound_to 7997
  155.8588  140.3454  155.5721 H   0  0  0  0  0  0  0  0  0  0  0  0  # atno 8009 bound_to 7997
  155.7903  140.0855  157.2003 H   0  0  0  0  0  0  0  0  0  0  0  0  # atno 8010 bound_to 7997
  139.8745  144.6474  150.8912 H   0  0  0  0  0  0  0  0  0  0  0  0  # atno 10167 bound_to 10162
  156.0913  130.4199  150.1011 H   0  0  0  0  0  0  0  0  0  0  0  0  # atno 10718 bound_to 10713
  153.7010  135.3283  155.3224 H   0  0  0  0  0  0  0  0  0  0  0  0  # atno 10763 bound_to 10752
  154.8413  135.4454  154.1411 H   0  0  0  0  0  0  0  0  0  0  0  0  # atno 10764 bound_to 10752
  153.2478  135.6978  153.7790 H   0  0  0  0  0  0  0  0  0  0  0  0  # atno 10765 bound_to 10752
  140.9283  134.1353  157.4256 H   0  0  0  0  0  0  0  0  0  0  0  0  # atno 11005 bound_to 11000
  146.1467  139.4538  143.0074 LP  0  0  0  0  0  0  0  0  0  0  0  0  # atno 17320 bound_to 7965
  145.6934  141.0157  143.1543 LP  0  0  0  0  0  0  0  0  0  0  0  0  # atno 17321 bound_to 7965
  140.7755  143.3636  151.1781 LP  0  0  0  0  0  0  0  0  0  0  0  0  # atno 17342 bound_to 10162
  139.7253  143.9158  152.3000 LP  0  0  0  0  0  0  0  0  0  0  0  0  # atno 17343 bound_to 10162
  156.9020  130.9623  151.3575 LP  0  0  0  0  0  0  0  0  0  0  0  0  # atno 17370 bound_to 10713
  157.6063  130.8550  149.8881 LP  0  0  0  0  0  0  0  0  0  0  0  0  # atno 17371 bound_to 10713
  139.8790  134.9996  156.5964 LP  0  0  0  0  0  0  0  0  0  0  0  0  # atno 17394 bound_to 11000
  140.7896  133.8593  155.8635 LP  0  0  0  0  0  0  0  0  0  0  0  0  # atno 17395 bound_to 11000

$$$$
