#       Name:                AV-unprocessed.smi:1412
#       Creating user name   scv26
#       Creation time:       Fri Mar 27 05:37:34 2020


#       File generated by GOLD software.
#

@<TRIPOS>MOLECULE
AV-unprocessed.smi:1412
    48    49     1
SMALL
NO_CHARGES


@<TRIPOS>ATOM
      1 ****        -0.7923   0.8879   2.8663 C.3            1 S1                 0.0000
      2 ****        -1.3996   0.4808   1.5098 C.3            1 S1                 0.0000
      3 ****        -0.8816   1.2152   0.2264 C.3            1 S1                 0.0000
      4 ****        -1.3544   2.6902   0.2866 C.3            1 S1                 0.0000
      5 ****         0.6771   1.2291   0.2642 C.3            1 S1                 0.0000
      6 ****         1.2345  -0.1203   0.2122 N.am           1 S1                 0.0000
      7 ****         2.3691  -0.5139   0.8049 C.2            1 S1                 0.0000
      8 ****         3.0991   0.2416   1.4463 O.2            1 S1                 0.0000
      9 ****         2.5889  -1.8235   0.6057 N.am           1 S1                 0.0000
     10 ****         3.6554  -2.6139   1.1024 C.2            1 S1                 0.0000
     11 ****         3.6764  -3.9132   0.7829 N.2            1 S1                 0.0000
     12 ****         4.7694  -4.5682   1.3374 N.2            1 S1                 0.0000
     13 ****         5.5301  -3.7363   2.0552 C.2            1 S1                 0.0000
     14 ****         4.9883  -2.0688   2.1250 S.3            1 S1                 0.0000
     15 ****        -1.3778   0.5133  -0.9981 N.3            1 S1                 0.0000
     16 ****        -2.8379   0.3754  -1.0883 C.3            1 S1                 0.0000
     17 ****        -3.2723  -0.4621  -2.3033 C.3            1 S1                 0.0000
     18 ****        -2.7537   0.1141  -3.4947 O.3            1 S1                 0.0000
     19 ****        -1.3352   0.2019  -3.4763 C.3            1 S1                 0.0000
     20 ****        -0.8841   1.0493  -2.2747 C.3            1 S1                 0.0000
     21 ****        -1.3042   0.3695   3.6770 H              1 S1                 0.0000
     22 ****        -0.8894   1.9559   3.0568 H              1 S1                 0.0000
     23 ****         0.2612   0.6203   2.9426 H              1 S1                 0.0000
     24 ****        -1.2611  -0.5950   1.3923 H              1 S1                 0.0000
     25 ****        -2.4745   0.6302   1.6075 H              1 S1                 0.0000
     26 ****        -0.9512   3.2062   1.1574 H              1 S1                 0.0000
     27 ****        -2.4393   2.7722   0.3477 H              1 S1                 0.0000
     28 ****        -1.0283   3.2621  -0.5814 H              1 S1                 0.0000
     29 ****         1.0957   1.8101  -0.5565 H              1 S1                 0.0000
     30 ****         1.0293   1.7534   1.1530 H              1 S1                 0.0000
     31 ****         0.6985  -0.8073  -0.2981 H              1 S1                 0.0000
     32 ****         1.9072  -2.3164   0.0480 H              1 S1                 0.0000
     33 ****         6.4168  -4.1077   2.5472 H              1 S1                 0.0000
     34 ****        -3.2427  -0.1110  -0.2035 H              1 S1                 0.0000
     35 ****        -3.3058   1.3576  -1.1540 H              1 S1                 0.0000
     36 ****        -2.9243  -1.4917  -2.2064 H              1 S1                 0.0000
     37 ****        -4.3597  -0.4969  -2.3691 H              1 S1                 0.0000
     38 ****        -0.9007  -0.7979  -3.4288 H              1 S1                 0.0000
     39 ****        -0.9950   0.6550  -4.4074 H              1 S1                 0.0000
     40 ****        -1.2347   2.0712  -2.4177 H              1 S1                 0.0000
     41 ****         0.2028   1.0797  -2.2955 H              1 S1                 0.0000
     42 ****         2.8559   1.2065   1.5462 LP             1 S1                 0.0000
     43 ****         3.9354  -0.1094   1.8674 LP             1 S1                 0.0000
     44 ****         2.9871  -4.3599   0.2126 LP             1 S1                 0.0000
     45 ****         4.9628  -5.5416   1.2145 LP             1 S1                 0.0000
     46 ****        -0.9782  -0.3931  -0.8617 LP             1 S1                 0.0000
     47 ****        -3.1318   1.0341  -3.5985 LP             1 S1                 0.0000
     48 ****        -3.0312  -0.4500  -4.2724 LP             1 S1                 0.0000
@<TRIPOS>BOND
    1    1    2 1     
    2    1   21 1     
    3    1   22 1     
    4    1   23 1     
    5    2    3 1     
    6    2   24 1     
    7    2   25 1     
    8    3    4 1     
    9    3    5 1     
   10    3   15 1     
   11    4   26 1     
   12    4   27 1     
   13    4   28 1     
   14    5    6 1     
   15    5   29 1     
   16    5   30 1     
   17    6    7 am    
   18    6   31 1     
   19    7    8 2     
   20    7    9 am    
   21    9   10 1     
   22    9   32 1     
   23   10   14 1     
   24   10   11 2     
   25   11   12 1     
   26   12   13 2     
   27   13   14 1     
   28   13   33 1     
   29   15   20 1     
   30   15   16 1     
   31   16   17 1     
   32   16   34 1     
   33   16   35 1     
   34   17   18 1     
   35   17   36 1     
   36   17   37 1     
   37   18   19 1     
   38   19   20 1     
   39   19   38 1     
   40   19   39 1     
   41   20   40 1     
   42   20   41 1     
   43    8   42 1     
   44    8   43 1     
   45   11   44 1     
   46   12   45 1     
   47   15   46 1     
   48   18   47 1     
   49   18   48 1     
@<TRIPOS>SUBSTRUCTURE
      1 S1             1
@<TRIPOS>SET
LONE_PAIRS      STATIC     ATOMS    <user>   **** ""
7 42 43 44 45 46 47 48
DONOR_HYDROGENS      STATIC     ATOMS    <user>   **** ""
2 31 32
ATOM$BLUE        STATIC     ATOMS    COLORGROUP SYSTEM
7 42 43 44 45 46 47 48
ATOM$RED        STATIC     ATOMS    COLORGROUP SYSTEM
2 31 32
