AV-unprocessed.smi:1285|AV-procd|sdf|5369|dock6
  -GOLD-   22720 4513D 1   1.00000     0.00000
 Structure written by MMmdl.
 46 47  0  0  0  0  0  0  0  0  1 V2000
  147.3783  139.4144  153.3361 C   0  0  0  0  0  0  0  0  0  0  0  0
  148.0948  138.3802  154.2236 C   0  0  0  0  0  0  0  0  0  0  0  0
  147.1662  137.4725  155.0918 C   0  0  1  0  0  0  0  0  0  0  0  0
  146.4803  138.4097  156.1226 C   0  0  0  0  0  0  0  0  0  0  0  0
  146.0565  136.8643  154.1735 C   0  0  0  0  0  0  0  0  0  0  0  0
  146.5372  135.8023  153.2893 N   0  0  0  0  0  0  0  0  0  0  0  0
  146.0949  134.5343  153.2705 C   0  0  0  0  0  0  0  0  0  0  0  0
  145.2047  134.1193  154.0134 O   0  0  0  0  0  0  0  0  0  0  0  0
  146.7730  133.5934  152.2633 C   0  0  1  0  0  0  0  0  0  0  0  0
  147.5844  132.4793  152.9555 C   0  0  0  0  0  0  0  0  0  0  0  0
  145.7884  133.0651  151.3270 N   0  0  0  0  0  0  0  0  0  0  0  0
  145.9593  132.3056  150.2425 C   0  0  0  0  0  0  0  0  0  0  0  0
  144.8383  132.0428  149.5858 N   0  0  0  0  0  0  0  0  0  0  0  0
  143.9515  132.7301  150.3650 C   0  0  0  0  0  0  0  0  0  0  0  0
  144.4691  133.3691  151.4140 N   0  0  0  0  0  0  0  0  0  0  0  0
  147.9556  136.4173  155.7883 N   0  0  0  0  0  0  0  0  0  0  0  0
  149.1948  136.8769  156.4262 C   0  0  0  0  0  0  0  0  0  0  0  0
  150.0203  135.7070  156.9889 C   0  0  0  0  0  0  0  0  0  0  0  0
  149.2311  134.9601  157.9072 O   0  0  0  0  0  0  0  0  0  0  0  0
  148.0438  134.4494  157.3129 C   0  0  0  0  0  0  0  0  0  0  0  0
  147.2031  135.6112  156.7576 C   0  0  0  0  0  0  0  0  0  0  0  0
  148.1057  140.0062  152.7804 H   0  0  0  0  0  0  0  0  0  0  0  0
  146.7774  140.1087  153.9231 H   0  0  0  0  0  0  0  0  0  0  0  0
  146.7245  138.9377  152.6064 H   0  0  0  0  0  0  0  0  0  0  0  0
  148.7075  137.7645  153.5650 H   0  0  0  0  0  0  0  0  0  0  0  0
  148.8147  138.8986  154.8568 H   0  0  0  0  0  0  0  0  0  0  0  0
  146.0916  139.3164  155.6575 H   0  0  0  0  0  0  0  0  0  0  0  0
  147.1721  138.7228  156.9050 H   0  0  0  0  0  0  0  0  0  0  0  0
  145.6329  137.9290  156.6117 H   0  0  0  0  0  0  0  0  0  0  0  0
  145.2176  136.4978  154.7655 H   0  0  0  0  0  0  0  0  0  0  0  0
  145.6410  137.6303  153.5199 H   0  0  0  0  0  0  0  0  0  0  0  0
  147.2751  136.0523  152.6474 H   0  0  0  0  0  0  0  0  0  0  0  0
  147.4793  134.1876  151.6806 H   0  0  0  0  0  0  0  0  0  0  0  0
  148.3481  132.9006  153.6101 H   0  0  0  0  0  0  0  0  0  0  0  0
  148.0933  131.8550  152.2205 H   0  0  0  0  0  0  0  0  0  0  0  0
  146.9549  131.8275  153.5627 H   0  0  0  0  0  0  0  0  0  0  0  0
  146.9246  131.9395  149.9248 H   0  0  0  0  0  0  0  0  0  0  0  0
  142.8937  132.7651  150.1498 H   0  0  0  0  0  0  0  0  0  0  0  0
  149.8228  137.4145  155.7180 H   0  0  0  0  0  0  0  0  0  0  0  0
  148.9692  137.5670  157.2391 H   0  0  0  0  0  0  0  0  0  0  0  0
  150.3674  135.0573  156.1838 H   0  0  0  0  0  0  0  0  0  0  0  0
  150.9059  136.0807  157.5030 H   0  0  0  0  0  0  0  0  0  0  0  0
  148.2977  133.7435  156.5204 H   0  0  0  0  0  0  0  0  0  0  0  0
  147.4783  133.8978  158.0641 H   0  0  0  0  0  0  0  0  0  0  0  0
  146.8745  136.2314  157.5914 H   0  0  0  0  0  0  0  0  0  0  0  0
  146.3078  135.1885  156.3059 H   0  0  0  0  0  0  0  0  0  0  0  0
  1  2  1  0  0  0  0
  1 22  1  0  0  0  0
  1 23  1  0  0  0  0
  1 24  1  0  0  0  0
  2  3  1  0  0  0  0
  2 25  1  0  0  0  0
  2 26  1  0  0  0  0
  3  4  1  0  0  0  0
  3  5  1  0  0  0  0
  3 16  1  0  0  0  0
  4 27  1  0  0  0  0
  4 28  1  0  0  0  0
  4 29  1  0  0  0  0
  5  6  1  0  0  0  0
  5 30  1  0  0  0  0
  5 31  1  0  0  0  0
  6  7  1  0  0  0  0
  6 32  1  0  0  0  0
  7  8  2  0  0  0  0
  7  9  1  0  0  0  0
  9 10  1  0  0  0  0
  9 11  1  0  0  0  0
  9 33  1  0  0  0  0
 10 34  1  0  0  0  0
 10 35  1  0  0  0  0
 10 36  1  0  0  0  0
 11 15  1  0  0  0  0
 11 12  1  0  0  0  0
 12 13  2  0  0  0  0
 12 37  1  0  0  0  0
 13 14  1  0  0  0  0
 14 15  2  0  0  0  0
 14 38  1  0  0  0  0
 16 21  1  0  0  0  0
 16 17  1  0  0  0  0
 17 18  1  0  0  0  0
 17 39  1  0  0  0  0
 17 40  1  0  0  0  0
 18 19  1  0  0  0  0
 18 41  1  0  0  0  0
 18 42  1  0  0  0  0
 19 20  1  0  0  0  0
 20 21  1  0  0  0  0
 20 43  1  0  0  0  0
 20 44  1  0  0  0  0
 21 45  1  0  0  0  0
 21 46  1  0  0  0  0
M  END
> <s_m_source_file>
AV-unprocessed.smi

> <i_m_source_file_index>
1285

> <i_lp_mmshare_version>
43012

> <i_f3d_flags>
0

> <s_epik_input>
W0NIMl0xW0NIMl1PW0NIMl1bQ0gyXU4xW0NAQF0oW0NIM10pKFtDSDJdW0NIM10pW0NIMl1bTkhdQyg9TylbQ0BIXShbQ0gzXSluMltjSF1uW2NIXW4y

> <s_epik_cmdline>
J2VwaWtfcHl0aG9uJywgJy1waCcsICc3LjAnLCAnLXRuJywgJzgnLCAnLW1hJywgJzIwMCcsICctbWV0YWxfYmluZGluZycsICctaW1hZScsICc8aW5maWxlLm1hZT4nLCAnLW9tYWUnLCAnPG91dGZpbGUubWFlPic=

> <r_lp_tautomer_probability>
1

> <r_epik_Ionization_Penalty>
0.285697

> <r_epik_Ionization_Penalty_Charging>
0

> <r_epik_Ionization_Penalty_Neutral>
0.285697

> <r_epik_State_Penalty>
0.278478

> <r_epik_Charging_Adjusted_Penalty>
0.278478

> <i_epik_Tot_Q>
0

> <i_epik_Tot_abs_Q>
0

> <r_epik_Metal_State_Penalty>
0.278477

> <b_epik_Metal_Only>
0

> <s_lp_Force_Field>
OPLS_2005

> <r_lp_Energy>
48.702

> <b_lp_Chiralities_Consistent>
1

> <s_lp_Variant>
AV-unprocessed.smi:1285-3

> <Gold.Version>
5.8.1

> <Gold.Id.Protein>
6NUR|6NUR_protein|mol2

> <Gold.PLP.Fitness>
32.9581

> <Gold.PLP.PLP>
-21.4733

> <Gold.PLP.part.hbond>
-2.2557

> <Gold.PLP.part.metal>
0.0000

> <Gold.PLP.part.buried>
-3.4812

> <Gold.PLP.part.nonpolar>
-16.5484

> <Gold.PLP.part.repulsive>
0.4371

> <Gold.PLP.ligand.clash>
0.0000

> <Gold.PLP.ligand.torsion>
0.3688

> <Gold.PLP.Chemscore.Hbond>
1.9913

> <Gold.PLP.Chemscore.CHOScore>
2.0000

> <Gold.PLP.Chemscore.Metal>
0.0000

> <Gold.Chemscore.Hbonds>
donor molecule, donor type, donor heavy atom, donor atom, acceptor molecule, acceptor atom, score
      L1  H     6    32       P1  7948  1.00
      P1  H  6896  6908       L1    19  0.60
      L1  C    12    37       P1 10747  1.00
      L1  C    14    38       P1 10186  0.88

> <Gold.PLP.Chemscore.Internal.Correction>
0.2486

> <Gold.Rescore>
     Score         DG    S(hbond)    S(metal)    S(lipo)     H(rot)  DE(clash)    DE(int)     intcor
      7.10      -9.05       1.99        0.00      32.24       2.68       0.08       1.87       ----

> <Gold.Chemscore.Fitness>
7.0971

> <Gold.Chemscore.DG>
-9.0480

> <Gold.Chemscore.ZeroCoef>
-5.4800

> <Gold.Chemscore.Hbond>
1.9948

> <Gold.Chemscore.Metal>
0.0000

> <Gold.Chemscore.Lipo>
32.2359

> <Gold.Chemscore.Internal_Hbond>
0.0000

> <Gold.Chemscore.DEClash>
0.0814

> <Gold.Chemscore.DEInternal>
1.8695

> <Gold.Chemscore.Rot>
2.6821

> <Gold.Chemscore.Internal.Correction>
   9.000000E+99

> <Gold.Chemscore.Hbonds>
donor molecule, donor type, donor heavy atom, donor atom, acceptor molecule, acceptor atom, score
      L1  H     6    32       P1  7948  1.00
      P1  H  6896  6908       L1    19  0.30

> <Gold.Chemscore.Hbond.Weighted>
-6.6626

> <Gold.Chemscore.Metal.Weighted>
-0.0000

> <Gold.Chemscore.Lipo.Weighted>
-3.7716

> <Gold.Chemscore.Internal_Hbond.Weighted>
0.0000

> <Gold.Chemscore.DEClash.Weighted>
0.0814

> <Gold.Chemscore.DEInternal.Weighted>
1.8695

> <Gold.Chemscore.Rot.Weighted>
6.8661

> <Gold.Chemscore.Internal.Correction.Weighted>
   9.000000E+99

> <Gold.Protein.RotatedTorsions>
[ 6907 6896 6895 6894 ] final  141.27 input  -60.11 | X-H torsion
[ 7974 7965 7964 7962 ] final   49.48 input  175.53 | X-H torsion
[ 8008 7997 7996 7995 ] final -173.90 input   59.86 | X-H torsion
[ 10167 10162 10161 10158 ] final  108.36 input  -65.29 | X-H torsion
[ 10718 10713 10712 10709 ] final  137.17 input   66.30 | X-H torsion
[ 10763 10752 10751 10750 ] final  109.71 input  -60.55 | X-H torsion
[ 11005 11000 10999 10996 ] final   42.93 input  -57.11 | X-H torsion

> <Gold.Protein.ActiveResidues>
 VAL166  LYS551  ARG553  GLY616  TRP617  ASP618  TYR619  PRO620  LYS621  CYS622 
 ASP623  PHE694  ASN695  SER759  ASP760  ASP761  ALA762  ILE779  LEU786  VAL792 
 PHE793  MET794  SER795  GLU796  ALA797  LYS798  CYS799  TRP800  GLU811  SER814 

> <Gold.Protein.RotatedAtoms>
  152.2330  133.5073  159.5226 H   0  0  0  0  0  0  0  0  0  0  0  0  # atno 6907 bound_to 6896
  150.7042  134.1191  159.4037 H   0  0  0  0  0  0  0  0  0  0  0  0  # atno 6908 bound_to 6896
  151.9112  135.0338  160.0565 H   0  0  0  0  0  0  0  0  0  0  0  0  # atno 6909 bound_to 6896
  146.0105  139.4538  142.9959 H   0  0  0  0  0  0  0  0  0  0  0  0  # atno 7974 bound_to 7965
  155.9632  140.1148  157.0877 H   0  0  0  0  0  0  0  0  0  0  0  0  # atno 8008 bound_to 7997
  154.4137  140.1178  156.5274 H   0  0  0  0  0  0  0  0  0  0  0  0  # atno 8009 bound_to 7997
  155.6693  140.3473  155.4814 H   0  0  0  0  0  0  0  0  0  0  0  0  # atno 8010 bound_to 7997
  139.6852  144.7114  151.1444 H   0  0  0  0  0  0  0  0  0  0  0  0  # atno 10167 bound_to 10162
  157.4389  131.1056  151.0165 H   0  0  0  0  0  0  0  0  0  0  0  0  # atno 10718 bound_to 10713
  153.4386  135.3771  155.2214 H   0  0  0  0  0  0  0  0  0  0  0  0  # atno 10763 bound_to 10752
  154.8753  135.3857  154.4180 H   0  0  0  0  0  0  0  0  0  0  0  0  # atno 10764 bound_to 10752
  153.4723  135.7087  153.6050 H   0  0  0  0  0  0  0  0  0  0  0  0  # atno 10765 bound_to 10752
  140.1692  134.4243  155.8267 H   0  0  0  0  0  0  0  0  0  0  0  0  # atno 11005 bound_to 11000
  145.7349  141.0029  143.1332 LP  0  0  0  0  0  0  0  0  0  0  0  0  # atno 17320 bound_to 7965
  144.6951  139.9029  143.7459 LP  0  0  0  0  0  0  0  0  0  0  0  0  # atno 17321 bound_to 7965
  140.7665  143.5639  150.9068 LP  0  0  0  0  0  0  0  0  0  0  0  0  # atno 17342 bound_to 10162
  139.9314  143.6489  152.3075 LP  0  0  0  0  0  0  0  0  0  0  0  0  # atno 17343 bound_to 10162
  157.1035  130.5992  149.5465 LP  0  0  0  0  0  0  0  0  0  0  0  0  # atno 17370 bound_to 10713
  155.9941  130.5004  150.7407 LP  0  0  0  0  0  0  0  0  0  0  0  0  # atno 17371 bound_to 10713
  141.2216  133.6948  156.7734 LP  0  0  0  0  0  0  0  0  0  0  0  0  # atno 17394 bound_to 11000
  140.2397  134.8623  157.3561 LP  0  0  0  0  0  0  0  0  0  0  0  0  # atno 17395 bound_to 11000

$$$$
