#       Name:                AV-unprocessed.smi:40
#       Creating user name   scv26
#       Creation time:       Thu Mar 26 16:21:53 2020


#       File generated by GOLD software.
#

@<TRIPOS>MOLECULE
AV-unprocessed.smi:40
    58    59     1
SMALL
NO_CHARGES


@<TRIPOS>ATOM
      1 ****        -6.0092   0.9111   1.1006 C.3            1 S1                 0.0000
      2 ****        -4.4827   0.8150   0.9806 C.3            1 S1                 0.0000
      3 ****        -3.9310  -0.6073   1.1735 C.3            1 S1                 0.0000
      4 ****        -4.3083  -1.5780   0.0402 C.3            1 S1                 0.0000
      5 ****        -3.6640  -2.9620   0.1955 C.3            1 S1                 0.0000
      6 ****        -2.2582  -2.8355   0.0656 O.3            1 S1                 0.0000
      7 ****        -1.4699  -3.9238   0.0290 C.2            1 S1                 0.0000
      8 ****        -1.8888  -5.0792   0.0948 O.2            1 S1                 0.0000
      9 ****        -0.0637  -3.5626  -0.0610 N.am           1 S1                 0.0000
     10 ****         1.0273  -4.3667  -0.1192 C.2            1 S1                 0.0000
     11 ****         1.0470  -5.5877   0.3941 N.2            1 S1                 0.0000
     12 ****         2.1343  -6.4181   0.3608 C.2            1 S1                 0.0000
     13 ****         2.0816  -7.5414   0.8592 O.2            1 S1                 0.0000
     14 ****         3.3072  -5.9220  -0.2538 N.am           1 S1                 0.0000
     15 ****         4.5386  -6.7949  -0.3469 C.3            1 S1                 0.0000
     16 ****         5.0479  -6.6797  -1.6419 O.3            1 S1                 0.0000
     17 ****         6.4680  -6.6563  -1.5944 C.3            1 S1                 0.0000
     18 ****         6.9860  -8.1059  -1.6744 C.3            1 S1                 0.0000
     19 ****         6.7609  -5.9193  -0.2797 C.3            1 S1                 0.0000
     20 ****         8.0433  -6.2198   0.2341 O.3            1 S1                 0.0000
     21 ****         5.6522  -6.3959   0.6501 C.3            1 S1                 0.0000
     22 ****         5.2891  -5.3783   1.5667 O.3            1 S1                 0.0000
     23 ****         3.3178  -4.6390  -0.7787 C.2            1 S1                 0.0000
     24 ****         2.2288  -3.8421  -0.7330 C.2            1 S1                 0.0000
     25 ****         2.2644  -2.6005  -1.2473 F              1 S1                 0.0000
     26 ****         4.2158  -7.8275  -0.2091 H              1 S1                 0.0000
     27 ****         6.8529  -6.0942  -2.4458 H              1 S1                 0.0000
     28 ****         6.6769  -4.8446  -0.4503 H              1 S1                 0.0000
     29 ****         5.9508  -7.2938   1.1935 H              1 S1                 0.0000
     30 ****        -6.3365   1.9481   1.0239 H              1 S1                 0.0000
     31 ****        -6.3547   0.5244   2.0596 H              1 S1                 0.0000
     32 ****        -6.5100   0.3517   0.3105 H              1 S1                 0.0000
     33 ****        -4.1638   1.2069   0.0141 H              1 S1                 0.0000
     34 ****        -4.0354   1.4666   1.7320 H              1 S1                 0.0000
     35 ****        -2.8443  -0.5413   1.2390 H              1 S1                 0.0000
     36 ****        -4.2671  -1.0076   2.1307 H              1 S1                 0.0000
     37 ****        -5.3907  -1.7022   0.0124 H              1 S1                 0.0000
     38 ****        -4.0219  -1.1528  -0.9226 H              1 S1                 0.0000
     39 ****        -3.9130  -3.3961   1.1647 H              1 S1                 0.0000
     40 ****        -4.0454  -3.6336  -0.5749 H              1 S1                 0.0000
     41 ****         0.1009  -2.5690  -0.1296 H              1 S1                 0.0000
     42 ****         8.0758  -8.1377  -1.6746 H              1 S1                 0.0000
     43 ****         6.6469  -8.5850  -2.5930 H              1 S1                 0.0000
     44 ****         6.6358  -8.7113  -0.8384 H              1 S1                 0.0000
     45 ****         8.1522  -5.7568   1.0510 H              1 S1                 0.0000
     46 ****         4.5422  -5.6775   2.0633 H              1 S1                 0.0000
     47 ****         4.2195  -4.2558  -1.2341 H              1 S1                 0.0000
     48 ****        -2.8701  -5.2511   0.1812 LP             1 S1                 0.0000
     49 ****        -1.2478  -5.8461   0.0619 LP             1 S1                 0.0000
     50 ****         0.2144  -5.9241   0.8340 LP             1 S1                 0.0000
     51 ****         1.2382  -7.8562   1.2945 LP             1 S1                 0.0000
     52 ****         2.8823  -8.1398   0.8291 LP             1 S1                 0.0000
     53 ****         4.7146  -5.8331  -2.0567 LP             1 S1                 0.0000
     54 ****         4.7459  -7.4604  -2.1891 LP             1 S1                 0.0000
     55 ****         8.7449  -5.9279  -0.4160 LP             1 S1                 0.0000
     56 ****         8.1227  -7.2043   0.3904 LP             1 S1                 0.0000
     57 ****         5.0518  -4.5441   1.0689 LP             1 S1                 0.0000
     58 ****         6.0530  -5.1918   2.1845 LP             1 S1                 0.0000
@<TRIPOS>BOND
    1    1    2 1     
    2    1   30 1     
    3    1   31 1     
    4    1   32 1     
    5    2    3 1     
    6    2   33 1     
    7    2   34 1     
    8    3    4 1     
    9    3   35 1     
   10    3   36 1     
   11    4    5 1     
   12    4   37 1     
   13    4   38 1     
   14    5    6 1     
   15    5   39 1     
   16    5   40 1     
   17    6    7 1     
   18    7    8 2     
   19    7    9 am    
   20    9   10 1     
   21    9   41 1     
   22   10   24 1     
   23   10   11 2     
   24   11   12 1     
   25   12   13 2     
   26   12   14 am    
   27   14   15 1     
   28   14   23 1     
   29   15   26 1     
   30   15   21 1     
   31   15   16 1     
   32   16   17 1     
   33   17   27 1     
   34   17   18 1     
   35   17   19 1     
   36   18   42 1     
   37   18   43 1     
   38   18   44 1     
   39   19   28 1     
   40   19   20 1     
   41   19   21 1     
   42   20   45 1     
   43   21   29 1     
   44   21   22 1     
   45   22   46 1     
   46   23   24 2     
   47   23   47 1     
   48   24   25 1     
   49    8   48 1     
   50    8   49 1     
   51   11   50 1     
   52   13   51 1     
   53   13   52 1     
   54   16   53 1     
   55   16   54 1     
   56   20   55 1     
   57   20   56 1     
   58   22   57 1     
   59   22   58 1     
@<TRIPOS>SUBSTRUCTURE
      1 S1             1
@<TRIPOS>SET
LONE_PAIRS      STATIC     ATOMS    <user>   **** ""
11 48 49 50 51 52 53 54 55 56 57 58
DONOR_HYDROGENS      STATIC     ATOMS    <user>   **** ""
3 41 45 46
ATOM$BLUE        STATIC     ATOMS    COLORGROUP SYSTEM
11 48 49 50 51 52 53 54 55 56 57 58
ATOM$RED        STATIC     ATOMS    COLORGROUP SYSTEM
3 41 45 46
