AV-unprocessed.smi:837|AV-procd|sdf|3898|dock9
  -GOLD-   22720 1353D 1   1.00000     0.00000
 Structure written by MMmdl.
 50 52  0  0  0  0  0  0  0  0  2 V2000
  146.7058  133.3611  153.0565 C   0  0  0  0  0  0  0  0  0  0  0  0
  145.7235  132.8654  151.9738 C   0  0  2  0  0  0  0  0  0  0  0  0
  146.4271  132.7657  150.6028 C   0  0  0  0  0  0  0  0  0  0  0  0
  145.4960  132.1861  149.5268 C   0  0  0  0  0  0  0  0  0  0  0  0
  144.2014  133.0017  149.4039 C   0  0  0  0  0  0  0  0  0  0  0  0
  143.4822  133.1117  150.7600 C   0  0  0  0  0  0  0  0  0  0  0  0
  144.3885  133.6716  151.8853 C   0  0  1  0  0  0  0  0  0  0  0  0
  143.6731  133.6393  153.1493 N   0  0  0  0  0  0  0  0  0  0  0  0
  143.4762  134.8535  153.6762 C   0  0  0  0  0  0  0  0  0  0  0  0
  142.9080  135.0800  154.7437 O   0  0  0  0  0  0  0  0  0  0  0  0
  144.0139  135.7657  152.8479 N   0  0  0  0  0  0  0  0  0  0  0  0
  144.0391  137.2084  153.1198 C   0  0  0  0  0  0  0  0  0  0  0  0
  145.4277  137.7049  153.5445 C   0  0  0  0  0  0  0  0  0  0  0  0
  146.2336  136.9427  154.0797 O   0  0  0  0  0  0  0  0  0  0  0  0
  145.6931  138.9961  153.2971 N   0  0  0  0  0  0  0  0  0  0  0  0
  146.9346  139.6814  153.6457 C   0  0  0  0  0  0  0  0  0  0  0  0
  147.4522  139.3202  155.0537 C   0  0  0  0  0  0  0  0  0  0  0  0
  148.9325  138.9798  155.0901 C   0  0  0  0  0  0  0  0  0  0  0  0
  149.8150  139.6923  155.9329 C   0  0  0  0  0  0  0  0  0  0  0  0
  151.1860  139.3626  155.9359 C   0  0  0  0  0  0  0  0  0  0  0  0
  151.6441  138.3249  155.0989 C   0  0  0  0  0  0  0  0  0  0  0  0
  150.7703  137.6634  154.3085 N   0  3  0  0  0  0  0  0  0  0  0  0
  149.4502  137.9502  154.2752 C   0  0  0  0  0  0  0  0  0  0  0  0
  144.5734  135.1868  151.7764 C   0  0  0  0  0  0  0  0  0  0  0  0
  145.1568  135.7564  150.8540 O   0  0  0  0  0  0  0  0  0  0  0  0
  147.0762  134.3636  152.8403 H   0  0  0  0  0  0  0  0  0  0  0  0
  147.5727  132.7033  153.1228 H   0  0  0  0  0  0  0  0  0  0  0  0
  146.2432  133.3821  154.0433 H   0  0  0  0  0  0  0  0  0  0  0  0
  145.4535  131.8473  152.2591 H   0  0  0  0  0  0  0  0  0  0  0  0
  146.7878  133.7450  150.2878 H   0  0  0  0  0  0  0  0  0  0  0  0
  147.3116  132.1333  150.6870 H   0  0  0  0  0  0  0  0  0  0  0  0
  146.0101  132.1609  148.5656 H   0  0  0  0  0  0  0  0  0  0  0  0
  145.2532  131.1517  149.7735 H   0  0  0  0  0  0  0  0  0  0  0  0
  144.4274  133.9941  149.0137 H   0  0  0  0  0  0  0  0  0  0  0  0
  143.5397  132.5346  148.6741 H   0  0  0  0  0  0  0  0  0  0  0  0
  142.5903  133.7296  150.6441 H   0  0  0  0  0  0  0  0  0  0  0  0
  143.1225  132.1228  151.0482 H   0  0  0  0  0  0  0  0  0  0  0  0
  143.3671  132.7781  153.5785 H   0  0  0  0  0  0  0  0  0  0  0  0
  143.7248  137.7710  152.2391 H   0  0  0  0  0  0  0  0  0  0  0  0
  143.3109  137.4441  153.8983 H   0  0  0  0  0  0  0  0  0  0  0  0
  144.9787  139.5474  152.8438 H   0  0  0  0  0  0  0  0  0  0  0  0
  147.6997  139.4779  152.8951 H   0  0  0  0  0  0  0  0  0  0  0  0
  146.7354  140.7522  153.5984 H   0  0  0  0  0  0  0  0  0  0  0  0
  147.2629  140.1466  155.7397 H   0  0  0  0  0  0  0  0  0  0  0  0
  146.8859  138.4745  155.4453 H   0  0  0  0  0  0  0  0  0  0  0  0
  149.4490  140.4893  156.5642 H   0  0  0  0  0  0  0  0  0  0  0  0
  151.8759  139.9014  156.5692 H   0  0  0  0  0  0  0  0  0  0  0  0
  152.6748  138.0072  155.0376 H   0  0  0  0  0  0  0  0  0  0  0  0
  148.8537  137.3543  153.5999 H   0  0  0  0  0  0  0  0  0  0  0  0
  151.1227  136.9156  153.7102 H   0  0  0  0  0  0  0  0  0  0  0  0
  1  2  1  0  0  0  0
  1 26  1  0  0  0  0
  1 27  1  0  0  0  0
  1 28  1  0  0  0  0
  2  7  1  0  0  0  0
  2  3  1  0  0  0  0
  2 29  1  0  0  0  0
  3  4  1  0  0  0  0
  3 30  1  0  0  0  0
  3 31  1  0  0  0  0
  4  5  1  0  0  0  0
  4 32  1  0  0  0  0
  4 33  1  0  0  0  0
  5  6  1  0  0  0  0
  5 34  1  0  0  0  0
  5 35  1  0  0  0  0
  6  7  1  0  0  0  0
  6 36  1  0  0  0  0
  6 37  1  0  0  0  0
  7 24  1  0  0  0  0
  7  8  1  0  0  0  0
  8  9  1  0  0  0  0
  8 38  1  0  0  0  0
  9 10  2  0  0  0  0
  9 11  1  0  0  0  0
 11 12  1  0  0  0  0
 11 24  1  0  0  0  0
 12 13  1  0  0  0  0
 12 39  1  0  0  0  0
 12 40  1  0  0  0  0
 13 14  2  0  0  0  0
 13 15  1  0  0  0  0
 15 16  1  0  0  0  0
 15 41  1  0  0  0  0
 16 17  1  0  0  0  0
 16 42  1  0  0  0  0
 16 43  1  0  0  0  0
 17 18  1  0  0  0  0
 17 44  1  0  0  0  0
 17 45  1  0  0  0  0
 18 23  1  0  0  0  0
 18 19  2  0  0  0  0
 19 20  1  0  0  0  0
 19 46  1  0  0  0  0
 20 21  2  0  0  0  0
 20 47  1  0  0  0  0
 21 22  1  0  0  0  0
 21 48  1  0  0  0  0
 22 23  2  0  0  0  0
 22 50  1  0  0  0  0
 23 49  1  0  0  0  0
 24 25  2  0  0  0  0
M  CHG  1  22   1
M  END
> <s_m_source_file>
AV-unprocessed.smi

> <i_m_source_file_index>
837

> <i_lp_mmshare_version>
43012

> <i_f3d_flags>
0

> <s_epik_input>
W0NIMl0xW0NIMl1bQ0gyXVtDSDJdW0NAQEhdKFtDSDNdKVtDQEBdMTJbTkhdQyg9TylOKEMyPU8pW0NIMl1DKD1PKVtOSF1bQ0gyXVtDSDJdYzNbY0hdW2NIXVtjSF1uW2NIXTM=

> <s_epik_cmdline>
J2VwaWtfcHl0aG9uJywgJy1waCcsICc3LjAnLCAnLXRuJywgJzgnLCAnLW1hJywgJzIwMCcsICctbWV0YWxfYmluZGluZycsICctaW1hZScsICc8aW5maWxlLm1hZT4nLCAnLW9tYWUnLCAnPG91dGZpbGUubWFlPic=

> <r_lp_tautomer_probability>
1

> <r_epik_Ionization_Penalty>
2.28139

> <r_epik_Ionization_Penalty_Charging>
2.28135

> <r_epik_Ionization_Penalty_Neutral>
4.65525e-05

> <r_epik_State_Penalty>
2.43066

> <r_epik_Charging_Adjusted_Penalty>
4.71201

> <i_epik_Tot_Q>
1

> <i_epik_Tot_abs_Q>
1

> <r_epik_Metal_State_Penalty>
2.4646

> <b_epik_Metal_Only>
0

> <s_lp_Force_Field>
OPLS_2005

> <r_lp_Energy>
25.0324

> <b_lp_Chiralities_Consistent>
1

> <s_lp_Variant>
AV-unprocessed.smi:837-7

> <Gold.Version>
5.8.1

> <Gold.Id.Protein>
6NUR|6NUR_protein|mol2

> <Gold.PLP.Fitness>
50.7351

> <Gold.PLP.PLP>
-40.8196

> <Gold.PLP.part.hbond>
-3.6531

> <Gold.PLP.part.metal>
0.0000

> <Gold.PLP.part.buried>
0.2130

> <Gold.PLP.part.nonpolar>
-37.4548

> <Gold.PLP.part.repulsive>
0.5652

> <Gold.PLP.ligand.clash>
0.0000

> <Gold.PLP.ligand.torsion>
0.9842

> <Gold.PLP.Chemscore.Hbond>
3.9520

> <Gold.PLP.Chemscore.CHOScore>
0.0000

> <Gold.PLP.Chemscore.Metal>
0.0000

> <Gold.Chemscore.Hbonds>
donor molecule, donor type, donor heavy atom, donor atom, acceptor molecule, acceptor atom, score
      L1  H     8    38       P1 10957  1.00
      L1  H    15    41       P1 10175  1.00
      L1  H    22    50       P1  7949  0.12

> <Gold.PLP.Chemscore.Internal.Correction>
0.0279

> <Gold.Rescore>
     Score         DG    S(hbond)    S(metal)    S(lipo)     H(rot)  DE(clash)    DE(int)     intcor
     16.48     -18.98       2.47        0.00      87.92       1.96       0.21       2.29       ----

> <Gold.Chemscore.Fitness>
16.4829

> <Gold.Chemscore.DG>
-18.9835

> <Gold.Chemscore.ZeroCoef>
-5.4800

> <Gold.Chemscore.Hbond>
2.4685

> <Gold.Chemscore.Metal>
0.0000

> <Gold.Chemscore.Lipo>
87.9156

> <Gold.Chemscore.Internal_Hbond>
0.0000

> <Gold.Chemscore.DEClash>
0.2145

> <Gold.Chemscore.DEInternal>
2.2861

> <Gold.Chemscore.Rot>
1.9638

> <Gold.Chemscore.Internal.Correction>
   9.000000E+99

> <Gold.Chemscore.Hbonds>
donor molecule, donor type, donor heavy atom, donor atom, acceptor molecule, acceptor atom, score
      L1  H     8    38       P1 10957  0.74
      L1  H    15    41       P1 10175  1.00
      L1  H    22    50       P1  7949  0.05

> <Gold.Chemscore.Hbond.Weighted>
-8.2448

> <Gold.Chemscore.Metal.Weighted>
-0.0000

> <Gold.Chemscore.Lipo.Weighted>
-10.2861

> <Gold.Chemscore.Internal_Hbond.Weighted>
0.0000

> <Gold.Chemscore.DEClash.Weighted>
0.2145

> <Gold.Chemscore.DEInternal.Weighted>
2.2861

> <Gold.Chemscore.Rot.Weighted>
5.0274

> <Gold.Chemscore.Internal.Correction.Weighted>
   9.000000E+99

> <Gold.Protein.RotatedTorsions>
[ 6907 6896 6895 6894 ] final   70.17 input  -60.11 | X-H torsion
[ 7974 7965 7964 7962 ] final  -38.90 input  175.53 | X-H torsion
[ 8008 7997 7996 7995 ] final  150.77 input   59.86 | X-H torsion
[ 10167 10162 10161 10158 ] final  -96.09 input  -65.29 | X-H torsion
[ 10718 10713 10712 10709 ] final  139.50 input   66.30 | X-H torsion
[ 10763 10752 10751 10750 ] final  -97.87 input  -60.55 | X-H torsion
[ 11005 11000 10999 10996 ] final -109.95 input  -57.11 | X-H torsion

> <Gold.Protein.ActiveResidues>
 VAL166  LYS551  ARG553  GLY616  TRP617  ASP618  TYR619  PRO620  LYS621  CYS622 
 ASP623  PHE694  ASN695  SER759  ASP760  ASP761  ALA762  ILE779  LEU786  VAL792 
 PHE793  MET794  SER795  GLU796  ALA797  LYS798  CYS799  TRP800  GLU811  SER814 

> <Gold.Protein.RotatedAtoms>
  152.4732  134.4908  159.9694 H   0  0  0  0  0  0  0  0  0  0  0  0  # atno 6907 bound_to 6896
  151.4930  133.3515  159.2864 H   0  0  0  0  0  0  0  0  0  0  0  0  # atno 6908 bound_to 6896
  150.8755  134.8164  159.7248 H   0  0  0  0  0  0  0  0  0  0  0  0  # atno 6909 bound_to 6896
  146.0445  140.6565  142.9071 H   0  0  0  0  0  0  0  0  0  0  0  0  # atno 7974 bound_to 7965
  156.2702  140.2066  156.6070 H   0  0  0  0  0  0  0  0  0  0  0  0  # atno 8008 bound_to 7997
  154.6861  140.0535  157.0340 H   0  0  0  0  0  0  0  0  0  0  0  0  # atno 8009 bound_to 7997
  155.0931  140.3198  155.4571 H   0  0  0  0  0  0  0  0  0  0  0  0  # atno 8010 bound_to 7997
  140.2974  143.3183  152.0283 H   0  0  0  0  0  0  0  0  0  0  0  0  # atno 10167 bound_to 10162
  157.4137  131.1031  151.0427 H   0  0  0  0  0  0  0  0  0  0  0  0  # atno 10718 bound_to 10713
  154.7365  135.5030  153.9051 H   0  0  0  0  0  0  0  0  0  0  0  0  # atno 10763 bound_to 10752
  153.1001  135.6683  153.9698 H   0  0  0  0  0  0  0  0  0  0  0  0  # atno 10764 bound_to 10752
  153.9486  135.3060  155.3419 H   0  0  0  0  0  0  0  0  0  0  0  0  # atno 10765 bound_to 10752
  141.0819  133.9205  157.2270 H   0  0  0  0  0  0  0  0  0  0  0  0  # atno 11005 bound_to 11000
  144.7091  140.3968  143.7095 LP  0  0  0  0  0  0  0  0  0  0  0  0  # atno 17320 bound_to 7965
  145.6829  139.1622  143.2690 LP  0  0  0  0  0  0  0  0  0  0  0  0  # atno 17321 bound_to 7965
  139.4923  144.6480  151.6736 LP  0  0  0  0  0  0  0  0  0  0  0  0  # atno 17342 bound_to 10162
  140.5680  144.0157  150.6202 LP  0  0  0  0  0  0  0  0  0  0  0  0  # atno 17343 bound_to 10162
  157.1382  130.6132  149.5548 LP  0  0  0  0  0  0  0  0  0  0  0  0  # atno 17370 bound_to 10713
  155.9858  130.4890  150.7051 LP  0  0  0  0  0  0  0  0  0  0  0  0  # atno 17371 bound_to 10713
  139.9634  135.0148  156.9321 LP  0  0  0  0  0  0  0  0  0  0  0  0  # atno 17394 bound_to 11000
  140.5449  134.0684  155.7352 LP  0  0  0  0  0  0  0  0  0  0  0  0  # atno 17395 bound_to 11000

$$$$
