#       Name:                AV-unprocessed.smi:2005
#       Creating user name   scv26
#       Creation time:       Fri Mar 27 10:36:23 2020


#       File generated by GOLD software.
#

@<TRIPOS>MOLECULE
AV-unprocessed.smi:2005
    45    46     1
SMALL
NO_CHARGES


@<TRIPOS>ATOM
      1 ****        -5.9710  -1.7622   1.0709 C.3            1 S1                 0.0000
      2 ****        -5.7389  -0.2798   0.7434 C.3            1 S1                 0.0000
      3 ****        -6.8787   0.3426  -0.0763 C.3            1 S1                 0.0000
      4 ****        -4.3994  -0.0438   0.1183 C.2            1 S1                 0.0000
      5 ****        -4.0526  -0.5366  -1.0750 N.2            1 S1                 0.0000
      6 ****        -2.7613  -0.1808  -1.4345 N.2            1 S1                 0.0000
      7 ****        -2.1439   0.5647  -0.5073 C.2            1 S1                 0.0000
      8 ****        -0.8873   1.0132  -0.6626 N.pl3          1 S1                -1.0000
      9 ****         0.1435   0.3450  -0.0961 C.2            1 S1                 0.0000
     10 ****         0.0628  -0.6812   0.5832 O.2            1 S1                 0.0000
     11 ****         1.3414   0.9005  -0.3315 N.am           1 S1                 0.0000
     12 ****         2.6296   0.4070   0.1485 C.3            1 S1                 0.0000
     13 ****         3.6335   1.5716   0.2231 C.3            1 S1                 0.0000
     14 ****         5.0215   1.0924   0.6838 C.3            1 S1                 0.0000
     15 ****         5.5647  -0.0527  -0.1919 C.3            1 S1                 0.0000
     16 ****         5.9071   0.4373  -1.4735 O.3            1 S1                 0.0000
     17 ****         4.5472  -1.2024  -0.3183 C.3            1 S1                 0.0000
     18 ****         3.1615  -0.7102  -0.7715 C.3            1 S1                 0.0000
     19 ****        -3.1481   0.9088   0.9004 S.3            1 S1                 0.0000
     20 ****        -5.1869  -2.1459   1.7244 H              1 S1                 0.0000
     21 ****        -5.9792  -2.3721   0.1667 H              1 S1                 0.0000
     22 ****        -6.9248  -1.9078   1.5787 H              1 S1                 0.0000
     23 ****        -5.7279   0.2462   1.6989 H              1 S1                 0.0000
     24 ****        -6.7201   1.4121  -0.2194 H              1 S1                 0.0000
     25 ****        -7.8381   0.2151   0.4256 H              1 S1                 0.0000
     26 ****        -6.9555  -0.1182  -1.0618 H              1 S1                 0.0000
     27 ****         1.3578   1.7383  -0.8945 H              1 S1                 0.0000
     28 ****         2.5035   0.0061   1.1562 H              1 S1                 0.0000
     29 ****         3.7191   2.0499  -0.7539 H              1 S1                 0.0000
     30 ****         3.2662   2.3369   0.9079 H              1 S1                 0.0000
     31 ****         5.7228   1.9276   0.6930 H              1 S1                 0.0000
     32 ****         4.9491   0.7458   1.7154 H              1 S1                 0.0000
     33 ****         6.4821  -0.4373   0.2550 H              1 S1                 0.0000
     34 ****         6.2508  -0.2781  -1.9865 H              1 S1                 0.0000
     35 ****         4.9180  -1.9638  -1.0054 H              1 S1                 0.0000
     36 ****         4.4448  -1.6929   0.6505 H              1 S1                 0.0000
     37 ****         2.4657  -1.5497  -0.7850 H              1 S1                 0.0000
     38 ****         3.2209  -0.3456  -1.7981 H              1 S1                 0.0000
     39 ****        -4.6550  -1.0973  -1.6431 LP             1 S1                 0.0000
     40 ****        -2.3345  -0.4526  -2.2971 LP             1 S1                 0.0000
     41 ****        -0.7139   1.8406  -1.1967 LP             1 S1                 0.0000
     42 ****        -0.8302  -1.0956   0.7589 LP             1 S1                 0.0000
     43 ****         0.8903  -1.0989   0.9583 LP             1 S1                 0.0000
     44 ****         6.5997   1.1533  -1.3868 LP             1 S1                 0.0000
     45 ****         5.0943   0.8121  -1.9195 LP             1 S1                 0.0000
@<TRIPOS>BOND
    1    1    2 1     
    2    1   20 1     
    3    1   21 1     
    4    1   22 1     
    5    2    3 1     
    6    2    4 1     
    7    2   23 1     
    8    3   24 1     
    9    3   25 1     
   10    3   26 1     
   11    4   19 1     
   12    4    5 2     
   13    5    6 1     
   14    6    7 2     
   15    7    8 1     
   16    7   19 1     
   17    8    9 1     
   18    9   10 2     
   19    9   11 am    
   20   11   12 1     
   21   11   27 1     
   22   12   18 1     
   23   12   13 1     
   24   12   28 1     
   25   13   14 1     
   26   13   29 1     
   27   13   30 1     
   28   14   15 1     
   29   14   31 1     
   30   14   32 1     
   31   15   16 1     
   32   15   17 1     
   33   15   33 1     
   34   16   34 1     
   35   17   18 1     
   36   17   35 1     
   37   17   36 1     
   38   18   37 1     
   39   18   38 1     
   40    5   39 1     
   41    6   40 1     
   42    8   41 1     
   43   10   42 1     
   44   10   43 1     
   45   16   44 1     
   46   16   45 1     
@<TRIPOS>SUBSTRUCTURE
      1 S1             1
@<TRIPOS>SET
LONE_PAIRS      STATIC     ATOMS    <user>   **** ""
7 39 40 41 42 43 44 45
DONOR_HYDROGENS      STATIC     ATOMS    <user>   **** ""
2 27 34
ATOM$BLUE        STATIC     ATOMS    COLORGROUP SYSTEM
7 39 40 41 42 43 44 45
ATOM$RED        STATIC     ATOMS    COLORGROUP SYSTEM
2 27 34
