AV-unprocessed.smi:279|AV-procd|sdf|2096|dock1
  -GOLD-   2262021373D 1   1.00000     0.00000
 Structure written by MMmdl.
 50 54  0  0  0  0  0  0  0  0  1 V2000
  157.0059  137.6208  162.1734 O   0  0  0  0  0  0  0  0  0  0  0  0
  155.6668  138.2221  162.0834 S   0  0  0  0  0  0  0  0  0  0  0  0
  154.4592  137.4148  162.3153 O   0  0  0  0  0  0  0  0  0  0  0  0
  155.5964  139.7135  163.1356 C   0  0  0  0  0  0  0  0  0  0  0  0
  154.6966  140.6826  162.3632 C   0  0  0  0  0  0  0  0  0  0  0  0
  155.0213  140.5691  160.8558 C   0  0  2  0  0  0  0  0  0  0  0  0
  153.8250  140.8341  159.9279 C   0  0  0  0  0  0  0  0  0  0  0  0
  153.8347  139.7653  158.9390 N   0  0  0  0  0  0  0  0  0  0  0  0
  152.7775  139.6125  158.0946 C   0  0  0  0  0  0  0  0  0  0  0  0
  152.4963  138.3672  157.6244 N   0  0  0  0  0  0  0  0  0  0  0  0
  151.4677  138.1648  156.7971 C   0  0  0  0  0  0  0  0  0  0  0  0
  150.6042  139.0550  156.3087 N   0  0  0  0  0  0  0  0  0  0  0  0
  150.8848  140.3116  156.7564 C   0  0  0  0  0  0  0  0  0  0  0  0
  151.9386  140.6775  157.6449 C   0  0  0  0  0  0  0  0  0  0  0  0
  151.8947  142.0494  157.8716 N   0  0  0  0  0  0  0  0  0  0  0  0
  150.8745  142.4642  157.1729 C   0  0  0  0  0  0  0  0  0  0  0  0
  150.2260  141.4899  156.4508 N   0  0  0  0  0  0  0  0  0  0  0  0
  149.0560  141.6615  155.6403 C   0  0  0  0  0  0  0  0  0  0  0  0
  147.8498  140.7261  155.7740 C   0  0  0  0  0  0  0  0  0  0  0  0
  147.5650  140.8996  154.2644 C   0  0  0  0  0  0  0  0  0  0  0  0
  147.1020  139.6441  153.4996 C   0  0  0  0  0  0  0  0  0  0  0  0
  145.8140  139.2122  153.8909 O   0  0  0  0  0  0  0  0  0  0  0  0
  146.5632  142.0244  153.9397 C   0  0  0  0  0  0  0  0  0  0  0  0
  145.2939  141.7683  154.5057 O   0  0  0  0  0  0  0  0  0  0  0  0
  149.0581  141.2872  154.1550 C   0  0  0  0  0  0  0  0  0  0  0  0
  154.4484  138.5919  159.5452 C   0  0  0  0  0  0  0  0  0  0  0  0
  155.5010  139.1512  160.5053 C   0  0  2  0  0  0  0  0  0  0  0  0
  155.8283  141.2633  160.6167 H   0  0  0  0  0  0  0  0  0  0  0  0
  156.4773  139.1992  160.0215 H   0  0  0  0  0  0  0  0  0  0  0  0
  155.2184  139.4625  164.1266 H   0  0  0  0  0  0  0  0  0  0  0  0
  156.6064  140.1128  163.2308 H   0  0  0  0  0  0  0  0  0  0  0  0
  153.6610  140.3891  162.5389 H   0  0  0  0  0  0  0  0  0  0  0  0
  154.8001  141.7065  162.7228 H   0  0  0  0  0  0  0  0  0  0  0  0
  152.8786  140.8190  160.4704 H   0  0  0  0  0  0  0  0  0  0  0  0
  153.9312  141.8096  159.4539 H   0  0  0  0  0  0  0  0  0  0  0  0
  151.3160  137.1437  156.4797 H   0  0  0  0  0  0  0  0  0  0  0  0
  150.5698  143.5007  157.1623 H   0  0  0  0  0  0  0  0  0  0  0  0
  148.7524  142.7012  155.7729 H   0  0  0  0  0  0  0  0  0  0  0  0
  148.1438  139.7140  156.0561 H   0  0  0  0  0  0  0  0  0  0  0  0
  147.0656  141.0979  156.4342 H   0  0  0  0  0  0  0  0  0  0  0  0
  147.0792  139.8317  152.4257 H   0  0  0  0  0  0  0  0  0  0  0  0
  147.7880  138.8117  153.6587 H   0  0  0  0  0  0  0  0  0  0  0  0
  145.1720  139.6837  153.3822 H   0  0  0  0  0  0  0  0  0  0  0  0
  146.9221  142.9868  154.3060 H   0  0  0  0  0  0  0  0  0  0  0  0
  146.4305  142.1401  152.8639 H   0  0  0  0  0  0  0  0  0  0  0  0
  144.7488  141.3623  153.8490 H   0  0  0  0  0  0  0  0  0  0  0  0
  149.2728  142.1191  153.4838 H   0  0  0  0  0  0  0  0  0  0  0  0
  149.7126  140.4403  153.9421 H   0  0  0  0  0  0  0  0  0  0  0  0
  153.6781  138.0268  160.0698 H   0  0  0  0  0  0  0  0  0  0  0  0
  154.9034  137.9396  158.7990 H   0  0  0  0  0  0  0  0  0  0  0  0
  1  2  2  0  0  0  0
  2 27  1  0  0  0  0
  2  3  2  0  0  0  0
  2  4  1  0  0  0  0
  4  5  1  0  0  0  0
  4 30  1  0  0  0  0
  4 31  1  0  0  0  0
  5  6  1  0  0  0  0
  5 32  1  0  0  0  0
  5 33  1  0  0  0  0
  6 28  1  0  0  0  0
  6 27  1  0  0  0  0
  6  7  1  0  0  0  0
  7  8  1  0  0  0  0
  7 34  1  0  0  0  0
  7 35  1  0  0  0  0
  8  9  1  0  0  0  0
  8 26  1  0  0  0  0
  9 14  1  0  0  0  0
  9 10  2  0  0  0  0
 10 11  1  0  0  0  0
 11 12  2  0  0  0  0
 11 36  1  0  0  0  0
 12 13  1  0  0  0  0
 13 17  1  0  0  0  0
 13 14  2  0  0  0  0
 14 15  1  0  0  0  0
 15 16  2  0  0  0  0
 16 17  1  0  0  0  0
 16 37  1  0  0  0  0
 17 18  1  0  0  0  0
 18 25  1  0  0  0  0
 18 19  1  0  0  0  0
 18 38  1  0  0  0  0
 19 20  1  0  0  0  0
 19 39  1  0  0  0  0
 19 40  1  0  0  0  0
 20 21  1  0  0  0  0
 20 23  1  0  0  0  0
 20 25  1  0  0  0  0
 21 22  1  0  0  0  0
 21 41  1  0  0  0  0
 21 42  1  0  0  0  0
 22 43  1  0  0  0  0
 23 24  1  0  0  0  0
 23 44  1  0  0  0  0
 23 45  1  0  0  0  0
 24 46  1  0  0  0  0
 25 47  1  0  0  0  0
 25 48  1  0  0  0  0
 26 27  1  0  0  0  0
 26 49  1  0  0  0  0
 26 50  1  0  0  0  0
 27 29  1  0  0  0  0
M  END
> <s_m_source_file>
AV-unprocessed.smi

> <i_m_source_file_index>
279

> <i_lp_mmshare_version>
43012

> <i_f3d_flags>
0

> <s_epik_input>
W0NIMl0xW0NIMl1TKD1PKSg9TylbQ0BASF0oW0NAQEhdMTIpW0NIMl1OKFtDSDJdMiljKG5bY0hdbjMpYyhjMzQpbltjSF1uNFtDSF0oW0NIMl01KVtDSDJdQzUoW0NIMl1bT0hdKVtDSDJdW09IXQ==

> <s_epik_cmdline>
J2VwaWtfcHl0aG9uJywgJy1waCcsICc3LjAnLCAnLXRuJywgJzgnLCAnLW1hJywgJzIwMCcsICctbWV0YWxfYmluZGluZycsICctaW1hZScsICc8aW5maWxlLm1hZT4nLCAnLW9tYWUnLCAnPG91dGZpbGUubWFlPic=

> <r_lp_tautomer_probability>
1

> <r_epik_Ionization_Penalty>
0.000990948

> <r_epik_Ionization_Penalty_Charging>
0

> <r_epik_Ionization_Penalty_Neutral>
0.000990948

> <r_epik_State_Penalty>
0.000515994

> <r_epik_Charging_Adjusted_Penalty>
0.000515994

> <i_epik_Tot_Q>
0

> <i_epik_Tot_abs_Q>
0

> <r_epik_Metal_State_Penalty>
-0

> <b_epik_Metal_Only>
0

> <s_lp_Force_Field>
OPLS_2005

> <r_lp_Energy>
55.7342

> <b_lp_Chiralities_Consistent>
1

> <s_lp_Variant>
AV-unprocessed.smi:279-2

> <Gold.Version>
5.8.1

> <Gold.Id.Protein>
6NUR|6NUR_protein|mol2

> <Gold.PLP.Fitness>
45.0176

> <Gold.PLP.PLP>
-35.4821

> <Gold.PLP.part.hbond>
-3.0000

> <Gold.PLP.part.metal>
0.0000

> <Gold.PLP.part.buried>
0.4181

> <Gold.PLP.part.nonpolar>
-32.2898

> <Gold.PLP.part.repulsive>
0.0231

> <Gold.PLP.ligand.clash>
0.0000

> <Gold.PLP.ligand.torsion>
0.8676

> <Gold.PLP.Chemscore.Hbond>
2.4973

> <Gold.PLP.Chemscore.CHOScore>
1.0000

> <Gold.PLP.Chemscore.Metal>
0.0000

> <Gold.Chemscore.Hbonds>
donor molecule, donor type, donor heavy atom, donor atom, acceptor molecule, acceptor atom, score
      L1  H    22    43       P1 10175  1.00
      L1  H    24    46       P1 10175  1.00
      P1  H  7997  8010       L1     8  0.45
      L1  C    16    37       P1  8028  0.95

> <Gold.PLP.Chemscore.Internal.Correction>
0.7789

> <Gold.Rescore>
     Score         DG    S(hbond)    S(metal)    S(lipo)     H(rot)  DE(clash)    DE(int)     intcor
     12.34     -13.41       1.90        0.00      85.66       3.29       0.20       0.87       ----

> <Gold.Chemscore.Fitness>
12.3433

> <Gold.Chemscore.DG>
-13.4092

> <Gold.Chemscore.ZeroCoef>
-5.4800

> <Gold.Chemscore.Hbond>
1.8985

> <Gold.Chemscore.Metal>
0.0000

> <Gold.Chemscore.Lipo>
85.6582

> <Gold.Chemscore.Internal_Hbond>
0.0000

> <Gold.Chemscore.DEClash>
0.2000

> <Gold.Chemscore.DEInternal>
0.8659

> <Gold.Chemscore.Rot>
3.2944

> <Gold.Chemscore.Internal.Correction>
   9.000000E+99

> <Gold.Chemscore.Hbonds>
donor molecule, donor type, donor heavy atom, donor atom, acceptor molecule, acceptor atom, score
      L1  H    22    43       P1 10175  1.00
      L1  H    24    46       P1 10175  0.35

> <Gold.Chemscore.Hbond.Weighted>
-6.3409

> <Gold.Chemscore.Metal.Weighted>
-0.0000

> <Gold.Chemscore.Lipo.Weighted>
-10.0220

> <Gold.Chemscore.Internal_Hbond.Weighted>
0.0000

> <Gold.Chemscore.DEClash.Weighted>
0.2000

> <Gold.Chemscore.DEInternal.Weighted>
0.8659

> <Gold.Chemscore.Rot.Weighted>
8.4337

> <Gold.Chemscore.Internal.Correction.Weighted>
   9.000000E+99

> <Gold.Protein.RotatedTorsions>
[ 6907 6896 6895 6894 ] final  -80.76 input  -60.11 | X-H torsion
[ 7974 7965 7964 7962 ] final   78.04 input  175.53 | X-H torsion
[ 8008 7997 7996 7995 ] final    2.99 input   59.86 | X-H torsion
[ 10167 10162 10161 10158 ] final  -63.27 input  -65.29 | X-H torsion
[ 10718 10713 10712 10709 ] final -179.78 input   66.30 | X-H torsion
[ 10763 10752 10751 10750 ] final   46.16 input  -60.55 | X-H torsion
[ 11005 11000 10999 10996 ] final   77.69 input  -57.11 | X-H torsion

> <Gold.Protein.ActiveResidues>
 VAL166  LYS551  ARG553  GLY616  TRP617  ASP618  TYR619  PRO620  LYS621  CYS622 
 ASP623  PHE694  ASN695  SER759  ASP760  ASP761  ALA762  ILE779  LEU786  VAL792 
 PHE793  MET794  SER795  GLU796  ALA797  LYS798  CYS799  TRP800  GLU811  SER814 

> <Gold.Protein.RotatedAtoms>
  150.6924  134.3921  159.5080 H   0  0  0  0  0  0  0  0  0  0  0  0  # atno 6907 bound_to 6896
  152.1708  134.8833  160.0543 H   0  0  0  0  0  0  0  0  0  0  0  0  # atno 6908 bound_to 6896
  151.9860  133.3739  159.4163 H   0  0  0  0  0  0  0  0  0  0  0  0  # atno 6909 bound_to 6896
  145.6822  139.2527  143.1807 H   0  0  0  0  0  0  0  0  0  0  0  0  # atno 7974 bound_to 7965
  154.6983  140.2667  155.6745 H   0  0  0  0  0  0  0  0  0  0  0  0  # atno 8008 bound_to 7997
  156.2756  140.2777  156.1508 H   0  0  0  0  0  0  0  0  0  0  0  0  # atno 8009 bound_to 7997
  155.0801  140.0372  157.2626 H   0  0  0  0  0  0  0  0  0  0  0  0  # atno 8010 bound_to 7997
  140.5882  143.2337  151.6197 H   0  0  0  0  0  0  0  0  0  0  0  0  # atno 10167 bound_to 10162
  156.8642  130.9762  151.3080 H   0  0  0  0  0  0  0  0  0  0  0  0  # atno 10718 bound_to 10713
  152.9814  135.6017  154.3555 H   0  0  0  0  0  0  0  0  0  0  0  0  # atno 10763 bound_to 10752
  154.3241  135.2769  155.2507 H   0  0  0  0  0  0  0  0  0  0  0  0  # atno 10764 bound_to 10752
  154.4660  135.5954  153.6344 H   0  0  0  0  0  0  0  0  0  0  0  0  # atno 10765 bound_to 10752
  139.9244  134.7703  156.1554 H   0  0  0  0  0  0  0  0  0  0  0  0  # atno 11005 bound_to 11000
  146.0954  140.7606  142.9575 LP  0  0  0  0  0  0  0  0  0  0  0  0  # atno 17320 bound_to 7965
  144.7022  140.3703  143.7146 LP  0  0  0  0  0  0  0  0  0  0  0  0  # atno 17321 bound_to 7965
  139.5211  144.3204  152.0915 LP  0  0  0  0  0  0  0  0  0  0  0  0  # atno 17342 bound_to 10162
  140.2364  144.4315  150.6278 LP  0  0  0  0  0  0  0  0  0  0  0  0  # atno 17343 bound_to 10162
  157.6233  130.8672  149.9145 LP  0  0  0  0  0  0  0  0  0  0  0  0  # atno 17370 bound_to 10713
  156.0760  130.3679  150.0676 LP  0  0  0  0  0  0  0  0  0  0  0  0  # atno 17371 bound_to 10713
  141.0790  133.6762  156.2296 LP  0  0  0  0  0  0  0  0  0  0  0  0  # atno 17394 bound_to 11000
  140.6380  134.5195  157.5566 LP  0  0  0  0  0  0  0  0  0  0  0  0  # atno 17395 bound_to 11000

$$$$
