AV-unprocessed.smi:3330|AV-procd|sdf|12806|dock6
  -GOLD-   2272019173D 1   1.00000     0.00000
 Structure written by MMmdl.
 38 39  0  0  0  0  0  0  0  0  1 V2000
  145.1411  137.4338  152.6355 C   0  0  0  0  0  0  0  0  0  0  0  0
  145.5659  136.2397  151.7529 C   0  0  1  0  0  0  0  0  0  0  0  0
  146.4678  135.3865  152.5192 N   0  0  0  0  0  0  0  0  0  0  0  0
  145.9868  135.1606  153.8753 C   0  0  0  0  0  0  0  0  0  0  0  0
  146.0635  133.6634  154.2233 C   0  0  0  0  0  0  0  0  0  0  0  0
  147.3214  133.0576  153.7709 N   0  0  0  0  0  0  0  0  0  0  0  0
  148.5362  133.4248  154.2005 C   0  0  0  0  0  0  0  0  0  0  0  0
  148.8088  134.2912  155.0309 O   0  0  0  0  0  0  0  0  0  0  0  0
  149.5721  132.5876  153.4823 C   0  0  0  0  0  0  0  0  0  0  0  0
  148.6947  131.7817  152.6611 N   0  0  0  0  0  0  0  0  0  0  0  0
  147.4026  132.0798  152.8495 C   0  0  0  0  0  0  0  0  0  0  0  0
  146.4606  131.5429  152.2684 O   0  0  0  0  0  0  0  0  0  0  0  0
  144.3691  135.3754  151.2721 C   0  0  2  0  0  0  0  0  0  0  0  0
  143.3717  135.0666  152.4061 C   0  0  0  0  0  0  0  0  0  0  0  0
  144.8051  134.1367  150.6378 N   0  0  0  0  0  0  0  0  0  0  0  0
  144.0293  133.0754  150.2181 C   0  0  0  0  0  0  0  0  0  0  0  0
  144.8678  132.1450  149.6745 C   0  0  0  0  0  0  0  0  0  0  0  0
  146.1562  132.7330  149.8073 C   0  0  0  0  0  0  0  0  0  0  0  0
  146.1166  133.9236  150.3831 N   0  0  0  0  0  0  0  0  0  0  0  0
  144.5095  138.1327  152.0877 H   0  0  0  0  0  0  0  0  0  0  0  0
  145.9968  138.0059  152.9922 H   0  0  0  0  0  0  0  0  0  0  0  0
  144.5823  137.0979  153.5097 H   0  0  0  0  0  0  0  0  0  0  0  0
  146.0866  136.6173  150.8715 H   0  0  0  0  0  0  0  0  0  0  0  0
  147.3776  135.8228  152.5687 H   0  0  0  0  0  0  0  0  0  0  0  0
  146.6133  135.7256  154.5662 H   0  0  0  0  0  0  0  0  0  0  0  0
  144.9673  135.5243  153.9996 H   0  0  0  0  0  0  0  0  0  0  0  0
  145.9190  133.5138  155.2949 H   0  0  0  0  0  0  0  0  0  0  0  0
  145.2326  133.1425  153.7449 H   0  0  0  0  0  0  0  0  0  0  0  0
  150.2378  133.2027  152.8762 H   0  0  0  0  0  0  0  0  0  0  0  0
  150.1488  131.9759  154.1768 H   0  0  0  0  0  0  0  0  0  0  0  0
  149.0326  131.0803  152.0181 H   0  0  0  0  0  0  0  0  0  0  0  0
  143.8317  135.9382  150.5067 H   0  0  0  0  0  0  0  0  0  0  0  0
  142.9323  135.9776  152.8123 H   0  0  0  0  0  0  0  0  0  0  0  0
  143.8520  134.5371  153.2296 H   0  0  0  0  0  0  0  0  0  0  0  0
  142.5511  134.4455  152.0456 H   0  0  0  0  0  0  0  0  0  0  0  0
  142.9557  133.0718  150.3376 H   0  0  0  0  0  0  0  0  0  0  0  0
  144.6011  131.1902  149.2461 H   0  0  0  0  0  0  0  0  0  0  0  0
  147.1125  132.3336  149.5036 H   0  0  0  0  0  0  0  0  0  0  0  0
  1  2  1  0  0  0  0
  1 20  1  0  0  0  0
  1 21  1  0  0  0  0
  1 22  1  0  0  0  0
  2  3  1  0  0  0  0
  2 13  1  0  0  0  0
  2 23  1  0  0  0  0
  3  4  1  0  0  0  0
  3 24  1  0  0  0  0
  4  5  1  0  0  0  0
  4 25  1  0  0  0  0
  4 26  1  0  0  0  0
  5  6  1  0  0  0  0
  5 27  1  0  0  0  0
  5 28  1  0  0  0  0
  6 11  1  0  0  0  0
  6  7  1  0  0  0  0
  7  8  2  0  0  0  0
  7  9  1  0  0  0  0
  9 10  1  0  0  0  0
  9 29  1  0  0  0  0
  9 30  1  0  0  0  0
 10 11  1  0  0  0  0
 10 31  1  0  0  0  0
 11 12  2  0  0  0  0
 13 14  1  0  0  0  0
 13 15  1  0  0  0  0
 13 32  1  0  0  0  0
 14 33  1  0  0  0  0
 14 34  1  0  0  0  0
 14 35  1  0  0  0  0
 15 19  1  0  0  0  0
 15 16  1  0  0  0  0
 16 17  2  0  0  0  0
 16 36  1  0  0  0  0
 17 18  1  0  0  0  0
 17 37  1  0  0  0  0
 18 19  2  0  0  0  0
 18 38  1  0  0  0  0
M  END
> <s_m_source_file>
AV-unprocessed.smi

> <i_m_source_file_index>
3330

> <i_lp_mmshare_version>
43012

> <i_f3d_flags>
0

> <s_epik_input>
bjFbY0hdW2NIXVtjSF1uMVtDQEBIXShbQ0gzXSlbQ0BIXShbQ0gzXSlbTkhdW0NIMl1bQ0gyXU4yQyg9TylbQ0gyXVtOSF1DMj1P

> <s_epik_cmdline>
J2VwaWtfcHl0aG9uJywgJy1waCcsICc3LjAnLCAnLXRuJywgJzgnLCAnLW1hJywgJzIwMCcsICctbWV0YWxfYmluZGluZycsICctaW1hZScsICc8aW5maWxlLm1hZT4nLCAnLW9tYWUnLCAnPG91dGZpbGUubWFlPic=

> <r_lp_tautomer_probability>
1

> <r_epik_Ionization_Penalty>
2.2997

> <r_epik_Ionization_Penalty_Charging>
0

> <r_epik_Ionization_Penalty_Neutral>
2.2997

> <r_epik_State_Penalty>
2.44917

> <r_epik_Charging_Adjusted_Penalty>
2.44917

> <i_epik_Tot_Q>
0

> <i_epik_Tot_abs_Q>
0

> <r_epik_Metal_State_Penalty>
2.52438

> <b_epik_Metal_Only>
0

> <s_lp_Force_Field>
OPLS_2005

> <r_lp_Energy>
29.8527

> <b_lp_Chiralities_Consistent>
1

> <s_lp_Variant>
AV-unprocessed.smi:3330-6

> <Gold.Version>
5.8.1

> <Gold.Id.Protein>
6NUR|6NUR_protein|mol2

> <Gold.PLP.Fitness>
39.0740

> <Gold.PLP.PLP>
-30.6621

> <Gold.PLP.part.hbond>
-2.0000

> <Gold.PLP.part.metal>
0.0000

> <Gold.PLP.part.buried>
-5.6840

> <Gold.PLP.part.nonpolar>
-22.5841

> <Gold.PLP.part.repulsive>
0.9891

> <Gold.PLP.ligand.clash>
0.9433

> <Gold.PLP.ligand.torsion>
0.9239

> <Gold.PLP.Chemscore.Hbond>
1.6720

> <Gold.PLP.Chemscore.CHOScore>
2.0000

> <Gold.PLP.Chemscore.Metal>
0.0000

> <Gold.Chemscore.Hbonds>
donor molecule, donor type, donor heavy atom, donor atom, acceptor molecule, acceptor atom, score
      L1  H     3    24       P1  7948  1.00
      L1  H    10    31       P1 10747  0.74
      L1  C    16    36       P1 10186  1.00
      L1  C    18    38       P1 10747  1.00

> <Gold.PLP.Chemscore.Internal.Correction>
0.1870

> <Gold.Rescore>
     Score         DG    S(hbond)    S(metal)    S(lipo)     H(rot)  DE(clash)    DE(int)     intcor
      8.20     -10.90       1.47        0.00      61.05       2.60       0.12       2.58       ----

> <Gold.Chemscore.Fitness>
8.1951

> <Gold.Chemscore.DG>
-10.8980

> <Gold.Chemscore.ZeroCoef>
-5.4800

> <Gold.Chemscore.Hbond>
1.4727

> <Gold.Chemscore.Metal>
0.0000

> <Gold.Chemscore.Lipo>
61.0493

> <Gold.Chemscore.Internal_Hbond>
0.0000

> <Gold.Chemscore.DEClash>
0.1220

> <Gold.Chemscore.DEInternal>
2.5809

> <Gold.Chemscore.Rot>
2.5952

> <Gold.Chemscore.Internal.Correction>
   9.000000E+99

> <Gold.Chemscore.Hbonds>
donor molecule, donor type, donor heavy atom, donor atom, acceptor molecule, acceptor atom, score
      L1  H     3    24       P1  7948  0.94
      L1  H    10    31       P1 10747  0.37

> <Gold.Chemscore.Hbond.Weighted>
-4.9189

> <Gold.Chemscore.Metal.Weighted>
-0.0000

> <Gold.Chemscore.Lipo.Weighted>
-7.1428

> <Gold.Chemscore.Internal_Hbond.Weighted>
0.0000

> <Gold.Chemscore.DEClash.Weighted>
0.1220

> <Gold.Chemscore.DEInternal.Weighted>
2.5809

> <Gold.Chemscore.Rot.Weighted>
6.6437

> <Gold.Chemscore.Internal.Correction.Weighted>
   9.000000E+99

> <Gold.Protein.RotatedTorsions>
[ 6907 6896 6895 6894 ] final  -37.66 input  -60.11 | X-H torsion
[ 7974 7965 7964 7962 ] final   90.93 input  175.53 | X-H torsion
[ 8008 7997 7996 7995 ] final -132.39 input   59.86 | X-H torsion
[ 10167 10162 10161 10158 ] final  129.61 input  -65.29 | X-H torsion
[ 10718 10713 10712 10709 ] final -177.39 input   66.30 | X-H torsion
[ 10763 10752 10751 10750 ] final  -73.69 input  -60.55 | X-H torsion
[ 11005 11000 10999 10996 ] final -178.45 input  -57.11 | X-H torsion

> <Gold.Protein.ActiveResidues>
 VAL166  LYS551  ARG553  GLY616  TRP617  ASP618  TYR619  PRO620  LYS621  CYS622 
 ASP623  PHE694  ASN695  SER759  ASP760  ASP761  ALA762  ILE779  LEU786  VAL792 
 PHE793  MET794  SER795  GLU796  ALA797  LYS798  CYS799  TRP800  GLU811  SER814 

> <Gold.Protein.RotatedAtoms>
  151.0119  134.9403  159.8011 H   0  0  0  0  0  0  0  0  0  0  0  0  # atno 6907 bound_to 6896
  152.5304  134.3017  159.9091 H   0  0  0  0  0  0  0  0  0  0  0  0  # atno 6908 bound_to 6896
  151.3023  133.4075  159.2675 H   0  0  0  0  0  0  0  0  0  0  0  0  # atno 6909 bound_to 6896
  145.5124  139.2277  143.2717 H   0  0  0  0  0  0  0  0  0  0  0  0  # atno 7974 bound_to 7965
  155.3281  140.0465  157.3041 H   0  0  0  0  0  0  0  0  0  0  0  0  # atno 8008 bound_to 7997
  154.5343  140.2267  155.8715 H   0  0  0  0  0  0  0  0  0  0  0  0  # atno 8009 bound_to 7997
  156.1819  140.3072  155.9172 H   0  0  0  0  0  0  0  0  0  0  0  0  # atno 8010 bound_to 7997
  139.5469  144.6781  151.4445 H   0  0  0  0  0  0  0  0  0  0  0  0  # atno 10167 bound_to 10162
  156.8287  130.9645  151.3108 H   0  0  0  0  0  0  0  0  0  0  0  0  # atno 10718 bound_to 10713
  154.4630  135.5889  153.6268 H   0  0  0  0  0  0  0  0  0  0  0  0  # atno 10763 bound_to 10752
  152.9825  135.6048  154.3463 H   0  0  0  0  0  0  0  0  0  0  0  0  # atno 10764 bound_to 10752
  154.3336  135.2842  155.2438 H   0  0  0  0  0  0  0  0  0  0  0  0  # atno 10765 bound_to 10752
  140.4297  134.6530  157.4705 H   0  0  0  0  0  0  0  0  0  0  0  0  # atno 11005 bound_to 11000
  146.2158  140.5931  142.9039 LP  0  0  0  0  0  0  0  0  0  0  0  0  # atno 17320 bound_to 7965
  144.7720  140.5658  143.6663 LP  0  0  0  0  0  0  0  0  0  0  0  0  # atno 17321 bound_to 7965
  140.6720  143.8273  150.7011 LP  0  0  0  0  0  0  0  0  0  0  0  0  # atno 17342 bound_to 10162
  140.1700  143.4203  152.2008 LP  0  0  0  0  0  0  0  0  0  0  0  0  # atno 17343 bound_to 10162
  157.6418  130.8812  149.9463 LP  0  0  0  0  0  0  0  0  0  0  0  0  # atno 17370 bound_to 10713
  156.0946  130.3660  150.0330 LP  0  0  0  0  0  0  0  0  0  0  0  0  # atno 17371 bound_to 10713
  140.0143  134.6643  155.9333 LP  0  0  0  0  0  0  0  0  0  0  0  0  # atno 17394 bound_to 11000
  141.1751  133.6540  156.4796 LP  0  0  0  0  0  0  0  0  0  0  0  0  # atno 17395 bound_to 11000

$$$$
