AV-unprocessed.smi:1980|AV-procd|sdf|8018|dock3
  -GOLD-   2272010213D 1   1.00000     0.00000
 Structure written by MMmdl.
 44 45  0  0  0  0  0  0  0  0  1 V2000
  148.5995  135.1814  156.8765 C   0  0  0  0  0  0  0  0  0  0  0  0
  148.7310  135.4515  155.3708 C   0  0  1  0  0  0  0  0  0  0  0  0
  147.6251  134.8245  154.7253 O   0  0  0  0  0  0  0  0  0  0  0  0
  147.5021  133.4212  154.9371 C   0  0  0  0  0  0  0  0  0  0  0  0
  148.2446  132.6726  153.8242 C   0  0  0  0  0  0  0  0  0  0  0  0
  147.7264  133.0135  152.6448 F   0  0  0  0  0  0  0  0  0  0  0  0
  149.5374  132.9970  153.8330 F   0  0  0  0  0  0  0  0  0  0  0  0
  148.1111  131.3565  153.9858 F   0  0  0  0  0  0  0  0  0  0  0  0
  148.7400  136.9594  155.0747 C   0  0  0  0  0  0  0  0  0  0  0  0
  147.7635  137.6535  155.3580 O   0  0  0  0  0  0  0  0  0  0  0  0
  149.8400  137.4443  154.4781 N   0  0  0  0  0  0  0  0  0  0  0  0
  150.0173  138.8300  154.0575 C   0  0  0  0  0  0  0  0  0  0  0  0
  150.5624  139.7365  155.1509 C   0  0  0  0  0  0  0  0  0  0  0  0
  151.6208  139.3326  155.9906 C   0  0  0  0  0  0  0  0  0  0  0  0
  152.0801  140.2167  156.9851 C   0  0  0  0  0  0  0  0  0  0  0  0
  151.4640  141.4836  157.1214 C   0  0  0  0  0  0  0  0  0  0  0  0
  151.9072  142.3858  158.1130 N   0  0  0  0  0  0  0  0  0  0  0  0
  151.4207  143.7633  158.0532 C   0  0  0  0  0  0  0  0  0  0  0  0
  152.2200  144.6563  159.0169 C   0  0  0  0  0  0  0  0  0  0  0  0
  152.1653  144.1115  160.3312 O   0  0  0  0  0  0  0  0  0  0  0  0
  152.7461  142.8130  160.3896 C   0  0  0  0  0  0  0  0  0  0  0  0
  151.9704  141.8525  159.4716 C   0  0  0  0  0  0  0  0  0  0  0  0
  150.4455  141.8667  156.3121 N   0  0  0  0  0  0  0  0  0  0  0  0
  150.0092  141.0155  155.3601 C   0  0  0  0  0  0  0  0  0  0  0  0
  149.4161  135.6408  157.4346 H   0  0  0  0  0  0  0  0  0  0  0  0
  148.6240  134.1106  157.0801 H   0  0  0  0  0  0  0  0  0  0  0  0
  147.6607  135.5696  157.2739 H   0  0  0  0  0  0  0  0  0  0  0  0
  149.6592  134.9972  155.0187 H   0  0  0  0  0  0  0  0  0  0  0  0
  147.9180  133.1341  155.9034 H   0  0  0  0  0  0  0  0  0  0  0  0
  146.4495  133.1347  154.9362 H   0  0  0  0  0  0  0  0  0  0  0  0
  150.5971  136.8054  154.2832 H   0  0  0  0  0  0  0  0  0  0  0  0
  150.6639  138.8706  153.1791 H   0  0  0  0  0  0  0  0  0  0  0  0
  149.0478  139.2176  153.7442 H   0  0  0  0  0  0  0  0  0  0  0  0
  152.0804  138.3618  155.8774 H   0  0  0  0  0  0  0  0  0  0  0  0
  152.9034  139.9200  157.6176 H   0  0  0  0  0  0  0  0  0  0  0  0
  151.5137  144.1532  157.0387 H   0  0  0  0  0  0  0  0  0  0  0  0
  150.3622  143.7845  158.3165 H   0  0  0  0  0  0  0  0  0  0  0  0
  153.2578  144.7490  158.6921 H   0  0  0  0  0  0  0  0  0  0  0  0
  151.8005  145.6621  159.0316 H   0  0  0  0  0  0  0  0  0  0  0  0
  153.7979  142.8604  160.1026 H   0  0  0  0  0  0  0  0  0  0  0  0
  152.7136  142.4559  161.4190 H   0  0  0  0  0  0  0  0  0  0  0  0
  150.9539  141.7202  159.8443 H   0  0  0  0  0  0  0  0  0  0  0  0
  152.4480  140.8741  159.5001 H   0  0  0  0  0  0  0  0  0  0  0  0
  149.1952  141.3705  154.7453 H   0  0  0  0  0  0  0  0  0  0  0  0
  1  2  1  0  0  0  0
  1 25  1  0  0  0  0
  1 26  1  0  0  0  0
  1 27  1  0  0  0  0
  2  3  1  0  0  0  0
  2  9  1  0  0  0  0
  2 28  1  0  0  0  0
  3  4  1  0  0  0  0
  4  5  1  0  0  0  0
  4 29  1  0  0  0  0
  4 30  1  0  0  0  0
  5  6  1  0  0  0  0
  5  7  1  0  0  0  0
  5  8  1  0  0  0  0
  9 10  2  0  0  0  0
  9 11  1  0  0  0  0
 11 12  1  0  0  0  0
 11 31  1  0  0  0  0
 12 13  1  0  0  0  0
 12 32  1  0  0  0  0
 12 33  1  0  0  0  0
 13 24  1  0  0  0  0
 13 14  2  0  0  0  0
 14 15  1  0  0  0  0
 14 34  1  0  0  0  0
 15 16  2  0  0  0  0
 15 35  1  0  0  0  0
 16 17  1  0  0  0  0
 16 23  1  0  0  0  0
 17 22  1  0  0  0  0
 17 18  1  0  0  0  0
 18 19  1  0  0  0  0
 18 36  1  0  0  0  0
 18 37  1  0  0  0  0
 19 20  1  0  0  0  0
 19 38  1  0  0  0  0
 19 39  1  0  0  0  0
 20 21  1  0  0  0  0
 21 22  1  0  0  0  0
 21 40  1  0  0  0  0
 21 41  1  0  0  0  0
 22 42  1  0  0  0  0
 22 43  1  0  0  0  0
 23 24  2  0  0  0  0
 24 44  1  0  0  0  0
M  END
> <s_m_source_file>
AV-unprocessed.smi

> <i_m_source_file_index>
1980

> <i_lp_mmshare_version>
43012

> <i_f3d_flags>
0

> <s_epik_input>
RkMoRikoRilbQ0gyXU9bQ0BASF0oW0NIM10pQyg9TylbTkhdW0NIMl1jMVtjSF1bY0hdYyhuW2NIXTEpTjJbQ0gyXVtDSDJdT1tDSDJdW0NIMl0y

> <s_epik_cmdline>
J2VwaWtfcHl0aG9uJywgJy1waCcsICc3LjAnLCAnLXRuJywgJzgnLCAnLW1hJywgJzIwMCcsICctbWV0YWxfYmluZGluZycsICctaW1hZScsICc8aW5maWxlLm1hZT4nLCAnLW9tYWUnLCAnPG91dGZpbGUubWFlPic=

> <r_lp_tautomer_probability>
1

> <r_epik_Ionization_Penalty>
0.00436425

> <r_epik_Ionization_Penalty_Charging>
0

> <r_epik_Ionization_Penalty_Neutral>
0.00436425

> <r_epik_State_Penalty>
0.00314317

> <r_epik_Charging_Adjusted_Penalty>
0.00314317

> <i_epik_Tot_Q>
0

> <i_epik_Tot_abs_Q>
0

> <r_epik_Metal_State_Penalty>
-0

> <b_epik_Metal_Only>
0

> <s_lp_Force_Field>
OPLS_2005

> <r_lp_Energy>
18.0454

> <b_lp_Chiralities_Consistent>
1

> <s_lp_Variant>
AV-unprocessed.smi:1980-2

> <Gold.Version>
5.8.1

> <Gold.Id.Protein>
6NUR|6NUR_protein|mol2

> <Gold.PLP.Fitness>
39.9243

> <Gold.PLP.PLP>
-41.0074

> <Gold.PLP.part.hbond>
-1.0000

> <Gold.PLP.part.metal>
0.0000

> <Gold.PLP.part.buried>
-3.3940

> <Gold.PLP.part.nonpolar>
-36.3229

> <Gold.PLP.part.repulsive>
0.3455

> <Gold.PLP.ligand.clash>
0.0000

> <Gold.PLP.ligand.torsion>
0.7782

> <Gold.PLP.Chemscore.Hbond>
0.0000

> <Gold.PLP.Chemscore.CHOScore>
0.0000

> <Gold.PLP.Chemscore.Metal>
0.0000

> <Gold.PLP.Chemscore.Internal.Correction>
0.4733

> <Gold.Rescore>
     Score         DG    S(hbond)    S(metal)    S(lipo)     H(rot)  DE(clash)    DE(int)     intcor
      8.98     -10.01       0.00        0.00      93.23       2.49       0.04       1.00       ----

> <Gold.Chemscore.Fitness>
8.9785

> <Gold.Chemscore.DG>
-10.0134

> <Gold.Chemscore.ZeroCoef>
-5.4800

> <Gold.Chemscore.Hbond>
0.0000

> <Gold.Chemscore.Metal>
0.0000

> <Gold.Chemscore.Lipo>
93.2269

> <Gold.Chemscore.Internal_Hbond>
0.0000

> <Gold.Chemscore.DEClash>
0.0353

> <Gold.Chemscore.DEInternal>
0.9996

> <Gold.Chemscore.Rot>
2.4899

> <Gold.Chemscore.Internal.Correction>
   9.000000E+99

> <Gold.Chemscore.Hbond.Weighted>
-0.0000

> <Gold.Chemscore.Metal.Weighted>
-0.0000

> <Gold.Chemscore.Lipo.Weighted>
-10.9075

> <Gold.Chemscore.Internal_Hbond.Weighted>
0.0000

> <Gold.Chemscore.DEClash.Weighted>
0.0353

> <Gold.Chemscore.DEInternal.Weighted>
0.9996

> <Gold.Chemscore.Rot.Weighted>
6.3741

> <Gold.Chemscore.Internal.Correction.Weighted>
   9.000000E+99

> <Gold.Protein.RotatedTorsions>
[ 6907 6896 6895 6894 ] final  175.23 input  -60.11 | X-H torsion
[ 7974 7965 7964 7962 ] final  170.88 input  175.53 | X-H torsion
[ 8008 7997 7996 7995 ] final  157.40 input   59.86 | X-H torsion
[ 10167 10162 10161 10158 ] final   84.79 input  -65.29 | X-H torsion
[ 10718 10713 10712 10709 ] final   87.65 input   66.30 | X-H torsion
[ 10763 10752 10751 10750 ] final   94.28 input  -60.55 | X-H torsion
[ 11005 11000 10999 10996 ] final   89.09 input  -57.11 | X-H torsion

> <Gold.Protein.ActiveResidues>
 VAL166  LYS551  ARG553  GLY616  TRP617  ASP618  TYR619  PRO620  LYS621  CYS622 
 ASP623  PHE694  ASN695  SER759  ASP760  ASP761  ALA762  ILE779  LEU786  VAL792 
 PHE793  MET794  SER795  GLU796  ALA797  LYS798  CYS799  TRP800  GLU811  SER814 

> <Gold.Protein.RotatedAtoms>
  151.7396  133.3321  159.3361 H   0  0  0  0  0  0  0  0  0  0  0  0  # atno 6907 bound_to 6896
  150.7579  134.6290  159.6186 H   0  0  0  0  0  0  0  0  0  0  0  0  # atno 6908 bound_to 6896
  152.3539  134.6969  160.0279 H   0  0  0  0  0  0  0  0  0  0  0  0  # atno 6909 bound_to 6896
  144.7311  139.9267  143.6422 H   0  0  0  0  0  0  0  0  0  0  0  0  # atno 7974 bound_to 7965
  156.2366  140.1886  156.7102 H   0  0  0  0  0  0  0  0  0  0  0  0  # atno 8008 bound_to 7997
  154.6118  140.0621  156.9531 H   0  0  0  0  0  0  0  0  0  0  0  0  # atno 8009 bound_to 7997
  155.2003  140.3291  155.4347 H   0  0  0  0  0  0  0  0  0  0  0  0  # atno 8010 bound_to 7997
  139.9044  144.6310  150.8603 H   0  0  0  0  0  0  0  0  0  0  0  0  # atno 10167 bound_to 10162
  157.6942  131.0264  150.3155 H   0  0  0  0  0  0  0  0  0  0  0  0  # atno 10718 bound_to 10713
  153.2399  135.4295  155.0686 H   0  0  0  0  0  0  0  0  0  0  0  0  # atno 10763 bound_to 10752
  154.8335  135.3400  154.6665 H   0  0  0  0  0  0  0  0  0  0  0  0  # atno 10764 bound_to 10752
  153.7089  135.7024  153.5099 H   0  0  0  0  0  0  0  0  0  0  0  0  # atno 10765 bound_to 10752
  139.8882  134.8529  156.3092 H   0  0  0  0  0  0  0  0  0  0  0  0  # atno 11005 bound_to 11000
  146.0889  139.3878  143.0418 LP  0  0  0  0  0  0  0  0  0  0  0  0  # atno 17320 bound_to 7965
  145.7739  140.9885  143.1135 LP  0  0  0  0  0  0  0  0  0  0  0  0  # atno 17321 bound_to 7965
  140.7700  143.3412  151.2203 LP  0  0  0  0  0  0  0  0  0  0  0  0  # atno 17342 bound_to 10162
  139.6997  143.9553  152.2899 LP  0  0  0  0  0  0  0  0  0  0  0  0  # atno 17343 bound_to 10162
  156.3650  130.3853  149.7221 LP  0  0  0  0  0  0  0  0  0  0  0  0  # atno 17370 bound_to 10713
  156.4655  130.7972  151.2991 LP  0  0  0  0  0  0  0  0  0  0  0  0  # atno 17371 bound_to 10713
  140.9861  133.7237  156.0744 LP  0  0  0  0  0  0  0  0  0  0  0  0  # atno 17394 bound_to 11000
  140.7686  134.3858  157.5512 LP  0  0  0  0  0  0  0  0  0  0  0  0  # atno 17395 bound_to 11000

$$$$
