AV-unprocessed.smi:2232|AV-procd|sdf|9038|dock4
  -GOLD-   2272012243D 1   1.00000     0.00000
 Structure written by MMmdl.
 42 43  0  0  0  0  0  0  0  0  1 V2000
  151.9863  145.9403  160.2628 C   0  0  0  0  0  0  0  0  0  0  0  0
  152.0226  144.5718  159.6156 C   0  0  0  0  0  0  0  0  0  0  0  0
  152.8377  143.5480  160.1349 C   0  0  0  0  0  0  0  0  0  0  0  0
  152.8257  142.2964  159.4889 C   0  0  0  0  0  0  0  0  0  0  0  0
  153.6766  141.1509  159.9955 C   0  0  0  0  0  0  0  0  0  0  0  0
  152.0735  142.0376  158.3980 N   0  0  0  0  0  0  0  0  0  0  0  0
  151.2849  143.0163  157.8885 C   0  0  0  0  0  0  0  0  0  0  0  0
  150.4526  142.8443  156.7506 N   0  0  0  0  0  0  0  0  0  0  0  0
  150.2370  141.7222  156.0414 C   0  0  0  0  0  0  0  0  0  0  0  0
  150.7651  140.6304  156.2559 O   0  0  0  0  0  0  0  0  0  0  0  0
  149.3606  141.9357  155.0490 N   0  0  0  0  0  0  0  0  0  0  0  0
  148.9132  140.9267  154.0963 C   0  0  0  0  0  0  0  0  0  0  0  0
  148.5371  139.6113  154.8048 C   0  0  0  0  0  0  0  0  0  0  0  0
  149.6597  138.7156  155.0791 N   0  0  0  0  0  0  0  0  0  0  0  0
  150.7591  138.8834  154.1305 C   0  0  0  0  0  0  0  0  0  0  0  0
  151.9164  137.9080  154.4104 C   0  0  0  0  0  0  0  0  0  0  0  0
  151.4307  136.5698  154.3991 O   0  0  0  0  0  0  0  0  0  0  0  0
  150.3928  136.3566  155.3499 C   0  0  0  0  0  0  0  0  0  0  0  0
  149.2294  137.3215  155.0642 C   0  0  0  0  0  0  0  0  0  0  0  0
  151.2366  144.2997  158.4777 C   0  0  0  0  0  0  0  0  0  0  0  0
  152.5844  145.9638  161.1745 H   0  0  0  0  0  0  0  0  0  0  0  0
  150.9620  146.2095  160.5211 H   0  0  0  0  0  0  0  0  0  0  0  0
  152.3778  146.6925  159.5775 H   0  0  0  0  0  0  0  0  0  0  0  0
  153.4549  143.7170  161.0052 H   0  0  0  0  0  0  0  0  0  0  0  0
  154.1133  141.3833  160.9671 H   0  0  0  0  0  0  0  0  0  0  0  0
  154.4879  140.9453  159.2969 H   0  0  0  0  0  0  0  0  0  0  0  0
  153.0763  140.2468  160.1018 H   0  0  0  0  0  0  0  0  0  0  0  0
  149.9594  143.6701  156.4455 H   0  0  0  0  0  0  0  0  0  0  0  0
  148.9759  142.8631  154.9438 H   0  0  0  0  0  0  0  0  0  0  0  0
  148.0562  141.3411  153.5666 H   0  0  0  0  0  0  0  0  0  0  0  0
  149.6880  140.7500  153.3482 H   0  0  0  0  0  0  0  0  0  0  0  0
  148.0588  139.8663  155.7516 H   0  0  0  0  0  0  0  0  0  0  0  0
  147.7801  139.0841  154.2217 H   0  0  0  0  0  0  0  0  0  0  0  0
  150.3970  138.7290  153.1129 H   0  0  0  0  0  0  0  0  0  0  0  0
  151.1462  139.9008  154.1740 H   0  0  0  0  0  0  0  0  0  0  0  0
  152.6922  138.0120  153.6516 H   0  0  0  0  0  0  0  0  0  0  0  0
  152.3804  138.1249  155.3738 H   0  0  0  0  0  0  0  0  0  0  0  0
  150.0538  135.3227  155.2839 H   0  0  0  0  0  0  0  0  0  0  0  0
  150.7784  136.5039  156.3600 H   0  0  0  0  0  0  0  0  0  0  0  0
  148.4460  137.1681  155.8074 H   0  0  0  0  0  0  0  0  0  0  0  0
  148.7908  137.0791  154.0950 H   0  0  0  0  0  0  0  0  0  0  0  0
  150.6039  145.0711  158.0626 H   0  0  0  0  0  0  0  0  0  0  0  0
  1  2  1  0  0  0  0
  1 21  1  0  0  0  0
  1 22  1  0  0  0  0
  1 23  1  0  0  0  0
  2 20  1  0  0  0  0
  2  3  2  0  0  0  0
  3  4  1  0  0  0  0
  3 24  1  0  0  0  0
  4  5  1  0  0  0  0
  4  6  2  0  0  0  0
  5 25  1  0  0  0  0
  5 26  1  0  0  0  0
  5 27  1  0  0  0  0
  6  7  1  0  0  0  0
  7  8  1  0  0  0  0
  7 20  2  0  0  0  0
  8  9  1  0  0  0  0
  8 28  1  0  0  0  0
  9 10  2  0  0  0  0
  9 11  1  0  0  0  0
 11 12  1  0  0  0  0
 11 29  1  0  0  0  0
 12 13  1  0  0  0  0
 12 30  1  0  0  0  0
 12 31  1  0  0  0  0
 13 14  1  0  0  0  0
 13 32  1  0  0  0  0
 13 33  1  0  0  0  0
 14 19  1  0  0  0  0
 14 15  1  0  0  0  0
 15 16  1  0  0  0  0
 15 34  1  0  0  0  0
 15 35  1  0  0  0  0
 16 17  1  0  0  0  0
 16 36  1  0  0  0  0
 16 37  1  0  0  0  0
 17 18  1  0  0  0  0
 18 19  1  0  0  0  0
 18 38  1  0  0  0  0
 18 39  1  0  0  0  0
 19 40  1  0  0  0  0
 19 41  1  0  0  0  0
 20 42  1  0  0  0  0
M  END
> <s_m_source_file>
AV-unprocessed.smi

> <i_m_source_file_index>
2232

> <i_lp_mmshare_version>
43012

> <i_f3d_flags>
0

> <s_epik_input>
W0NIM11jMVtjSF1jKFtDSDNdKW5jKFtjSF0xKVtOSF1DKD1PKVtOSF1bQ0gyXVtDSDJdTjJbQ0gyXVtDSDJdT1tDSDJdW0NIMl0y

> <s_epik_cmdline>
J2VwaWtfcHl0aG9uJywgJy1waCcsICc3LjAnLCAnLXRuJywgJzgnLCAnLW1hJywgJzIwMCcsICctbWV0YWxfYmluZGluZycsICctaW1hZScsICc8aW5maWxlLm1hZT4nLCAnLW9tYWUnLCAnPG91dGZpbGUubWFlPic=

> <r_epik_Ionization_Penalty>
0.26623

> <r_epik_Ionization_Penalty_Charging>
0

> <r_epik_Ionization_Penalty_Neutral>
0.26623

> <r_epik_State_Penalty>
0.257924

> <r_epik_Charging_Adjusted_Penalty>
0.257924

> <i_epik_Tot_Q>
0

> <i_epik_Tot_abs_Q>
0

> <r_epik_Metal_State_Penalty>
0.257909

> <b_epik_Metal_Only>
0

> <s_lp_Force_Field>
OPLS_2005

> <r_lp_Energy>
21.9386

> <b_lp_Chiralities_Consistent>
1

> <s_lp_Variant>
AV-unprocessed.smi:2232-1

> <Gold.Version>
5.8.1

> <Gold.Id.Protein>
6NUR|6NUR_protein|mol2

> <Gold.PLP.Fitness>
50.6260

> <Gold.PLP.PLP>
-42.9570

> <Gold.PLP.part.hbond>
-3.0000

> <Gold.PLP.part.metal>
0.0000

> <Gold.PLP.part.buried>
-5.9997

> <Gold.PLP.part.nonpolar>
-36.0441

> <Gold.PLP.part.repulsive>
1.4347

> <Gold.PLP.ligand.clash>
0.0000

> <Gold.PLP.ligand.torsion>
0.6164

> <Gold.PLP.Chemscore.Hbond>
2.9600

> <Gold.PLP.Chemscore.CHOScore>
0.0000

> <Gold.PLP.Chemscore.Metal>
0.0000

> <Gold.Chemscore.Hbonds>
donor molecule, donor type, donor heavy atom, donor atom, acceptor molecule, acceptor atom, score
      L1  H     8    28       P1  8028  1.00
      L1  H    11    29       P1  8028  0.96
      P1  H 10752 10765       L1    17  1.00

> <Gold.PLP.Chemscore.Internal.Correction>
0.0218

> <Gold.Rescore>
     Score         DG    S(hbond)    S(metal)    S(lipo)     H(rot)  DE(clash)    DE(int)     intcor
     17.26     -24.03       2.87        0.00     108.23       1.44       0.10       6.67       ----

> <Gold.Chemscore.Fitness>
17.2613

> <Gold.Chemscore.DG>
-24.0332

> <Gold.Chemscore.ZeroCoef>
-5.4800

> <Gold.Chemscore.Hbond>
2.8697

> <Gold.Chemscore.Metal>
0.0000

> <Gold.Chemscore.Lipo>
108.2331

> <Gold.Chemscore.Internal_Hbond>
0.0000

> <Gold.Chemscore.DEClash>
0.0994

> <Gold.Chemscore.DEInternal>
6.6724

> <Gold.Chemscore.Rot>
1.4433

> <Gold.Chemscore.Internal.Correction>
   9.000000E+99

> <Gold.Chemscore.Hbonds>
donor molecule, donor type, donor heavy atom, donor atom, acceptor molecule, acceptor atom, score
      L1  H     8    28       P1  8028  1.00
      L1  H    11    29       P1  8028  0.90
      P1  H 10752 10765       L1    17  0.30

> <Gold.Chemscore.Hbond.Weighted>
-9.5847

> <Gold.Chemscore.Metal.Weighted>
-0.0000

> <Gold.Chemscore.Lipo.Weighted>
-12.6633

> <Gold.Chemscore.Internal_Hbond.Weighted>
0.0000

> <Gold.Chemscore.DEClash.Weighted>
0.0994

> <Gold.Chemscore.DEInternal.Weighted>
6.6724

> <Gold.Chemscore.Rot.Weighted>
3.6948

> <Gold.Chemscore.Internal.Correction.Weighted>
   9.000000E+99

> <Gold.Protein.RotatedTorsions>
[ 6907 6896 6895 6894 ] final   58.67 input  -60.11 | X-H torsion
[ 7974 7965 7964 7962 ] final  132.11 input  175.53 | X-H torsion
[ 8008 7997 7996 7995 ] final   -3.38 input   59.86 | X-H torsion
[ 10167 10162 10161 10158 ] final  164.73 input  -65.29 | X-H torsion
[ 10718 10713 10712 10709 ] final  -38.38 input   66.30 | X-H torsion
[ 10763 10752 10751 10750 ] final  159.06 input  -60.55 | X-H torsion
[ 11005 11000 10999 10996 ] final  -46.62 input  -57.11 | X-H torsion

> <Gold.Protein.ActiveResidues>
 VAL166  LYS551  ARG553  GLY616  TRP617  ASP618  TYR619  PRO620  LYS621  CYS622 
 ASP623  PHE694  ASN695  SER759  ASP760  ASP761  ALA762  ILE779  LEU786  VAL792 
 PHE793  MET794  SER795  GLU796  ALA797  LYS798  CYS799  TRP800  GLU811  SER814 

> <Gold.Protein.RotatedAtoms>
  152.3845  134.6538  160.0130 H   0  0  0  0  0  0  0  0  0  0  0  0  # atno 6907 bound_to 6896
  151.6791  133.3307  159.3223 H   0  0  0  0  0  0  0  0  0  0  0  0  # atno 6908 bound_to 6896
  150.7775  134.6733  159.6448 H   0  0  0  0  0  0  0  0  0  0  0  0  # atno 6909 bound_to 6896
  145.0002  139.4319  143.5296 H   0  0  0  0  0  0  0  0  0  0  0  0  # atno 7974 bound_to 7965
  154.6255  140.2511  155.7497 H   0  0  0  0  0  0  0  0  0  0  0  0  # atno 8008 bound_to 7997
  156.2451  140.2917  156.0503 H   0  0  0  0  0  0  0  0  0  0  0  0  # atno 8009 bound_to 7997
  155.1828  140.0389  157.2876 H   0  0  0  0  0  0  0  0  0  0  0  0  # atno 8010 bound_to 7997
  139.4893  144.4205  151.9192 H   0  0  0  0  0  0  0  0  0  0  0  0  # atno 10167 bound_to 10162
  156.3044  130.4244  149.8111 H   0  0  0  0  0  0  0  0  0  0  0  0  # atno 10718 bound_to 10713
  154.2259  135.2780  155.2908 H   0  0  0  0  0  0  0  0  0  0  0  0  # atno 10763 bound_to 10752
  154.5664  135.5632  153.7057 H   0  0  0  0  0  0  0  0  0  0  0  0  # atno 10764 bound_to 10752
  153.0031  135.6310  154.2400 H   0  0  0  0  0  0  0  0  0  0  0  0  # atno 10765 bound_to 10752
  141.0590  133.6715  156.3181 H   0  0  0  0  0  0  0  0  0  0  0  0  # atno 11005 bound_to 11000
  146.3450  139.9386  142.8744 LP  0  0  0  0  0  0  0  0  0  0  0  0  # atno 17320 bound_to 7965
  145.2163  140.9917  143.4071 LP  0  0  0  0  0  0  0  0  0  0  0  0  # atno 17321 bound_to 7965
  140.3649  144.2927  150.5928 LP  0  0  0  0  0  0  0  0  0  0  0  0  # atno 17342 bound_to 10162
  140.5370  143.2231  151.8147 LP  0  0  0  0  0  0  0  0  0  0  0  0  # atno 17343 bound_to 10162
  156.5477  130.8328  151.3289 LP  0  0  0  0  0  0  0  0  0  0  0  0  # atno 17370 bound_to 10713
  157.7376  130.9798  150.2202 LP  0  0  0  0  0  0  0  0  0  0  0  0  # atno 17371 bound_to 10713
  140.5906  134.5654  157.5498 LP  0  0  0  0  0  0  0  0  0  0  0  0  # atno 17394 bound_to 11000
  139.9416  134.7777  156.0665 LP  0  0  0  0  0  0  0  0  0  0  0  0  # atno 17395 bound_to 11000

$$$$
