#       Name:                AV-unprocessed.smi:47
#       Creating user name   scv26
#       Creation time:       Thu Mar 26 16:30:20 2020


#       File generated by GOLD software.
#

@<TRIPOS>MOLECULE
AV-unprocessed.smi:47
    36    38     1
SMALL
NO_CHARGES


@<TRIPOS>ATOM
      1 ****        -4.4599  -0.8550   1.3302 O.3            1 S1                 0.0000
      2 ****        -3.3080  -0.3879   0.6608 C.3            1 S1                 0.0000
      3 ****        -3.5639   0.9200  -0.0853 C.3            1 S1                 0.0000
      4 ****        -2.5491   0.9600  -1.1538 N.4            1 S1                 1.0000
      5 ****        -2.0922  -0.4217  -1.4247 C.3            1 S1                 0.0000
      6 ****        -0.6087  -0.5403  -1.2511 C.2            1 S1                 0.0000
      7 ****         0.0915  -1.4237  -1.9544 N.2            1 S1                 0.0000
      8 ****         1.3369  -1.2393  -1.4703 N.pl3          1 S1                 0.0000
      9 ****         1.3320  -0.2977  -0.5182 C.2            1 S1                 0.0000
     10 ****         2.5140   0.1473   0.2232 C.ar           1 S1                 0.0000
     11 ****         3.7843  -0.4108  -0.0513 C.ar           1 S1                 0.0000
     12 ****         4.9214   0.0160   0.6618 C.ar           1 S1                 0.0000
     13 ****         4.8008   1.0048   1.6560 C.ar           1 S1                 0.0000
     14 ****         3.5415   1.5669   1.9366 C.ar           1 S1                 0.0000
     15 ****         2.4036   1.1405   1.2244 C.ar           1 S1                 0.0000
     16 ****         0.1011   0.1808  -0.3316 N.2            1 S1                 0.0000
     17 ****        -2.8692  -1.3297  -0.4576 C.3            1 S1                 0.0000
     18 ****        -2.4948  -0.2560   1.3762 H              1 S1                 0.0000
     19 ****        -2.3460  -0.6769  -2.4546 H              1 S1                 0.0000
     20 ****         2.1353  -1.7637  -1.7995 H              1 S1                 0.0000
     21 ****        -4.2491  -1.6659   1.7682 H              1 S1                 0.0000
     22 ****        -4.5492   0.9063  -0.5541 H              1 S1                 0.0000
     23 ****        -3.5077   1.7962   0.5609 H              1 S1                 0.0000
     24 ****        -2.9212   1.3914  -1.9873 H              1 S1                 0.0000
     25 ****         3.9011  -1.1708  -0.8096 H              1 S1                 0.0000
     26 ****         5.8874  -0.4161   0.4454 H              1 S1                 0.0000
     27 ****         5.6730   1.3320   2.2028 H              1 S1                 0.0000
     28 ****         3.4478   2.3259   2.6994 H              1 S1                 0.0000
     29 ****         1.4472   1.5853   1.4570 H              1 S1                 0.0000
     30 ****        -2.2967  -2.1884  -0.1040 H              1 S1                 0.0000
     31 ****        -3.7521  -1.7157  -0.9703 H              1 S1                 0.0000
     32 ****        -1.7523   1.4870  -0.8243 H              1 S1                 0.0000
     33 ****        -5.1933  -1.0110   0.6685 LP             1 S1                 0.0000
     34 ****        -4.7563  -0.1768   2.0026 LP             1 S1                 0.0000
     35 ****        -0.2229  -2.0597  -2.6592 LP             1 S1                 0.0000
     36 ****        -0.2172   0.8795   0.3090 LP             1 S1                 0.0000
@<TRIPOS>BOND
    1    1    2 1     
    2    1   21 1     
    3    2   18 1     
    4    2   17 1     
    5    2    3 1     
    6    3    4 1     
    7    3   22 1     
    8    3   23 1     
    9    4    5 1     
   10    4   24 1     
   11    4   32 1     
   12    5   19 1     
   13    5    6 1     
   14    5   17 1     
   15    6   16 1     
   16    6    7 2     
   17    7    8 1     
   18    8   20 1     
   19    8    9 1     
   20    9   10 1     
   21    9   16 2     
   22   10   15 ar    
   23   10   11 ar    
   24   11   12 ar    
   25   11   25 1     
   26   12   13 ar    
   27   12   26 1     
   28   13   14 ar    
   29   13   27 1     
   30   14   15 ar    
   31   14   28 1     
   32   15   29 1     
   33   17   30 1     
   34   17   31 1     
   35    1   33 1     
   36    1   34 1     
   37    7   35 1     
   38   16   36 1     
@<TRIPOS>SUBSTRUCTURE
      1 S1             1
@<TRIPOS>SET
LONE_PAIRS      STATIC     ATOMS    <user>   **** ""
4 33 34 35 36
DONOR_HYDROGENS      STATIC     ATOMS    <user>   **** ""
4 21 24 32 20
ATOM$BLUE        STATIC     ATOMS    COLORGROUP SYSTEM
4 33 34 35 36
ATOM$RED        STATIC     ATOMS    COLORGROUP SYSTEM
4 21 24 32 20
