AV-unprocessed.smi:741|AV-procd|sdf|3555|dock2
  -GOLD-   22720 0553D 1   1.00000     0.00000
 Structure written by MMmdl.
 42 43  0  0  0  0  0  0  0  0  2 V2000
  151.2585  132.6676  156.2106 C   0  0  0  0  0  0  0  0  0  0  0  0
  150.4083  132.9481  154.9628 C   0  0  0  0  0  0  0  0  0  0  0  0
  149.6202  134.2703  155.0317 C   0  0  1  0  0  0  0  0  0  0  0  0
  150.5724  135.4792  155.1692 C   0  0  0  0  0  0  0  0  0  0  0  0
  150.0995  136.6748  154.4293 N   0  3  0  0  0  0  0  0  0  0  0  0
  148.9105  137.3379  155.0031 C   0  0  0  0  0  0  0  0  0  0  0  0
  148.9339  138.7441  154.4155 C   0  0  0  0  0  0  0  0  0  0  0  0
  150.4230  139.0766  154.3787 C   0  0  0  0  0  0  0  0  0  0  0  0
  151.1278  137.7211  154.2239 C   0  0  0  0  0  0  0  0  0  0  0  0
  148.7775  134.4048  153.8408 N   0  0  0  0  0  0  0  0  0  0  0  0
  147.7949  133.5714  153.4683 C   0  0  0  0  0  0  0  0  0  0  0  0
  147.4525  132.5916  154.1287 O   0  0  0  0  0  0  0  0  0  0  0  0
  147.2328  133.9690  152.3138 N   0  0  0  0  0  0  0  0  0  0  0  0
  146.1679  133.3670  151.5900 C   0  0  0  0  0  0  0  0  0  0  0  0
  145.2677  134.2195  150.9178 C   0  0  0  0  0  0  0  0  0  0  0  0
  144.2121  133.6473  150.1799 C   0  0  0  0  0  0  0  0  0  0  0  0
  144.0185  132.3159  150.0735 N   0  0  0  0  0  0  0  0  0  0  0  0
  144.8894  131.5007  150.7051 C   0  0  0  0  0  0  0  0  0  0  0  0
  145.9773  131.9691  151.4692 C   0  0  0  0  0  0  0  0  0  0  0  0
  151.8308  131.7479  156.0886 H   0  0  0  0  0  0  0  0  0  0  0  0
  150.6408  132.5534  157.1015 H   0  0  0  0  0  0  0  0  0  0  0  0
  151.9665  133.4762  156.3944 H   0  0  0  0  0  0  0  0  0  0  0  0
  151.0686  132.9697  154.0948 H   0  0  0  0  0  0  0  0  0  0  0  0
  149.7227  132.1155  154.7996 H   0  0  0  0  0  0  0  0  0  0  0  0
  148.9888  134.2192  155.9205 H   0  0  0  0  0  0  0  0  0  0  0  0
  150.7209  135.7385  156.2185 H   0  0  0  0  0  0  0  0  0  0  0  0
  151.5527  135.1935  154.7841 H   0  0  0  0  0  0  0  0  0  0  0  0
  147.9881  136.8062  154.7700 H   0  0  0  0  0  0  0  0  0  0  0  0
  149.0026  137.3933  156.0891 H   0  0  0  0  0  0  0  0  0  0  0  0
  148.5309  138.7285  153.4018 H   0  0  0  0  0  0  0  0  0  0  0  0
  148.3525  139.4588  154.9990 H   0  0  0  0  0  0  0  0  0  0  0  0
  150.6728  139.7732  153.5778 H   0  0  0  0  0  0  0  0  0  0  0  0
  150.7189  139.5378  155.3220 H   0  0  0  0  0  0  0  0  0  0  0  0
  151.9385  137.6363  154.9492 H   0  0  0  0  0  0  0  0  0  0  0  0
  151.5588  137.6061  153.2291 H   0  0  0  0  0  0  0  0  0  0  0  0
  148.9830  135.1856  153.2340 H   0  0  0  0  0  0  0  0  0  0  0  0
  147.5738  134.8386  151.9307 H   0  0  0  0  0  0  0  0  0  0  0  0
  145.3759  135.2933  150.9666 H   0  0  0  0  0  0  0  0  0  0  0  0
  143.5053  134.2771  149.6599 H   0  0  0  0  0  0  0  0  0  0  0  0
  144.7180  130.4402  150.5947 H   0  0  0  0  0  0  0  0  0  0  0  0
  146.6409  131.2532  151.9282 H   0  0  0  0  0  0  0  0  0  0  0  0
  149.8329  136.3676  153.5045 H   0  0  0  0  0  0  0  0  0  0  0  0
  1  2  1  0  0  0  0
  1 20  1  0  0  0  0
  1 21  1  0  0  0  0
  1 22  1  0  0  0  0
  2  3  1  0  0  0  0
  2 23  1  0  0  0  0
  2 24  1  0  0  0  0
  3  4  1  0  0  0  0
  3 10  1  0  0  0  0
  3 25  1  0  0  0  0
  4  5  1  0  0  0  0
  4 26  1  0  0  0  0
  4 27  1  0  0  0  0
  5  9  1  0  0  0  0
  5  6  1  0  0  0  0
  5 42  1  0  0  0  0
  6  7  1  0  0  0  0
  6 28  1  0  0  0  0
  6 29  1  0  0  0  0
  7  8  1  0  0  0  0
  7 30  1  0  0  0  0
  7 31  1  0  0  0  0
  8  9  1  0  0  0  0
  8 32  1  0  0  0  0
  8 33  1  0  0  0  0
  9 34  1  0  0  0  0
  9 35  1  0  0  0  0
 10 11  1  0  0  0  0
 10 36  1  0  0  0  0
 11 12  2  0  0  0  0
 11 13  1  0  0  0  0
 13 14  1  0  0  0  0
 13 37  1  0  0  0  0
 14 19  1  0  0  0  0
 14 15  2  0  0  0  0
 15 16  1  0  0  0  0
 15 38  1  0  0  0  0
 16 17  2  0  0  0  0
 16 39  1  0  0  0  0
 17 18  1  0  0  0  0
 18 19  2  0  0  0  0
 18 40  1  0  0  0  0
 19 41  1  0  0  0  0
M  CHG  1   5   1
M  END
> <s_m_source_file>
AV-unprocessed.smi

> <i_m_source_file_index>
741

> <i_lp_mmshare_version>
43012

> <i_f3d_flags>
0

> <s_epik_input>
W0NIMl0xW0NIMl1bQ0gyXVtDSDJdTjFbQ0gyXVtDQEBIXShbQ0gyXVtDSDNdKVtOSF1DKD1PKVtOSF1jMltjSF1bY0hdbltjSF1bY0hdMg==

> <s_epik_cmdline>
J2VwaWtfcHl0aG9uJywgJy1waCcsICc3LjAnLCAnLXRuJywgJzgnLCAnLW1hJywgJzIwMCcsICctbWV0YWxfYmluZGluZycsICctaW1hZScsICc8aW5maWxlLm1hZT4nLCAnLW9tYWUnLCAnPG91dGZpbGUubWFlPic=

> <r_epik_Ionization_Penalty>
0.101421

> <r_epik_Ionization_Penalty_Charging>
0.00180027

> <r_epik_Ionization_Penalty_Neutral>
0.0996204

> <r_epik_State_Penalty>
0.0910414

> <r_epik_Charging_Adjusted_Penalty>
0.0928416

> <i_epik_Tot_Q>
1

> <i_epik_Tot_abs_Q>
1

> <r_epik_Metal_State_Penalty>
0.076772

> <b_epik_Metal_Only>
0

> <s_lp_Force_Field>
OPLS_2005

> <r_lp_Energy>
40.7955

> <b_lp_Chiralities_Consistent>
1

> <s_lp_Variant>
AV-unprocessed.smi:741-2

> <Gold.Version>
5.8.1

> <Gold.Id.Protein>
6NUR|6NUR_protein|mol2

> <Gold.PLP.Fitness>
47.1596

> <Gold.PLP.PLP>
-33.8610

> <Gold.PLP.part.hbond>
-3.3198

> <Gold.PLP.part.metal>
0.0000

> <Gold.PLP.part.buried>
-5.6424

> <Gold.PLP.part.nonpolar>
-25.3689

> <Gold.PLP.part.repulsive>
0.2993

> <Gold.PLP.ligand.clash>
0.0000

> <Gold.PLP.ligand.torsion>
0.8803

> <Gold.PLP.Chemscore.Hbond>
4.0000

> <Gold.PLP.Chemscore.CHOScore>
1.0000

> <Gold.PLP.Chemscore.Metal>
0.0000

> <Gold.Chemscore.Hbonds>
donor molecule, donor type, donor heavy atom, donor atom, acceptor molecule, acceptor atom, score
      L1  H     5    42       P1  7948  1.90
      L1  H    10    36       P1  7948  1.00
      L1  H    13    37       P1  7948  0.99
      L1  C    16    39       P1 10186  1.00

> <Gold.PLP.Chemscore.Internal.Correction>
0.0593

> <Gold.Rescore>
     Score         DG    S(hbond)    S(metal)    S(lipo)     H(rot)  DE(clash)    DE(int)     intcor
     17.93     -19.00       2.42        0.00      81.06       1.59       0.01       1.06       ----

> <Gold.Chemscore.Fitness>
17.9270

> <Gold.Chemscore.DG>
-18.9960

> <Gold.Chemscore.ZeroCoef>
-5.4800

> <Gold.Chemscore.Hbond>
2.4226

> <Gold.Chemscore.Metal>
0.0000

> <Gold.Chemscore.Lipo>
81.0619

> <Gold.Chemscore.Internal_Hbond>
0.0000

> <Gold.Chemscore.DEClash>
0.0102

> <Gold.Chemscore.DEInternal>
1.0589

> <Gold.Chemscore.Rot>
1.5858

> <Gold.Chemscore.Internal.Correction>
   9.000000E+99

> <Gold.Chemscore.Hbonds>
donor molecule, donor type, donor heavy atom, donor atom, acceptor molecule, acceptor atom, score
      L1  H     5    42       P1  7948  0.22
      L1  H    10    36       P1  7948  0.35
      L1  H    13    37       P1  7948  0.66

> <Gold.Chemscore.Hbond.Weighted>
-8.0914

> <Gold.Chemscore.Metal.Weighted>
-0.0000

> <Gold.Chemscore.Lipo.Weighted>
-9.4842

> <Gold.Chemscore.Internal_Hbond.Weighted>
0.0000

> <Gold.Chemscore.DEClash.Weighted>
0.0102

> <Gold.Chemscore.DEInternal.Weighted>
1.0589

> <Gold.Chemscore.Rot.Weighted>
4.0596

> <Gold.Chemscore.Internal.Correction.Weighted>
   9.000000E+99

> <Gold.Protein.RotatedTorsions>
[ 6907 6896 6895 6894 ] final  -47.14 input  -60.11 | X-H torsion
[ 7974 7965 7964 7962 ] final -121.77 input  175.53 | X-H torsion
[ 8008 7997 7996 7995 ] final   68.86 input   59.86 | X-H torsion
[ 10167 10162 10161 10158 ] final   74.15 input  -65.29 | X-H torsion
[ 10718 10713 10712 10709 ] final  -17.74 input   66.30 | X-H torsion
[ 10763 10752 10751 10750 ] final   66.85 input  -60.55 | X-H torsion
[ 11005 11000 10999 10996 ] final  -47.47 input  -57.11 | X-H torsion

> <Gold.Protein.ActiveResidues>
 VAL166  LYS551  ARG553  GLY616  TRP617  ASP618  TYR619  PRO620  LYS621  CYS622 
 ASP623  PHE694  ASN695  SER759  ASP760  ASP761  ALA762  ILE779  LEU786  VAL792 
 PHE793  MET794  SER795  GLU796  ALA797  LYS798  CYS799  TRP800  GLU811  SER814 

> <Gold.Protein.RotatedAtoms>
  150.9039  134.8452  159.7378 H   0  0  0  0  0  0  0  0  0  0  0  0  # atno 6907 bound_to 6896
  152.4907  134.4461  159.9569 H   0  0  0  0  0  0  0  0  0  0  0  0  # atno 6908 bound_to 6896
  151.4510  133.3578  159.2830 H   0  0  0  0  0  0  0  0  0  0  0  0  # atno 6909 bound_to 6896
  145.0367  140.8112  143.4291 H   0  0  0  0  0  0  0  0  0  0  0  0  # atno 7974 bound_to 7965
  155.7148  140.3494  155.4990 H   0  0  0  0  0  0  0  0  0  0  0  0  # atno 8008 bound_to 7997
  155.9323  140.1086  157.1144 H   0  0  0  0  0  0  0  0  0  0  0  0  # atno 8009 bound_to 7997
  154.4087  140.1229  156.4805 H   0  0  0  0  0  0  0  0  0  0  0  0  # atno 8010 bound_to 7997
  140.0168  144.5571  150.7613 H   0  0  0  0  0  0  0  0  0  0  0  0  # atno 10167 bound_to 10162
  156.5693  130.4745  149.6370 H   0  0  0  0  0  0  0  0  0  0  0  0  # atno 10718 bound_to 10713
  153.0159  135.5305  154.6888 H   0  0  0  0  0  0  0  0  0  0  0  0  # atno 10763 bound_to 10752
  154.6028  135.2870  155.0519 H   0  0  0  0  0  0  0  0  0  0  0  0  # atno 10764 bound_to 10752
  154.1569  135.6554  153.5029 H   0  0  0  0  0  0  0  0  0  0  0  0  # atno 10765 bound_to 10752
  141.0642  133.6699  156.3302 H   0  0  0  0  0  0  0  0  0  0  0  0  # atno 11005 bound_to 11000
  145.1700  139.2410  143.5347 LP  0  0  0  0  0  0  0  0  0  0  0  0  # atno 17320 bound_to 7965
  146.3505  140.1448  142.8593 LP  0  0  0  0  0  0  0  0  0  0  0  0  # atno 17321 bound_to 7965
  140.7359  143.2746  151.3781 LP  0  0  0  0  0  0  0  0  0  0  0  0  # atno 17342 bound_to 10162
  139.6167  144.0989  152.2352 LP  0  0  0  0  0  0  0  0  0  0  0  0  # atno 17343 bound_to 10162
  156.2728  130.7027  151.1829 LP  0  0  0  0  0  0  0  0  0  0  0  0  # atno 17370 bound_to 10713
  157.7351  131.0575  150.5485 LP  0  0  0  0  0  0  0  0  0  0  0  0  # atno 17371 bound_to 10713
  140.5806  134.5749  157.5478 LP  0  0  0  0  0  0  0  0  0  0  0  0  # atno 17394 bound_to 11000
  139.9461  134.7699  156.0559 LP  0  0  0  0  0  0  0  0  0  0  0  0  # atno 17395 bound_to 11000

$$$$
