AV-unprocessed.smi:857|AV-procd|sdf|3961|dock4
  -GOLD-   22720 1433D 1   1.00000     0.00000
 Structure written by MMmdl.
 29 30  0  0  0  0  0  0  0  0  2 V2000
  149.1075  140.5168  156.7162 C   0  0  0  0  0  0  0  0  0  0  0  0
  150.2520  140.5518  157.7076 C   0  0  0  0  0  0  0  0  0  0  0  0
  150.8339  139.3591  158.1718 C   0  0  0  0  0  0  0  0  0  0  0  0
  151.9061  139.3917  159.1002 C   0  0  0  0  0  0  0  0  0  0  0  0
  152.4742  138.0642  159.5452 C   0  0  0  0  0  0  0  0  0  0  0  0
  151.9344  136.9952  159.2071 O   0  0  0  0  0  0  0  0  0  0  0  0
  153.5008  138.0615  160.2615 O   0  5  0  0  0  0  0  0  0  0  0  0
  152.3772  140.6734  159.5507 C   0  0  0  0  0  0  0  0  0  0  0  0
  153.3642  141.3072  160.4232 C   0  0  0  0  0  0  0  0  0  0  0  0
  154.4395  140.7807  161.3337 C   0  0  0  0  0  0  0  0  0  0  0  0
  153.2645  142.6163  160.3782 N   0  0  0  0  0  0  0  0  0  0  0  0
  152.2606  142.9123  159.5283 N   0  0  0  0  0  0  0  0  0  0  0  0
  151.9382  144.3074  159.2862 C   0  0  0  0  0  0  0  0  0  0  0  0
  152.1943  144.6965  157.8240 C   0  0  0  0  0  0  0  0  0  0  0  0
  151.3120  143.9898  156.9788 O   0  0  0  0  0  0  0  0  0  0  0  0
  151.6775  141.7863  158.9850 C   0  0  0  0  0  0  0  0  0  0  0  0
  150.6483  141.7773  158.0919 N   0  0  0  0  0  0  0  0  0  0  0  0
  148.8419  139.4929  156.4517 H   0  0  0  0  0  0  0  0  0  0  0  0
  149.3824  141.0431  155.8016 H   0  0  0  0  0  0  0  0  0  0  0  0
  148.2250  140.9980  157.1388 H   0  0  0  0  0  0  0  0  0  0  0  0
  150.4468  138.4191  157.8056 H   0  0  0  0  0  0  0  0  0  0  0  0
  154.5348  139.7077  161.3805 H   0  0  0  0  0  0  0  0  0  0  0  0
  154.2715  141.1172  162.3572 H   0  0  0  0  0  0  0  0  0  0  0  0
  155.4157  141.1611  161.0321 H   0  0  0  0  0  0  0  0  0  0  0  0
  150.8920  144.4725  159.5472 H   0  0  0  0  0  0  0  0  0  0  0  0
  152.5303  144.9313  159.9577 H   0  0  0  0  0  0  0  0  0  0  0  0
  152.0457  145.7670  157.6785 H   0  0  0  0  0  0  0  0  0  0  0  0
  153.2211  144.4659  157.5384 H   0  0  0  0  0  0  0  0  0  0  0  0
  150.5886  144.5564  156.7573 H   0  0  0  0  0  0  0  0  0  0  0  0
  1  2  1  0  0  0  0
  1 18  1  0  0  0  0
  1 19  1  0  0  0  0
  1 20  1  0  0  0  0
  2 17  1  0  0  0  0
  2  3  2  0  0  0  0
  3  4  1  0  0  0  0
  3 21  1  0  0  0  0
  4  5  1  0  0  0  0
  4  8  2  0  0  0  0
  5  6  2  0  0  0  0
  5  7  1  0  0  0  0
  8 16  1  0  0  0  0
  8  9  1  0  0  0  0
  9 10  1  0  0  0  0
  9 11  2  0  0  0  0
 10 22  1  0  0  0  0
 10 23  1  0  0  0  0
 10 24  1  0  0  0  0
 11 12  1  0  0  0  0
 12 13  1  0  0  0  0
 12 16  1  0  0  0  0
 13 14  1  0  0  0  0
 13 25  1  0  0  0  0
 13 26  1  0  0  0  0
 14 15  1  0  0  0  0
 14 27  1  0  0  0  0
 14 28  1  0  0  0  0
 15 29  1  0  0  0  0
 16 17  2  0  0  0  0
M  CHG  1   7  -1
M  END
> <s_m_source_file>
AV-unprocessed.smi

> <i_m_source_file_index>
857

> <i_lp_mmshare_version>
43012

> <i_f3d_flags>
0

> <s_epik_input>
Tz1DKFtPSF0pYzFbY0hdYyhbQ0gzXSluYyhjMTIpbihuYzJbQ0gzXSlbQ0gyXVtDSDJdW09IXQ==

> <s_epik_cmdline>
J2VwaWtfcHl0aG9uJywgJy1waCcsICc3LjAnLCAnLXRuJywgJzgnLCAnLW1hJywgJzIwMCcsICctbWV0YWxfYmluZGluZycsICctaW1hZScsICc8aW5maWxlLm1hZT4nLCAnLW9tYWUnLCAnPG91dGZpbGUubWFlPic=

> <r_lp_tautomer_probability>
1

> <r_epik_Ionization_Penalty>
0.000221063

> <r_epik_Ionization_Penalty_Charging>
0.000215421

> <r_epik_Ionization_Penalty_Neutral>
5.64189e-06

> <r_epik_State_Penalty>
-0

> <r_epik_Charging_Adjusted_Penalty>
0.000215421

> <i_epik_Tot_Q>
-1

> <i_epik_Tot_abs_Q>
1

> <r_epik_Metal_State_Penalty>
-0

> <b_epik_Metal_Only>
0

> <s_lp_Force_Field>
OPLS_2005

> <r_lp_Energy>
11.0008

> <b_lp_Chiralities_Consistent>
1

> <s_lp_Variant>
AV-unprocessed.smi:857-1

> <Gold.Version>
5.8.1

> <Gold.Id.Protein>
6NUR|6NUR_protein|mol2

> <Gold.PLP.Fitness>
42.6443

> <Gold.PLP.PLP>
-33.8962

> <Gold.PLP.part.hbond>
-2.0000

> <Gold.PLP.part.metal>
0.0000

> <Gold.PLP.part.buried>
-6.7451

> <Gold.PLP.part.nonpolar>
-25.8684

> <Gold.PLP.part.repulsive>
0.0394

> <Gold.PLP.ligand.clash>
0.0000

> <Gold.PLP.ligand.torsion>
0.0427

> <Gold.PLP.Chemscore.Hbond>
2.9440

> <Gold.PLP.Chemscore.CHOScore>
0.0000

> <Gold.PLP.Chemscore.Metal>
0.0000

> <Gold.Chemscore.Hbonds>
donor molecule, donor type, donor heavy atom, donor atom, acceptor molecule, acceptor atom, score
      L1  H    15    29       P1  8028  0.93
      P1  H  6896  6908       L1     6  2.00

> <Gold.PLP.Chemscore.Internal.Correction>
0.0014

> <Gold.Rescore>
     Score         DG    S(hbond)    S(metal)    S(lipo)     H(rot)  DE(clash)    DE(int)     intcor
     13.18     -15.50       1.98        0.00      69.33       1.84       0.02       2.30       ----

> <Gold.Chemscore.Fitness>
13.1801

> <Gold.Chemscore.DG>
-15.4968

> <Gold.Chemscore.ZeroCoef>
-5.4800

> <Gold.Chemscore.Hbond>
1.9843

> <Gold.Chemscore.Metal>
0.0000

> <Gold.Chemscore.Lipo>
69.3322

> <Gold.Chemscore.Internal_Hbond>
0.0000

> <Gold.Chemscore.DEClash>
0.0215

> <Gold.Chemscore.DEInternal>
2.2952

> <Gold.Chemscore.Rot>
1.8448

> <Gold.Chemscore.Internal.Correction>
   9.000000E+99

> <Gold.Chemscore.Hbonds>
donor molecule, donor type, donor heavy atom, donor atom, acceptor molecule, acceptor atom, score
      L1  H    15    29       P1  8028  0.82
      P1  H  6896  6908       L1     6  0.93

> <Gold.Chemscore.Hbond.Weighted>
-6.6275

> <Gold.Chemscore.Metal.Weighted>
-0.0000

> <Gold.Chemscore.Lipo.Weighted>
-8.1119

> <Gold.Chemscore.Internal_Hbond.Weighted>
0.0000

> <Gold.Chemscore.DEClash.Weighted>
0.0215

> <Gold.Chemscore.DEInternal.Weighted>
2.2952

> <Gold.Chemscore.Rot.Weighted>
4.7226

> <Gold.Chemscore.Internal.Correction.Weighted>
   9.000000E+99

> <Gold.Protein.RotatedTorsions>
[ 6907 6896 6895 6894 ] final -113.29 input  -60.11 | X-H torsion
[ 7974 7965 7964 7962 ] final -120.50 input  175.53 | X-H torsion
[ 8008 7997 7996 7995 ] final  138.63 input   59.86 | X-H torsion
[ 10167 10162 10161 10158 ] final  114.67 input  -65.29 | X-H torsion
[ 10718 10713 10712 10709 ] final -129.83 input   66.30 | X-H torsion
[ 10763 10752 10751 10750 ] final -106.39 input  -60.55 | X-H torsion
[ 11005 11000 10999 10996 ] final  -29.81 input  -57.11 | X-H torsion

> <Gold.Protein.ActiveResidues>
 VAL166  LYS551  ARG553  GLY616  TRP617  ASP618  TYR619  PRO620  LYS621  CYS622 
 ASP623  PHE694  ASN695  SER759  ASP760  ASP761  ALA762  ILE779  LEU786  VAL792 
 PHE793  MET794  SER795  GLU796  ALA797  LYS798  CYS799  TRP800  GLU811  SER814 

> <Gold.Protein.RotatedAtoms>
  150.7819  133.8966  159.3328 H   0  0  0  0  0  0  0  0  0  0  0  0  # atno 6907 bound_to 6896
  151.6826  135.0957  160.0228 H   0  0  0  0  0  0  0  0  0  0  0  0  # atno 6908 bound_to 6896
  152.3872  133.6590  159.6244 H   0  0  0  0  0  0  0  0  0  0  0  0  # atno 6909 bound_to 6896
  145.0507  140.8216  143.4211 H   0  0  0  0  0  0  0  0  0  0  0  0  # atno 7974 bound_to 7965
  156.2996  140.2388  156.4105 H   0  0  0  0  0  0  0  0  0  0  0  0  # atno 8008 bound_to 7997
  154.8445  140.0427  157.1583 H   0  0  0  0  0  0  0  0  0  0  0  0  # atno 8009 bound_to 7997
  154.9066  140.2984  155.5292 H   0  0  0  0  0  0  0  0  0  0  0  0  # atno 8010 bound_to 7997
  139.6372  144.7121  151.2311 H   0  0  0  0  0  0  0  0  0  0  0  0  # atno 10167 bound_to 10162
  156.2084  130.6903  151.0621 H   0  0  0  0  0  0  0  0  0  0  0  0  # atno 10718 bound_to 10713
  154.8009  135.4713  154.0274 H   0  0  0  0  0  0  0  0  0  0  0  0  # atno 10763 bound_to 10752
  153.1780  135.6836  153.8524 H   0  0  0  0  0  0  0  0  0  0  0  0  # atno 10764 bound_to 10752
  153.8084  135.3220  155.3375 H   0  0  0  0  0  0  0  0  0  0  0  0  # atno 10765 bound_to 10752
  140.9328  133.7327  156.0961 H   0  0  0  0  0  0  0  0  0  0  0  0  # atno 11005 bound_to 11000
  145.1530  139.2503  143.5431 LP  0  0  0  0  0  0  0  0  0  0  0  0  # atno 17320 bound_to 7965
  146.3517  140.1238  142.8599 LP  0  0  0  0  0  0  0  0  0  0  0  0  # atno 17321 bound_to 7965
  140.7471  143.6375  150.8365 LP  0  0  0  0  0  0  0  0  0  0  0  0  # atno 17342 bound_to 10162
  140.0008  143.5746  152.2876 LP  0  0  0  0  0  0  0  0  0  0  0  0  # atno 17343 bound_to 10162
  157.7025  131.0770  150.6774 LP  0  0  0  0  0  0  0  0  0  0  0  0  # atno 17370 bound_to 10713
  156.6833  130.4573  149.5621 LP  0  0  0  0  0  0  0  0  0  0  0  0  # atno 17371 bound_to 10713
  140.7839  134.3694  157.5481 LP  0  0  0  0  0  0  0  0  0  0  0  0  # atno 17394 bound_to 11000
  139.8800  134.9099  156.3001 LP  0  0  0  0  0  0  0  0  0  0  0  0  # atno 17395 bound_to 11000

$$$$
