#       Name:                AV-unprocessed.smi:1489
#       Creating user name   scv26
#       Creation time:       Fri Mar 27 06:13:07 2020


#       File generated by GOLD software.
#

@<TRIPOS>MOLECULE
AV-unprocessed.smi:1489
    52    54     1
SMALL
NO_CHARGES


@<TRIPOS>ATOM
      1 ****        -1.2084   1.2910  -0.0142 O.2            1 S1                 0.0000
      2 ****        -1.6211   0.1327  -0.0604 C.2            1 S1                 0.0000
      3 ****        -0.8423  -0.9629  -0.0619 N.am           1 S1                 0.0000
      4 ****         0.5767  -1.0336  -0.0508 C.ar           1 S1                 0.0000
      5 ****         1.1742  -2.2342   0.3893 C.ar           1 S1                 0.0000
      6 ****         2.5790  -2.3535   0.4011 C.ar           1 S1                 0.0000
      7 ****         3.3713  -1.2685  -0.0411 C.ar           1 S1                 0.0000
      8 ****         4.7728  -1.2886  -0.0766 N.3            1 S1                 0.0000
      9 ****         5.4191  -1.5252   1.2035 C.3            1 S1                 0.0000
     10 ****         6.8594  -1.9166   0.8672 C.3            1 S1                 0.0000
     11 ****         6.7992  -2.4359  -0.5741 C.3            1 S1                 0.0000
     12 ****         5.3382  -2.2598  -0.9987 C.3            1 S1                 0.0000
     13 ****         2.7613  -0.1420  -0.4697 N.pl3          1 S1                 1.0000
     14 ****         1.4199   0.0149  -0.4930 C.ar           1 S1                 0.0000
     15 ****        -2.9219  -0.1997  -0.0928 N.am           1 S1                 0.0000
     16 ****        -4.0738   0.7043  -0.0687 C.3            1 S1                 0.0000
     17 ****        -4.1320   1.6321  -1.3006 C.3            1 S1                 0.0000
     18 ****        -5.4019   2.5020  -1.2775 C.3            1 S1                 0.0000
     19 ****        -5.5470   3.2919   0.0387 C.3            1 S1                 0.0000
     20 ****        -4.5644   4.3063   0.1068 O.3            1 S1                 0.0000
     21 ****        -5.4394   2.3740   1.2723 C.3            1 S1                 0.0000
     22 ****        -4.1671   1.5091   1.2444 C.3            1 S1                 0.0000
     23 ****        -1.3232  -1.8491  -0.0129 H              1 S1                 0.0000
     24 ****         0.5624  -3.0601   0.7218 H              1 S1                 0.0000
     25 ****         3.0356  -3.2711   0.7426 H              1 S1                 0.0000
     26 ****         5.3836  -0.6342   1.8312 H              1 S1                 0.0000
     27 ****         4.9275  -2.3360   1.7422 H              1 S1                 0.0000
     28 ****         7.5093  -1.0422   0.9182 H              1 S1                 0.0000
     29 ****         7.2486  -2.6605   1.5629 H              1 S1                 0.0000
     30 ****         7.4570  -1.8439  -1.2118 H              1 S1                 0.0000
     31 ****         7.1125  -3.4775  -0.6511 H              1 S1                 0.0000
     32 ****         4.8094  -3.2114  -0.9271 H              1 S1                 0.0000
     33 ****         5.2619  -1.9106  -2.0289 H              1 S1                 0.0000
     34 ****         1.0814   0.9658  -0.8762 H              1 S1                 0.0000
     35 ****        -3.1428  -1.1840  -0.1287 H              1 S1                 0.0000
     36 ****        -4.9458   0.0503  -0.1125 H              1 S1                 0.0000
     37 ****        -3.2564   2.2805  -1.3346 H              1 S1                 0.0000
     38 ****        -4.1119   1.0397  -2.2160 H              1 S1                 0.0000
     39 ****        -5.4049   3.1829  -2.1294 H              1 S1                 0.0000
     40 ****        -6.2735   1.8581  -1.4020 H              1 S1                 0.0000
     41 ****        -6.5172   3.7897   0.0500 H              1 S1                 0.0000
     42 ****        -4.6647   4.8735  -0.6422 H              1 S1                 0.0000
     43 ****        -5.4704   2.9658   2.1880 H              1 S1                 0.0000
     44 ****        -6.3113   1.7196   1.3053 H              1 S1                 0.0000
     45 ****        -4.1669   0.8322   2.0993 H              1 S1                 0.0000
     46 ****        -3.2948   2.1525   1.3626 H              1 S1                 0.0000
     47 ****         3.3430   0.6306  -0.7952 H              1 S1                 0.0000
     48 ****        -0.2254   1.4704   0.0262 LP             1 S1                 0.0000
     49 ****        -1.8560   2.0530  -0.0170 LP             1 S1                 0.0000
     50 ****         4.9621  -0.3569  -0.3866 LP             1 S1                 0.0000
     51 ****        -3.6534   3.8941   0.0978 LP             1 S1                 0.0000
     52 ****        -4.6830   4.8344   0.9477 LP             1 S1                 0.0000
@<TRIPOS>BOND
    1    1    2 2     
    2    2    3 am    
    3    2   15 am    
    4    3    4 1     
    5    3   23 1     
    6    4   14 ar    
    7    4    5 ar    
    8    5    6 ar    
    9    5   24 1     
   10    6    7 ar    
   11    6   25 1     
   12    7    8 1     
   13    7   13 ar    
   14    8   12 1     
   15    8    9 1     
   16    9   10 1     
   17    9   26 1     
   18    9   27 1     
   19   10   11 1     
   20   10   28 1     
   21   10   29 1     
   22   11   12 1     
   23   11   30 1     
   24   11   31 1     
   25   12   32 1     
   26   12   33 1     
   27   13   14 ar    
   28   13   47 1     
   29   14   34 1     
   30   15   16 1     
   31   15   35 1     
   32   16   22 1     
   33   16   17 1     
   34   16   36 1     
   35   17   18 1     
   36   17   37 1     
   37   17   38 1     
   38   18   19 1     
   39   18   39 1     
   40   18   40 1     
   41   19   20 1     
   42   19   21 1     
   43   19   41 1     
   44   20   42 1     
   45   21   22 1     
   46   21   43 1     
   47   21   44 1     
   48   22   45 1     
   49   22   46 1     
   50    1   48 1     
   51    1   49 1     
   52    8   50 1     
   53   20   51 1     
   54   20   52 1     
@<TRIPOS>SUBSTRUCTURE
      1 S1             1
@<TRIPOS>SET
LONE_PAIRS      STATIC     ATOMS    <user>   **** ""
5 48 49 50 51 52
DONOR_HYDROGENS      STATIC     ATOMS    <user>   **** ""
4 23 47 35 42
ATOM$BLUE        STATIC     ATOMS    COLORGROUP SYSTEM
5 48 49 50 51 52
ATOM$RED        STATIC     ATOMS    COLORGROUP SYSTEM
4 23 47 35 42
