AV-unprocessed.smi:1120|AV-procd|sdf|4824|dock10
  -GOLD-   22720 3383D 1   1.00000     0.00000
 Structure written by MMmdl.
 48 49  0  0  0  0  0  0  0  0  3 V2000
  152.1065  144.4255  160.4142 C   0  0  0  0  0  0  0  0  0  0  0  0
  152.6895  143.1975  159.7018 C   0  0  2  0  0  0  0  0  0  0  0  0
  151.6536  142.5240  158.7716 C   0  0  0  0  0  0  0  0  0  0  0  0
  152.2056  141.2531  158.0781 C   0  0  0  0  0  0  0  0  0  0  0  0
  152.7399  140.1966  159.0742 C   0  0  1  0  0  0  0  0  0  0  0  0
  153.3515  139.0944  158.3459 N   0  5  0  0  0  0  0  0  0  0  0  0
  152.6662  137.6263  158.3835 S   0  0  0  0  0  0  0  0  0  0  0  0
  152.9074  136.8547  157.1523 O   0  0  0  0  0  0  0  0  0  0  0  0
  152.8946  136.9267  159.6584 O   0  0  0  0  0  0  0  0  0  0  0  0
  150.8781  138.0837  158.3627 C   0  0  0  0  0  0  0  0  0  0  0  0
  150.0378  136.8976  157.8938 C   0  0  0  0  0  0  0  0  0  0  0  0
  149.6737  136.0422  158.7007 O   0  0  0  0  0  0  0  0  0  0  0  0
  149.7428  136.8543  156.5846 N   0  0  0  0  0  0  0  0  0  0  0  0
  148.9817  135.8005  155.9195 C   0  0  0  0  0  0  0  0  0  0  0  0
  149.8815  134.8040  155.1629 C   0  0  0  0  0  0  0  0  0  0  0  0
  149.1215  133.6876  154.4673 C   0  0  0  0  0  0  0  0  0  0  0  0
  149.1986  132.3467  154.9021 C   0  0  0  0  0  0  0  0  0  0  0  0
  148.4886  131.3518  154.1978 C   0  0  0  0  0  0  0  0  0  0  0  0
  147.7155  131.7177  153.0764 C   0  0  0  0  0  0  0  0  0  0  0  0
  147.6736  133.0713  152.6863 C   0  0  0  0  0  0  0  0  0  0  0  0
  148.3697  133.9941  153.3850 N   0  3  0  0  0  0  0  0  0  0  0  0
  153.7698  140.8736  160.0123 C   0  0  0  0  0  0  0  0  0  0  0  0
  153.2215  142.1469  160.7047 C   0  0  0  0  0  0  0  0  0  0  0  0
  151.2617  144.1525  161.0474 H   0  0  0  0  0  0  0  0  0  0  0  0
  151.7579  145.1671  159.6949 H   0  0  0  0  0  0  0  0  0  0  0  0
  152.8554  144.9041  161.0455 H   0  0  0  0  0  0  0  0  0  0  0  0
  153.5267  143.5338  159.0882 H   0  0  0  0  0  0  0  0  0  0  0  0
  150.7542  142.2778  159.3399 H   0  0  0  0  0  0  0  0  0  0  0  0
  151.3352  143.2351  158.0086 H   0  0  0  0  0  0  0  0  0  0  0  0
  151.4237  140.8123  157.4585 H   0  0  0  0  0  0  0  0  0  0  0  0
  153.0038  141.5480  157.3948 H   0  0  0  0  0  0  0  0  0  0  0  0
  151.8976  139.8569  159.6786 H   0  0  0  0  0  0  0  0  0  0  0  0
  150.5855  138.3843  159.3690 H   0  0  0  0  0  0  0  0  0  0  0  0
  150.7425  138.9396  157.7014 H   0  0  0  0  0  0  0  0  0  0  0  0
  150.0900  137.6017  156.0002 H   0  0  0  0  0  0  0  0  0  0  0  0
  148.3518  135.2681  156.6340 H   0  0  0  0  0  0  0  0  0  0  0  0
  148.3001  136.2771  155.2149 H   0  0  0  0  0  0  0  0  0  0  0  0
  150.4702  135.3404  154.4179 H   0  0  0  0  0  0  0  0  0  0  0  0
  150.6012  134.3636  155.8544 H   0  0  0  0  0  0  0  0  0  0  0  0
  149.8018  132.0814  155.7583 H   0  0  0  0  0  0  0  0  0  0  0  0
  148.5402  130.3195  154.5116 H   0  0  0  0  0  0  0  0  0  0  0  0
  147.1693  130.9714  152.5185 H   0  0  0  0  0  0  0  0  0  0  0  0
  147.1217  133.4413  151.8342 H   0  0  0  0  0  0  0  0  0  0  0  0
  154.0996  140.1688  160.7759 H   0  0  0  0  0  0  0  0  0  0  0  0
  154.6611  141.1419  159.4428 H   0  0  0  0  0  0  0  0  0  0  0  0
  154.0135  142.5912  161.3083 H   0  0  0  0  0  0  0  0  0  0  0  0
  152.4307  141.8766  161.4076 H   0  0  0  0  0  0  0  0  0  0  0  0
  148.3388  134.9647  153.0693 H   0  0  0  0  0  0  0  0  0  0  0  0
  1  2  1  0  0  0  0
  1 24  1  0  0  0  0
  1 25  1  0  0  0  0
  1 26  1  0  0  0  0
  2 23  1  0  0  0  0
  2  3  1  0  0  0  0
  2 27  1  0  0  0  0
  3  4  1  0  0  0  0
  3 28  1  0  0  0  0
  3 29  1  0  0  0  0
  4  5  1  0  0  0  0
  4 30  1  0  0  0  0
  4 31  1  0  0  0  0
  5  6  1  0  0  0  0
  5 22  1  0  0  0  0
  5 32  1  0  0  0  0
  6  7  1  0  0  0  0
  7  8  2  0  0  0  0
  7  9  2  0  0  0  0
  7 10  1  0  0  0  0
 10 11  1  0  0  0  0
 10 33  1  0  0  0  0
 10 34  1  0  0  0  0
 11 12  2  0  0  0  0
 11 13  1  0  0  0  0
 13 14  1  0  0  0  0
 13 35  1  0  0  0  0
 14 15  1  0  0  0  0
 14 36  1  0  0  0  0
 14 37  1  0  0  0  0
 15 16  1  0  0  0  0
 15 38  1  0  0  0  0
 15 39  1  0  0  0  0
 16 21  1  0  0  0  0
 16 17  2  0  0  0  0
 17 18  1  0  0  0  0
 17 40  1  0  0  0  0
 18 19  2  0  0  0  0
 18 41  1  0  0  0  0
 19 20  1  0  0  0  0
 19 42  1  0  0  0  0
 20 21  2  0  0  0  0
 20 43  1  0  0  0  0
 21 48  1  0  0  0  0
 22 23  1  0  0  0  0
 22 44  1  0  0  0  0
 22 45  1  0  0  0  0
 23 46  1  0  0  0  0
 23 47  1  0  0  0  0
M  CHG  1   6  -1
M  CHG  1  21   1
M  END
> <s_m_source_file>
AV-unprocessed.smi

> <i_m_source_file_index>
1120

> <i_lp_mmshare_version>
43012

> <i_f3d_flags>
0

> <s_epik_input>
W0NIM11bQ0BASF0xW0NIMl1bQ0gyXVtDQEhdKFtDSDJdW0NIMl0xKVtOSF1TKD1PKSg9TylbQ0gyXUMoPU8pW05IXVtDSDJdW0NIMl1jMltjSF1bY0hdW2NIXVtjSF1uMg==

> <s_epik_cmdline>
J2VwaWtfcHl0aG9uJywgJy1waCcsICc3LjAnLCAnLXRuJywgJzgnLCAnLW1hJywgJzIwMCcsICctbWV0YWxfYmluZGluZycsICctaW1hZScsICc8aW5maWxlLm1hZT4nLCAnLW9tYWUnLCAnPG91dGZpbGUubWFlPic=

> <r_epik_Ionization_Penalty>
7.48373

> <r_epik_Ionization_Penalty_Charging>
7.48373

> <r_epik_Ionization_Penalty_Neutral>
1.58512e-08

> <r_epik_State_Penalty>
7.71683

> <r_epik_Charging_Adjusted_Penalty>
15.2006

> <i_epik_Tot_Q>
0

> <i_epik_Tot_abs_Q>
2

> <r_epik_Metal_State_Penalty>
3.7254

> <b_epik_Metal_Only>
1

> <s_lp_Force_Field>
OPLS_2005

> <r_lp_Energy>
6.08915

> <b_lp_Chiralities_Consistent>
1

> <s_lp_Variant>
AV-unprocessed.smi:1120-7

> <Gold.Version>
5.8.1

> <Gold.Id.Protein>
6NUR|6NUR_protein|mol2

> <Gold.PLP.Fitness>
55.6889

> <Gold.PLP.PLP>
-40.9570

> <Gold.PLP.part.hbond>
-3.7554

> <Gold.PLP.part.metal>
0.0000

> <Gold.PLP.part.buried>
-4.3266

> <Gold.PLP.part.nonpolar>
-32.1904

> <Gold.PLP.part.repulsive>
0.0191

> <Gold.PLP.ligand.clash>
0.0000

> <Gold.PLP.ligand.torsion>
1.6243

> <Gold.PLP.Chemscore.Hbond>
5.6263

> <Gold.PLP.Chemscore.CHOScore>
0.0000

> <Gold.PLP.Chemscore.Metal>
0.0000

> <Gold.Chemscore.Hbonds>
donor molecule, donor type, donor heavy atom, donor atom, acceptor molecule, acceptor atom, score
      L1  H    21    48       P1  7948  1.82
      P1  H  6896  6907       L1     9  0.70
      P1  H  6896  6909       L1    12  0.98
      P1  H  7997  8008       L1     6  1.98

> <Gold.PLP.Chemscore.Internal.Correction>
1.1017

> <Gold.Rescore>
     Score         DG    S(hbond)    S(metal)    S(lipo)     H(rot)  DE(clash)    DE(int)     intcor
     21.55     -23.07       3.06        0.00     106.39       1.98       0.03       1.49       ----

> <Gold.Chemscore.Fitness>
21.5518

> <Gold.Chemscore.DG>
-23.0655

> <Gold.Chemscore.ZeroCoef>
-5.4800

> <Gold.Chemscore.Hbond>
3.0585

> <Gold.Chemscore.Metal>
0.0000

> <Gold.Chemscore.Lipo>
106.3850

> <Gold.Chemscore.Internal_Hbond>
0.0000

> <Gold.Chemscore.DEClash>
0.0255

> <Gold.Chemscore.DEInternal>
1.4882

> <Gold.Chemscore.Rot>
1.9832

> <Gold.Chemscore.Internal.Correction>
   9.000000E+99

> <Gold.Chemscore.Hbonds>
donor molecule, donor type, donor heavy atom, donor atom, acceptor molecule, acceptor atom, score
      L1  H    21    48       P1  7948  0.72
      P1  H  6896  6907       L1     9  0.66
      P1  H  6896  6909       L1    12  0.90
      P1  H  7997  8008       L1     6  0.41

> <Gold.Chemscore.Hbond.Weighted>
-10.2153

> <Gold.Chemscore.Metal.Weighted>
-0.0000

> <Gold.Chemscore.Lipo.Weighted>
-12.4471

> <Gold.Chemscore.Internal_Hbond.Weighted>
0.0000

> <Gold.Chemscore.DEClash.Weighted>
0.0255

> <Gold.Chemscore.DEInternal.Weighted>
1.4882

> <Gold.Chemscore.Rot.Weighted>
5.0769

> <Gold.Chemscore.Internal.Correction.Weighted>
   9.000000E+99

> <Gold.Protein.RotatedTorsions>
[ 6907 6896 6895 6894 ] final   43.06 input  -60.11 | X-H torsion
[ 7974 7965 7964 7962 ] final  153.46 input  175.53 | X-H torsion
[ 8008 7997 7996 7995 ] final  -88.69 input   59.86 | X-H torsion
[ 10167 10162 10161 10158 ] final   70.01 input  -65.29 | X-H torsion
[ 10718 10713 10712 10709 ] final  -48.72 input   66.30 | X-H torsion
[ 10763 10752 10751 10750 ] final -166.03 input  -60.55 | X-H torsion
[ 11005 11000 10999 10996 ] final  100.04 input  -57.11 | X-H torsion

> <Gold.Protein.ActiveResidues>
 VAL166  LYS551  ARG553  GLY616  TRP617  ASP618  TYR619  PRO620  LYS621  CYS622 
 ASP623  PHE694  ASN695  SER759  ASP760  ASP761  ALA762  ILE779  LEU786  VAL792 
 PHE793  MET794  SER795  GLU796  ALA797  LYS798  CYS799  TRP800  GLU811  SER814 

> <Gold.Protein.RotatedAtoms>
  152.2156  134.8461  160.0491 H   0  0  0  0  0  0  0  0  0  0  0  0  # atno 6907 bound_to 6896
  151.9263  133.3594  159.3923 H   0  0  0  0  0  0  0  0  0  0  0  0  # atno 6908 bound_to 6896
  150.6987  134.4508  159.5379 H   0  0  0  0  0  0  0  0  0  0  0  0  # atno 6909 bound_to 6896
  144.8153  139.6803  143.6124 H   0  0  0  0  0  0  0  0  0  0  0  0  # atno 7974 bound_to 7965
  154.6777  140.0550  157.0233 H   0  0  0  0  0  0  0  0  0  0  0  0  # atno 8008 bound_to 7997
  155.0996  140.3227  155.4532 H   0  0  0  0  0  0  0  0  0  0  0  0  # atno 8009 bound_to 7997
  156.2682  140.2033  156.6122 H   0  0  0  0  0  0  0  0  0  0  0  0  # atno 8010 bound_to 7997
  140.0616  144.5228  150.7290 H   0  0  0  0  0  0  0  0  0  0  0  0  # atno 10167 bound_to 10162
  156.1961  130.4154  149.9304 H   0  0  0  0  0  0  0  0  0  0  0  0  # atno 10718 bound_to 10713
  154.6873  135.2964  154.9529 H   0  0  0  0  0  0  0  0  0  0  0  0  # atno 10763 bound_to 10752
  154.0504  135.6645  153.4803 H   0  0  0  0  0  0  0  0  0  0  0  0  # atno 10764 bound_to 10752
  153.0588  135.5128  154.7947 H   0  0  0  0  0  0  0  0  0  0  0  0  # atno 10765 bound_to 10752
  139.8771  134.9122  156.4696 H   0  0  0  0  0  0  0  0  0  0  0  0  # atno 11005 bound_to 11000
  146.2456  139.6091  142.9462 LP  0  0  0  0  0  0  0  0  0  0  0  0  # atno 17320 bound_to 7965
  145.5228  141.0431  143.2426 LP  0  0  0  0  0  0  0  0  0  0  0  0  # atno 17321 bound_to 7965
  140.7169  143.2553  151.4405 LP  0  0  0  0  0  0  0  0  0  0  0  0  # atno 17342 bound_to 10162
  139.5890  144.1540  152.2065 LP  0  0  0  0  0  0  0  0  0  0  0  0  # atno 17343 bound_to 10162
  156.7029  130.8940  151.3601 LP  0  0  0  0  0  0  0  0  0  0  0  0  # atno 17370 bound_to 10713
  157.6958  130.9281  150.0642 LP  0  0  0  0  0  0  0  0  0  0  0  0  # atno 17371 bound_to 10713
  140.8805  133.7921  155.9461 LP  0  0  0  0  0  0  0  0  0  0  0  0  # atno 17394 bound_to 11000
  140.8859  134.2555  157.5120 LP  0  0  0  0  0  0  0  0  0  0  0  0  # atno 17395 bound_to 11000

$$$$
