AV-unprocessed.smi:2725|AV-procd|sdf|10518|dock5
  -GOLD-   2272014563D 1   1.00000     0.00000
 Structure written by MMmdl.
 45 46  0  0  0  0  0  0  0  0  2 V2000
  151.5408  140.3596  155.2998 O   0  0  0  0  0  0  0  0  0  0  0  0
  150.7513  140.3254  156.2438 C   0  0  0  0  0  0  0  0  0  0  0  0
  151.1584  140.8637  157.6187 C   0  0  0  0  0  0  0  0  0  0  0  0
  151.5387  142.3562  157.5892 C   0  0  0  0  0  0  0  0  0  0  0  0
  151.4999  143.0181  158.9780 C   0  0  0  0  0  0  0  0  0  0  0  0
  151.7789  144.5252  158.9714 C   0  0  0  0  0  0  0  0  0  0  0  0
  152.2445  144.8636  160.3934 C   0  0  0  0  0  0  0  0  0  0  0  0
  152.6621  143.5348  161.0414 C   0  0  0  0  0  0  0  0  0  0  0  0
  152.5580  142.4759  159.9408 C   0  0  0  0  0  0  0  0  0  0  0  0
  149.5069  139.8312  156.1429 N   0  0  0  0  0  0  0  0  0  0  0  0
  148.9089  139.2796  154.9283 C   0  0  1  0  0  0  0  0  0  0  0  0
  148.3653  140.4271  154.0462 C   0  0  0  0  0  0  0  0  0  0  0  0
  149.4161  141.2267  153.5458 O   0  0  0  0  0  0  0  0  0  0  0  0
  149.9547  138.3867  154.2257 C   0  0  0  0  0  0  0  0  0  0  0  0
  150.2735  137.1035  154.9724 C   0  0  0  0  0  0  0  0  0  0  0  0
  151.0227  137.1041  156.1691 C   0  0  0  0  0  0  0  0  0  0  0  0
  151.2749  135.8815  156.8258 C   0  0  0  0  0  0  0  0  0  0  0  0
  150.7728  134.6850  156.2735 C   0  0  0  0  0  0  0  0  0  0  0  0
  150.0295  134.7418  155.0770 C   0  0  0  0  0  0  0  0  0  0  0  0
  149.8095  135.9326  154.4775 N   0  3  0  0  0  0  0  0  0  0  0  0
  150.3275  140.7002  158.3053 H   0  0  0  0  0  0  0  0  0  0  0  0
  151.9988  140.2817  158.0001 H   0  0  0  0  0  0  0  0  0  0  0  0
  152.5447  142.4595  157.1796 H   0  0  0  0  0  0  0  0  0  0  0  0
  150.8775  142.8979  156.9112 H   0  0  0  0  0  0  0  0  0  0  0  0
  150.5196  142.8498  159.4270 H   0  0  0  0  0  0  0  0  0  0  0  0
  152.5806  144.7510  158.2669 H   0  0  0  0  0  0  0  0  0  0  0  0
  150.9072  145.1084  158.6729 H   0  0  0  0  0  0  0  0  0  0  0  0
  153.0680  145.5782  160.3732 H   0  0  0  0  0  0  0  0  0  0  0  0
  151.4338  145.3174  160.9645 H   0  0  0  0  0  0  0  0  0  0  0  0
  153.6653  143.5791  161.4668 H   0  0  0  0  0  0  0  0  0  0  0  0
  151.9744  143.2926  161.8526 H   0  0  0  0  0  0  0  0  0  0  0  0
  152.3016  141.4916  160.3338 H   0  0  0  0  0  0  0  0  0  0  0  0
  153.5177  142.3876  159.4291 H   0  0  0  0  0  0  0  0  0  0  0  0
  148.9285  139.8432  156.9705 H   0  0  0  0  0  0  0  0  0  0  0  0
  148.0763  138.6427  155.2353 H   0  0  0  0  0  0  0  0  0  0  0  0
  147.8377  140.0293  153.1785 H   0  0  0  0  0  0  0  0  0  0  0  0
  147.6518  141.0446  154.5924 H   0  0  0  0  0  0  0  0  0  0  0  0
  150.2221  140.7367  153.6078 H   0  0  0  0  0  0  0  0  0  0  0  0
  149.6198  138.1404  153.2168 H   0  0  0  0  0  0  0  0  0  0  0  0
  150.8871  138.9405  154.1045 H   0  0  0  0  0  0  0  0  0  0  0  0
  151.3962  138.0298  156.5824 H   0  0  0  0  0  0  0  0  0  0  0  0
  151.8453  135.8623  157.7429 H   0  0  0  0  0  0  0  0  0  0  0  0
  150.9538  133.7385  156.7617 H   0  0  0  0  0  0  0  0  0  0  0  0
  149.6058  133.8779  154.5861 H   0  0  0  0  0  0  0  0  0  0  0  0
  149.2644  135.9499  153.6154 H   0  0  0  0  0  0  0  0  0  0  0  0
  1  2  2  0  0  0  0
  2  3  1  0  0  0  0
  2 10  1  0  0  0  0
  3  4  1  0  0  0  0
  3 21  1  0  0  0  0
  3 22  1  0  0  0  0
  4  5  1  0  0  0  0
  4 23  1  0  0  0  0
  4 24  1  0  0  0  0
  5  9  1  0  0  0  0
  5  6  1  0  0  0  0
  5 25  1  0  0  0  0
  6  7  1  0  0  0  0
  6 26  1  0  0  0  0
  6 27  1  0  0  0  0
  7  8  1  0  0  0  0
  7 28  1  0  0  0  0
  7 29  1  0  0  0  0
  8  9  1  0  0  0  0
  8 30  1  0  0  0  0
  8 31  1  0  0  0  0
  9 32  1  0  0  0  0
  9 33  1  0  0  0  0
 10 11  1  0  0  0  0
 10 34  1  0  0  0  0
 11 12  1  0  0  0  0
 11 14  1  0  0  0  0
 11 35  1  0  0  0  0
 12 13  1  0  0  0  0
 12 36  1  0  0  0  0
 12 37  1  0  0  0  0
 13 38  1  0  0  0  0
 14 15  1  0  0  0  0
 14 39  1  0  0  0  0
 14 40  1  0  0  0  0
 15 20  1  0  0  0  0
 15 16  2  0  0  0  0
 16 17  1  0  0  0  0
 16 41  1  0  0  0  0
 17 18  2  0  0  0  0
 17 42  1  0  0  0  0
 18 19  1  0  0  0  0
 18 43  1  0  0  0  0
 19 20  2  0  0  0  0
 19 44  1  0  0  0  0
 20 45  1  0  0  0  0
M  CHG  1  20   1
M  END
> <s_m_source_file>
AV-unprocessed.smi

> <i_m_source_file_index>
2725

> <i_lp_mmshare_version>
43012

> <i_f3d_flags>
0

> <s_epik_input>
W0NIMl0xW0NIMl1bQ0gyXVtDSDJdW0NIXTFbQ0gyXVtDSDJdQyg9TylbTkhdW0NASF0oW0NIMl1bT0hdKVtDSDJdYzJbY0hdW2NIXVtjSF1bY0hdbjI=

> <s_epik_cmdline>
J2VwaWtfcHl0aG9uJywgJy1waCcsICc3LjAnLCAnLXRuJywgJzgnLCAnLW1hJywgJzIwMCcsICctbWV0YWxfYmluZGluZycsICctaW1hZScsICc8aW5maWxlLm1hZT4nLCAnLW9tYWUnLCAnPG91dGZpbGUubWFlPic=

> <r_epik_Ionization_Penalty>
1.87189

> <r_epik_Ionization_Penalty_Charging>
1.87189

> <r_epik_Ionization_Penalty_Neutral>
6.79411e-08

> <r_epik_State_Penalty>
1.99097

> <r_epik_Charging_Adjusted_Penalty>
3.86287

> <i_epik_Tot_Q>
1

> <i_epik_Tot_abs_Q>
1

> <r_epik_Metal_State_Penalty>
2.01578

> <b_epik_Metal_Only>
0

> <s_lp_Force_Field>
OPLS_2005

> <r_lp_Energy>
28.0453

> <b_lp_Chiralities_Consistent>
1

> <s_lp_Variant>
AV-unprocessed.smi:2725-4

> <Gold.Version>
5.8.1

> <Gold.Id.Protein>
6NUR|6NUR_protein|mol2

> <Gold.PLP.Fitness>
52.8216

> <Gold.PLP.PLP>
-42.2388

> <Gold.PLP.part.hbond>
-5.7643

> <Gold.PLP.part.metal>
0.0000

> <Gold.PLP.part.buried>
-3.7980

> <Gold.PLP.part.nonpolar>
-33.4118

> <Gold.PLP.part.repulsive>
0.1094

> <Gold.PLP.ligand.clash>
0.0064

> <Gold.PLP.ligand.torsion>
0.5825

> <Gold.PLP.Chemscore.Hbond>
3.8800

> <Gold.PLP.Chemscore.CHOScore>
0.0000

> <Gold.PLP.Chemscore.Metal>
0.0000

> <Gold.Chemscore.Hbonds>
donor molecule, donor type, donor heavy atom, donor atom, acceptor molecule, acceptor atom, score
      L1  H    20    45       P1  7948  2.00
      P1  H  7989  7998       L1     1  0.90
      P1  H  8011  8017       L1    13  0.98

> <Gold.PLP.Chemscore.Internal.Correction>
0.1141

> <Gold.Rescore>
     Score         DG    S(hbond)    S(metal)    S(lipo)     H(rot)  DE(clash)    DE(int)     intcor
     16.49     -21.17       2.71        0.00     113.14       2.58       1.91       2.77       ----

> <Gold.Chemscore.Fitness>
16.4888

> <Gold.Chemscore.DG>
-21.1719

> <Gold.Chemscore.ZeroCoef>
-5.4800

> <Gold.Chemscore.Hbond>
2.7104

> <Gold.Chemscore.Metal>
0.0000

> <Gold.Chemscore.Lipo>
113.1362

> <Gold.Chemscore.Internal_Hbond>
0.0000

> <Gold.Chemscore.DEClash>
1.9123

> <Gold.Chemscore.DEInternal>
2.7708

> <Gold.Chemscore.Rot>
2.5773

> <Gold.Chemscore.Internal.Correction>
   9.000000E+99

> <Gold.Chemscore.Hbonds>
donor molecule, donor type, donor heavy atom, donor atom, acceptor molecule, acceptor atom, score
      L1  H    20    45       P1  7948  0.73
      P1  H  7989  7998       L1     1  0.88
      P1  H  8011  8017       L1    13  0.32

> <Gold.Chemscore.Hbond.Weighted>
-9.0527

> <Gold.Chemscore.Metal.Weighted>
-0.0000

> <Gold.Chemscore.Lipo.Weighted>
-13.2369

> <Gold.Chemscore.Internal_Hbond.Weighted>
0.0000

> <Gold.Chemscore.DEClash.Weighted>
1.9123

> <Gold.Chemscore.DEInternal.Weighted>
2.7708

> <Gold.Chemscore.Rot.Weighted>
6.5978

> <Gold.Chemscore.Internal.Correction.Weighted>
   9.000000E+99

> <Gold.Protein.RotatedTorsions>
[ 6907 6896 6895 6894 ] final  120.39 input  -60.11 | X-H torsion
[ 7974 7965 7964 7962 ] final    4.68 input  175.53 | X-H torsion
[ 8008 7997 7996 7995 ] final  -51.15 input   59.86 | X-H torsion
[ 10167 10162 10161 10158 ] final  -42.66 input  -65.29 | X-H torsion
[ 10718 10713 10712 10709 ] final  -30.87 input   66.30 | X-H torsion
[ 10763 10752 10751 10750 ] final -162.75 input  -60.55 | X-H torsion
[ 11005 11000 10999 10996 ] final  161.45 input  -57.11 | X-H torsion

> <Gold.Protein.ActiveResidues>
 VAL166  LYS551  ARG553  GLY616  TRP617  ASP618  TYR619  PRO620  LYS621  CYS622 
 ASP623  PHE694  ASN695  SER759  ASP760  ASP761  ALA762  ILE779  LEU786  VAL792 
 PHE793  MET794  SER795  GLU796  ALA797  LYS798  CYS799  TRP800  GLU811  SER814 

> <Gold.Protein.RotatedAtoms>
  152.4401  133.7433  159.6652 H   0  0  0  0  0  0  0  0  0  0  0  0  # atno 6907 bound_to 6896
  150.8291  133.8111  159.3112 H   0  0  0  0  0  0  0  0  0  0  0  0  # atno 6908 bound_to 6896
  151.5771  135.1062  160.0060 H   0  0  0  0  0  0  0  0  0  0  0  0  # atno 6909 bound_to 6896
  146.2443  140.0499  142.8376 H   0  0  0  0  0  0  0  0  0  0  0  0  # atno 7974 bound_to 7965
  154.4076  140.1255  156.4782 H   0  0  0  0  0  0  0  0  0  0  0  0  # atno 8008 bound_to 7997
  155.7112  140.3494  155.4955 H   0  0  0  0  0  0  0  0  0  0  0  0  # atno 8009 bound_to 7997
  155.9299  140.1068  157.1131 H   0  0  0  0  0  0  0  0  0  0  0  0  # atno 8010 bound_to 7997
  140.6961  143.3025  151.3241 H   0  0  0  0  0  0  0  0  0  0  0  0  # atno 10167 bound_to 10162
  156.3944  130.4379  149.7370 H   0  0  0  0  0  0  0  0  0  0  0  0  # atno 10718 bound_to 10713
  154.7185  135.3021  154.9085 H   0  0  0  0  0  0  0  0  0  0  0  0  # atno 10763 bound_to 10752
  153.9964  135.6712  153.4761 H   0  0  0  0  0  0  0  0  0  0  0  0  # atno 10764 bound_to 10752
  153.0814  135.5007  154.8426 H   0  0  0  0  0  0  0  0  0  0  0  0  # atno 10765 bound_to 10752
  140.2160  134.8232  157.3170 H   0  0  0  0  0  0  0  0  0  0  0  0  # atno 11005 bound_to 11000
  145.0994  140.9336  143.4722 LP  0  0  0  0  0  0  0  0  0  0  0  0  # atno 17320 bound_to 7965
  145.0688  139.3047  143.5842 LP  0  0  0  0  0  0  0  0  0  0  0  0  # atno 17321 bound_to 7965
  139.6419  144.0524  152.2561 LP  0  0  0  0  0  0  0  0  0  0  0  0  # atno 17342 bound_to 10162
  140.0032  144.6278  150.7712 LP  0  0  0  0  0  0  0  0  0  0  0  0  # atno 17343 bound_to 10162
  156.4411  130.7861  151.2882 LP  0  0  0  0  0  0  0  0  0  0  0  0  # atno 17370 bound_to 10713
  157.7501  131.0124  150.3385 LP  0  0  0  0  0  0  0  0  0  0  0  0  # atno 17371 bound_to 10713
  140.1900  134.4383  155.7721 LP  0  0  0  0  0  0  0  0  0  0  0  0  # atno 17394 bound_to 11000
  141.2225  133.7023  156.8012 LP  0  0  0  0  0  0  0  0  0  0  0  0  # atno 17395 bound_to 11000

$$$$
