AV-unprocessed.smi:2451|AV-procd|sdf|9677|dock2
  -GOLD-   2272013313D 1   1.00000     0.00000
 Structure written by MMmdl.
 37 38  0  0  0  0  0  0  0  0  2 V2000
  153.4072  142.4016  160.7168 C   0  0  0  0  0  0  0  0  0  0  0  0
  152.8277  142.2654  159.2966 C   0  0  2  0  0  0  0  0  0  0  0  0
  152.0788  143.5709  158.9272 C   0  0  0  0  0  0  0  0  0  0  0  0
  151.4624  143.4679  157.5187 C   0  0  0  0  0  0  0  0  0  0  0  0
  150.5629  142.2186  157.3510 C   0  0  0  0  0  0  0  0  0  0  0  0
  151.2686  140.8887  157.7074 C   0  0  1  0  0  0  0  0  0  0  0  0
  152.2794  140.5890  156.6999 N   0  5  0  0  0  0  0  0  0  0  0  0
  152.0216  139.4135  155.6128 S   0  0  0  0  0  0  0  0  0  0  0  0
  150.9184  139.7200  154.6870 O   0  0  0  0  0  0  0  0  0  0  0  0
  153.2785  138.9263  155.0221 O   0  0  0  0  0  0  0  0  0  0  0  0
  151.4186  138.0575  156.7123 C   0  0  0  0  0  0  0  0  0  0  0  0
  150.8067  136.9496  155.8980 C   0  0  0  0  0  0  0  0  0  0  0  0
  149.4914  136.4129  155.9819 C   0  0  0  0  0  0  0  0  0  0  0  0
  149.4792  135.4441  155.0210 C   0  0  0  0  0  0  0  0  0  0  0  0
  150.6844  135.3742  154.4014 O   0  0  0  0  0  0  0  0  0  0  0  0
  151.5268  136.3356  154.9712 N   0  0  0  0  0  0  0  0  0  0  0  0
  151.9157  140.9998  159.1279 C   0  0  1  0  0  0  0  0  0  0  0  0
  152.6049  139.6848  159.5728 C   0  0  0  0  0  0  0  0  0  0  0  0
  152.6174  142.4022  161.4687 H   0  0  0  0  0  0  0  0  0  0  0  0
  153.9678  143.3307  160.8232 H   0  0  0  0  0  0  0  0  0  0  0  0
  154.0973  141.5917  160.9510 H   0  0  0  0  0  0  0  0  0  0  0  0
  153.6826  142.1738  158.6228 H   0  0  0  0  0  0  0  0  0  0  0  0
  151.2887  143.7621  159.6548 H   0  0  0  0  0  0  0  0  0  0  0  0
  152.7558  144.4244  158.9709 H   0  0  0  0  0  0  0  0  0  0  0  0
  150.8756  144.3640  157.3159 H   0  0  0  0  0  0  0  0  0  0  0  0
  152.2596  143.4633  156.7727 H   0  0  0  0  0  0  0  0  0  0  0  0
  149.6910  142.3320  157.9963 H   0  0  0  0  0  0  0  0  0  0  0  0
  150.1730  142.1760  156.3331 H   0  0  0  0  0  0  0  0  0  0  0  0
  150.5051  140.1103  157.7425 H   0  0  0  0  0  0  0  0  0  0  0  0
  152.2732  137.6922  157.2816 H   0  0  0  0  0  0  0  0  0  0  0  0
  150.7066  138.4747  157.4239 H   0  0  0  0  0  0  0  0  0  0  0  0
  148.6829  136.7040  156.6362 H   0  0  0  0  0  0  0  0  0  0  0  0
  148.7266  134.7511  154.6755 H   0  0  0  0  0  0  0  0  0  0  0  0
  151.0818  141.1359  159.8182 H   0  0  0  0  0  0  0  0  0  0  0  0
  153.5274  139.4981  159.0208 H   0  0  0  0  0  0  0  0  0  0  0  0
  151.9598  138.8129  159.4458 H   0  0  0  0  0  0  0  0  0  0  0  0
  152.8618  139.7102  160.6309 H   0  0  0  0  0  0  0  0  0  0  0  0
  1  2  1  0  0  0  0
  1 19  1  0  0  0  0
  1 20  1  0  0  0  0
  1 21  1  0  0  0  0
  2 17  1  0  0  0  0
  2  3  1  0  0  0  0
  2 22  1  0  0  0  0
  3  4  1  0  0  0  0
  3 23  1  0  0  0  0
  3 24  1  0  0  0  0
  4  5  1  0  0  0  0
  4 25  1  0  0  0  0
  4 26  1  0  0  0  0
  5  6  1  0  0  0  0
  5 27  1  0  0  0  0
  5 28  1  0  0  0  0
  6  7  1  0  0  0  0
  6 17  1  0  0  0  0
  6 29  1  0  0  0  0
  7  8  1  0  0  0  0
  8  9  2  0  0  0  0
  8 10  2  0  0  0  0
  8 11  1  0  0  0  0
 11 12  1  0  0  0  0
 11 30  1  0  0  0  0
 11 31  1  0  0  0  0
 12 16  2  0  0  0  0
 12 13  1  0  0  0  0
 13 14  2  0  0  0  0
 13 32  1  0  0  0  0
 14 15  1  0  0  0  0
 14 33  1  0  0  0  0
 15 16  1  0  0  0  0
 17 18  1  0  0  0  0
 17 34  1  0  0  0  0
 18 35  1  0  0  0  0
 18 36  1  0  0  0  0
 18 37  1  0  0  0  0
M  CHG  1   7  -1
M  END
> <s_m_source_file>
AV-unprocessed.smi

> <i_m_source_file_index>
2451

> <i_lp_mmshare_version>
43012

> <i_f3d_flags>
0

> <s_epik_input>
W0NIM11bQ0BASF0xW0NIMl1bQ0gyXVtDSDJdW0NASF0oW0NASF0xW0NIM10pW05IXVMoPU8pKD1PKVtDSDJdYzJbY0hdW2NIXW9uMg==

> <s_epik_cmdline>
J2VwaWtfcHl0aG9uJywgJy1waCcsICc3LjAnLCAnLXRuJywgJzgnLCAnLW1hJywgJzIwMCcsICctbWV0YWxfYmluZGluZycsICctaW1hZScsICc8aW5maWxlLm1hZT4nLCAnLW9tYWUnLCAnPG91dGZpbGUubWFlPic=

> <r_lp_tautomer_probability>
1

> <r_epik_Ionization_Penalty>
5.22693

> <r_epik_Ionization_Penalty_Charging>
5.22693

> <r_epik_Ionization_Penalty_Neutral>
2.67702e-10

> <r_epik_State_Penalty>
5.22685

> <r_epik_Charging_Adjusted_Penalty>
10.4538

> <i_epik_Tot_Q>
-1

> <i_epik_Tot_abs_Q>
1

> <r_epik_Metal_State_Penalty>
1.28716

> <b_epik_Metal_Only>
1

> <s_lp_Force_Field>
OPLS_2005

> <r_lp_Energy>
15.2767

> <b_lp_Chiralities_Consistent>
1

> <s_lp_Variant>
AV-unprocessed.smi:2451-9

> <Gold.Version>
5.8.1

> <Gold.Id.Protein>
6NUR|6NUR_protein|mol2

> <Gold.PLP.Fitness>
39.0836

> <Gold.PLP.PLP>
-31.0117

> <Gold.PLP.part.hbond>
-4.6166

> <Gold.PLP.part.metal>
0.0000

> <Gold.PLP.part.buried>
-1.4649

> <Gold.PLP.part.nonpolar>
-25.5604

> <Gold.PLP.part.repulsive>
1.2381

> <Gold.PLP.ligand.clash>
0.0000

> <Gold.PLP.ligand.torsion>
0.9597

> <Gold.PLP.Chemscore.Hbond>
3.0000

> <Gold.PLP.Chemscore.CHOScore>
0.0000

> <Gold.PLP.Chemscore.Metal>
0.0000

> <Gold.Chemscore.Hbonds>
donor molecule, donor type, donor heavy atom, donor atom, acceptor molecule, acceptor atom, score
      P1  H  7989  7998       L1     9  1.00
      P1  H  7997  8008       L1    10  1.00
      P1  H 10752 10765       L1    16  1.00

> <Gold.PLP.Chemscore.Internal.Correction>
0.9914

> <Gold.Rescore>
     Score         DG    S(hbond)    S(metal)    S(lipo)     H(rot)  DE(clash)    DE(int)     intcor
     16.07     -17.65       1.68        0.00      86.72       1.40       0.68       0.90       ----

> <Gold.Chemscore.Fitness>
16.0656

> <Gold.Chemscore.DG>
-17.6471

> <Gold.Chemscore.ZeroCoef>
-5.4800

> <Gold.Chemscore.Hbond>
1.6769

> <Gold.Chemscore.Metal>
0.0000

> <Gold.Chemscore.Lipo>
86.7237

> <Gold.Chemscore.Internal_Hbond>
0.0000

> <Gold.Chemscore.DEClash>
0.6810

> <Gold.Chemscore.DEInternal>
0.9005

> <Gold.Chemscore.Rot>
1.3986

> <Gold.Chemscore.Internal.Correction>
   9.000000E+99

> <Gold.Chemscore.Hbonds>
donor molecule, donor type, donor heavy atom, donor atom, acceptor molecule, acceptor atom, score
      P1  H  7989  7998       L1     9  0.45
      P1  H  7997  8008       L1    10  0.25
      P1  H 10752 10765       L1    16  0.25

> <Gold.Chemscore.Hbond.Weighted>
-5.6008

> <Gold.Chemscore.Metal.Weighted>
-0.0000

> <Gold.Chemscore.Lipo.Weighted>
-10.1467

> <Gold.Chemscore.Internal_Hbond.Weighted>
0.0000

> <Gold.Chemscore.DEClash.Weighted>
0.6810

> <Gold.Chemscore.DEInternal.Weighted>
0.9005

> <Gold.Chemscore.Rot.Weighted>
3.5804

> <Gold.Chemscore.Internal.Correction.Weighted>
   9.000000E+99

> <Gold.Protein.RotatedTorsions>
[ 6907 6896 6895 6894 ] final   15.88 input  -60.11 | X-H torsion
[ 7974 7965 7964 7962 ] final  -27.59 input  175.53 | X-H torsion
[ 8008 7997 7996 7995 ] final   -8.36 input   59.86 | X-H torsion
[ 10167 10162 10161 10158 ] final   -9.44 input  -65.29 | X-H torsion
[ 10718 10713 10712 10709 ] final   72.15 input   66.30 | X-H torsion
[ 10763 10752 10751 10750 ] final -165.39 input  -60.55 | X-H torsion
[ 11005 11000 10999 10996 ] final   68.49 input  -57.11 | X-H torsion

> <Gold.Protein.ActiveResidues>
 VAL166  LYS551  ARG553  GLY616  TRP617  ASP618  TYR619  PRO620  LYS621  CYS622 
 ASP623  PHE694  ASN695  SER759  ASP760  ASP761  ALA762  ILE779  LEU786  VAL792 
 PHE793  MET794  SER795  GLU796  ALA797  LYS798  CYS799  TRP800  GLU811  SER814 

> <Gold.Protein.RotatedAtoms>
  151.8251  135.0639  160.0429 H   0  0  0  0  0  0  0  0  0  0  0  0  # atno 6907 bound_to 6896
  152.2922  133.5568  159.5573 H   0  0  0  0  0  0  0  0  0  0  0  0  # atno 6908 bound_to 6896
  150.7235  134.0328  159.3781 H   0  0  0  0  0  0  0  0  0  0  0  0  # atno 6909 bound_to 6896
  146.1347  140.5172  142.8678 H   0  0  0  0  0  0  0  0  0  0  0  0  # atno 7974 bound_to 7965
  154.5749  140.2383  155.8137 H   0  0  0  0  0  0  0  0  0  0  0  0  # atno 8008 bound_to 7997
  156.2135  140.3019  155.9744 H   0  0  0  0  0  0  0  0  0  0  0  0  # atno 8009 bound_to 7997
  155.2645  140.0416  157.2991 H   0  0  0  0  0  0  0  0  0  0  0  0  # atno 8010 bound_to 7997
  140.7087  143.5857  150.8945 H   0  0  0  0  0  0  0  0  0  0  0  0  # atno 10167 bound_to 10162
  157.6487  130.9564  150.0888 H   0  0  0  0  0  0  0  0  0  0  0  0  # atno 10718 bound_to 10713
  154.6936  135.2975  154.9443 H   0  0  0  0  0  0  0  0  0  0  0  0  # atno 10763 bound_to 10752
  154.0398  135.6659  153.4793 H   0  0  0  0  0  0  0  0  0  0  0  0  # atno 10764 bound_to 10752
  153.0630  135.5104  154.8042 H   0  0  0  0  0  0  0  0  0  0  0  0  # atno 10765 bound_to 10752
  139.9708  134.6903  156.0451 H   0  0  0  0  0  0  0  0  0  0  0  0  # atno 11005 bound_to 11000
  144.7727  140.5673  143.6659 LP  0  0  0  0  0  0  0  0  0  0  0  0  # atno 17320 bound_to 7965
  145.5182  139.1477  143.3567 LP  0  0  0  0  0  0  0  0  0  0  0  0  # atno 17321 bound_to 7965
  139.9583  143.6193  152.3009 LP  0  0  0  0  0  0  0  0  0  0  0  0  # atno 17342 bound_to 10162
  139.6736  144.7660  151.1737 LP  0  0  0  0  0  0  0  0  0  0  0  0  # atno 17343 bound_to 10162
  156.1843  130.3651  149.8994 LP  0  0  0  0  0  0  0  0  0  0  0  0  # atno 17370 bound_to 10713
  156.6938  130.8906  151.3591 LP  0  0  0  0  0  0  0  0  0  0  0  0  # atno 17371 bound_to 10713
  141.1388  133.6569  156.3669 LP  0  0  0  0  0  0  0  0  0  0  0  0  # atno 17394 bound_to 11000
  140.5297  134.6224  157.5346 LP  0  0  0  0  0  0  0  0  0  0  0  0  # atno 17395 bound_to 11000

$$$$
