AV-unprocessed.smi:1578|AV-procd|sdf|6350|dock2
  -GOLD-   22720 6563D 1   1.00000     0.00000
 Structure written by MMmdl.
 44 45  0  0  0  0  0  0  0  0  1 V2000
  148.2939  141.2541  156.3433 C   0  0  0  0  0  0  0  0  0  0  0  0
  149.2466  141.3185  157.5485 C   0  0  2  0  0  0  0  0  0  0  0  0
  150.4488  142.2452  157.2623 C   0  0  0  0  0  0  0  0  0  0  0  0
  150.8440  143.1330  158.3583 N   0  0  0  0  0  0  0  0  0  0  0  0
  151.9122  144.0588  157.9852 C   0  0  0  0  0  0  0  0  0  0  0  0
  152.2801  145.0158  159.1317 C   0  0  0  0  0  0  0  0  0  0  0  0
  151.1200  145.7205  159.5603 O   0  0  0  0  0  0  0  0  0  0  0  0
  150.0801  144.8486  159.9896 C   0  0  0  0  0  0  0  0  0  0  0  0
  149.6997  143.9006  158.8395 C   0  0  0  0  0  0  0  0  0  0  0  0
  149.7286  139.9752  157.8550 N   0  0  0  0  0  0  0  0  0  0  0  0
  148.9641  138.9080  158.1429 C   0  0  0  0  0  0  0  0  0  0  0  0
  147.7347  138.9416  158.1183 O   0  0  0  0  0  0  0  0  0  0  0  0
  149.6709  137.5995  158.5367 C   0  0  0  0  0  0  0  0  0  0  0  0
  148.7854  136.5744  159.1196 N   0  0  0  0  0  0  0  0  0  0  0  0
  148.1353  136.8993  160.3266 C   0  0  0  0  0  0  0  0  0  0  0  0
  147.2760  136.0657  160.9436 C   0  0  0  0  0  0  0  0  0  0  0  0
  146.6258  136.4266  162.2700 C   0  0  0  0  0  0  0  0  0  0  0  0
  145.9919  135.3782  162.7958 F   0  0  0  0  0  0  0  0  0  0  0  0
  147.5326  136.8528  163.1501 F   0  0  0  0  0  0  0  0  0  0  0  0
  145.7360  137.4012  162.0868 F   0  0  0  0  0  0  0  0  0  0  0  0
  147.0688  134.7741  160.3185 C   0  0  0  0  0  0  0  0  0  0  0  0
  147.6886  134.4443  159.1686 C   0  0  0  0  0  0  0  0  0  0  0  0
  148.6004  135.3719  158.4958 C   0  0  0  0  0  0  0  0  0  0  0  0
  149.1559  135.0895  157.4342 O   0  0  0  0  0  0  0  0  0  0  0  0
  147.9031  142.2423  156.0991 H   0  0  0  0  0  0  0  0  0  0  0  0
  147.4387  140.6089  156.5468 H   0  0  0  0  0  0  0  0  0  0  0  0
  148.7994  140.8677  155.4576 H   0  0  0  0  0  0  0  0  0  0  0  0
  148.6893  141.7165  158.3989 H   0  0  0  0  0  0  0  0  0  0  0  0
  151.3046  141.6592  156.9222 H   0  0  0  0  0  0  0  0  0  0  0  0
  150.1777  142.8749  156.4137 H   0  0  0  0  0  0  0  0  0  0  0  0
  152.8083  143.5070  157.7051 H   0  0  0  0  0  0  0  0  0  0  0  0
  151.6115  144.6393  157.1116 H   0  0  0  0  0  0  0  0  0  0  0  0
  152.7107  144.4660  159.9700 H   0  0  0  0  0  0  0  0  0  0  0  0
  153.0310  145.7326  158.7990 H   0  0  0  0  0  0  0  0  0  0  0  0
  150.4047  144.2850  160.8658 H   0  0  0  0  0  0  0  0  0  0  0  0
  149.2182  145.4436  160.2919 H   0  0  0  0  0  0  0  0  0  0  0  0
  149.2754  144.4838  158.0206 H   0  0  0  0  0  0  0  0  0  0  0  0
  148.9151  143.2231  159.1782 H   0  0  0  0  0  0  0  0  0  0  0  0
  150.7304  139.8569  157.8942 H   0  0  0  0  0  0  0  0  0  0  0  0
  150.1814  137.2019  157.6577 H   0  0  0  0  0  0  0  0  0  0  0  0
  150.4708  137.8478  159.2354 H   0  0  0  0  0  0  0  0  0  0  0  0
  148.3763  137.8775  160.7171 H   0  0  0  0  0  0  0  0  0  0  0  0
  146.4018  134.0593  160.7773 H   0  0  0  0  0  0  0  0  0  0  0  0
  147.5086  133.4739  158.7295 H   0  0  0  0  0  0  0  0  0  0  0  0
  1  2  1  0  0  0  0
  1 25  1  0  0  0  0
  1 26  1  0  0  0  0
  1 27  1  0  0  0  0
  2  3  1  0  0  0  0
  2 10  1  0  0  0  0
  2 28  1  0  0  0  0
  3  4  1  0  0  0  0
  3 29  1  0  0  0  0
  3 30  1  0  0  0  0
  4  9  1  0  0  0  0
  4  5  1  0  0  0  0
  5  6  1  0  0  0  0
  5 31  1  0  0  0  0
  5 32  1  0  0  0  0
  6  7  1  0  0  0  0
  6 33  1  0  0  0  0
  6 34  1  0  0  0  0
  7  8  1  0  0  0  0
  8  9  1  0  0  0  0
  8 35  1  0  0  0  0
  8 36  1  0  0  0  0
  9 37  1  0  0  0  0
  9 38  1  0  0  0  0
 10 11  1  0  0  0  0
 10 39  1  0  0  0  0
 11 12  2  0  0  0  0
 11 13  1  0  0  0  0
 13 14  1  0  0  0  0
 13 40  1  0  0  0  0
 13 41  1  0  0  0  0
 14 23  1  0  0  0  0
 14 15  1  0  0  0  0
 15 16  2  0  0  0  0
 15 42  1  0  0  0  0
 16 17  1  0  0  0  0
 16 21  1  0  0  0  0
 17 18  1  0  0  0  0
 17 19  1  0  0  0  0
 17 20  1  0  0  0  0
 21 22  2  0  0  0  0
 21 43  1  0  0  0  0
 22 23  1  0  0  0  0
 22 44  1  0  0  0  0
 23 24  2  0  0  0  0
M  END
> <s_m_source_file>
AV-unprocessed.smi

> <i_m_source_file_index>
1578

> <i_lp_mmshare_version>
43012

> <i_f3d_flags>
0

> <s_epik_input>
W0NIMl0xW0NIMl1PW0NIMl1bQ0gyXU4xW0NIMl1bQ0BASF0oW0NIM10pW05IXUMoPU8pW0NIMl1uMltjSF1jKEMoRikoRilGKVtjSF1bY0hdYzI9Tw==

> <s_epik_cmdline>
J2VwaWtfcHl0aG9uJywgJy1waCcsICc3LjAnLCAnLXRuJywgJzgnLCAnLW1hJywgJzIwMCcsICctbWV0YWxfYmluZGluZycsICctaW1hZScsICc8aW5maWxlLm1hZT4nLCAnLW9tYWUnLCAnPG91dGZpbGUubWFlPic=

> <r_lp_tautomer_probability>
1

> <r_epik_Ionization_Penalty>
0.237382

> <r_epik_Ionization_Penalty_Charging>
1.80451e-08

> <r_epik_Ionization_Penalty_Neutral>
0.237382

> <r_epik_State_Penalty>
0.228245

> <r_epik_Charging_Adjusted_Penalty>
0.228245

> <i_epik_Tot_Q>
0

> <i_epik_Tot_abs_Q>
0

> <r_epik_Metal_State_Penalty>
0.228219

> <b_epik_Metal_Only>
0

> <s_lp_Force_Field>
OPLS_2005

> <r_lp_Energy>
37.3685

> <b_lp_Chiralities_Consistent>
1

> <s_lp_Variant>
AV-unprocessed.smi:1578-1

> <Gold.Version>
5.8.1

> <Gold.Id.Protein>
6NUR|6NUR_protein|mol2

> <Gold.PLP.Fitness>
41.3884

> <Gold.PLP.PLP>
-43.2045

> <Gold.PLP.part.hbond>
-2.0014

> <Gold.PLP.part.metal>
0.0000

> <Gold.PLP.part.buried>
-4.5537

> <Gold.PLP.part.nonpolar>
-37.2468

> <Gold.PLP.part.repulsive>
0.4383

> <Gold.PLP.ligand.clash>
0.0000

> <Gold.PLP.ligand.torsion>
0.9778

> <Gold.PLP.Chemscore.Hbond>
0.0000

> <Gold.PLP.Chemscore.CHOScore>
0.0000

> <Gold.PLP.Chemscore.Metal>
0.0000

> <Gold.PLP.Chemscore.Internal.Correction>
0.1394

> <Gold.Rescore>
     Score         DG    S(hbond)    S(metal)    S(lipo)     H(rot)  DE(clash)    DE(int)     intcor
      8.17      -9.81       0.00        0.00      82.82       2.09       0.02       1.63       ----

> <Gold.Chemscore.Fitness>
8.1717

> <Gold.Chemscore.DG>
-9.8129

> <Gold.Chemscore.ZeroCoef>
-5.4800

> <Gold.Chemscore.Hbond>
0.0000

> <Gold.Chemscore.Metal>
0.0000

> <Gold.Chemscore.Lipo>
82.8164

> <Gold.Chemscore.Internal_Hbond>
0.0000

> <Gold.Chemscore.DEClash>
0.0162

> <Gold.Chemscore.DEInternal>
1.6250

> <Gold.Chemscore.Rot>
2.0924

> <Gold.Chemscore.Internal.Correction>
   9.000000E+99

> <Gold.Chemscore.Hbond.Weighted>
-0.0000

> <Gold.Chemscore.Metal.Weighted>
-0.0000

> <Gold.Chemscore.Lipo.Weighted>
-9.6895

> <Gold.Chemscore.Internal_Hbond.Weighted>
0.0000

> <Gold.Chemscore.DEClash.Weighted>
0.0162

> <Gold.Chemscore.DEInternal.Weighted>
1.6250

> <Gold.Chemscore.Rot.Weighted>
5.3566

> <Gold.Chemscore.Internal.Correction.Weighted>
   9.000000E+99

> <Gold.Protein.RotatedTorsions>
[ 6907 6896 6895 6894 ] final   42.94 input  -60.11 | X-H torsion
[ 7974 7965 7964 7962 ] final -126.95 input  175.53 | X-H torsion
[ 8008 7997 7996 7995 ] final   38.89 input   59.86 | X-H torsion
[ 10167 10162 10161 10158 ] final -162.60 input  -65.29 | X-H torsion
[ 10718 10713 10712 10709 ] final -119.42 input   66.30 | X-H torsion
[ 10763 10752 10751 10750 ] final -138.19 input  -60.55 | X-H torsion
[ 11005 11000 10999 10996 ] final  -42.74 input  -57.11 | X-H torsion

> <Gold.Protein.ActiveResidues>
 VAL166  LYS551  ARG553  GLY616  TRP617  ASP618  TYR619  PRO620  LYS621  CYS622 
 ASP623  PHE694  ASN695  SER759  ASP760  ASP761  ALA762  ILE779  LEU786  VAL792 
 PHE793  MET794  SER795  GLU796  ALA797  LYS798  CYS799  TRP800  GLU811  SER814 

> <Gold.Protein.RotatedAtoms>
  152.2142  134.8474  160.0493 H   0  0  0  0  0  0  0  0  0  0  0  0  # atno 6907 bound_to 6896
  151.9281  133.3598  159.3929 H   0  0  0  0  0  0  0  0  0  0  0  0  # atno 6908 bound_to 6896
  150.6983  134.4491  159.5372 H   0  0  0  0  0  0  0  0  0  0  0  0  # atno 6909 bound_to 6896
  144.9820  140.7650  143.4606 H   0  0  0  0  0  0  0  0  0  0  0  0  # atno 7974 bound_to 7965
  155.2277  140.3336  155.4307 H   0  0  0  0  0  0  0  0  0  0  0  0  # atno 8008 bound_to 7997
  156.2308  140.1849  156.7295 H   0  0  0  0  0  0  0  0  0  0  0  0  # atno 8009 bound_to 7997
  154.5974  140.0628  156.9307 H   0  0  0  0  0  0  0  0  0  0  0  0  # atno 8010 bound_to 7997
  139.6380  144.0313  152.2070 H   0  0  0  0  0  0  0  0  0  0  0  0  # atno 10167 bound_to 10162
  156.1180  130.6301  150.9414 H   0  0  0  0  0  0  0  0  0  0  0  0  # atno 10718 bound_to 10713
  154.8643  135.3619  154.5344 H   0  0  0  0  0  0  0  0  0  0  0  0  # atno 10763 bound_to 10752
  153.5969  135.7014  153.5405 H   0  0  0  0  0  0  0  0  0  0  0  0  # atno 10764 bound_to 10752
  153.3325  135.4120  155.1468 H   0  0  0  0  0  0  0  0  0  0  0  0  # atno 10765 bound_to 10752
  141.0336  133.6809  156.2636 H   0  0  0  0  0  0  0  0  0  0  0  0  # atno 11005 bound_to 11000
  145.2407  139.2074  143.4994 LP  0  0  0  0  0  0  0  0  0  0  0  0  # atno 17320 bound_to 7965
  146.3410  140.2302  142.8593 LP  0  0  0  0  0  0  0  0  0  0  0  0  # atno 17321 bound_to 7965
  139.9995  144.6303  150.7742 LP  0  0  0  0  0  0  0  0  0  0  0  0  # atno 17342 bound_to 10162
  140.7476  143.2908  151.3335 LP  0  0  0  0  0  0  0  0  0  0  0  0  # atno 17343 bound_to 10162
  157.6363  131.0915  150.8341 LP  0  0  0  0  0  0  0  0  0  0  0  0  # atno 17370 bound_to 10713
  156.8442  130.5058  149.5318 LP  0  0  0  0  0  0  0  0  0  0  0  0  # atno 17371 bound_to 10713
  140.6362  134.5213  157.5565 LP  0  0  0  0  0  0  0  0  0  0  0  0  # atno 17394 bound_to 11000
  139.9225  134.8121  156.1168 LP  0  0  0  0  0  0  0  0  0  0  0  0  # atno 17395 bound_to 11000

$$$$
