AV-unprocessed.smi:1540|AV-procd|sdf|6200|dock7
  -GOLD-   22720 6373D 1   1.00000     0.00000
 Structure written by MMmdl.
 32 32  0  0  0  0  0  0  0  0  2 V2000
  146.9526  142.2768  154.8949 C   0  0  0  0  0  0  0  0  0  0  0  0
  147.7435  141.3216  154.3832 C   0  0  0  0  0  0  0  0  0  0  0  0
  149.1928  141.1139  154.7638 C   0  0  0  0  0  0  0  0  0  0  0  0
  149.3909  139.7884  155.2403 O   0  0  0  0  0  0  0  0  0  0  0  0
  150.6892  139.2450  155.0135 C   0  0  2  0  0  0  0  0  0  0  0  0
  150.5890  137.7214  155.1775 C   0  0  0  0  0  0  0  0  0  0  0  0
  151.7006  139.8445  156.0040 C   0  0  0  0  0  0  0  0  0  0  0  0
  152.9037  139.6491  155.8313 O   0  0  0  0  0  0  0  0  0  0  0  0
  151.1657  140.5613  157.0117 N   0  0  0  0  0  0  0  0  0  0  0  0
  151.8028  141.1962  158.0910 C   0  0  0  0  0  0  0  0  0  0  0  0
  151.4876  142.4361  158.5577 C   0  0  0  0  0  0  0  0  0  0  0  0
  152.1932  143.0515  159.6747 C   0  0  0  0  0  0  0  0  0  0  0  0
  151.9182  144.4592  160.1734 C   0  0  0  0  0  0  0  0  0  0  0  0
  150.6241  144.5946  160.4592 F   0  0  0  0  0  0  0  0  0  0  0  0
  152.6171  144.7218  161.2781 F   0  0  0  0  0  0  0  0  0  0  0  0
  152.2370  145.3654  159.2489 F   0  0  0  0  0  0  0  0  0  0  0  0
  153.2111  142.2513  160.1563 C   0  0  0  0  0  0  0  0  0  0  0  0
  153.5838  141.0156  159.7568 N   0  5  0  0  0  0  0  0  0  0  0  0
  152.9111  140.4459  158.7172 C   0  0  0  0  0  0  0  0  0  0  0  0
  153.2059  139.3275  158.2943 O   0  0  0  0  0  0  0  0  0  0  0  0
  147.3205  142.9746  155.6330 H   0  0  0  0  0  0  0  0  0  0  0  0
  145.9235  142.3722  154.5809 H   0  0  0  0  0  0  0  0  0  0  0  0
  147.3408  140.6410  153.6473 H   0  0  0  0  0  0  0  0  0  0  0  0
  149.8097  141.2896  153.8816 H   0  0  0  0  0  0  0  0  0  0  0  0
  149.4770  141.8512  155.5158 H   0  0  0  0  0  0  0  0  0  0  0  0
  150.9968  139.4602  153.9882 H   0  0  0  0  0  0  0  0  0  0  0  0
  151.5576  137.2428  155.0279 H   0  0  0  0  0  0  0  0  0  0  0  0
  149.8977  137.2995  154.4478 H   0  0  0  0  0  0  0  0  0  0  0  0
  150.2286  137.4466  156.1696 H   0  0  0  0  0  0  0  0  0  0  0  0
  150.1662  140.7018  156.9789 H   0  0  0  0  0  0  0  0  0  0  0  0
  150.7056  143.0171  158.0972 H   0  0  0  0  0  0  0  0  0  0  0  0
  153.8211  142.6690  160.9856 H   0  0  0  0  0  0  0  0  0  0  0  0
  1  2  2  0  0  0  0
  1 21  1  0  0  0  0
  1 22  1  0  0  0  0
  2  3  1  0  0  0  0
  2 23  1  0  0  0  0
  3  4  1  0  0  0  0
  3 24  1  0  0  0  0
  3 25  1  0  0  0  0
  4  5  1  0  0  0  0
  5  6  1  0  0  0  0
  5  7  1  0  0  0  0
  5 26  1  0  0  0  0
  6 27  1  0  0  0  0
  6 28  1  0  0  0  0
  6 29  1  0  0  0  0
  7  8  2  0  0  0  0
  7  9  1  0  0  0  0
  9 10  1  0  0  0  0
  9 30  1  0  0  0  0
 10 19  1  0  0  0  0
 10 11  2  0  0  0  0
 11 12  1  0  0  0  0
 11 31  1  0  0  0  0
 12 13  1  0  0  0  0
 12 17  2  0  0  0  0
 13 14  1  0  0  0  0
 13 15  1  0  0  0  0
 13 16  1  0  0  0  0
 17 18  1  0  0  0  0
 17 32  1  0  0  0  0
 18 19  1  0  0  0  0
 19 20  2  0  0  0  0
M  CHG  1  18  -1
M  END
> <s_m_source_file>
AV-unprocessed.smi

> <i_m_source_file_index>
1540

> <i_lp_mmshare_version>
43012

> <i_f3d_flags>
0

> <s_epik_input>
W0NIMl09W0NIXVtDSDJdT1tDQEhdKFtDSDNdKUMoPU8pW05IXWMxW2NIXWMoQyhGKShGKUYpW2NIXVtuSF1jMT1P

> <s_epik_cmdline>
J2VwaWtfcHl0aG9uJywgJy1waCcsICc3LjAnLCAnLXRuJywgJzgnLCAnLW1hJywgJzIwMCcsICctbWV0YWxfYmluZGluZycsICctaW1hZScsICc8aW5maWxlLm1hZT4nLCAnLW9tYWUnLCAnPG91dGZpbGUubWFlPic=

> <r_epik_Ionization_Penalty>
2.56803

> <r_epik_Ionization_Penalty_Charging>
0.0609694

> <r_epik_Ionization_Penalty_Neutral>
2.50706

> <r_epik_State_Penalty>
2.67253

> <r_epik_Charging_Adjusted_Penalty>
2.7335

> <i_epik_Tot_Q>
-1

> <i_epik_Tot_abs_Q>
1

> <r_epik_Metal_State_Penalty>
0.517713

> <b_epik_Metal_Only>
0

> <s_lp_Force_Field>
OPLS_2005

> <r_lp_Energy>
19.8511

> <b_lp_Chiralities_Consistent>
1

> <s_lp_Variant>
AV-unprocessed.smi:1540-3

> <Gold.Version>
5.8.1

> <Gold.Id.Protein>
6NUR|6NUR_protein|mol2

> <Gold.PLP.Fitness>
47.5808

> <Gold.PLP.PLP>
-47.3039

> <Gold.PLP.part.hbond>
-2.0000

> <Gold.PLP.part.metal>
0.0000

> <Gold.PLP.part.buried>
-4.4094

> <Gold.PLP.part.nonpolar>
-40.4380

> <Gold.PLP.part.repulsive>
0.1886

> <Gold.PLP.ligand.clash>
0.0000

> <Gold.PLP.ligand.torsion>
1.0930

> <Gold.PLP.Chemscore.Hbond>
0.7992

> <Gold.PLP.Chemscore.CHOScore>
0.0000

> <Gold.PLP.Chemscore.Metal>
0.0000

> <Gold.Chemscore.Hbonds>
donor molecule, donor type, donor heavy atom, donor atom, acceptor molecule, acceptor atom, score
      P1  H  7997  8008       L1     8  0.04
      P1  H  7997  8010       L1    20  0.70

> <Gold.PLP.Chemscore.Internal.Correction>
0.0652

> <Gold.Rescore>
     Score         DG    S(hbond)    S(metal)    S(lipo)     H(rot)  DE(clash)    DE(int)     intcor
      6.67     -12.62       0.64        0.00      81.62       1.77       0.88       5.07       ----

> <Gold.Chemscore.Fitness>
6.6685

> <Gold.Chemscore.DG>
-12.6186

> <Gold.Chemscore.ZeroCoef>
-5.4800

> <Gold.Chemscore.Hbond>
0.6386

> <Gold.Chemscore.Metal>
0.0000

> <Gold.Chemscore.Lipo>
81.6187

> <Gold.Chemscore.Internal_Hbond>
0.0000

> <Gold.Chemscore.DEClash>
0.8815

> <Gold.Chemscore.DEInternal>
5.0687

> <Gold.Chemscore.Rot>
1.7750

> <Gold.Chemscore.Internal.Correction>
   9.000000E+99

> <Gold.Chemscore.Hbonds>
donor molecule, donor type, donor heavy atom, donor atom, acceptor molecule, acceptor atom, score
      P1  H  7997  8008       L1     8  0.06
      P1  H  7997  8010       L1    20  0.07

> <Gold.Chemscore.Hbond.Weighted>
-2.1331

> <Gold.Chemscore.Metal.Weighted>
-0.0000

> <Gold.Chemscore.Lipo.Weighted>
-9.5494

> <Gold.Chemscore.Internal_Hbond.Weighted>
0.0000

> <Gold.Chemscore.DEClash.Weighted>
0.8815

> <Gold.Chemscore.DEInternal.Weighted>
5.0687

> <Gold.Chemscore.Rot.Weighted>
4.5439

> <Gold.Chemscore.Internal.Correction.Weighted>
   9.000000E+99

> <Gold.Protein.RotatedTorsions>
[ 6907 6896 6895 6894 ] final -100.61 input  -60.11 | X-H torsion
[ 7974 7965 7964 7962 ] final  127.56 input  175.53 | X-H torsion
[ 8008 7997 7996 7995 ] final   25.15 input   59.86 | X-H torsion
[ 10167 10162 10161 10158 ] final   56.92 input  -65.29 | X-H torsion
[ 10718 10713 10712 10709 ] final  136.80 input   66.30 | X-H torsion
[ 10763 10752 10751 10750 ] final  -92.12 input  -60.55 | X-H torsion
[ 11005 11000 10999 10996 ] final  -24.72 input  -57.11 | X-H torsion

> <Gold.Protein.ActiveResidues>
 VAL166  LYS551  ARG553  GLY616  TRP617  ASP618  TYR619  PRO620  LYS621  CYS622 
 ASP623  PHE694  ASN695  SER759  ASP760  ASP761  ALA762  ILE779  LEU786  VAL792 
 PHE793  MET794  SER795  GLU796  ALA797  LYS798  CYS799  TRP800  GLU811  SER814 

> <Gold.Protein.RotatedAtoms>
  150.7122  134.0860  159.3914 H   0  0  0  0  0  0  0  0  0  0  0  0  # atno 6907 bound_to 6896
  151.8845  135.0438  160.0501 H   0  0  0  0  0  0  0  0  0  0  0  0  # atno 6908 bound_to 6896
  152.2541  133.5205  159.5379 H   0  0  0  0  0  0  0  0  0  0  0  0  # atno 6909 bound_to 6896
  145.0492  139.3897  143.5063 H   0  0  0  0  0  0  0  0  0  0  0  0  # atno 7974 bound_to 7965
  155.0073  140.3132  155.4843 H   0  0  0  0  0  0  0  0  0  0  0  0  # atno 8008 bound_to 7997
  156.2915  140.2221  156.5127 H   0  0  0  0  0  0  0  0  0  0  0  0  # atno 8009 bound_to 7997
  154.7566  140.0462  157.0926 H   0  0  0  0  0  0  0  0  0  0  0  0  # atno 8010 bound_to 7997
  140.2036  144.3962  150.6518 H   0  0  0  0  0  0  0  0  0  0  0  0  # atno 10167 bound_to 10162
  157.4428  131.1059  151.0124 H   0  0  0  0  0  0  0  0  0  0  0  0  # atno 10718 bound_to 10713
  154.6829  135.5243  153.8287 H   0  0  0  0  0  0  0  0  0  0  0  0  # atno 10763 bound_to 10752
  153.0577  135.6557  154.0547 H   0  0  0  0  0  0  0  0  0  0  0  0  # atno 10764 bound_to 10752
  154.0432  135.2975  155.3331 H   0  0  0  0  0  0  0  0  0  0  0  0  # atno 10765 bound_to 10752
  140.8871  133.7614  156.0374 H   0  0  0  0  0  0  0  0  0  0  0  0  # atno 11005 bound_to 11000
  146.3516  140.0133  142.8665 LP  0  0  0  0  0  0  0  0  0  0  0  0  # atno 17320 bound_to 7965
  145.1549  140.9642  143.4411 LP  0  0  0  0  0  0  0  0  0  0  0  0  # atno 17321 bound_to 7965
  140.6373  143.2197  151.6367 LP  0  0  0  0  0  0  0  0  0  0  0  0  # atno 17342 bound_to 10162
  139.5207  144.3214  152.0907 LP  0  0  0  0  0  0  0  0  0  0  0  0  # atno 17343 bound_to 10162
  157.0981  130.5970  149.5454 LP  0  0  0  0  0  0  0  0  0  0  0  0  # atno 17370 bound_to 10713
  155.9955  130.5022  150.7462 LP  0  0  0  0  0  0  0  0  0  0  0  0  # atno 17371 bound_to 10713
  140.8391  134.3087  157.5320 LP  0  0  0  0  0  0  0  0  0  0  0  0  # atno 17394 bound_to 11000
  139.8725  134.9406  156.3774 LP  0  0  0  0  0  0  0  0  0  0  0  0  # atno 17395 bound_to 11000

$$$$
