#       Name:                AV-unprocessed.smi:497
#       Creating user name   scv26
#       Creation time:       Thu Mar 26 23:17:10 2020


#       File generated by GOLD software.
#

@<TRIPOS>MOLECULE
AV-unprocessed.smi:497
    46    48     1
SMALL
NO_CHARGES


@<TRIPOS>ATOM
      1 ****        -4.7830   2.8421   0.6446 C.3            1 S1                 0.0000
      2 ****        -4.1435   1.6581   1.0879 O.3            1 S1                 0.0000
      3 ****        -2.7398   1.6978   0.8980 C.3            1 S1                 0.0000
      4 ****        -2.1336   0.3838   1.4056 C.3            1 S1                 0.0000
      5 ****        -0.6882   0.3625   1.2425 N.pl3          1 S1                 0.0000
      6 ****         0.0311  -0.0594   0.1713 C.2            1 S1                 0.0000
      7 ****        -0.6536  -0.5962  -1.0619 C.3            1 S1                 0.0000
      8 ****         0.3143  -1.1244  -2.0211 N.am           1 S1                 0.0000
      9 ****         0.7933  -2.3786  -2.0248 C.2            1 S1                 0.0000
     10 ****         0.4435  -3.2409  -1.2191 O.2            1 S1                 0.0000
     11 ****         1.7965  -2.6805  -3.0630 C.2            1 S1                 0.0000
     12 ****         2.4882  -3.8332  -3.3225 C.2            1 S1                 0.0000
     13 ****         3.3286  -3.5618  -4.4375 C.2            1 S1                 0.0000
     14 ****         3.0899  -2.2620  -4.7803 C.2            1 S1                 0.0000
     15 ****         2.1597  -1.7107  -3.9541 O.3            1 S1                 0.0000
     16 ****         1.3575   0.0573   0.2925 N.2            1 S1                 0.0000
     17 ****         1.5080   0.5927   1.5556 C.ar           1 S1                 0.0000
     18 ****         2.6747   0.9471   2.2699 C.ar           1 S1                 0.0000
     19 ****         2.5790   1.4932   3.5668 C.ar           1 S1                 0.0000
     20 ****         1.3182   1.6928   4.1658 C.ar           1 S1                 0.0000
     21 ****         0.1435   1.3462   3.4706 C.ar           1 S1                 0.0000
     22 ****         0.2451   0.7994   2.1772 C.ar           1 S1                 0.0000
     23 ****        -5.8571   2.7635   0.8126 H              1 S1                 0.0000
     24 ****        -4.6200   3.0028  -0.4220 H              1 S1                 0.0000
     25 ****        -4.4197   3.7144   1.1896 H              1 S1                 0.0000
     26 ****        -2.5108   1.8369  -0.1597 H              1 S1                 0.0000
     27 ****        -2.3138   2.5426   1.4419 H              1 S1                 0.0000
     28 ****        -2.3658   0.2503   2.4627 H              1 S1                 0.0000
     29 ****        -2.5749  -0.4679   0.8892 H              1 S1                 0.0000
     30 ****        -1.3704  -1.3704  -0.7856 H              1 S1                 0.0000
     31 ****        -1.2128   0.2095  -1.5372 H              1 S1                 0.0000
     32 ****         0.6675  -0.4821  -2.7153 H              1 S1                 0.0000
     33 ****         2.4007  -4.7597  -2.7741 H              1 S1                 0.0000
     34 ****         4.0198  -4.2323  -4.9261 H              1 S1                 0.0000
     35 ****         3.4750  -1.6051  -5.5464 H              1 S1                 0.0000
     36 ****         3.6445   0.7994   1.8184 H              1 S1                 0.0000
     37 ****         3.4772   1.7615   4.1035 H              1 S1                 0.0000
     38 ****         1.2532   2.1125   5.1590 H              1 S1                 0.0000
     39 ****        -0.8234   1.4996   3.9263 H              1 S1                 0.0000
     40 ****        -4.5146   0.8824   0.5775 LP             1 S1                 0.0000
     41 ****        -4.3322   1.5369   2.0624 LP             1 S1                 0.0000
     42 ****        -0.2315  -3.0224  -0.5144 LP             1 S1                 0.0000
     43 ****         0.8344  -4.1600  -1.2692 LP             1 S1                 0.0000
     44 ****         2.5505  -0.9278  -3.4701 LP             1 S1                 0.0000
     45 ****         1.3642  -1.4131  -4.4819 LP             1 S1                 0.0000
     46 ****         2.0668  -0.1842  -0.3698 LP             1 S1                 0.0000
@<TRIPOS>BOND
    1    1    2 1     
    2    1   23 1     
    3    1   24 1     
    4    1   25 1     
    5    2    3 1     
    6    3    4 1     
    7    3   26 1     
    8    3   27 1     
    9    4    5 1     
   10    4   28 1     
   11    4   29 1     
   12    5   22 1     
   13    5    6 1     
   14    6    7 1     
   15    6   16 2     
   16    7    8 1     
   17    7   30 1     
   18    7   31 1     
   19    8    9 am    
   20    8   32 1     
   21    9   10 2     
   22    9   11 1     
   23   11   15 1     
   24   11   12 2     
   25   12   13 1     
   26   12   33 1     
   27   13   14 2     
   28   13   34 1     
   29   14   15 1     
   30   14   35 1     
   31   16   17 1     
   32   17   22 ar    
   33   17   18 ar    
   34   18   19 ar    
   35   18   36 1     
   36   19   20 ar    
   37   19   37 1     
   38   20   21 ar    
   39   20   38 1     
   40   21   22 ar    
   41   21   39 1     
   42    2   40 1     
   43    2   41 1     
   44   10   42 1     
   45   10   43 1     
   46   15   44 1     
   47   15   45 1     
   48   16   46 1     
@<TRIPOS>SUBSTRUCTURE
      1 S1             1
@<TRIPOS>SET
LONE_PAIRS      STATIC     ATOMS    <user>   **** ""
7 40 41 42 43 44 45 46
DONOR_HYDROGENS      STATIC     ATOMS    <user>   **** ""
1 32
ATOM$BLUE        STATIC     ATOMS    COLORGROUP SYSTEM
7 40 41 42 43 44 45 46
ATOM$RED        STATIC     ATOMS    COLORGROUP SYSTEM
1 32
