AV-unprocessed.smi:2691|AV-procd|sdf|10393|dock7
  -GOLD-   2272014433D 1   1.00000     0.00000
 Structure written by MMmdl.
 50 52  0  0  0  0  0  0  0  0  2 V2000
  152.0544  143.8937  160.2847 C   0  0  0  0  0  0  0  0  0  0  0  0
  151.8413  142.9169  159.1405 C   0  0  0  0  0  0  0  0  0  0  0  0
  150.9856  143.2955  158.0813 C   0  0  0  0  0  0  0  0  0  0  0  0
  150.8083  142.3799  157.0509 C   0  0  0  0  0  0  0  0  0  0  0  0
  150.0408  142.4490  155.8858 N   0  3  0  0  0  0  0  0  0  0  0  0
  150.1824  141.2933  155.1792 C   0  0  0  0  0  0  0  0  0  0  0  0
  151.0308  140.4892  155.8755 N   0  0  0  0  0  0  0  0  0  0  0  0
  151.5097  139.1355  155.5702 C   0  0  0  0  0  0  0  0  0  0  0  0
  150.3827  138.2093  155.0616 C   0  0  1  0  0  0  0  0  0  0  0  0
  150.7613  137.5863  153.8498 O   0  0  0  0  0  0  0  0  0  0  0  0
  149.8724  137.1423  156.0643 C   0  0  0  0  0  0  0  0  0  0  0  0
  149.5483  135.8368  155.4590 N   0  0  0  0  0  0  0  0  0  0  0  0
  148.3809  135.7682  154.6718 C   0  0  0  0  0  0  0  0  0  0  0  0
  148.0129  134.6713  154.0905 N   0  0  0  0  0  0  0  0  0  0  0  0
  148.7891  133.5156  154.2301 C   0  0  0  0  0  0  0  0  0  0  0  0
  148.2983  132.2611  153.5195 C   0  0  0  0  0  0  0  0  0  0  0  0
  146.8246  131.9638  153.8403 C   0  0  0  0  0  0  0  0  0  0  0  0
  149.1998  131.0547  153.8250 C   0  0  0  0  0  0  0  0  0  0  0  0
  149.9219  133.5324  154.9734 C   0  0  0  0  0  0  0  0  0  0  0  0
  150.3622  134.7564  155.6423 C   0  0  0  0  0  0  0  0  0  0  0  0
  151.3899  134.8080  156.3176 O   0  0  0  0  0  0  0  0  0  0  0  0
  151.4479  141.1252  157.0490 C   0  0  0  0  0  0  0  0  0  0  0  0
  152.2956  140.7364  158.0831 C   0  0  0  0  0  0  0  0  0  0  0  0
  152.4894  141.6542  159.1404 C   0  0  0  0  0  0  0  0  0  0  0  0
  153.4092  141.2588  160.2831 C   0  0  0  0  0  0  0  0  0  0  0  0
  151.4557  144.7960  160.1558 H   0  0  0  0  0  0  0  0  0  0  0  0
  153.1011  144.1933  160.3418 H   0  0  0  0  0  0  0  0  0  0  0  0
  151.7709  143.4409  161.2351 H   0  0  0  0  0  0  0  0  0  0  0  0
  150.4894  144.2551  158.0743 H   0  0  0  0  0  0  0  0  0  0  0  0
  149.7029  141.0536  154.2409 H   0  0  0  0  0  0  0  0  0  0  0  0
  152.2943  139.2371  154.8194 H   0  0  0  0  0  0  0  0  0  0  0  0
  151.9820  138.7263  156.4640 H   0  0  0  0  0  0  0  0  0  0  0  0
  149.5257  138.8311  154.8009 H   0  0  0  0  0  0  0  0  0  0  0  0
  149.9829  137.2698  153.4170 H   0  0  0  0  0  0  0  0  0  0  0  0
  150.6407  137.0073  156.8280 H   0  0  0  0  0  0  0  0  0  0  0  0
  149.0177  137.5243  156.6259 H   0  0  0  0  0  0  0  0  0  0  0  0
  147.8112  136.6954  154.5931 H   0  0  0  0  0  0  0  0  0  0  0  0
  148.3607  132.4464  152.4459 H   0  0  0  0  0  0  0  0  0  0  0  0
  146.1917  132.8196  153.6039 H   0  0  0  0  0  0  0  0  0  0  0  0
  146.6808  131.7236  154.8942 H   0  0  0  0  0  0  0  0  0  0  0  0
  146.4616  131.1167  153.2577 H   0  0  0  0  0  0  0  0  0  0  0  0
  150.2368  131.2641  153.5607 H   0  0  0  0  0  0  0  0  0  0  0  0
  148.8869  130.1784  153.2566 H   0  0  0  0  0  0  0  0  0  0  0  0
  149.1727  130.7897  154.8824 H   0  0  0  0  0  0  0  0  0  0  0  0
  150.5162  132.6364  155.0757 H   0  0  0  0  0  0  0  0  0  0  0  0
  152.7856  139.7741  158.0831 H   0  0  0  0  0  0  0  0  0  0  0  0
  153.8628  140.2822  160.1107 H   0  0  0  0  0  0  0  0  0  0  0  0
  152.8546  141.2085  161.2204 H   0  0  0  0  0  0  0  0  0  0  0  0
  154.2159  141.9835  160.3958 H   0  0  0  0  0  0  0  0  0  0  0  0
  149.4594  143.2240  155.5935 H   0  0  0  0  0  0  0  0  0  0  0  0
  1  2  1  0  0  0  0
  1 26  1  0  0  0  0
  1 27  1  0  0  0  0
  1 28  1  0  0  0  0
  2 24  1  0  0  0  0
  2  3  2  0  0  0  0
  3  4  1  0  0  0  0
  3 29  1  0  0  0  0
  4 22  2  0  0  0  0
  4  5  1  0  0  0  0
  5  6  2  0  0  0  0
  5 50  1  0  0  0  0
  6  7  1  0  0  0  0
  6 30  1  0  0  0  0
  7  8  1  0  0  0  0
  7 22  1  0  0  0  0
  8  9  1  0  0  0  0
  8 31  1  0  0  0  0
  8 32  1  0  0  0  0
  9 10  1  0  0  0  0
  9 11  1  0  0  0  0
  9 33  1  0  0  0  0
 10 34  1  0  0  0  0
 11 12  1  0  0  0  0
 11 35  1  0  0  0  0
 11 36  1  0  0  0  0
 12 20  1  0  0  0  0
 12 13  1  0  0  0  0
 13 14  2  0  0  0  0
 13 37  1  0  0  0  0
 14 15  1  0  0  0  0
 15 16  1  0  0  0  0
 15 19  2  0  0  0  0
 16 17  1  0  0  0  0
 16 18  1  0  0  0  0
 16 38  1  0  0  0  0
 17 39  1  0  0  0  0
 17 40  1  0  0  0  0
 17 41  1  0  0  0  0
 18 42  1  0  0  0  0
 18 43  1  0  0  0  0
 18 44  1  0  0  0  0
 19 20  1  0  0  0  0
 19 45  1  0  0  0  0
 20 21  2  0  0  0  0
 22 23  1  0  0  0  0
 23 24  2  0  0  0  0
 23 46  1  0  0  0  0
 24 25  1  0  0  0  0
 25 47  1  0  0  0  0
 25 48  1  0  0  0  0
 25 49  1  0  0  0  0
M  CHG  1   5   1
M  END
> <s_m_source_file>
AV-unprocessed.smi

> <i_m_source_file_index>
2691

> <i_lp_mmshare_version>
43012

> <i_f3d_flags>
0

> <s_epik_input>
W0NIM11jKFtjSF0xKWMoW0NIM10pW2NIXWMoYzEyKW4oW2NIXW4yKVtDSDJdW0NASF0oW09IXSlbQ0gyXW4zW2NIXW5jKFtDSF0oW0NIM10pW0NIM10pW2NIXWMzPU8=

> <s_epik_cmdline>
J2VwaWtfcHl0aG9uJywgJy1waCcsICc3LjAnLCAnLXRuJywgJzgnLCAnLW1hJywgJzIwMCcsICctbWV0YWxfYmluZGluZycsICctaW1hZScsICc8aW5maWxlLm1hZT4nLCAnLW9tYWUnLCAnPG91dGZpbGUubWFlPic=

> <r_lp_tautomer_probability>
1

> <r_epik_Ionization_Penalty>
1.0357

> <r_epik_Ionization_Penalty_Charging>
1.03568

> <r_epik_Ionization_Penalty_Neutral>
1.29543e-05

> <r_epik_State_Penalty>
1.08724

> <r_epik_Charging_Adjusted_Penalty>
2.12292

> <i_epik_Tot_Q>
1

> <i_epik_Tot_abs_Q>
1

> <r_epik_Metal_State_Penalty>
1.18376

> <b_epik_Metal_Only>
0

> <s_lp_Force_Field>
OPLS_2005

> <r_lp_Energy>
24.9035

> <b_lp_Chiralities_Consistent>
1

> <s_lp_Variant>
AV-unprocessed.smi:2691-4

> <Gold.Version>
5.8.1

> <Gold.Id.Protein>
6NUR|6NUR_protein|mol2

> <Gold.PLP.Fitness>
55.0517

> <Gold.PLP.PLP>
-47.4469

> <Gold.PLP.part.hbond>
-4.0000

> <Gold.PLP.part.metal>
0.0000

> <Gold.PLP.part.buried>
-3.2686

> <Gold.PLP.part.nonpolar>
-39.0211

> <Gold.PLP.part.repulsive>
0.8568

> <Gold.PLP.ligand.clash>
0.0000

> <Gold.PLP.ligand.torsion>
1.7073

> <Gold.PLP.Chemscore.Hbond>
3.6386

> <Gold.PLP.Chemscore.CHOScore>
0.0000

> <Gold.PLP.Chemscore.Metal>
0.0000

> <Gold.Chemscore.Hbonds>
donor molecule, donor type, donor heavy atom, donor atom, acceptor molecule, acceptor atom, score
      L1  H     5    50       P1  8028  2.00
      L1  H    10    34       P1  7948  0.84
      P1  H 10752 10765       L1    21  0.42

> <Gold.PLP.Chemscore.Internal.Correction>
0.1037

> <Gold.Rescore>
     Score         DG    S(hbond)    S(metal)    S(lipo)     H(rot)  DE(clash)    DE(int)     intcor
     17.85     -19.58       2.18        0.00     113.42       2.52       0.10       1.63       ----

> <Gold.Chemscore.Fitness>
17.8527

> <Gold.Chemscore.DG>
-19.5834

> <Gold.Chemscore.ZeroCoef>
-5.4800

> <Gold.Chemscore.Hbond>
2.1811

> <Gold.Chemscore.Metal>
0.0000

> <Gold.Chemscore.Lipo>
113.4212

> <Gold.Chemscore.Internal_Hbond>
0.0000

> <Gold.Chemscore.DEClash>
0.0966

> <Gold.Chemscore.DEInternal>
1.6342

> <Gold.Chemscore.Rot>
2.5202

> <Gold.Chemscore.Internal.Correction>
   9.000000E+99

> <Gold.Chemscore.Hbonds>
donor molecule, donor type, donor heavy atom, donor atom, acceptor molecule, acceptor atom, score
      L1  H     5    50       P1  8028  0.97
      L1  H    10    34       P1  7948  0.27
      P1  H 10752 10765       L1    21  0.30

> <Gold.Chemscore.Hbond.Weighted>
-7.2849

> <Gold.Chemscore.Metal.Weighted>
-0.0000

> <Gold.Chemscore.Lipo.Weighted>
-13.2703

> <Gold.Chemscore.Internal_Hbond.Weighted>
0.0000

> <Gold.Chemscore.DEClash.Weighted>
0.0966

> <Gold.Chemscore.DEInternal.Weighted>
1.6342

> <Gold.Chemscore.Rot.Weighted>
6.4517

> <Gold.Chemscore.Internal.Correction.Weighted>
   9.000000E+99

> <Gold.Protein.RotatedTorsions>
[ 6907 6896 6895 6894 ] final  -91.39 input  -60.11 | X-H torsion
[ 7974 7965 7964 7962 ] final  139.85 input  175.53 | X-H torsion
[ 8008 7997 7996 7995 ] final   47.71 input   59.86 | X-H torsion
[ 10167 10162 10161 10158 ] final  -13.46 input  -65.29 | X-H torsion
[ 10718 10713 10712 10709 ] final  -81.36 input   66.30 | X-H torsion
[ 10763 10752 10751 10750 ] final -151.48 input  -60.55 | X-H torsion
[ 11005 11000 10999 10996 ] final -105.68 input  -57.11 | X-H torsion

> <Gold.Protein.ActiveResidues>
 VAL166  LYS551  ARG553  GLY616  TRP617  ASP618  TYR619  PRO620  LYS621  CYS622 
 ASP623  PHE694  ASN695  SER759  ASP760  ASP761  ALA762  ILE779  LEU786  VAL792 
 PHE793  MET794  SER795  GLU796  ALA797  LYS798  CYS799  TRP800  GLU811  SER814 

> <Gold.Protein.RotatedAtoms>
  150.6892  134.2284  159.4424 H   0  0  0  0  0  0  0  0  0  0  0  0  # atno 6907 bound_to 6896
  152.0236  134.9806  160.0580 H   0  0  0  0  0  0  0  0  0  0  0  0  # atno 6908 bound_to 6896
  152.1373  133.4408  159.4787 H   0  0  0  0  0  0  0  0  0  0  0  0  # atno 6909 bound_to 6896
  144.9241  139.5130  143.5649 H   0  0  0  0  0  0  0  0  0  0  0  0  # atno 7974 bound_to 7965
  155.3735  140.3425  155.4244 H   0  0  0  0  0  0  0  0  0  0  0  0  # atno 8008 bound_to 7997
  156.1649  140.1613  156.8582 H   0  0  0  0  0  0  0  0  0  0  0  0  # atno 8009 bound_to 7997
  154.5175  140.0775  156.8092 H   0  0  0  0  0  0  0  0  0  0  0  0  # atno 8010 bound_to 7997
  140.7182  143.5424  150.9394 H   0  0  0  0  0  0  0  0  0  0  0  0  # atno 10167 bound_to 10162
  156.0052  130.4601  150.3940 H   0  0  0  0  0  0  0  0  0  0  0  0  # atno 10718 bound_to 10713
  154.8055  135.3259  154.7442 H   0  0  0  0  0  0  0  0  0  0  0  0  # atno 10763 bound_to 10752
  153.8101  135.6896  153.4846 H   0  0  0  0  0  0  0  0  0  0  0  0  # atno 10764 bound_to 10752
  153.1798  135.4591  154.9957 H   0  0  0  0  0  0  0  0  0  0  0  0  # atno 10765 bound_to 10752
  141.1042  133.8828  157.1763 H   0  0  0  0  0  0  0  0  0  0  0  0  # atno 11005 bound_to 11000
  146.3218  139.8142  142.8939 LP  0  0  0  0  0  0  0  0  0  0  0  0  # atno 17320 bound_to 7965
  145.3248  141.0252  143.3480 LP  0  0  0  0  0  0  0  0  0  0  0  0  # atno 17321 bound_to 7965
  139.9146  143.6678  152.3108 LP  0  0  0  0  0  0  0  0  0  0  0  0  # atno 17342 bound_to 10162
  139.7074  144.7626  151.1170 LP  0  0  0  0  0  0  0  0  0  0  0  0  # atno 17343 bound_to 10162
  157.2013  131.0439  151.2649 LP  0  0  0  0  0  0  0  0  0  0  0  0  # atno 17370 bound_to 10713
  157.3973  130.7314  149.6741 LP  0  0  0  0  0  0  0  0  0  0  0  0  # atno 17371 bound_to 10713
  139.9905  135.0066  156.9963 LP  0  0  0  0  0  0  0  0  0  0  0  0  # atno 17394 bound_to 11000
  140.4945  134.1159  155.7239 LP  0  0  0  0  0  0  0  0  0  0  0  0  # atno 17395 bound_to 11000

$$$$
