AV-unprocessed.smi:3303|AV-procd|sdf|12685|dock5
  -GOLD-   2272019 23D 1   1.00000     0.00000
 Structure written by MMmdl.
 44 45  0  0  0  0  0  0  0  0  2 V2000
  146.7511  142.8789  154.5922 C   0  0  0  0  0  0  0  0  0  0  0  0
  147.6408  141.7632  154.0155 C   0  0  2  0  0  0  0  0  0  0  0  0
  146.7655  140.5973  153.5094 C   0  0  0  0  0  0  0  0  0  0  0  0
  147.5883  139.4930  152.9552 N   0  3  2  0  0  0  0  0  0  0  0  0
  146.7787  138.4602  152.2697 C   0  0  0  0  0  0  0  0  0  0  0  0
  148.5764  138.9474  153.9281 C   0  0  2  0  0  0  0  0  0  0  0  0
  147.9356  138.1524  155.0865 C   0  0  0  0  0  0  0  0  0  0  0  0
  149.4894  140.0809  154.4311 C   0  0  0  0  0  0  0  0  0  0  0  0
  148.6909  141.2530  155.0323 C   0  0  1  0  0  0  0  0  0  0  0  0
  149.6413  142.3151  155.3362 N   0  0  0  0  0  0  0  0  0  0  0  0
  150.6416  141.8828  156.3022 C   0  0  0  0  0  0  0  0  0  0  0  0
  150.2184  142.2495  157.7347 C   0  0  0  0  0  0  0  0  0  0  0  0
  151.3549  142.1421  158.7387 C   0  0  0  0  0  0  0  0  0  0  0  0
  151.8081  143.2861  159.4299 C   0  0  0  0  0  0  0  0  0  0  0  0
  152.8779  143.1445  160.3347 C   0  0  0  0  0  0  0  0  0  0  0  0
  153.4531  141.8714  160.5112 C   0  0  0  0  0  0  0  0  0  0  0  0
  152.9292  140.7916  159.7730 C   0  0  0  0  0  0  0  0  0  0  0  0
  151.9033  140.9165  158.9038 N   0  0  0  0  0  0  0  0  0  0  0  0
  146.2234  142.5436  155.4855 H   0  0  0  0  0  0  0  0  0  0  0  0
  146.0040  143.2000  153.8659 H   0  0  0  0  0  0  0  0  0  0  0  0
  147.3350  143.7599  154.8604 H   0  0  0  0  0  0  0  0  0  0  0  0
  148.1689  142.1748  153.1534 H   0  0  0  0  0  0  0  0  0  0  0  0
  146.1255  140.2215  154.3081 H   0  0  0  0  0  0  0  0  0  0  0  0
  146.0979  140.9639  152.7282 H   0  0  0  0  0  0  0  0  0  0  0  0
  146.0569  138.0022  152.9463 H   0  0  0  0  0  0  0  0  0  0  0  0
  147.4158  137.6756  151.8604 H   0  0  0  0  0  0  0  0  0  0  0  0
  146.2251  138.9025  151.4410 H   0  0  0  0  0  0  0  0  0  0  0  0
  149.2104  138.2505  153.3781 H   0  0  0  0  0  0  0  0  0  0  0  0
  148.7034  137.7749  155.7626 H   0  0  0  0  0  0  0  0  0  0  0  0
  147.3813  137.2861  154.7261 H   0  0  0  0  0  0  0  0  0  0  0  0
  147.2540  138.7592  155.6816 H   0  0  0  0  0  0  0  0  0  0  0  0
  150.1982  139.6921  155.1637 H   0  0  0  0  0  0  0  0  0  0  0  0
  150.0893  140.4416  153.5936 H   0  0  0  0  0  0  0  0  0  0  0  0
  148.1903  140.9108  155.9396 H   0  0  0  0  0  0  0  0  0  0  0  0
  150.1005  142.6301  154.4933 H   0  0  0  0  0  0  0  0  0  0  0  0
  150.7980  140.8059  156.2316 H   0  0  0  0  0  0  0  0  0  0  0  0
  151.5906  142.3635  156.0618 H   0  0  0  0  0  0  0  0  0  0  0  0
  149.8409  143.2725  157.7471 H   0  0  0  0  0  0  0  0  0  0  0  0
  149.3869  141.6200  158.0559 H   0  0  0  0  0  0  0  0  0  0  0  0
  151.3508  144.2512  159.2681 H   0  0  0  0  0  0  0  0  0  0  0  0
  153.2518  143.9972  160.8817 H   0  0  0  0  0  0  0  0  0  0  0  0
  154.2758  141.7258  161.1953 H   0  0  0  0  0  0  0  0  0  0  0  0
  153.3463  139.8016  159.8822 H   0  0  0  0  0  0  0  0  0  0  0  0
  148.1456  139.9169  152.2269 H   0  0  0  0  0  0  0  0  0  0  0  0
  1  2  1  0  0  0  0
  1 19  1  0  0  0  0
  1 20  1  0  0  0  0
  1 21  1  0  0  0  0
  2  9  1  0  0  0  0
  2  3  1  0  0  0  0
  2 22  1  0  0  0  0
  3  4  1  0  0  0  0
  3 23  1  0  0  0  0
  3 24  1  0  0  0  0
  4  5  1  0  0  0  0
  4  6  1  0  0  0  0
  4 44  1  0  0  0  0
  5 25  1  0  0  0  0
  5 26  1  0  0  0  0
  5 27  1  0  0  0  0
  6  7  1  0  0  0  0
  6  8  1  0  0  0  0
  6 28  1  0  0  0  0
  7 29  1  0  0  0  0
  7 30  1  0  0  0  0
  7 31  1  0  0  0  0
  8  9  1  0  0  0  0
  8 32  1  0  0  0  0
  8 33  1  0  0  0  0
  9 10  1  0  0  0  0
  9 34  1  0  0  0  0
 10 11  1  0  0  0  0
 10 35  1  0  0  0  0
 11 12  1  0  0  0  0
 11 36  1  0  0  0  0
 11 37  1  0  0  0  0
 12 13  1  0  0  0  0
 12 38  1  0  0  0  0
 12 39  1  0  0  0  0
 13 18  1  0  0  0  0
 13 14  2  0  0  0  0
 14 15  1  0  0  0  0
 14 40  1  0  0  0  0
 15 16  2  0  0  0  0
 15 41  1  0  0  0  0
 16 17  1  0  0  0  0
 16 42  1  0  0  0  0
 17 18  2  0  0  0  0
 17 43  1  0  0  0  0
M  CHG  1   4   1
M  END
> <s_m_source_file>
AV-unprocessed.smi

> <i_m_source_file_index>
3303

> <i_lp_mmshare_version>
43012

> <i_f3d_flags>
0

> <s_epik_input>
W0NIM11bQ0BASF0xW0NIMl1OKFtDSDNdKVtDQEBIXShbQ0gzXSlbQ0gyXVtDQEhdMVtOSF1bQ0gyXVtDSDJdYzJbY0hdW2NIXVtjSF1bY0hdbjI=

> <s_epik_cmdline>
J2VwaWtfcHl0aG9uJywgJy1waCcsICc3LjAnLCAnLXRuJywgJzgnLCAnLW1hJywgJzIwMCcsICctbWV0YWxfYmluZGluZycsICctaW1hZScsICc8aW5maWxlLm1hZT4nLCAnLW9tYWUnLCAnPG91dGZpbGUubWFlPic=

> <r_epik_Ionization_Penalty>
2.31085

> <r_epik_Ionization_Penalty_Charging>
0.000313057

> <r_epik_Ionization_Penalty_Neutral>
2.31054

> <r_epik_State_Penalty>
2.4087

> <r_epik_Charging_Adjusted_Penalty>
2.40902

> <i_epik_Tot_Q>
1

> <i_epik_Tot_abs_Q>
1

> <r_epik_Metal_State_Penalty>
2.30979

> <b_epik_Metal_Only>
0

> <s_lp_Force_Field>
OPLS_2005

> <r_lp_Energy>
26.7889

> <b_lp_Chiralities_Consistent>
1

> <s_lp_Variant>
AV-unprocessed.smi:3303-29

> <Gold.Version>
5.8.1

> <Gold.Id.Protein>
6NUR|6NUR_protein|mol2

> <Gold.PLP.Fitness>
41.6605

> <Gold.PLP.PLP>
-39.2136

> <Gold.PLP.part.hbond>
-2.0000

> <Gold.PLP.part.metal>
0.0000

> <Gold.PLP.part.buried>
-0.2472

> <Gold.PLP.part.nonpolar>
-36.4261

> <Gold.PLP.part.repulsive>
0.0554

> <Gold.PLP.ligand.clash>
0.0000

> <Gold.PLP.ligand.torsion>
0.2803

> <Gold.PLP.Chemscore.Hbond>
1.0000

> <Gold.PLP.Chemscore.CHOScore>
0.0000

> <Gold.PLP.Chemscore.Metal>
0.0000

> <Gold.Chemscore.Hbonds>
donor molecule, donor type, donor heavy atom, donor atom, acceptor molecule, acceptor atom, score
      L1  H     4    44       P1  7957  1.00

> <Gold.PLP.Chemscore.Internal.Correction>
0.0074

> <Gold.Rescore>
     Score         DG    S(hbond)    S(metal)    S(lipo)     H(rot)  DE(clash)    DE(int)     intcor
     17.97     -19.16       1.00        0.00     117.53       1.33       0.86       0.33       ----

> <Gold.Chemscore.Fitness>
17.9673

> <Gold.Chemscore.DG>
-19.1633

> <Gold.Chemscore.ZeroCoef>
-5.4800

> <Gold.Chemscore.Hbond>
0.9971

> <Gold.Chemscore.Metal>
0.0000

> <Gold.Chemscore.Lipo>
117.5276

> <Gold.Chemscore.Internal_Hbond>
0.0000

> <Gold.Chemscore.DEClash>
0.8631

> <Gold.Chemscore.DEInternal>
0.3329

> <Gold.Chemscore.Rot>
1.3272

> <Gold.Chemscore.Internal.Correction>
   9.000000E+99

> <Gold.Chemscore.Hbonds>
donor molecule, donor type, donor heavy atom, donor atom, acceptor molecule, acceptor atom, score
      L1  H     4    44       P1  7957  0.98

> <Gold.Chemscore.Hbond.Weighted>
-3.3302

> <Gold.Chemscore.Metal.Weighted>
-0.0000

> <Gold.Chemscore.Lipo.Weighted>
-13.7507

> <Gold.Chemscore.Internal_Hbond.Weighted>
0.0000

> <Gold.Chemscore.DEClash.Weighted>
0.8631

> <Gold.Chemscore.DEInternal.Weighted>
0.3329

> <Gold.Chemscore.Rot.Weighted>
3.3976

> <Gold.Chemscore.Internal.Correction.Weighted>
   9.000000E+99

> <Gold.Protein.RotatedTorsions>
[ 6907 6896 6895 6894 ] final -100.61 input  -60.11 | X-H torsion
[ 7974 7965 7964 7962 ] final  101.92 input  175.53 | X-H torsion
[ 8008 7997 7996 7995 ] final   36.03 input   59.86 | X-H torsion
[ 10167 10162 10161 10158 ] final -130.63 input  -65.29 | X-H torsion
[ 10718 10713 10712 10709 ] final  122.58 input   66.30 | X-H torsion
[ 10763 10752 10751 10750 ] final  -55.46 input  -60.55 | X-H torsion
[ 11005 11000 10999 10996 ] final  164.92 input  -57.11 | X-H torsion

> <Gold.Protein.ActiveResidues>
 VAL166  LYS551  ARG553  GLY616  TRP617  ASP618  TYR619  PRO620  LYS621  CYS622 
 ASP623  PHE694  ASN695  SER759  ASP760  ASP761  ALA762  ILE779  LEU786  VAL792 
 PHE793  MET794  SER795  GLU796  ALA797  LYS798  CYS799  TRP800  GLU811  SER814 

> <Gold.Protein.RotatedAtoms>
  150.7122  134.0860  159.3914 H   0  0  0  0  0  0  0  0  0  0  0  0  # atno 6907 bound_to 6896
  151.8845  135.0438  160.0501 H   0  0  0  0  0  0  0  0  0  0  0  0  # atno 6908 bound_to 6896
  152.2541  133.5205  159.5379 H   0  0  0  0  0  0  0  0  0  0  0  0  # atno 6909 bound_to 6896
  145.3659  139.2408  143.3481 H   0  0  0  0  0  0  0  0  0  0  0  0  # atno 7974 bound_to 7965
  155.1807  140.3299  155.4375 H   0  0  0  0  0  0  0  0  0  0  0  0  # atno 8008 bound_to 7997
  156.2477  140.1927  156.6856 H   0  0  0  0  0  0  0  0  0  0  0  0  # atno 8009 bound_to 7997
  154.6273  140.0587  156.9675 H   0  0  0  0  0  0  0  0  0  0  0  0  # atno 8010 bound_to 7997
  139.9273  143.6312  152.2538 H   0  0  0  0  0  0  0  0  0  0  0  0  # atno 10167 bound_to 10162
  157.5731  131.1081  150.8330 H   0  0  0  0  0  0  0  0  0  0  0  0  # atno 10718 bound_to 10713
  154.1911  135.6427  153.5060 H   0  0  0  0  0  0  0  0  0  0  0  0  # atno 10763 bound_to 10752
  153.0035  135.5429  154.6414 H   0  0  0  0  0  0  0  0  0  0  0  0  # atno 10764 bound_to 10752
  154.5803  135.2924  155.0712 H   0  0  0  0  0  0  0  0  0  0  0  0  # atno 10765 bound_to 10752
  140.2508  134.7978  157.3500 H   0  0  0  0  0  0  0  0  0  0  0  0  # atno 11005 bound_to 11000
  146.2907  140.4302  142.8741 LP  0  0  0  0  0  0  0  0  0  0  0  0  # atno 17320 bound_to 7965
  144.8612  140.7141  143.6106 LP  0  0  0  0  0  0  0  0  0  0  0  0  # atno 17321 bound_to 7965
  139.6811  144.7655  151.1607 LP  0  0  0  0  0  0  0  0  0  0  0  0  # atno 17342 bound_to 10162
  140.7646  143.5723  150.8982 LP  0  0  0  0  0  0  0  0  0  0  0  0  # atno 17343 bound_to 10162
  156.8796  130.5174  149.5291 LP  0  0  0  0  0  0  0  0  0  0  0  0  # atno 17370 bound_to 10713
  156.0776  130.5794  150.9503 LP  0  0  0  0  0  0  0  0  0  0  0  0  # atno 17371 bound_to 10713
  140.1559  134.4790  155.7928 LP  0  0  0  0  0  0  0  0  0  0  0  0  # atno 17394 bound_to 11000
  141.2201  133.6881  156.7461 LP  0  0  0  0  0  0  0  0  0  0  0  0  # atno 17395 bound_to 11000

$$$$
