AV-unprocessed.smi:229|AV-procd|sdf|1762|dock4
  -GOLD-   2262020293D 1   1.00000     0.00000
 Structure written by MMmdl.
 58 62  0  0  0  0  0  0  0  0  1 V2000
  145.6979  134.0374  154.1090 C   0  0  0  0  0  0  0  0  0  0  0  0
  146.4315  135.3403  154.4507 C   0  0  0  0  0  0  0  0  0  0  0  0
  147.9400  135.1386  154.6567 C   0  0  1  0  0  0  0  0  0  0  0  0
  148.6486  136.4498  155.0340 C   0  0  0  0  0  0  0  0  0  0  0  0
  150.0553  136.1828  155.2949 N   0  0  0  0  0  0  0  0  0  0  0  0
  150.8398  137.2722  155.4310 C   0  0  0  0  0  0  0  0  0  0  0  0
  151.8866  137.3835  154.5771 N   0  0  0  0  0  0  0  0  0  0  0  0
  152.7078  138.4351  154.6596 C   0  0  0  0  0  0  0  0  0  0  0  0
  152.6649  139.4637  155.5096 N   0  0  0  0  0  0  0  0  0  0  0  0
  151.6180  139.3469  156.3758 C   0  0  0  0  0  0  0  0  0  0  0  0
  150.6638  138.2913  156.4097 C   0  0  0  0  0  0  0  0  0  0  0  0
  149.7537  138.5102  157.4373 N   0  0  0  0  0  0  0  0  0  0  0  0
  150.1426  139.6346  157.9747 C   0  0  0  0  0  0  0  0  0  0  0  0
  151.2521  140.2069  157.3951 N   0  0  0  0  0  0  0  0  0  0  0  0
  151.9000  141.4474  157.7843 C   0  0  0  0  0  0  0  0  0  0  0  0
  152.2489  141.4867  159.2880 C   0  0  1  0  0  0  0  0  0  0  0  0
  153.5591  140.9769  159.4478 O   0  0  0  0  0  0  0  0  0  0  0  0
  152.2210  142.9106  159.8791 C   0  0  1  0  0  0  0  0  0  0  0  0
  152.7674  144.0004  158.9548 C   0  0  0  0  0  0  0  0  0  0  0  0
  152.1002  145.2662  159.4649 C   0  0  0  0  0  0  0  0  0  0  0  0
  150.8880  144.7511  160.2443 C   0  0  0  0  0  0  0  0  0  0  0  0
  150.8780  143.3452  160.0358 O   0  0  0  0  0  0  0  0  0  0  0  0
  150.2526  135.1954  156.3455 C   0  0  0  0  0  0  0  0  0  0  0  0
  149.4947  133.8877  156.0147 C   0  0  2  0  0  0  0  0  0  0  0  0
  149.5043  132.9324  157.2044 C   0  0  0  0  0  0  0  0  0  0  0  0
  150.6626  131.9963  156.8954 C   0  0  0  0  0  0  0  0  0  0  0  0
  150.5258  131.7999  155.5008 O   0  0  0  0  0  0  0  0  0  0  0  0
  150.1824  133.0486  154.9117 C   0  0  0  0  0  0  0  0  0  0  0  0
  148.1288  134.1897  155.7098 O   0  0  0  0  0  0  0  0  0  0  0  0
  144.6333  134.2190  153.9602 H   0  0  0  0  0  0  0  0  0  0  0  0
  145.8003  133.3032  154.9086 H   0  0  0  0  0  0  0  0  0  0  0  0
  146.0903  133.5927  153.1940 H   0  0  0  0  0  0  0  0  0  0  0  0
  146.2693  136.0548  153.6430 H   0  0  0  0  0  0  0  0  0  0  0  0
  145.9927  135.7838  155.3453 H   0  0  0  0  0  0  0  0  0  0  0  0
  148.3682  134.7607  153.7279 H   0  0  0  0  0  0  0  0  0  0  0  0
  148.5531  137.1778  154.2271 H   0  0  0  0  0  0  0  0  0  0  0  0
  148.1771  136.8788  155.9184 H   0  0  0  0  0  0  0  0  0  0  0  0
  153.5151  138.4547  153.9425 H   0  0  0  0  0  0  0  0  0  0  0  0
  149.6258  140.0812  158.8119 H   0  0  0  0  0  0  0  0  0  0  0  0
  152.7998  141.5768  157.1811 H   0  0  0  0  0  0  0  0  0  0  0  0
  151.2289  142.2658  157.5228 H   0  0  0  0  0  0  0  0  0  0  0  0
  151.5546  140.8496  159.8376 H   0  0  0  0  0  0  0  0  0  0  0  0
  153.5569  140.0650  159.1999 H   0  0  0  0  0  0  0  0  0  0  0  0
  152.7385  142.9490  160.8400 H   0  0  0  0  0  0  0  0  0  0  0  0
  153.8559  144.0633  158.9685 H   0  0  0  0  0  0  0  0  0  0  0  0
  152.4528  143.8123  157.9272 H   0  0  0  0  0  0  0  0  0  0  0  0
  152.7664  145.8232  160.1247 H   0  0  0  0  0  0  0  0  0  0  0  0
  151.8128  145.9231  158.6433 H   0  0  0  0  0  0  0  0  0  0  0  0
  150.9989  144.9588  161.3095 H   0  0  0  0  0  0  0  0  0  0  0  0
  149.9529  145.1982  159.9054 H   0  0  0  0  0  0  0  0  0  0  0  0
  151.3167  134.9961  156.4824 H   0  0  0  0  0  0  0  0  0  0  0  0
  149.8848  135.6110  157.2848 H   0  0  0  0  0  0  0  0  0  0  0  0
  149.6060  133.4307  158.1690 H   0  0  0  0  0  0  0  0  0  0  0  0
  148.5796  132.3537  157.2292 H   0  0  0  0  0  0  0  0  0  0  0  0
  151.6219  132.4688  157.1119 H   0  0  0  0  0  0  0  0  0  0  0  0
  150.6054  131.0556  157.4436 H   0  0  0  0  0  0  0  0  0  0  0  0
  149.5406  132.8655  154.0505 H   0  0  0  0  0  0  0  0  0  0  0  0
  151.0899  133.5340  154.5502 H   0  0  0  0  0  0  0  0  0  0  0  0
  1  2  1  0  0  0  0
  1 30  1  0  0  0  0
  1 31  1  0  0  0  0
  1 32  1  0  0  0  0
  2  3  1  0  0  0  0
  2 33  1  0  0  0  0
  2 34  1  0  0  0  0
  3 29  1  0  0  0  0
  3  4  1  0  0  0  0
  3 35  1  0  0  0  0
  4  5  1  0  0  0  0
  4 36  1  0  0  0  0
  4 37  1  0  0  0  0
  5  6  1  0  0  0  0
  5 23  1  0  0  0  0
  6 11  1  0  0  0  0
  6  7  2  0  0  0  0
  7  8  1  0  0  0  0
  8  9  2  0  0  0  0
  8 38  1  0  0  0  0
  9 10  1  0  0  0  0
 10 14  1  0  0  0  0
 10 11  2  0  0  0  0
 11 12  1  0  0  0  0
 12 13  2  0  0  0  0
 13 14  1  0  0  0  0
 13 39  1  0  0  0  0
 14 15  1  0  0  0  0
 15 16  1  0  0  0  0
 15 40  1  0  0  0  0
 15 41  1  0  0  0  0
 16 17  1  0  0  0  0
 16 18  1  0  0  0  0
 16 42  1  0  0  0  0
 17 43  1  0  0  0  0
 18 22  1  0  0  0  0
 18 19  1  0  0  0  0
 18 44  1  0  0  0  0
 19 20  1  0  0  0  0
 19 45  1  0  0  0  0
 19 46  1  0  0  0  0
 20 21  1  0  0  0  0
 20 47  1  0  0  0  0
 20 48  1  0  0  0  0
 21 22  1  0  0  0  0
 21 49  1  0  0  0  0
 21 50  1  0  0  0  0
 23 24  1  0  0  0  0
 23 51  1  0  0  0  0
 23 52  1  0  0  0  0
 24 28  1  0  0  0  0
 24 25  1  0  0  0  0
 24 29  1  0  0  0  0
 25 26  1  0  0  0  0
 25 53  1  0  0  0  0
 25 54  1  0  0  0  0
 26 27  1  0  0  0  0
 26 55  1  0  0  0  0
 26 56  1  0  0  0  0
 27 28  1  0  0  0  0
 28 57  1  0  0  0  0
 28 58  1  0  0  0  0
M  END
> <s_m_source_file>
AV-unprocessed.smi

> <i_m_source_file_index>
229

> <i_lp_mmshare_version>
43012

> <i_f3d_flags>
0

> <s_epik_input>
W0NIMl0xT1tDSDJdW0NIMl1bQ0BdMTJbQ0gyXU4oW0NIMl1bQ0BIXShPMilbQ0gyXVtDSDNdKWMobltjSF1uMyljKGMzNCluW2NIXW40W0NIMl1bQ0BIXShbT0hdKVtDQEBIXTVbQ0gyXVtDSDJdW0NIMl1PNQ==

> <s_epik_cmdline>
J2VwaWtfcHl0aG9uJywgJy1waCcsICc3LjAnLCAnLXRuJywgJzgnLCAnLW1hJywgJzIwMCcsICctbWV0YWxfYmluZGluZycsICctaW1hZScsICc8aW5maWxlLm1hZT4nLCAnLW9tYWUnLCAnPG91dGZpbGUubWFlPic=

> <r_lp_tautomer_probability>
1

> <r_epik_Ionization_Penalty>
0.00318402

> <r_epik_Ionization_Penalty_Charging>
0

> <r_epik_Ionization_Penalty_Neutral>
0.00318402

> <r_epik_State_Penalty>
0.00215642

> <r_epik_Charging_Adjusted_Penalty>
0.00215642

> <i_epik_Tot_Q>
0

> <i_epik_Tot_abs_Q>
0

> <r_epik_Metal_State_Penalty>
-0

> <b_epik_Metal_Only>
0

> <s_lp_Force_Field>
OPLS_2005

> <r_lp_Energy>
58.1289

> <b_lp_Chiralities_Consistent>
1

> <s_lp_Variant>
AV-unprocessed.smi:229-16

> <Gold.Version>
5.8.1

> <Gold.Id.Protein>
6NUR|6NUR_protein|mol2

> <Gold.PLP.Fitness>
46.3806

> <Gold.PLP.PLP>
-42.1141

> <Gold.PLP.part.hbond>
-3.0000

> <Gold.PLP.part.metal>
0.0000

> <Gold.PLP.part.buried>
-8.3459

> <Gold.PLP.part.nonpolar>
-31.7536

> <Gold.PLP.part.repulsive>
0.3207

> <Gold.PLP.ligand.clash>
0.0000

> <Gold.PLP.ligand.torsion>
0.9037

> <Gold.PLP.Chemscore.Hbond>
1.9440

> <Gold.PLP.Chemscore.CHOScore>
0.0000

> <Gold.PLP.Chemscore.Metal>
0.0000

> <Gold.Chemscore.Hbonds>
donor molecule, donor type, donor heavy atom, donor atom, acceptor molecule, acceptor atom, score
      P1  H  7997  8010       L1     9  1.00
      P1  H 10752 10765       L1     7  0.94

> <Gold.PLP.Chemscore.Internal.Correction>
0.2419

> <Gold.Rescore>
     Score         DG    S(hbond)    S(metal)    S(lipo)     H(rot)  DE(clash)    DE(int)     intcor
     15.56     -16.39       1.64        0.00     100.18       2.46       0.01       0.82       ----

> <Gold.Chemscore.Fitness>
15.5552

> <Gold.Chemscore.DG>
-16.3897

> <Gold.Chemscore.ZeroCoef>
-5.4800

> <Gold.Chemscore.Hbond>
1.6421

> <Gold.Chemscore.Metal>
0.0000

> <Gold.Chemscore.Lipo>
100.1759

> <Gold.Chemscore.Internal_Hbond>
0.0000

> <Gold.Chemscore.DEClash>
0.0149

> <Gold.Chemscore.DEInternal>
0.8197

> <Gold.Chemscore.Rot>
2.4591

> <Gold.Chemscore.Internal.Correction>
   9.000000E+99

> <Gold.Chemscore.Hbonds>
donor molecule, donor type, donor heavy atom, donor atom, acceptor molecule, acceptor atom, score
      P1  H  7997  8010       L1     9  0.91
      P1  H 10752 10765       L1     7  0.57

> <Gold.Chemscore.Hbond.Weighted>
-5.4845

> <Gold.Chemscore.Metal.Weighted>
-0.0000

> <Gold.Chemscore.Lipo.Weighted>
-11.7206

> <Gold.Chemscore.Internal_Hbond.Weighted>
0.0000

> <Gold.Chemscore.DEClash.Weighted>
0.0149

> <Gold.Chemscore.DEInternal.Weighted>
0.8197

> <Gold.Chemscore.Rot.Weighted>
6.2953

> <Gold.Chemscore.Internal.Correction.Weighted>
   9.000000E+99

> <Gold.Protein.RotatedTorsions>
[ 6907 6896 6895 6894 ] final  -75.23 input  -60.11 | X-H torsion
[ 7974 7965 7964 7962 ] final  176.75 input  175.53 | X-H torsion
[ 8008 7997 7996 7995 ] final   92.13 input   59.86 | X-H torsion
[ 10167 10162 10161 10158 ] final  -59.89 input  -65.29 | X-H torsion
[ 10718 10713 10712 10709 ] final -105.49 input   66.30 | X-H torsion
[ 10763 10752 10751 10750 ] final  166.62 input  -60.55 | X-H torsion
[ 11005 11000 10999 10996 ] final  117.19 input  -57.11 | X-H torsion

> <Gold.Protein.ActiveResidues>
 VAL166  LYS551  ARG553  GLY616  TRP617  ASP618  TYR619  PRO620  LYS621  CYS622 
 ASP623  PHE694  ASN695  SER759  ASP760  ASP761  ALA762  ILE779  LEU786  VAL792 
 PHE793  MET794  SER795  GLU796  ALA797  LYS798  CYS799  TRP800  GLU811  SER814 

> <Gold.Protein.RotatedAtoms>
  150.7066  134.4751  159.5443 H   0  0  0  0  0  0  0  0  0  0  0  0  # atno 6907 bound_to 6896
  152.2400  134.8235  160.0471 H   0  0  0  0  0  0  0  0  0  0  0  0  # atno 6908 bound_to 6896
  151.9021  133.3505  159.3871 H   0  0  0  0  0  0  0  0  0  0  0  0  # atno 6909 bound_to 6896
  144.7179  140.0143  143.6440 H   0  0  0  0  0  0  0  0  0  0  0  0  # atno 7974 bound_to 7965
  156.0318  140.3329  155.7148 H   0  0  0  0  0  0  0  0  0  0  0  0  # atno 8008 bound_to 7997
  155.5873  140.0643  157.2785 H   0  0  0  0  0  0  0  0  0  0  0  0  # atno 8009 bound_to 7997
  154.4356  140.1833  156.1026 H   0  0  0  0  0  0  0  0  0  0  0  0  # atno 8010 bound_to 7997
  140.6106  143.2386  151.5718 H   0  0  0  0  0  0  0  0  0  0  0  0  # atno 10167 bound_to 10162
  156.0348  130.5566  150.7546 H   0  0  0  0  0  0  0  0  0  0  0  0  # atno 10718 bound_to 10713
  154.3416  135.2754  155.2419 H   0  0  0  0  0  0  0  0  0  0  0  0  # atno 10763 bound_to 10752
  154.4687  135.5888  153.6310 H   0  0  0  0  0  0  0  0  0  0  0  0  # atno 10764 bound_to 10752
  152.9857  135.6083  154.3618 H   0  0  0  0  0  0  0  0  0  0  0  0  # atno 10765 bound_to 10752
  139.9066  134.9607  156.7313 H   0  0  0  0  0  0  0  0  0  0  0  0  # atno 11005 bound_to 11000
  146.0232  139.3270  143.0800 LP  0  0  0  0  0  0  0  0  0  0  0  0  # atno 17320 bound_to 7965
  145.8542  140.9511  143.0733 LP  0  0  0  0  0  0  0  0  0  0  0  0  # atno 17321 bound_to 7965
  139.5358  144.2784  152.1249 LP  0  0  0  0  0  0  0  0  0  0  0  0  # atno 17342 bound_to 10162
  140.1983  144.4683  150.6444 LP  0  0  0  0  0  0  0  0  0  0  0  0  # atno 17343 bound_to 10162
  157.5081  131.0923  151.0232 LP  0  0  0  0  0  0  0  0  0  0  0  0  # atno 17370 bound_to 10713
  157.0594  130.5819  149.5383 LP  0  0  0  0  0  0  0  0  0  0  0  0  # atno 17371 bound_to 10713
  140.6923  133.9379  155.7973 LP  0  0  0  0  0  0  0  0  0  0  0  0  # atno 17394 bound_to 11000
  141.0433  134.0590  157.3875 LP  0  0  0  0  0  0  0  0  0  0  0  0  # atno 17395 bound_to 11000

$$$$
