AV-unprocessed.smi:942|AV-procd|sdf|4221|dock2
  -GOLD-   22720 2133D 1   1.00000     0.00000
 Structure written by MMmdl.
 43 45  0  0  0  0  0  0  0  0  2 V2000
  151.0644  140.3672  156.5973 O   0  0  0  0  0  0  0  0  0  0  0  0
  150.5854  141.4970  156.7022 C   0  0  0  0  0  0  0  0  0  0  0  0
  149.6770  141.9903  155.8461 N   0  0  0  0  0  0  0  0  0  0  0  0
  149.1420  141.2710  154.6934 C   0  0  2  0  0  0  0  0  0  0  0  0
  147.9264  142.0109  154.1011 C   0  0  0  0  0  0  0  0  0  0  0  0
  146.7162  141.0951  154.3065 C   0  0  0  0  0  0  0  0  0  0  0  0
  147.3018  139.6866  154.3352 C   0  0  0  0  0  0  0  0  0  0  0  0
  148.6251  139.8664  155.0862 C   0  0  1  0  0  0  0  0  0  0  0  0
  149.5937  138.7841  154.8538 N   0  0  0  0  0  0  0  0  0  0  0  0
  150.0744  137.8997  155.7860 C   0  0  0  0  0  0  0  0  0  0  0  0
  150.9610  137.0829  155.1333 C   0  0  0  0  0  0  0  0  0  0  0  0
  150.9837  137.4996  153.8296 N   0  3  0  0  0  0  0  0  0  0  0  0
  150.1519  138.5323  153.6609 C   0  0  0  0  0  0  0  0  0  0  0  0
  151.0158  142.4158  157.8526 C   0  0  0  0  0  0  0  0  0  0  0  0
  151.6584  143.7117  157.3130 C   0  0  0  0  0  0  0  0  0  0  0  0
  152.1083  144.6316  158.4595 C   0  0  0  0  0  0  0  0  0  0  0  0
  153.0726  143.9043  159.4098 C   0  0  0  0  0  0  0  0  0  0  0  0
  152.4488  142.6070  159.9478 C   0  0  0  0  0  0  0  0  0  0  0  0
  151.9936  141.6892  158.8011 C   0  0  0  0  0  0  0  0  0  0  0  0
  149.3329  142.9267  156.0032 H   0  0  0  0  0  0  0  0  0  0  0  0
  149.9102  141.2124  153.9201 H   0  0  0  0  0  0  0  0  0  0  0  0
  147.7634  142.9960  154.5411 H   0  0  0  0  0  0  0  0  0  0  0  0
  148.0849  142.1637  153.0328 H   0  0  0  0  0  0  0  0  0  0  0  0
  146.2479  141.3160  155.2667 H   0  0  0  0  0  0  0  0  0  0  0  0
  145.9596  141.2200  153.5314 H   0  0  0  0  0  0  0  0  0  0  0  0
  146.6398  138.9678  154.8188 H   0  0  0  0  0  0  0  0  0  0  0  0
  147.4743  139.3468  153.3133 H   0  0  0  0  0  0  0  0  0  0  0  0
  148.3911  139.8604  156.1530 H   0  0  0  0  0  0  0  0  0  0  0  0
  149.7630  137.9203  156.8203 H   0  0  0  0  0  0  0  0  0  0  0  0
  151.5624  136.2594  155.4899 H   0  0  0  0  0  0  0  0  0  0  0  0
  149.9727  139.0624  152.7425 H   0  0  0  0  0  0  0  0  0  0  0  0
  150.1272  142.6903  158.4244 H   0  0  0  0  0  0  0  0  0  0  0  0
  152.5200  143.4735  156.6871 H   0  0  0  0  0  0  0  0  0  0  0  0
  150.9518  144.2447  156.6751 H   0  0  0  0  0  0  0  0  0  0  0  0
  152.5875  145.5235  158.0546 H   0  0  0  0  0  0  0  0  0  0  0  0
  151.2358  144.9750  159.0165 H   0  0  0  0  0  0  0  0  0  0  0  0
  153.9996  143.6734  158.8831 H   0  0  0  0  0  0  0  0  0  0  0  0
  153.3425  144.5591  160.2390 H   0  0  0  0  0  0  0  0  0  0  0  0
  153.1673  142.0842  160.5797 H   0  0  0  0  0  0  0  0  0  0  0  0
  151.5965  142.8479  160.5840 H   0  0  0  0  0  0  0  0  0  0  0  0
  151.5217  140.7972  159.2153 H   0  0  0  0  0  0  0  0  0  0  0  0
  152.8699  141.3461  158.2488 H   0  0  0  0  0  0  0  0  0  0  0  0
  151.5508  137.0900  153.0978 H   0  0  0  0  0  0  0  0  0  0  0  0
  1  2  2  0  0  0  0
  2  3  1  0  0  0  0
  2 14  1  0  0  0  0
  3  4  1  0  0  0  0
  3 20  1  0  0  0  0
  4  8  1  0  0  0  0
  4  5  1  0  0  0  0
  4 21  1  0  0  0  0
  5  6  1  0  0  0  0
  5 22  1  0  0  0  0
  5 23  1  0  0  0  0
  6  7  1  0  0  0  0
  6 24  1  0  0  0  0
  6 25  1  0  0  0  0
  7  8  1  0  0  0  0
  7 26  1  0  0  0  0
  7 27  1  0  0  0  0
  8  9  1  0  0  0  0
  8 28  1  0  0  0  0
  9 13  1  0  0  0  0
  9 10  1  0  0  0  0
 10 11  2  0  0  0  0
 10 29  1  0  0  0  0
 11 12  1  0  0  0  0
 11 30  1  0  0  0  0
 12 13  2  0  0  0  0
 12 43  1  0  0  0  0
 13 31  1  0  0  0  0
 14 19  1  0  0  0  0
 14 15  1  0  0  0  0
 14 32  1  0  0  0  0
 15 16  1  0  0  0  0
 15 33  1  0  0  0  0
 15 34  1  0  0  0  0
 16 17  1  0  0  0  0
 16 35  1  0  0  0  0
 16 36  1  0  0  0  0
 17 18  1  0  0  0  0
 17 37  1  0  0  0  0
 17 38  1  0  0  0  0
 18 19  1  0  0  0  0
 18 39  1  0  0  0  0
 18 40  1  0  0  0  0
 19 41  1  0  0  0  0
 19 42  1  0  0  0  0
M  CHG  1  12   1
M  END
> <s_m_source_file>
AV-unprocessed.smi

> <i_m_source_file_index>
942

> <i_lp_mmshare_version>
43012

> <i_f3d_flags>
0

> <s_epik_input>
W0NIMl0xW0NIMl1bQ0gyXVtDSDJdW0NIMl1bQ0hdMUMoPU8pW05IXVtDQEBIXTJbQ0gyXVtDSDJdW0NIMl1bQ0BIXTJuM1tjSF1bY0hdbltjSF0z

> <s_epik_cmdline>
J2VwaWtfcHl0aG9uJywgJy1waCcsICc3LjAnLCAnLXRuJywgJzgnLCAnLW1hJywgJzIwMCcsICctbWV0YWxfYmluZGluZycsICctaW1hZScsICc8aW5maWxlLm1hZT4nLCAnLW9tYWUnLCAnPG91dGZpbGUubWFlPic=

> <r_lp_tautomer_probability>
1

> <r_epik_Ionization_Penalty>
0.185467

> <r_epik_Ionization_Penalty_Charging>
0

> <r_epik_Ionization_Penalty_Neutral>
0.185467

> <r_epik_State_Penalty>
0.175036

> <r_epik_Charging_Adjusted_Penalty>
0.175036

> <i_epik_Tot_Q>
1

> <i_epik_Tot_abs_Q>
1

> <r_epik_Metal_State_Penalty>
0.487091

> <b_epik_Metal_Only>
0

> <s_lp_Force_Field>
OPLS_2005

> <r_lp_Energy>
31.9707

> <b_lp_Chiralities_Consistent>
1

> <s_lp_Variant>
AV-unprocessed.smi:942-1

> <Gold.Version>
5.8.1

> <Gold.Id.Protein>
6NUR|6NUR_protein|mol2

> <Gold.PLP.Fitness>
48.3071

> <Gold.PLP.PLP>
-37.6779

> <Gold.PLP.part.hbond>
-3.0000

> <Gold.PLP.part.metal>
0.0000

> <Gold.PLP.part.buried>
-2.8984

> <Gold.PLP.part.nonpolar>
-32.5622

> <Gold.PLP.part.repulsive>
0.2071

> <Gold.PLP.ligand.clash>
0.0000

> <Gold.PLP.ligand.torsion>
0.1423

> <Gold.PLP.Chemscore.Hbond>
2.6320

> <Gold.PLP.Chemscore.CHOScore>
1.0000

> <Gold.PLP.Chemscore.Metal>
0.0000

> <Gold.Chemscore.Hbonds>
donor molecule, donor type, donor heavy atom, donor atom, acceptor molecule, acceptor atom, score
      L1  H     3    20       P1  8028  1.00
      L1  H    12    43       P1  7949  1.41
      L1  C    13    31       P1  7957  0.63

> <Gold.PLP.Chemscore.Internal.Correction>
0.0178

> <Gold.Rescore>
     Score         DG    S(hbond)    S(metal)    S(lipo)     H(rot)  DE(clash)    DE(int)     intcor
     13.61     -17.93       1.40        0.00      98.71       1.48       0.01       4.31       ----

> <Gold.Chemscore.Fitness>
13.6117

> <Gold.Chemscore.DG>
-17.9313

> <Gold.Chemscore.ZeroCoef>
-5.4800

> <Gold.Chemscore.Hbond>
1.4038

> <Gold.Chemscore.Metal>
0.0000

> <Gold.Chemscore.Lipo>
98.7081

> <Gold.Chemscore.Internal_Hbond>
0.0000

> <Gold.Chemscore.DEClash>
0.0126

> <Gold.Chemscore.DEInternal>
4.3070

> <Gold.Chemscore.Rot>
1.4790

> <Gold.Chemscore.Internal.Correction>
   9.000000E+99

> <Gold.Chemscore.Hbonds>
donor molecule, donor type, donor heavy atom, donor atom, acceptor molecule, acceptor atom, score
      L1  H     3    20       P1  8028  0.99
      L1  H    12    43       P1  7949  0.63

> <Gold.Chemscore.Hbond.Weighted>
-4.6888

> <Gold.Chemscore.Metal.Weighted>
-0.0000

> <Gold.Chemscore.Lipo.Weighted>
-11.5488

> <Gold.Chemscore.Internal_Hbond.Weighted>
0.0000

> <Gold.Chemscore.DEClash.Weighted>
0.0126

> <Gold.Chemscore.DEInternal.Weighted>
4.3070

> <Gold.Chemscore.Rot.Weighted>
3.7863

> <Gold.Chemscore.Internal.Correction.Weighted>
   9.000000E+99

> <Gold.Protein.RotatedTorsions>
[ 6907 6896 6895 6894 ] final -148.86 input  -60.11 | X-H torsion
[ 7974 7965 7964 7962 ] final   42.49 input  175.53 | X-H torsion
[ 8008 7997 7996 7995 ] final  135.86 input   59.86 | X-H torsion
[ 10167 10162 10161 10158 ] final  -83.70 input  -65.29 | X-H torsion
[ 10718 10713 10712 10709 ] final   17.96 input   66.30 | X-H torsion
[ 10763 10752 10751 10750 ] final  101.89 input  -60.55 | X-H torsion
[ 11005 11000 10999 10996 ] final    2.83 input  -57.11 | X-H torsion

> <Gold.Protein.ActiveResidues>
 VAL166  LYS551  ARG553  GLY616  TRP617  ASP618  TYR619  PRO620  LYS621  CYS622 
 ASP623  PHE694  ASN695  SER759  ASP760  ASP761  ALA762  ILE779  LEU786  VAL792 
 PHE793  MET794  SER795  GLU796  ALA797  LYS798  CYS799  TRP800  GLU811  SER814 

> <Gold.Protein.RotatedAtoms>
  151.1759  133.4755  159.2593 H   0  0  0  0  0  0  0  0  0  0  0  0  # atno 6907 bound_to 6896
  151.1309  135.0129  159.8592 H   0  0  0  0  0  0  0  0  0  0  0  0  # atno 6908 bound_to 6896
  152.5460  134.1661  159.8631 H   0  0  0  0  0  0  0  0  0  0  0  0  # atno 6909 bound_to 6896
  146.0735  139.5294  142.9582 H   0  0  0  0  0  0  0  0  0  0  0  0  # atno 7974 bound_to 7965
  156.3003  140.2460  156.3651 H   0  0  0  0  0  0  0  0  0  0  0  0  # atno 8008 bound_to 7997
  154.8841  140.0411  157.1819 H   0  0  0  0  0  0  0  0  0  0  0  0  # atno 8009 bound_to 7997
  154.8665  140.2928  155.5511 H   0  0  0  0  0  0  0  0  0  0  0  0  # atno 8010 bound_to 7997
  140.4202  143.2588  151.8900 H   0  0  0  0  0  0  0  0  0  0  0  0  # atno 10167 bound_to 10162
  157.0895  130.6422  149.5845 H   0  0  0  0  0  0  0  0  0  0  0  0  # atno 10718 bound_to 10713
  153.3325  135.4029  155.1507 H   0  0  0  0  0  0  0  0  0  0  0  0  # atno 10763 bound_to 10752
  154.8626  135.3614  154.5451 H   0  0  0  0  0  0  0  0  0  0  0  0  # atno 10764 bound_to 10752
  153.5891  135.7074  153.5490 H   0  0  0  0  0  0  0  0  0  0  0  0  # atno 10765 bound_to 10752
  140.5999  133.9846  155.8127 H   0  0  0  0  0  0  0  0  0  0  0  0  # atno 11005 bound_to 11000
  145.6348  141.0297  143.1844 LP  0  0  0  0  0  0  0  0  0  0  0  0  # atno 17320 bound_to 7965
  144.7247  139.7915  143.7369 LP  0  0  0  0  0  0  0  0  0  0  0  0  # atno 17321 bound_to 7965
  139.4782  144.5445  151.8478 LP  0  0  0  0  0  0  0  0  0  0  0  0  # atno 17342 bound_to 10162
  140.4542  144.1812  150.5900 LP  0  0  0  0  0  0  0  0  0  0  0  0  # atno 17343 bound_to 10162
  155.9902  130.4952  150.7246 LP  0  0  0  0  0  0  0  0  0  0  0  0  # atno 17370 bound_to 10713
  157.4733  131.0895  151.0618 LP  0  0  0  0  0  0  0  0  0  0  0  0  # atno 17371 bound_to 10713
  141.0879  133.9962  157.3284 LP  0  0  0  0  0  0  0  0  0  0  0  0  # atno 17394 bound_to 11000
  139.9237  135.0201  156.8158 LP  0  0  0  0  0  0  0  0  0  0  0  0  # atno 17395 bound_to 11000

$$$$
