AV-unprocessed.smi:2944|AV-procd|sdf|11275|dock3
  -GOLD-   2272016163D 1   1.00000     0.00000
 Structure written by MMmdl.
 45 47  0  0  0  0  0  0  0  0  2 V2000
  152.9392  138.9794  154.6277 C   0  0  0  0  0  0  0  0  0  0  0  0
  152.7400  139.6591  155.8544 O   0  0  0  0  0  0  0  0  0  0  0  0
  152.1376  138.8354  156.8392 C   0  0  0  0  0  0  0  0  0  0  0  0
  151.7809  139.6653  158.0808 C   0  0  0  0  0  0  0  0  0  0  0  0
  151.2615  140.9965  157.7332 N   0  0  0  0  0  0  0  0  0  0  0  0
  150.2672  141.3590  156.8759 C   0  0  0  0  0  0  0  0  0  0  0  0
  149.2732  140.2826  155.8981 S   0  0  0  0  0  0  0  0  0  0  0  0
  148.2690  141.4013  154.8754 C   0  0  1  0  0  0  0  0  0  0  0  0
  147.9772  140.7537  153.5140 C   0  0  0  0  0  0  0  0  0  0  0  0
  146.9553  141.7923  155.5868 C   0  0  0  0  0  0  0  0  0  0  0  0
  146.7268  141.2623  156.6763 O   0  0  0  0  0  0  0  0  0  0  0  0
  146.0968  142.7168  155.0756 N   0  0  0  0  0  0  0  0  0  0  0  0
  146.2752  143.2234  153.7137 C   0  0  0  0  0  0  0  0  0  0  0  0
  145.1062  144.1779  153.5061 C   0  0  0  0  0  0  0  0  0  0  0  0
  144.4540  144.1324  154.7905 N   0  0  0  0  0  0  0  0  0  0  0  0
  145.0429  143.3231  155.6741 C   0  0  0  0  0  0  0  0  0  0  0  0
  144.6506  143.2014  156.8337 O   0  0  0  0  0  0  0  0  0  0  0  0
  150.1572  142.7147  156.9143 N   0  3  0  0  0  0  0  0  0  0  0  0
  151.0957  143.2319  157.8083 C   0  0  0  0  0  0  0  0  0  0  0  0
  151.3682  144.5440  158.1827 C   0  0  0  0  0  0  0  0  0  0  0  0
  152.3949  144.7313  159.1312 C   0  0  0  0  0  0  0  0  0  0  0  0
  153.1034  143.6386  159.6717 C   0  0  0  0  0  0  0  0  0  0  0  0
  152.8185  142.3126  159.2845 C   0  0  0  0  0  0  0  0  0  0  0  0
  151.8056  142.1349  158.3420 C   0  0  0  0  0  0  0  0  0  0  0  0
  153.3870  139.6575  153.9014 H   0  0  0  0  0  0  0  0  0  0  0  0
  151.9953  138.6196  154.2167 H   0  0  0  0  0  0  0  0  0  0  0  0
  153.6129  138.1315  154.7539 H   0  0  0  0  0  0  0  0  0  0  0  0
  151.2403  138.3646  156.4355 H   0  0  0  0  0  0  0  0  0  0  0  0
  152.8219  138.0362  157.1188 H   0  0  0  0  0  0  0  0  0  0  0  0
  151.0511  139.1457  158.7015 H   0  0  0  0  0  0  0  0  0  0  0  0
  152.6657  139.8052  158.7026 H   0  0  0  0  0  0  0  0  0  0  0  0
  148.9098  142.2660  154.7269 H   0  0  0  0  0  0  0  0  0  0  0  0
  147.4114  141.4262  152.8681 H   0  0  0  0  0  0  0  0  0  0  0  0
  147.4012  139.8340  153.6241 H   0  0  0  0  0  0  0  0  0  0  0  0
  148.9029  140.5048  152.9947 H   0  0  0  0  0  0  0  0  0  0  0  0
  147.2284  143.7465  153.6173 H   0  0  0  0  0  0  0  0  0  0  0  0
  146.2522  142.4105  152.9857 H   0  0  0  0  0  0  0  0  0  0  0  0
  145.4370  145.1908  153.2738 H   0  0  0  0  0  0  0  0  0  0  0  0
  144.4306  143.8345  152.7221 H   0  0  0  0  0  0  0  0  0  0  0  0
  143.6468  144.7008  155.0038 H   0  0  0  0  0  0  0  0  0  0  0  0
  150.8248  145.3829  157.7727 H   0  0  0  0  0  0  0  0  0  0  0  0
  152.6426  145.7328  159.4525 H   0  0  0  0  0  0  0  0  0  0  0  0
  153.8813  143.8209  160.3990 H   0  0  0  0  0  0  0  0  0  0  0  0
  153.3643  141.4838  159.7104 H   0  0  0  0  0  0  0  0  0  0  0  0
  149.4885  143.2433  156.3690 H   0  0  0  0  0  0  0  0  0  0  0  0
  1  2  1  0  0  0  0
  1 25  1  0  0  0  0
  1 26  1  0  0  0  0
  1 27  1  0  0  0  0
  2  3  1  0  0  0  0
  3  4  1  0  0  0  0
  3 28  1  0  0  0  0
  3 29  1  0  0  0  0
  4  5  1  0  0  0  0
  4 30  1  0  0  0  0
  4 31  1  0  0  0  0
  5 24  1  0  0  0  0
  5  6  1  0  0  0  0
  6  7  1  0  0  0  0
  6 18  2  0  0  0  0
  7  8  1  0  0  0  0
  8  9  1  0  0  0  0
  8 10  1  0  0  0  0
  8 32  1  0  0  0  0
  9 33  1  0  0  0  0
  9 34  1  0  0  0  0
  9 35  1  0  0  0  0
 10 11  2  0  0  0  0
 10 12  1  0  0  0  0
 12 16  1  0  0  0  0
 12 13  1  0  0  0  0
 13 14  1  0  0  0  0
 13 36  1  0  0  0  0
 13 37  1  0  0  0  0
 14 15  1  0  0  0  0
 14 38  1  0  0  0  0
 14 39  1  0  0  0  0
 15 16  1  0  0  0  0
 15 40  1  0  0  0  0
 16 17  2  0  0  0  0
 18 19  1  0  0  0  0
 18 45  1  0  0  0  0
 19 24  2  0  0  0  0
 19 20  1  0  0  0  0
 20 21  2  0  0  0  0
 20 41  1  0  0  0  0
 21 22  1  0  0  0  0
 21 42  1  0  0  0  0
 22 23  2  0  0  0  0
 22 43  1  0  0  0  0
 23 24  1  0  0  0  0
 23 44  1  0  0  0  0
M  CHG  1  18   1
M  END
> <s_m_source_file>
AV-unprocessed.smi

> <i_m_source_file_index>
2944

> <i_lp_mmshare_version>
43012

> <i_f3d_flags>
0

> <s_epik_input>
W2NIXTFbY0hdW2NIXVtjSF1jKGMxMiluKFtDSDJdW0NIMl1PW0NIM10pYyhuMilTW0NASF0oW0NIM10pQyg9TylOM1tDSDJdW0NIMl1bTkhdQzM9Tw==

> <s_epik_cmdline>
J2VwaWtfcHl0aG9uJywgJy1waCcsICc3LjAnLCAnLXRuJywgJzgnLCAnLW1hJywgJzIwMCcsICctbWV0YWxfYmluZGluZycsICctaW1hZScsICc8aW5maWxlLm1hZT4nLCAnLW9tYWUnLCAnPG91dGZpbGUubWFlPic=

> <r_lp_tautomer_probability>
0.9999

> <r_epik_Ionization_Penalty>
1.88808

> <r_epik_Ionization_Penalty_Charging>
1.88806

> <r_epik_Ionization_Penalty_Neutral>
2.68145e-05

> <r_epik_State_Penalty>
2.00836

> <r_epik_Charging_Adjusted_Penalty>
3.89641

> <i_epik_Tot_Q>
1

> <i_epik_Tot_abs_Q>
1

> <r_epik_Metal_State_Penalty>
2.03272

> <b_epik_Metal_Only>
0

> <s_lp_Force_Field>
OPLS_2005

> <r_lp_Energy>
44.4651

> <b_lp_Chiralities_Consistent>
1

> <s_lp_Variant>
AV-unprocessed.smi:2944-4

> <Gold.Version>
5.8.1

> <Gold.Id.Protein>
6NUR|6NUR_protein|mol2

> <Gold.PLP.Fitness>
57.9036

> <Gold.PLP.PLP>
-50.0180

> <Gold.PLP.part.hbond>
-2.0000

> <Gold.PLP.part.metal>
0.0000

> <Gold.PLP.part.buried>
-6.7426

> <Gold.PLP.part.nonpolar>
-42.5565

> <Gold.PLP.part.repulsive>
0.1586

> <Gold.PLP.ligand.clash>
0.0000

> <Gold.PLP.ligand.torsion>
0.6848

> <Gold.PLP.Chemscore.Hbond>
3.0000

> <Gold.PLP.Chemscore.CHOScore>
0.0000

> <Gold.PLP.Chemscore.Metal>
0.0000

> <Gold.Chemscore.Hbonds>
donor molecule, donor type, donor heavy atom, donor atom, acceptor molecule, acceptor atom, score
      L1  H    18    45       P1  8028  2.00
      P1  H  7997  8010       L1     2  1.00

> <Gold.PLP.Chemscore.Internal.Correction>
0.2551

> <Gold.Rescore>
     Score         DG    S(hbond)    S(metal)    S(lipo)     H(rot)  DE(clash)    DE(int)     intcor
     15.94     -19.17       1.75        0.00     117.43       2.30       0.15       3.09       ----

> <Gold.Chemscore.Fitness>
15.9400

> <Gold.Chemscore.DG>
-19.1745

> <Gold.Chemscore.ZeroCoef>
-5.4800

> <Gold.Chemscore.Hbond>
1.7485

> <Gold.Chemscore.Metal>
0.0000

> <Gold.Chemscore.Lipo>
117.4320

> <Gold.Chemscore.Internal_Hbond>
0.0000

> <Gold.Chemscore.DEClash>
0.1490

> <Gold.Chemscore.DEInternal>
3.0854

> <Gold.Chemscore.Rot>
2.2988

> <Gold.Chemscore.Internal.Correction>
   9.000000E+99

> <Gold.Chemscore.Hbonds>
donor molecule, donor type, donor heavy atom, donor atom, acceptor molecule, acceptor atom, score
      L1  H    18    45       P1  8028  0.97
      P1  H  7997  8010       L1     2  0.35

> <Gold.Chemscore.Hbond.Weighted>
-5.8399

> <Gold.Chemscore.Metal.Weighted>
-0.0000

> <Gold.Chemscore.Lipo.Weighted>
-13.7395

> <Gold.Chemscore.Internal_Hbond.Weighted>
0.0000

> <Gold.Chemscore.DEClash.Weighted>
0.1490

> <Gold.Chemscore.DEInternal.Weighted>
3.0854

> <Gold.Chemscore.Rot.Weighted>
5.8850

> <Gold.Chemscore.Internal.Correction.Weighted>
   9.000000E+99

> <Gold.Protein.RotatedTorsions>
[ 6907 6896 6895 6894 ] final  -43.32 input  -60.11 | X-H torsion
[ 7974 7965 7964 7962 ] final  133.15 input  175.53 | X-H torsion
[ 8008 7997 7996 7995 ] final   73.30 input   59.86 | X-H torsion
[ 10167 10162 10161 10158 ] final -147.82 input  -65.29 | X-H torsion
[ 10718 10713 10712 10709 ] final   29.09 input   66.30 | X-H torsion
[ 10763 10752 10751 10750 ] final  -61.03 input  -60.55 | X-H torsion
[ 11005 11000 10999 10996 ] final  103.40 input  -57.11 | X-H torsion

> <Gold.Protein.ActiveResidues>
 VAL166  LYS551  ARG553  GLY616  TRP617  ASP618  TYR619  PRO620  LYS621  CYS622 
 ASP623  PHE694  ASN695  SER759  ASP760  ASP761  ALA762  ILE779  LEU786  VAL792 
 PHE793  MET794  SER795  GLU796  ALA797  LYS798  CYS799  TRP800  GLU811  SER814 

> <Gold.Protein.RotatedAtoms>
  150.9452  134.8858  159.7637 H   0  0  0  0  0  0  0  0  0  0  0  0  # atno 6907 bound_to 6896
  152.5097  134.3885  159.9385 H   0  0  0  0  0  0  0  0  0  0  0  0  # atno 6908 bound_to 6896
  151.3903  133.3751  159.2755 H   0  0  0  0  0  0  0  0  0  0  0  0  # atno 6909 bound_to 6896
  144.9895  139.4421  143.5346 H   0  0  0  0  0  0  0  0  0  0  0  0  # atno 7974 bound_to 7965
  155.7817  140.3481  155.5301 H   0  0  0  0  0  0  0  0  0  0  0  0  # atno 8008 bound_to 7997
  155.8722  140.0988  157.1563 H   0  0  0  0  0  0  0  0  0  0  0  0  # atno 8009 bound_to 7997
  154.4018  140.1338  156.4080 H   0  0  0  0  0  0  0  0  0  0  0  0  # atno 8010 bound_to 7997
  139.7588  143.8408  152.2602 H   0  0  0  0  0  0  0  0  0  0  0  0  # atno 10167 bound_to 10162
  157.2420  130.7073  149.6363 H   0  0  0  0  0  0  0  0  0  0  0  0  # atno 10718 bound_to 10713
  154.2783  135.6277  153.5337 H   0  0  0  0  0  0  0  0  0  0  0  0  # atno 10763 bound_to 10752
  152.9869  135.5627  154.5524 H   0  0  0  0  0  0  0  0  0  0  0  0  # atno 10764 bound_to 10752
  154.5109  135.2877  155.1319 H   0  0  0  0  0  0  0  0  0  0  0  0  # atno 10765 bound_to 10752
  139.8783  134.9261  156.5203 H   0  0  0  0  0  0  0  0  0  0  0  0  # atno 11005 bound_to 11000
  146.3428  139.9218  142.8765 LP  0  0  0  0  0  0  0  0  0  0  0  0  # atno 17320 bound_to 7965
  145.2305  140.9971  143.3993 LP  0  0  0  0  0  0  0  0  0  0  0  0  # atno 17321 bound_to 7965
  139.8408  144.7210  150.9333 LP  0  0  0  0  0  0  0  0  0  0  0  0  # atno 17342 bound_to 10162
  140.7805  143.3985  151.1189 LP  0  0  0  0  0  0  0  0  0  0  0  0  # atno 17343 bound_to 10162
  155.9669  130.4455  150.5504 LP  0  0  0  0  0  0  0  0  0  0  0  0  # atno 17370 bound_to 10713
  157.3369  131.0709  151.1818 LP  0  0  0  0  0  0  0  0  0  0  0  0  # atno 17371 bound_to 10713
  140.8455  133.8172  155.9117 LP  0  0  0  0  0  0  0  0  0  0  0  0  # atno 17394 bound_to 11000
  140.9195  134.2159  157.4935 LP  0  0  0  0  0  0  0  0  0  0  0  0  # atno 17395 bound_to 11000

$$$$
