#       Name:                AV-unprocessed.smi:1977
#       Creating user name   scv26
#       Creation time:       Fri Mar 27 10:17:23 2020


#       File generated by GOLD software.
#

@<TRIPOS>MOLECULE
AV-unprocessed.smi:1977
    51    52     1
SMALL
NO_CHARGES


@<TRIPOS>ATOM
      1 ****        -4.6575   2.1130   1.7624 C.3            1 S1                 0.0000
      2 ****        -4.9465   1.1467   0.6005 C.3            1 S1                 0.0000
      3 ****        -6.4589   1.0113   0.3718 C.3            1 S1                 0.0000
      4 ****        -4.3010  -0.2392   0.8138 C.3            1 S1                 0.0000
      5 ****        -2.8508  -0.1678   0.9604 N.am           1 S1                 0.0000
      6 ****        -1.9797  -0.0630  -0.0527 C.2            1 S1                 0.0000
      7 ****        -2.3043  -0.0140  -1.2391 O.2            1 S1                 0.0000
      8 ****        -0.7130  -0.0247   0.3850 N.am           1 S1                 0.0000
      9 ****         0.4757   0.0892  -0.4566 C.3            1 S1                 0.0000
     10 ****         1.2251  -1.2289  -0.6677 C.ar           1 S1                 0.0000
     11 ****         0.5096  -2.4417  -0.8016 C.ar           1 S1                 0.0000
     12 ****         1.2097  -3.6395  -1.0296 C.ar           1 S1                 0.0000
     13 ****         2.6106  -3.5835  -1.1242 C.ar           1 S1                 0.0000
     14 ****         3.3107  -2.4375  -1.0082 N.ar           1 S1                 0.0000
     15 ****         2.6417  -1.2790  -0.7884 C.ar           1 S1                 0.0000
     16 ****         3.4147  -0.1118  -0.6537 N.3            1 S1                 0.0000
     17 ****         4.5494   0.0278  -1.5610 C.3            1 S1                 0.0000
     18 ****         5.1714   1.4264  -1.4080 C.3            1 S1                 0.0000
     19 ****         5.5381   1.6387  -0.0473 O.3            1 S1                 0.0000
     20 ****         4.4152   1.5684   0.8276 C.3            1 S1                 0.0000
     21 ****         3.7694   0.1753   0.7305 C.3            1 S1                 0.0000
     22 ****        -5.0398   1.7221   2.7058 H              1 S1                 0.0000
     23 ****        -5.1262   3.0824   1.5910 H              1 S1                 0.0000
     24 ****        -3.5883   2.2887   1.8825 H              1 S1                 0.0000
     25 ****        -4.5225   1.5831  -0.3049 H              1 S1                 0.0000
     26 ****        -6.9548   0.5815   1.2426 H              1 S1                 0.0000
     27 ****        -6.6713   0.3688  -0.4832 H              1 S1                 0.0000
     28 ****        -6.9152   1.9817   0.1737 H              1 S1                 0.0000
     29 ****        -4.7070  -0.7031   1.7133 H              1 S1                 0.0000
     30 ****        -4.5513  -0.9067  -0.0127 H              1 S1                 0.0000
     31 ****        -2.4869  -0.2012   1.9015 H              1 S1                 0.0000
     32 ****        -0.5563  -0.0746   1.3810 H              1 S1                 0.0000
     33 ****         0.2243   0.4993  -1.4358 H              1 S1                 0.0000
     34 ****         1.1131   0.8325   0.0189 H              1 S1                 0.0000
     35 ****        -0.5679  -2.4655  -0.7404 H              1 S1                 0.0000
     36 ****         0.6843  -4.5772  -1.1346 H              1 S1                 0.0000
     37 ****         3.1845  -4.4813  -1.2999 H              1 S1                 0.0000
     38 ****         5.3002  -0.7315  -1.3372 H              1 S1                 0.0000
     39 ****         4.2228  -0.1295  -2.5895 H              1 S1                 0.0000
     40 ****         6.0598   1.5137  -2.0335 H              1 S1                 0.0000
     41 ****         4.4744   2.2007  -1.7326 H              1 S1                 0.0000
     42 ****         4.7464   1.7594   1.8483 H              1 S1                 0.0000
     43 ****         3.6950   2.3479   0.5740 H              1 S1                 0.0000
     44 ****         2.8875   0.1267   1.3699 H              1 S1                 0.0000
     45 ****         4.4649  -0.5852   1.0888 H              1 S1                 0.0000
     46 ****        -3.2702  -0.0525  -1.4952 LP             1 S1                 0.0000
     47 ****        -1.6021   0.0644  -1.9468 LP             1 S1                 0.0000
     48 ****         4.3079  -2.4417  -1.0831 LP             1 S1                 0.0000
     49 ****         2.7877   0.6032  -0.9629 LP             1 S1                 0.0000
     50 ****         5.9562   2.5432   0.0366 LP             1 S1                 0.0000
     51 ****         6.2004   0.9392   0.2211 LP             1 S1                 0.0000
@<TRIPOS>BOND
    1    1    2 1     
    2    1   22 1     
    3    1   23 1     
    4    1   24 1     
    5    2    3 1     
    6    2    4 1     
    7    2   25 1     
    8    3   26 1     
    9    3   27 1     
   10    3   28 1     
   11    4    5 1     
   12    4   29 1     
   13    4   30 1     
   14    5    6 am    
   15    5   31 1     
   16    6    7 2     
   17    6    8 am    
   18    8    9 1     
   19    8   32 1     
   20    9   10 1     
   21    9   33 1     
   22    9   34 1     
   23   10   15 ar    
   24   10   11 ar    
   25   11   12 ar    
   26   11   35 1     
   27   12   13 ar    
   28   12   36 1     
   29   13   14 ar    
   30   13   37 1     
   31   14   15 ar    
   32   15   16 1     
   33   16   21 1     
   34   16   17 1     
   35   17   18 1     
   36   17   38 1     
   37   17   39 1     
   38   18   19 1     
   39   18   40 1     
   40   18   41 1     
   41   19   20 1     
   42   20   21 1     
   43   20   42 1     
   44   20   43 1     
   45   21   44 1     
   46   21   45 1     
   47    7   46 1     
   48    7   47 1     
   49   14   48 1     
   50   16   49 1     
   51   19   50 1     
   52   19   51 1     
@<TRIPOS>SUBSTRUCTURE
      1 S1             1
@<TRIPOS>SET
LONE_PAIRS      STATIC     ATOMS    <user>   **** ""
6 46 47 48 49 50 51
DONOR_HYDROGENS      STATIC     ATOMS    <user>   **** ""
2 31 32
ATOM$BLUE        STATIC     ATOMS    COLORGROUP SYSTEM
6 46 47 48 49 50 51
ATOM$RED        STATIC     ATOMS    COLORGROUP SYSTEM
2 31 32
