#       Name:                AV-unprocessed.smi:375
#       Creating user name   scv26
#       Creation time:       Thu Mar 26 22:39:17 2020


#       File generated by GOLD software.
#

@<TRIPOS>MOLECULE
AV-unprocessed.smi:375
    40    42     1
SMALL
NO_CHARGES


@<TRIPOS>ATOM
      1 ****        -2.4285   2.2560   1.2628 C.3            1 S1                 0.0000
      2 ****        -1.8993   1.1878   0.4239 N.am           1 S1                 0.0000
      3 ****        -1.5228  -0.0506   0.8198 C.2            1 S1                 0.0000
      4 ****        -1.5606  -0.4853   1.9707 O.2            1 S1                 0.0000
      5 ****        -1.0772  -0.7220  -0.2696 N.am           1 S1                 0.0000
      6 ****        -0.5251  -2.0769  -0.3015 C.3            1 S1                 0.0000
      7 ****         1.0171  -2.0837  -0.3764 C.3            1 S1                 0.0000
      8 ****         1.4505  -3.4277  -0.4307 O.3            1 S1                 0.0000
      9 ****         1.6695  -1.3072   0.7628 C.ar           1 S1                 0.0000
     10 ****         1.7664  -1.8830   2.0492 C.ar           1 S1                 0.0000
     11 ****         2.3479  -1.1629   3.1104 C.ar           1 S1                 0.0000
     12 ****         2.8325   0.1406   2.8944 C.ar           1 S1                 0.0000
     13 ****         2.7350   0.7232   1.6166 C.ar           1 S1                 0.0000
     14 ****         2.1560   0.0040   0.5529 C.ar           1 S1                 0.0000
     15 ****         2.0606   0.5861  -0.6667 F              1 S1                 0.0000
     16 ****        -1.1669   0.1148  -1.3911 C.ar           1 S1                 0.0000
     17 ****        -0.8257  -0.1024  -2.7372 C.ar           1 S1                 0.0000
     18 ****        -1.0335   0.9690  -3.6374 C.ar           1 S1                 0.0000
     19 ****        -1.5659   2.2049  -3.1864 C.ar           1 S1                 0.0000
     20 ****        -1.9014   2.3962  -1.8254 C.ar           1 S1                 0.0000
     21 ****        -1.6831   1.3158  -0.9536 C.ar           1 S1                 0.0000
     22 ****        -2.4601   1.9736   2.3158 H              1 S1                 0.0000
     23 ****        -3.4416   2.5114   0.9513 H              1 S1                 0.0000
     24 ****        -1.8081   3.1481   1.1730 H              1 S1                 0.0000
     25 ****        -0.8562  -2.6280   0.5804 H              1 S1                 0.0000
     26 ****        -0.9444  -2.6057  -1.1584 H              1 S1                 0.0000
     27 ****         1.3229  -1.6356  -1.3219 H              1 S1                 0.0000
     28 ****         2.3820  -3.4352  -0.5899 H              1 S1                 0.0000
     29 ****         1.3881  -2.8788   2.2285 H              1 S1                 0.0000
     30 ****         2.4187  -1.6100   4.0909 H              1 S1                 0.0000
     31 ****         3.2763   0.6940   3.7087 H              1 S1                 0.0000
     32 ****         3.1022   1.7254   1.4519 H              1 S1                 0.0000
     33 ****        -0.4200  -1.0450  -3.0736 H              1 S1                 0.0000
     34 ****        -0.7831   0.8447  -4.6805 H              1 S1                 0.0000
     35 ****        -1.7164   3.0098  -3.8906 H              1 S1                 0.0000
     36 ****        -2.3060   3.3338  -1.4736 H              1 S1                 0.0000
     37 ****        -1.8931   0.0954   2.7138 LP             1 S1                 0.0000
     38 ****        -1.2588  -1.4191   2.1626 LP             1 S1                 0.0000
     39 ****         0.9776  -3.9052  -1.1712 LP             1 S1                 0.0000
     40 ****         1.2529  -3.8815   0.4382 LP             1 S1                 0.0000
@<TRIPOS>BOND
    1    1    2 1     
    2    1   22 1     
    3    1   23 1     
    4    1   24 1     
    5    2   21 1     
    6    2    3 am    
    7    3    4 2     
    8    3    5 am    
    9    5    6 1     
   10    5   16 1     
   11    6    7 1     
   12    6   25 1     
   13    6   26 1     
   14    7    8 1     
   15    7    9 1     
   16    7   27 1     
   17    8   28 1     
   18    9   14 ar    
   19    9   10 ar    
   20   10   11 ar    
   21   10   29 1     
   22   11   12 ar    
   23   11   30 1     
   24   12   13 ar    
   25   12   31 1     
   26   13   14 ar    
   27   13   32 1     
   28   14   15 1     
   29   16   21 ar    
   30   16   17 ar    
   31   17   18 ar    
   32   17   33 1     
   33   18   19 ar    
   34   18   34 1     
   35   19   20 ar    
   36   19   35 1     
   37   20   21 ar    
   38   20   36 1     
   39    4   37 1     
   40    4   38 1     
   41    8   39 1     
   42    8   40 1     
@<TRIPOS>SUBSTRUCTURE
      1 S1             1
@<TRIPOS>SET
LONE_PAIRS      STATIC     ATOMS    <user>   **** ""
4 37 38 39 40
DONOR_HYDROGENS      STATIC     ATOMS    <user>   **** ""
1 28
ATOM$BLUE        STATIC     ATOMS    COLORGROUP SYSTEM
4 37 38 39 40
ATOM$RED        STATIC     ATOMS    COLORGROUP SYSTEM
1 28
