AV-unprocessed.smi:2040|AV-procd|sdf|8289|dock7
  -GOLD-   2272010553D 1   1.00000     0.00000
 Structure written by MMmdl.
 38 39  0  0  0  0  0  0  0  0  1 V2000
  153.8742  141.2090  160.2325 C   0  0  0  0  0  0  0  0  0  0  0  0
  152.8124  142.0019  159.5294 C   0  0  0  0  0  0  0  0  0  0  0  0
  151.6470  141.5157  158.8682 C   0  0  0  0  0  0  0  0  0  0  0  0
  151.0551  142.6640  158.4183 C   0  0  0  0  0  0  0  0  0  0  0  0
  149.9062  142.8123  157.7067 N   0  0  0  0  0  0  0  0  0  0  0  0
  148.7819  142.0777  157.7628 C   0  0  0  0  0  0  0  0  0  0  0  0
  148.5878  141.1269  158.5204 O   0  0  0  0  0  0  0  0  0  0  0  0
  147.8768  142.5179  156.8768 N   0  0  0  0  0  0  0  0  0  0  0  0
  146.5479  141.9498  156.6581 C   0  0  1  0  0  0  0  0  0  0  0  0
  145.5156  143.0852  156.5829 C   0  0  0  0  0  0  0  0  0  0  0  0
  146.5525  141.0848  155.3828 C   0  0  1  0  0  0  0  0  0  0  0  0
  146.9049  141.8443  154.1008 C   0  0  0  0  0  0  0  0  0  0  0  0
  147.4466  140.7378  153.2259 C   0  0  0  0  0  0  0  0  0  0  0  0
  148.2195  139.8989  154.2376 C   0  0  0  0  0  0  0  0  0  0  0  0
  147.5353  140.0548  155.4781 O   0  0  0  0  0  0  0  0  0  0  0  0
  151.8289  143.7398  158.7924 N   0  0  0  0  0  0  0  0  0  0  0  0
  151.6197  145.1535  158.5481 C   0  0  0  0  0  0  0  0  0  0  0  0
  152.9139  143.3255  159.4817 N   0  0  0  0  0  0  0  0  0  0  0  0
  153.7032  140.1378  160.1235 H   0  0  0  0  0  0  0  0  0  0  0  0
  153.8909  141.4352  161.2987 H   0  0  0  0  0  0  0  0  0  0  0  0
  154.8625  141.4292  159.8281 H   0  0  0  0  0  0  0  0  0  0  0  0
  151.3214  140.4928  158.7536 H   0  0  0  0  0  0  0  0  0  0  0  0
  149.9047  143.5766  157.0477 H   0  0  0  0  0  0  0  0  0  0  0  0
  148.1271  143.3073  156.2996 H   0  0  0  0  0  0  0  0  0  0  0  0
  146.2796  141.3029  157.4952 H   0  0  0  0  0  0  0  0  0  0  0  0
  144.5076  142.6926  156.4469 H   0  0  0  0  0  0  0  0  0  0  0  0
  145.7248  143.7588  155.7514 H   0  0  0  0  0  0  0  0  0  0  0  0
  145.5149  143.6762  157.4994 H   0  0  0  0  0  0  0  0  0  0  0  0
  145.5823  140.6023  155.2509 H   0  0  0  0  0  0  0  0  0  0  0  0
  146.0499  142.3575  153.6598 H   0  0  0  0  0  0  0  0  0  0  0  0
  147.6851  142.5827  154.2926 H   0  0  0  0  0  0  0  0  0  0  0  0
  146.6251  140.1579  152.8032 H   0  0  0  0  0  0  0  0  0  0  0  0
  148.0687  141.1007  152.4074 H   0  0  0  0  0  0  0  0  0  0  0  0
  148.2841  138.8504  153.9462 H   0  0  0  0  0  0  0  0  0  0  0  0
  149.2342  140.2817  154.3530 H   0  0  0  0  0  0  0  0  0  0  0  0
  150.7139  145.4818  159.0581 H   0  0  0  0  0  0  0  0  0  0  0  0
  151.5100  145.3284  157.4776 H   0  0  0  0  0  0  0  0  0  0  0  0
  152.4648  145.7368  158.9162 H   0  0  0  0  0  0  0  0  0  0  0  0
  1  2  1  0  0  0  0
  1 19  1  0  0  0  0
  1 20  1  0  0  0  0
  1 21  1  0  0  0  0
  2 18  2  0  0  0  0
  2  3  1  0  0  0  0
  3  4  2  0  0  0  0
  3 22  1  0  0  0  0
  4  5  1  0  0  0  0
  4 16  1  0  0  0  0
  5  6  1  0  0  0  0
  5 23  1  0  0  0  0
  6  7  2  0  0  0  0
  6  8  1  0  0  0  0
  8  9  1  0  0  0  0
  8 24  1  0  0  0  0
  9 10  1  0  0  0  0
  9 11  1  0  0  0  0
  9 25  1  0  0  0  0
 10 26  1  0  0  0  0
 10 27  1  0  0  0  0
 10 28  1  0  0  0  0
 11 15  1  0  0  0  0
 11 12  1  0  0  0  0
 11 29  1  0  0  0  0
 12 13  1  0  0  0  0
 12 30  1  0  0  0  0
 12 31  1  0  0  0  0
 13 14  1  0  0  0  0
 13 32  1  0  0  0  0
 13 33  1  0  0  0  0
 14 15  1  0  0  0  0
 14 34  1  0  0  0  0
 14 35  1  0  0  0  0
 16 17  1  0  0  0  0
 16 18  1  0  0  0  0
 17 36  1  0  0  0  0
 17 37  1  0  0  0  0
 17 38  1  0  0  0  0
M  END
> <s_m_source_file>
AV-unprocessed.smi

> <i_m_source_file_index>
2040

> <i_lp_mmshare_version>
43012

> <i_f3d_flags>
0

> <s_epik_input>
W0NIM11jMVtjSF1jKG4objEpW0NIM10pW05IXUMoPU8pW05IXVtDQEhdKFtDSDNdKVtDQEBIXTJbQ0gyXVtDSDJdW0NIMl1PMg==

> <s_epik_cmdline>
J2VwaWtfcHl0aG9uJywgJy1waCcsICc3LjAnLCAnLXRuJywgJzgnLCAnLW1hJywgJzIwMCcsICctbWV0YWxfYmluZGluZycsICctaW1hZScsICc8aW5maWxlLm1hZT4nLCAnLW9tYWUnLCAnPG91dGZpbGUubWFlPic=

> <r_lp_tautomer_probability>
1

> <r_epik_Ionization_Penalty>
9.09088e-05

> <r_epik_Ionization_Penalty_Charging>
0

> <r_epik_Ionization_Penalty_Neutral>
9.09088e-05

> <r_epik_State_Penalty>
-0

> <r_epik_Charging_Adjusted_Penalty>
0

> <i_epik_Tot_Q>
0

> <i_epik_Tot_abs_Q>
0

> <r_epik_Metal_State_Penalty>
-0

> <b_epik_Metal_Only>
0

> <s_lp_Force_Field>
OPLS_2005

> <r_lp_Energy>
18.8774

> <b_lp_Chiralities_Consistent>
1

> <s_lp_Variant>
AV-unprocessed.smi:2040-4

> <Gold.Version>
5.8.1

> <Gold.Id.Protein>
6NUR|6NUR_protein|mol2

> <Gold.PLP.Fitness>
37.2055

> <Gold.PLP.PLP>
-32.1425

> <Gold.PLP.part.hbond>
-3.0000

> <Gold.PLP.part.metal>
0.0000

> <Gold.PLP.part.buried>
-2.4536

> <Gold.PLP.part.nonpolar>
-26.1525

> <Gold.PLP.part.repulsive>
0.0939

> <Gold.PLP.ligand.clash>
0.0000

> <Gold.PLP.ligand.torsion>
0.4377

> <Gold.PLP.Chemscore.Hbond>
1.9760

> <Gold.PLP.Chemscore.CHOScore>
0.0000

> <Gold.PLP.Chemscore.Metal>
0.0000

> <Gold.Chemscore.Hbonds>
donor molecule, donor type, donor heavy atom, donor atom, acceptor molecule, acceptor atom, score
      L1  H     5    23       P1  8028  0.93
      L1  H     8    24       P1  8028  1.00

> <Gold.PLP.Chemscore.Internal.Correction>
0.0105

> <Gold.Rescore>
     Score         DG    S(hbond)    S(metal)    S(lipo)     H(rot)  DE(clash)    DE(int)     intcor
     14.04     -16.59       1.70        0.00      73.27       1.23       1.97       0.58       ----

> <Gold.Chemscore.Fitness>
14.0416

> <Gold.Chemscore.DG>
-16.5859

> <Gold.Chemscore.ZeroCoef>
-5.4800

> <Gold.Chemscore.Hbond>
1.7043

> <Gold.Chemscore.Metal>
0.0000

> <Gold.Chemscore.Lipo>
73.2659

> <Gold.Chemscore.Internal_Hbond>
0.0000

> <Gold.Chemscore.DEClash>
1.9692

> <Gold.Chemscore.DEInternal>
0.5752

> <Gold.Chemscore.Rot>
1.2338

> <Gold.Chemscore.Internal.Correction>
   9.000000E+99

> <Gold.Chemscore.Hbonds>
donor molecule, donor type, donor heavy atom, donor atom, acceptor molecule, acceptor atom, score
      L1  H     5    23       P1  8028  0.84
      L1  H     8    24       P1  8028  0.35

> <Gold.Chemscore.Hbond.Weighted>
-5.6923

> <Gold.Chemscore.Metal.Weighted>
-0.0000

> <Gold.Chemscore.Lipo.Weighted>
-8.5721

> <Gold.Chemscore.Internal_Hbond.Weighted>
0.0000

> <Gold.Chemscore.DEClash.Weighted>
1.9692

> <Gold.Chemscore.DEInternal.Weighted>
0.5752

> <Gold.Chemscore.Rot.Weighted>
3.1584

> <Gold.Chemscore.Internal.Correction.Weighted>
   9.000000E+99

> <Gold.Protein.RotatedTorsions>
[ 6907 6896 6895 6894 ] final -148.05 input  -60.11 | X-H torsion
[ 7974 7965 7964 7962 ] final  165.15 input  175.53 | X-H torsion
[ 8008 7997 7996 7995 ] final  123.76 input   59.86 | X-H torsion
[ 10167 10162 10161 10158 ] final  156.62 input  -65.29 | X-H torsion
[ 10718 10713 10712 10709 ] final  -60.41 input   66.30 | X-H torsion
[ 10763 10752 10751 10750 ] final   96.50 input  -60.55 | X-H torsion
[ 11005 11000 10999 10996 ] final -115.30 input  -57.11 | X-H torsion

> <Gold.Protein.ActiveResidues>
 VAL166  LYS551  ARG553  GLY616  TRP617  ASP618  TYR619  PRO620  LYS621  CYS622 
 ASP623  PHE694  ASN695  SER759  ASP760  ASP761  ALA762  ILE779  LEU786  VAL792 
 PHE793  MET794  SER795  GLU796  ALA797  LYS798  CYS799  TRP800  GLU811  SER814 

> <Gold.Protein.RotatedAtoms>
  151.1643  133.4824  159.2593 H   0  0  0  0  0  0  0  0  0  0  0  0  # atno 6907 bound_to 6896
  151.1421  135.0184  159.8640 H   0  0  0  0  0  0  0  0  0  0  0  0  # atno 6908 bound_to 6896
  152.5462  134.1536  159.8582 H   0  0  0  0  0  0  0  0  0  0  0  0  # atno 6909 bound_to 6896
  144.7514  139.8429  143.6364 H   0  0  0  0  0  0  0  0  0  0  0  0  # atno 7974 bound_to 7965
  156.2777  140.2755  156.1679 H   0  0  0  0  0  0  0  0  0  0  0  0  # atno 8008 bound_to 7997
  155.0686  140.0387  157.2618 H   0  0  0  0  0  0  0  0  0  0  0  0  # atno 8009 bound_to 7997
  154.7059  140.2658  155.6681 H   0  0  0  0  0  0  0  0  0  0  0  0  # atno 8010 bound_to 7997
  139.4821  144.4992  151.8193 H   0  0  0  0  0  0  0  0  0  0  0  0  # atno 10167 bound_to 10162
  156.0992  130.4188  150.0850 H   0  0  0  0  0  0  0  0  0  0  0  0  # atno 10718 bound_to 10713
  153.2656  135.4216  155.0938 H   0  0  0  0  0  0  0  0  0  0  0  0  # atno 10763 bound_to 10752
  154.8437  135.3460  154.6315 H   0  0  0  0  0  0  0  0  0  0  0  0  # atno 10764 bound_to 10752
  153.6735  135.7042  153.5197 H   0  0  0  0  0  0  0  0  0  0  0  0  # atno 10765 bound_to 10752
  141.0497  133.9707  157.2858 H   0  0  0  0  0  0  0  0  0  0  0  0  # atno 11005 bound_to 11000
  146.1470  139.4542  143.0073 LP  0  0  0  0  0  0  0  0  0  0  0  0  # atno 17320 bound_to 7965
  145.6929  141.0159  143.1545 LP  0  0  0  0  0  0  0  0  0  0  0  0  # atno 17321 bound_to 7965
  140.4484  144.1889  150.5895 LP  0  0  0  0  0  0  0  0  0  0  0  0  # atno 17342 bound_to 10162
  140.4610  143.2449  151.9219 LP  0  0  0  0  0  0  0  0  0  0  0  0  # atno 17343 bound_to 10162
  156.8842  130.9566  151.3596 LP  0  0  0  0  0  0  0  0  0  0  0  0  # atno 17370 bound_to 10713
  157.6159  130.8618  149.9028 LP  0  0  0  0  0  0  0  0  0  0  0  0  # atno 17371 bound_to 10713
  139.9340  135.0198  156.8495 LP  0  0  0  0  0  0  0  0  0  0  0  0  # atno 17394 bound_to 11000
  140.6079  134.0110  155.7564 LP  0  0  0  0  0  0  0  0  0  0  0  0  # atno 17395 bound_to 11000

$$$$
