#       Name:                AV-unprocessed.smi:2773
#       Creating user name   scv26
#       Creation time:       Fri Mar 27 15:12:24 2020


#       File generated by GOLD software.
#

@<TRIPOS>MOLECULE
AV-unprocessed.smi:2773
    33    34     1
SMALL
NO_CHARGES


@<TRIPOS>ATOM
      1 ****        -1.9060  -1.7879   3.9927 C.3            1 S1                 0.0000
      2 ****        -0.8274  -2.7741   3.5893 C.3            1 S1                 0.0000
      3 ****        -1.0404  -3.7139   2.4325 C.3            1 S1                 0.0000
      4 ****        -0.0150  -2.6068   2.3183 C.3            1 S1                 0.0000
      5 ****        -0.3223  -1.5246   1.4303 N.am           1 S1                 0.0000
      6 ****         0.5220  -0.6172   0.9075 C.2            1 S1                 0.0000
      7 ****         1.7277  -0.6632   1.1459 O.2            1 S1                 0.0000
      8 ****        -0.0658   0.2874   0.0986 N.am           1 S1                 0.0000
      9 ****         0.5338   1.3712  -0.5954 C.ar           1 S1                 0.0000
     10 ****        -0.3520   2.1445  -1.3777 C.ar           1 S1                 0.0000
     11 ****         0.1455   3.2428  -2.1041 C.ar           1 S1                 0.0000
     12 ****         1.5174   3.5417  -2.0299 C.ar           1 S1                 0.0000
     13 ****         2.3379   2.7222  -1.2257 C.ar           1 S1                 0.0000
     14 ****         3.8323   2.9774  -1.0888 C.3            1 S1                 0.0000
     15 ****         4.5116   1.9082  -1.5045 F              1 S1                 0.0000
     16 ****         4.2212   4.0295  -1.8102 F              1 S1                 0.0000
     17 ****         4.1336   3.2087   0.1892 F              1 S1                 0.0000
     18 ****         1.8549   1.6679  -0.5299 N.ar           1 S1                 0.0000
     19 ****        -2.4887  -1.4649   3.1296 H              1 S1                 0.0000
     20 ****        -1.4548  -0.9104   4.4564 H              1 S1                 0.0000
     21 ****        -2.5831  -2.2504   4.7108 H              1 S1                 0.0000
     22 ****        -0.2804  -3.1794   4.4384 H              1 S1                 0.0000
     23 ****        -0.6704  -4.7315   2.5397 H              1 S1                 0.0000
     24 ****        -1.9620  -3.6144   1.8619 H              1 S1                 0.0000
     25 ****         1.0197  -2.9441   2.3573 H              1 S1                 0.0000
     26 ****        -1.2807  -1.4772   1.1157 H              1 S1                 0.0000
     27 ****        -1.0626   0.1906  -0.0260 H              1 S1                 0.0000
     28 ****        -1.4038   1.9020  -1.4237 H              1 S1                 0.0000
     29 ****        -0.5157   3.8464  -2.7081 H              1 S1                 0.0000
     30 ****         1.9212   4.3798  -2.5784 H              1 S1                 0.0000
     31 ****         2.0935  -1.3827   1.7362 LP             1 S1                 0.0000
     32 ****         2.3421   0.0189   0.7495 LP             1 S1                 0.0000
     33 ****         2.4685   1.1106   0.0295 LP             1 S1                 0.0000
@<TRIPOS>BOND
    1    1    2 1     
    2    1   19 1     
    3    1   20 1     
    4    1   21 1     
    5    2    4 1     
    6    2    3 1     
    7    2   22 1     
    8    3    4 1     
    9    3   23 1     
   10    3   24 1     
   11    4    5 1     
   12    4   25 1     
   13    5    6 am    
   14    5   26 1     
   15    6    7 2     
   16    6    8 am    
   17    8    9 1     
   18    8   27 1     
   19    9   18 ar    
   20    9   10 ar    
   21   10   11 ar    
   22   10   28 1     
   23   11   12 ar    
   24   11   29 1     
   25   12   13 ar    
   26   12   30 1     
   27   13   14 1     
   28   13   18 ar    
   29   14   15 1     
   30   14   16 1     
   31   14   17 1     
   32    7   31 1     
   33    7   32 1     
   34   18   33 1     
@<TRIPOS>SUBSTRUCTURE
      1 S1             1
@<TRIPOS>SET
LONE_PAIRS      STATIC     ATOMS    <user>   **** ""
3 31 32 33
DONOR_HYDROGENS      STATIC     ATOMS    <user>   **** ""
2 26 27
ATOM$BLUE        STATIC     ATOMS    COLORGROUP SYSTEM
3 31 32 33
ATOM$RED        STATIC     ATOMS    COLORGROUP SYSTEM
2 26 27
