AV-unprocessed.smi:3231|AV-procd|sdf|12338|dock5
  -GOLD-   2272018193D 1   1.00000     0.00000
 Structure written by MMmdl.
 40 41  0  0  0  0  0  0  0  0  1 V2000
  147.7377  138.3249  151.4930 O   0  0  0  0  0  0  0  0  0  0  0  0
  146.6098  138.7108  152.2539 C   0  0  1  0  0  0  0  0  0  0  0  0
  145.6130  137.5385  152.2074 C   0  0  0  0  0  0  0  0  0  0  0  0
  145.6351  136.8732  150.9073 N   0  0  0  0  0  0  0  0  0  0  0  0
  145.0079  135.5559  150.9213 C   0  0  0  0  0  0  0  0  0  0  0  0
  146.0055  134.4750  151.3596 C   0  0  0  0  0  0  0  0  0  0  0  0
  145.4260  133.1486  151.2739 N   0  0  0  0  0  0  0  0  0  0  0  0
  146.0363  131.9309  151.4892 C   0  0  0  0  0  0  0  0  0  0  0  0
  145.0919  130.9637  151.2959 C   0  0  0  0  0  0  0  0  0  0  0  0
  143.9196  131.6977  150.9614 C   0  0  0  0  0  0  0  0  0  0  0  0
  144.1229  133.0053  150.9490 N   0  0  0  0  0  0  0  0  0  0  0  0
  147.0765  139.0135  153.6951 C   0  0  0  0  0  0  0  0  0  0  0  0
  146.5057  140.2188  154.2988 N   0  0  0  0  0  0  0  0  0  0  0  0
  146.9710  141.4460  153.6560 C   0  0  0  0  0  0  0  0  0  0  0  0
  146.3864  142.7032  154.3237 C   0  0  0  0  0  0  0  0  0  0  0  0
  146.7045  142.7026  155.7115 O   0  0  0  0  0  0  0  0  0  0  0  0
  146.2229  141.5434  156.3831 C   0  0  0  0  0  0  0  0  0  0  0  0
  146.8135  140.2851  155.7237 C   0  0  0  0  0  0  0  0  0  0  0  0
  148.2291  137.6909  151.9930 H   0  0  0  0  0  0  0  0  0  0  0  0
  146.1519  139.6007  151.8187 H   0  0  0  0  0  0  0  0  0  0  0  0
  145.8162  136.8295  153.0111 H   0  0  0  0  0  0  0  0  0  0  0  0
  144.6064  137.9203  152.3823 H   0  0  0  0  0  0  0  0  0  0  0  0
  145.1797  137.4608  150.2159 H   0  0  0  0  0  0  0  0  0  0  0  0
  144.1503  135.5588  151.5949 H   0  0  0  0  0  0  0  0  0  0  0  0
  144.6260  135.3162  149.9280 H   0  0  0  0  0  0  0  0  0  0  0  0
  146.9026  134.5046  150.7393 H   0  0  0  0  0  0  0  0  0  0  0  0
  146.3254  134.6468  152.3884 H   0  0  0  0  0  0  0  0  0  0  0  0
  147.0794  131.8548  151.7593 H   0  0  0  0  0  0  0  0  0  0  0  0
  145.2186  129.8946  151.3805 H   0  0  0  0  0  0  0  0  0  0  0  0
  142.9341  131.3218  150.7292 H   0  0  0  0  0  0  0  0  0  0  0  0
  146.7798  138.1694  154.3187 H   0  0  0  0  0  0  0  0  0  0  0  0
  148.1665  139.0380  153.7472 H   0  0  0  0  0  0  0  0  0  0  0  0
  148.0606  141.4915  153.6906 H   0  0  0  0  0  0  0  0  0  0  0  0
  146.6903  141.4500  152.6032 H   0  0  0  0  0  0  0  0  0  0  0  0
  146.7969  143.6023  153.8640 H   0  0  0  0  0  0  0  0  0  0  0  0
  145.3039  142.7418  154.1923 H   0  0  0  0  0  0  0  0  0  0  0  0
  146.5126  141.5930  157.4329 H   0  0  0  0  0  0  0  0  0  0  0  0
  145.1327  141.5217  156.3512 H   0  0  0  0  0  0  0  0  0  0  0  0
  146.4248  139.3999  156.2285 H   0  0  0  0  0  0  0  0  0  0  0  0
  147.8950  140.2775  155.8693 H   0  0  0  0  0  0  0  0  0  0  0  0
  1  2  1  0  0  0  0
  1 19  1  0  0  0  0
  2  3  1  0  0  0  0
  2 12  1  0  0  0  0
  2 20  1  0  0  0  0
  3  4  1  0  0  0  0
  3 21  1  0  0  0  0
  3 22  1  0  0  0  0
  4  5  1  0  0  0  0
  4 23  1  0  0  0  0
  5  6  1  0  0  0  0
  5 24  1  0  0  0  0
  5 25  1  0  0  0  0
  6  7  1  0  0  0  0
  6 26  1  0  0  0  0
  6 27  1  0  0  0  0
  7 11  1  0  0  0  0
  7  8  1  0  0  0  0
  8  9  2  0  0  0  0
  8 28  1  0  0  0  0
  9 10  1  0  0  0  0
  9 29  1  0  0  0  0
 10 11  2  0  0  0  0
 10 30  1  0  0  0  0
 12 13  1  0  0  0  0
 12 31  1  0  0  0  0
 12 32  1  0  0  0  0
 13 18  1  0  0  0  0
 13 14  1  0  0  0  0
 14 15  1  0  0  0  0
 14 33  1  0  0  0  0
 14 34  1  0  0  0  0
 15 16  1  0  0  0  0
 15 35  1  0  0  0  0
 15 36  1  0  0  0  0
 16 17  1  0  0  0  0
 17 18  1  0  0  0  0
 17 37  1  0  0  0  0
 17 38  1  0  0  0  0
 18 39  1  0  0  0  0
 18 40  1  0  0  0  0
M  END
> <s_m_source_file>
AV-unprocessed.smi

> <i_m_source_file_index>
3231

> <i_lp_mmshare_version>
43012

> <i_f3d_flags>
0

> <s_epik_input>
W0NIMl0xW0NIMl1PW0NIMl1bQ0gyXU4xW0NIMl1bQ0BIXShbT0hdKVtDSDJdW05IXVtDSDJdW0NIMl1uMltjSF1bY0hdW2NIXW4y

> <s_epik_cmdline>
J2VwaWtfcHl0aG9uJywgJy1waCcsICc3LjAnLCAnLXRuJywgJzgnLCAnLW1hJywgJzIwMCcsICctbWV0YWxfYmluZGluZycsICctaW1hZScsICc8aW5maWxlLm1hZT4nLCAnLW9tYWUnLCAnPG91dGZpbGUubWFlPic=

> <r_lp_tautomer_probability>
1

> <r_epik_Ionization_Penalty>
2.37071

> <r_epik_Ionization_Penalty_Charging>
0

> <r_epik_Ionization_Penalty_Neutral>
2.37071

> <r_epik_State_Penalty>
1.72455

> <r_epik_Charging_Adjusted_Penalty>
1.72455

> <i_epik_Tot_Q>
0

> <i_epik_Tot_abs_Q>
0

> <r_epik_Metal_State_Penalty>
1.72366

> <b_epik_Metal_Only>
0

> <s_lp_Force_Field>
OPLS_2005

> <r_lp_Energy>
35.5688

> <b_lp_Chiralities_Consistent>
1

> <s_lp_Variant>
AV-unprocessed.smi:3231-8

> <Gold.Version>
5.8.1

> <Gold.Id.Protein>
6NUR|6NUR_protein|mol2

> <Gold.PLP.Fitness>
45.3243

> <Gold.PLP.PLP>
-33.2082

> <Gold.PLP.part.hbond>
-3.6192

> <Gold.PLP.part.metal>
0.0000

> <Gold.PLP.part.buried>
-4.6948

> <Gold.PLP.part.nonpolar>
-26.5357

> <Gold.PLP.part.repulsive>
1.3341

> <Gold.PLP.ligand.clash>
0.0000

> <Gold.PLP.ligand.torsion>
1.1919

> <Gold.PLP.Chemscore.Hbond>
2.7800

> <Gold.PLP.Chemscore.CHOScore>
1.9985

> <Gold.PLP.Chemscore.Metal>
0.0000

> <Gold.Chemscore.Hbonds>
donor molecule, donor type, donor heavy atom, donor atom, acceptor molecule, acceptor atom, score
      L1  H     1    19       P1  7948  0.82
      L1  H     4    23       P1 10171  0.99
      P1  H  7954  7966       L1     1  1.00
      L1  C     8    28       P1 10747  0.74
      L1  C    10    30       P1 10952  0.83

> <Gold.PLP.Chemscore.Internal.Correction>
0.1643

> <Gold.Rescore>
     Score         DG    S(hbond)    S(metal)    S(lipo)     H(rot)  DE(clash)    DE(int)     intcor
     12.59     -13.94       1.96        0.00      75.91       2.72       0.20       1.16       ----

> <Gold.Chemscore.Fitness>
12.5884

> <Gold.Chemscore.DG>
-13.9441

> <Gold.Chemscore.ZeroCoef>
-5.4800

> <Gold.Chemscore.Hbond>
1.9584

> <Gold.Chemscore.Metal>
0.0000

> <Gold.Chemscore.Lipo>
75.9144

> <Gold.Chemscore.Internal_Hbond>
0.0000

> <Gold.Chemscore.DEClash>
0.1980

> <Gold.Chemscore.DEInternal>
1.1576

> <Gold.Chemscore.Rot>
2.7183

> <Gold.Chemscore.Internal.Correction>
   9.000000E+99

> <Gold.Chemscore.Hbonds>
donor molecule, donor type, donor heavy atom, donor atom, acceptor molecule, acceptor atom, score
      L1  H     1    19       P1  7948  0.80
      L1  H     4    23       P1 10171  0.94
      P1  H  7954  7966       L1     1  0.25

> <Gold.Chemscore.Hbond.Weighted>
-6.5409

> <Gold.Chemscore.Metal.Weighted>
-0.0000

> <Gold.Chemscore.Lipo.Weighted>
-8.8820

> <Gold.Chemscore.Internal_Hbond.Weighted>
0.0000

> <Gold.Chemscore.DEClash.Weighted>
0.1980

> <Gold.Chemscore.DEInternal.Weighted>
1.1576

> <Gold.Chemscore.Rot.Weighted>
6.9589

> <Gold.Chemscore.Internal.Correction.Weighted>
   9.000000E+99

> <Gold.Protein.RotatedTorsions>
[ 6907 6896 6895 6894 ] final  -91.47 input  -60.11 | X-H torsion
[ 7974 7965 7964 7962 ] final -174.12 input  175.53 | X-H torsion
[ 8008 7997 7996 7995 ] final  -65.00 input   59.86 | X-H torsion
[ 10167 10162 10161 10158 ] final   62.82 input  -65.29 | X-H torsion
[ 10718 10713 10712 10709 ] final  174.66 input   66.30 | X-H torsion
[ 10763 10752 10751 10750 ] final   94.70 input  -60.55 | X-H torsion
[ 11005 11000 10999 10996 ] final -168.54 input  -57.11 | X-H torsion

> <Gold.Protein.ActiveResidues>
 VAL166  LYS551  ARG553  GLY616  TRP617  ASP618  TYR619  PRO620  LYS621  CYS622 
 ASP623  PHE694  ASN695  SER759  ASP760  ASP761  ALA762  ILE779  LEU786  VAL792 
 PHE793  MET794  SER795  GLU796  ALA797  LYS798  CYS799  TRP800  GLU811  SER814 

> <Gold.Protein.RotatedAtoms>
  150.6893  134.2273  159.4420 H   0  0  0  0  0  0  0  0  0  0  0  0  # atno 6907 bound_to 6896
  152.0225  134.9812  160.0580 H   0  0  0  0  0  0  0  0  0  0  0  0  # atno 6908 bound_to 6896
  152.1383  133.4414  159.4791 H   0  0  0  0  0  0  0  0  0  0  0  0  # atno 6909 bound_to 6896
  144.7133  140.1519  143.6383 H   0  0  0  0  0  0  0  0  0  0  0  0  # atno 7974 bound_to 7965
  154.4645  140.0942  156.6983 H   0  0  0  0  0  0  0  0  0  0  0  0  # atno 8008 bound_to 7997
  155.4897  140.3470  155.4334 H   0  0  0  0  0  0  0  0  0  0  0  0  # atno 8009 bound_to 7997
  156.0931  140.1402  156.9554 H   0  0  0  0  0  0  0  0  0  0  0  0  # atno 8010 bound_to 7997
  140.1398  144.4564  150.6817 H   0  0  0  0  0  0  0  0  0  0  0  0  # atno 10167 bound_to 10162
  156.9463  131.0017  151.2958 H   0  0  0  0  0  0  0  0  0  0  0  0  # atno 10718 bound_to 10713
  153.2447  135.4280  155.0735 H   0  0  0  0  0  0  0  0  0  0  0  0  # atno 10763 bound_to 10752
  154.8356  135.3411  154.6598 H   0  0  0  0  0  0  0  0  0  0  0  0  # atno 10764 bound_to 10752
  153.7021  135.7028  153.5117 H   0  0  0  0  0  0  0  0  0  0  0  0  # atno 10765 bound_to 10752
  140.5409  134.5524  157.5099 H   0  0  0  0  0  0  0  0  0  0  0  0  # atno 11005 bound_to 11000
  145.9108  139.2486  143.1438 LP  0  0  0  0  0  0  0  0  0  0  0  0  # atno 17320 bound_to 7965
  145.9718  140.8754  143.0159 LP  0  0  0  0  0  0  0  0  0  0  0  0  # atno 17321 bound_to 7965
  140.6767  143.2308  151.5488 LP  0  0  0  0  0  0  0  0  0  0  0  0  # atno 17342 bound_to 10162
  139.5478  144.2476  152.1474 LP  0  0  0  0  0  0  0  0  0  0  0  0  # atno 17343 bound_to 10162
  157.5751  130.8337  149.8445 LP  0  0  0  0  0  0  0  0  0  0  0  0  # atno 17370 bound_to 10713
  156.0382  130.3746  150.1504 LP  0  0  0  0  0  0  0  0  0  0  0  0  # atno 17371 bound_to 10713
  139.9505  134.7626  156.0461 LP  0  0  0  0  0  0  0  0  0  0  0  0  # atno 17394 bound_to 11000
  141.1228  133.6608  156.3258 LP  0  0  0  0  0  0  0  0  0  0  0  0  # atno 17395 bound_to 11000

$$$$
