#       Name:                AV-unprocessed.smi:2479
#       Creating user name   scv26
#       Creation time:       Fri Mar 27 13:41:15 2020


#       File generated by GOLD software.
#

@<TRIPOS>MOLECULE
AV-unprocessed.smi:2479
    36    37     1
SMALL
NO_CHARGES


@<TRIPOS>ATOM
      1 ****        -6.1000   0.2529   0.3709 N.1            1 S1                 0.0000
      2 ****        -4.9433   0.2329   0.3689 C.1            1 S1                 0.0000
      3 ****        -3.4910   0.2084   0.3667 C.ar           1 S1                 0.0000
      4 ****        -2.7886  -0.9433  -0.0395 C.ar           1 S1                 0.0000
      5 ****        -1.4410  -1.0169  -0.0605 N.ar           1 S1                 0.0000
      6 ****        -0.7235   0.0683   0.3220 C.ar           1 S1                 0.0000
      7 ****         0.6830  -0.0274   0.3042 N.3            1 S1                 0.0000
      8 ****         1.1709  -0.5335   1.5849 C.3            1 S1                 0.0000
      9 ****         2.7042  -0.4964   1.6334 C.3            1 S1                 0.0000
     10 ****         3.2179  -1.2455   0.5412 O.3            1 S1                 0.0000
     11 ****         2.8382  -0.6787  -0.7072 C.3            1 S1                 0.0000
     12 ****         1.2987  -0.6786  -0.8657 C.3            1 S1                 0.0000
     13 ****         0.9642  -0.0672  -2.2426 C.2            1 S1                 0.0000
     14 ****         0.5573   1.2058  -2.2976 N.am           1 S1                 0.0000
     15 ****         1.0666  -0.7534  -3.2572 O.2            1 S1                 0.0000
     16 ****        -1.3425   1.2684   0.7502 C.ar           1 S1                 0.0000
     17 ****        -0.4147   2.6470   1.2288 Cl             1 S1                 0.0000
     18 ****        -2.7496   1.3357   0.7701 C.ar           1 S1                 0.0000
     19 ****        -3.3157  -1.8320  -0.3557 H              1 S1                 0.0000
     20 ****         0.7681   0.0603   2.4069 H              1 S1                 0.0000
     21 ****         0.8226  -1.5576   1.7312 H              1 S1                 0.0000
     22 ****         3.0745   0.5297   1.5998 H              1 S1                 0.0000
     23 ****         3.0622  -0.9354   2.5647 H              1 S1                 0.0000
     24 ****         3.2432   0.3324  -0.7860 H              1 S1                 0.0000
     25 ****         3.3038  -1.2655  -1.5003 H              1 S1                 0.0000
     26 ****         0.9722  -1.7201  -0.8844 H              1 S1                 0.0000
     27 ****         0.3323   1.6242  -3.1888 H              1 S1                 0.0000
     28 ****         0.4755   1.7434  -1.4468 H              1 S1                 0.0000
     29 ****        -3.2472   2.2403   1.0890 H              1 S1                 0.0000
     30 ****        -7.0999   0.2702   0.3727 LP             1 S1                 0.0000
     31 ****        -0.9808  -1.8553  -0.3524 LP             1 S1                 0.0000
     32 ****         1.0035   0.9117   0.1799 LP             1 S1                 0.0000
     33 ****         2.8653  -2.1798   0.5941 LP             1 S1                 0.0000
     34 ****         4.2160  -1.2620   0.6000 LP             1 S1                 0.0000
     35 ****         1.3659  -1.7051  -3.1890 LP             1 S1                 0.0000
     36 ****         0.8505  -0.3599  -4.1508 LP             1 S1                 0.0000
@<TRIPOS>BOND
    1    1    2 3     
    2    2    3 1     
    3    3   18 ar    
    4    3    4 ar    
    5    4    5 ar    
    6    4   19 1     
    7    5    6 ar    
    8    6    7 1     
    9    6   16 ar    
   10    7   12 1     
   11    7    8 1     
   12    8    9 1     
   13    8   20 1     
   14    8   21 1     
   15    9   10 1     
   16    9   22 1     
   17    9   23 1     
   18   10   11 1     
   19   11   12 1     
   20   11   24 1     
   21   11   25 1     
   22   12   13 1     
   23   12   26 1     
   24   13   14 am    
   25   13   15 2     
   26   14   27 1     
   27   14   28 1     
   28   16   17 1     
   29   16   18 ar    
   30   18   29 1     
   31    1   30 1     
   32    5   31 1     
   33    7   32 1     
   34   10   33 1     
   35   10   34 1     
   36   15   35 1     
   37   15   36 1     
@<TRIPOS>SUBSTRUCTURE
      1 S1             1
@<TRIPOS>SET
LONE_PAIRS      STATIC     ATOMS    <user>   **** ""
7 30 31 32 33 34 35 36
DONOR_HYDROGENS      STATIC     ATOMS    <user>   **** ""
2 27 28
ATOM$BLUE        STATIC     ATOMS    COLORGROUP SYSTEM
7 30 31 32 33 34 35 36
ATOM$RED        STATIC     ATOMS    COLORGROUP SYSTEM
2 27 28
