#       Name:                AV-unprocessed.smi:2131
#       Creating user name   scv26
#       Creation time:       Fri Mar 27 11:44:36 2020


#       File generated by GOLD software.
#

@<TRIPOS>MOLECULE
AV-unprocessed.smi:2131
    46    48     1
SMALL
NO_CHARGES


@<TRIPOS>ATOM
      1 ****        -3.3308   6.9762   2.0553 N.1            1 S1                 0.0000
      2 ****        -3.2004   6.5631   0.9824 C.1            1 S1                 0.0000
      3 ****        -3.0343   6.0383  -0.3814 C.3            1 S1                 0.0000
      4 ****        -2.2742   4.7284  -0.3965 C.ar           1 S1                 0.0000
      5 ****        -2.9693   3.5051  -0.3322 C.ar           1 S1                 0.0000
      6 ****        -2.2599   2.2889  -0.3418 C.ar           1 S1                 0.0000
      7 ****        -0.8517   2.2741  -0.4133 C.ar           1 S1                 0.0000
      8 ****        -0.2385   1.0397  -0.4147 O.3            1 S1                 0.0000
      9 ****         1.1824   0.9936  -0.4149 C.3            1 S1                 0.0000
     10 ****         1.6312  -0.4740  -0.3661 C.3            1 S1                 0.0000
     11 ****         3.0326  -0.5254  -0.5477 O.3            1 S1                 0.0000
     12 ****         1.2560  -1.1596   0.9630 C.3            1 S1                 0.0000
     13 ****         1.6847  -2.5629   1.0207 N.pl3          1 S1                 0.0000
     14 ****         2.7698  -3.1227   1.6211 C.2            1 S1                 0.0000
     15 ****         2.7245  -4.4631   1.3832 N.pl3          1 S1                 1.0000
     16 ****         1.5942  -4.7635   0.6196 C.ar           1 S1                 0.0000
     17 ****         1.1205  -5.9761   0.1281 C.ar           1 S1                 0.0000
     18 ****        -0.0717  -5.9315  -0.6245 C.ar           1 S1                 0.0000
     19 ****        -0.7463  -4.7160  -0.8620 C.ar           1 S1                 0.0000
     20 ****        -0.2583  -3.4926  -0.3572 C.ar           1 S1                 0.0000
     21 ****         0.9214  -3.5460   0.3839 C.ar           1 S1                 0.0000
     22 ****        -0.1585   3.5094  -0.4790 C.ar           1 S1                 0.0000
     23 ****        -0.8675   4.7264  -0.4704 C.ar           1 S1                 0.0000
     24 ****        -4.0225   5.9044  -0.8223 H              1 S1                 0.0000
     25 ****        -2.5079   6.7846  -0.9769 H              1 S1                 0.0000
     26 ****        -4.0478   3.4963  -0.2732 H              1 S1                 0.0000
     27 ****        -2.8030   1.3565  -0.2901 H              1 S1                 0.0000
     28 ****         1.5597   1.4624  -1.3254 H              1 S1                 0.0000
     29 ****         1.5874   1.5380   0.4401 H              1 S1                 0.0000
     30 ****         1.1749  -1.0096  -1.1992 H              1 S1                 0.0000
     31 ****         3.2426  -0.1259  -1.3782 H              1 S1                 0.0000
     32 ****         1.7213  -0.6403   1.8022 H              1 S1                 0.0000
     33 ****         0.1795  -1.1229   1.1347 H              1 S1                 0.0000
     34 ****         3.5308  -2.5977   2.1805 H              1 S1                 0.0000
     35 ****         1.6348  -6.9087   0.3084 H              1 S1                 0.0000
     36 ****        -0.4765  -6.8483  -1.0281 H              1 S1                 0.0000
     37 ****        -1.6567  -4.7214  -1.4440 H              1 S1                 0.0000
     38 ****        -0.7803  -2.5657  -0.5441 H              1 S1                 0.0000
     39 ****         0.9183   3.5512  -0.5374 H              1 S1                 0.0000
     40 ****        -0.3272   5.6605  -0.5194 H              1 S1                 0.0000
     41 ****         3.4170  -5.1213   1.7170 H              1 S1                 0.0000
     42 ****        -3.4435   7.3332   2.9826 LP             1 S1                 0.0000
     43 ****        -0.5507   0.5548  -1.2317 LP             1 S1                 0.0000
     44 ****        -0.5505   0.5530   0.4013 LP             1 S1                 0.0000
     45 ****         3.3384  -1.4775  -0.5446 LP             1 S1                 0.0000
     46 ****         3.4868  -0.0271   0.1907 LP             1 S1                 0.0000
@<TRIPOS>BOND
    1    1    2 3     
    2    2    3 1     
    3    3    4 1     
    4    3   24 1     
    5    3   25 1     
    6    4   23 ar    
    7    4    5 ar    
    8    5    6 ar    
    9    5   26 1     
   10    6    7 ar    
   11    6   27 1     
   12    7    8 1     
   13    7   22 ar    
   14    8    9 1     
   15    9   10 1     
   16    9   28 1     
   17    9   29 1     
   18   10   11 1     
   19   10   12 1     
   20   10   30 1     
   21   11   31 1     
   22   12   13 1     
   23   12   32 1     
   24   12   33 1     
   25   13   21 1     
   26   13   14 1     
   27   14   15 2     
   28   14   34 1     
   29   15   16 1     
   30   15   41 1     
   31   16   21 ar    
   32   16   17 ar    
   33   17   18 ar    
   34   17   35 1     
   35   18   19 ar    
   36   18   36 1     
   37   19   20 ar    
   38   19   37 1     
   39   20   21 ar    
   40   20   38 1     
   41   22   23 ar    
   42   22   39 1     
   43   23   40 1     
   44    1   42 1     
   45    8   43 1     
   46    8   44 1     
   47   11   45 1     
   48   11   46 1     
@<TRIPOS>SUBSTRUCTURE
      1 S1             1
@<TRIPOS>SET
LONE_PAIRS      STATIC     ATOMS    <user>   **** ""
5 42 43 44 45 46
DONOR_HYDROGENS      STATIC     ATOMS    <user>   **** ""
2 31 41
ATOM$BLUE        STATIC     ATOMS    COLORGROUP SYSTEM
5 42 43 44 45 46
ATOM$RED        STATIC     ATOMS    COLORGROUP SYSTEM
2 31 41
