AV-unprocessed.smi:3237|AV-procd|sdf|12366|dock2
  -GOLD-   2272018223D 1   1.00000     0.00000
 Structure written by MMmdl.
 37 39  0  0  0  0  0  0  0  0  2 V2000
  153.3584  137.5989  157.2167 C   0  0  0  0  0  0  0  0  0  0  0  0
  152.5537  138.1335  156.0821 C   0  0  0  0  0  0  0  0  0  0  0  0
  151.3360  137.7936  155.5638 C   0  0  0  0  0  0  0  0  0  0  0  0
  151.1797  138.7142  154.4870 C   0  0  0  0  0  0  0  0  0  0  0  0
  150.0676  138.7992  153.6106 N   0  0  0  0  0  0  0  0  0  0  0  0
  148.7671  138.6214  153.8964 C   0  0  0  0  0  0  0  0  0  0  0  0
  148.3098  138.3486  155.0063 O   0  0  0  0  0  0  0  0  0  0  0  0
  148.0044  138.7649  152.8031 N   0  0  0  0  0  0  0  0  0  0  0  0
  146.5539  138.6074  152.7748 C   0  0  1  0  0  0  0  0  0  0  0  0
  146.0977  137.1486  152.7808 C   0  0  0  0  0  0  0  0  0  0  0  0
  144.7239  137.1768  153.4737 C   0  0  0  0  0  0  0  0  0  0  0  0
  144.5474  138.5399  154.0283 N   0  3  1  0  0  0  0  0  0  0  0  0
  143.8663  138.5808  155.3395 C   0  0  0  0  0  0  0  0  0  0  0  0
  142.3619  138.6617  155.2370 C   0  0  0  0  0  0  0  0  0  0  0  0
  143.1635  139.8887  155.6138 C   0  0  0  0  0  0  0  0  0  0  0  0
  145.8767  139.1742  154.0224 C   0  0  0  0  0  0  0  0  0  0  0  0
  152.2016  139.5419  154.3721 N   0  0  0  0  0  0  0  0  0  0  0  0
  153.0911  139.1724  155.3877 O   0  0  0  0  0  0  0  0  0  0  0  0
  152.8188  136.8090  157.7395 H   0  0  0  0  0  0  0  0  0  0  0  0
  153.5840  138.3869  157.9355 H   0  0  0  0  0  0  0  0  0  0  0  0
  154.3015  137.1851  156.8596 H   0  0  0  0  0  0  0  0  0  0  0  0
  150.6772  137.0126  155.9125 H   0  0  0  0  0  0  0  0  0  0  0  0
  150.2946  138.9902  152.6458 H   0  0  0  0  0  0  0  0  0  0  0  0
  148.4590  138.9920  151.9304 H   0  0  0  0  0  0  0  0  0  0  0  0
  146.1471  139.0983  151.8880 H   0  0  0  0  0  0  0  0  0  0  0  0
  146.0506  136.7260  151.7764 H   0  0  0  0  0  0  0  0  0  0  0  0
  146.7861  136.5364  153.3655 H   0  0  0  0  0  0  0  0  0  0  0  0
  143.9166  136.9687  152.7708 H   0  0  0  0  0  0  0  0  0  0  0  0
  144.6834  136.4197  154.2586 H   0  0  0  0  0  0  0  0  0  0  0  0
  144.3361  138.0251  156.1493 H   0  0  0  0  0  0  0  0  0  0  0  0
  141.9109  138.6408  154.2466 H   0  0  0  0  0  0  0  0  0  0  0  0
  141.7790  138.1863  156.0232 H   0  0  0  0  0  0  0  0  0  0  0  0
  143.1067  140.2213  156.6484 H   0  0  0  0  0  0  0  0  0  0  0  0
  143.2448  140.6828  154.8738 H   0  0  0  0  0  0  0  0  0  0  0  0
  146.4278  138.8878  154.9205 H   0  0  0  0  0  0  0  0  0  0  0  0
  145.7987  140.2618  154.0029 H   0  0  0  0  0  0  0  0  0  0  0  0
  143.9806  139.0509  153.3665 H   0  0  0  0  0  0  0  0  0  0  0  0
  1  2  1  0  0  0  0
  1 19  1  0  0  0  0
  1 20  1  0  0  0  0
  1 21  1  0  0  0  0
  2 18  1  0  0  0  0
  2  3  2  0  0  0  0
  3  4  1  0  0  0  0
  3 22  1  0  0  0  0
  4  5  1  0  0  0  0
  4 17  2  0  0  0  0
  5  6  1  0  0  0  0
  5 23  1  0  0  0  0
  6  7  2  0  0  0  0
  6  8  1  0  0  0  0
  8  9  1  0  0  0  0
  8 24  1  0  0  0  0
  9 16  1  0  0  0  0
  9 10  1  0  0  0  0
  9 25  1  0  0  0  0
 10 11  1  0  0  0  0
 10 26  1  0  0  0  0
 10 27  1  0  0  0  0
 11 12  1  0  0  0  0
 11 28  1  0  0  0  0
 11 29  1  0  0  0  0
 12 13  1  0  0  0  0
 12 16  1  0  0  0  0
 12 37  1  0  0  0  0
 13 15  1  0  0  0  0
 13 14  1  0  0  0  0
 13 30  1  0  0  0  0
 14 15  1  0  0  0  0
 14 31  1  0  0  0  0
 14 32  1  0  0  0  0
 15 33  1  0  0  0  0
 15 34  1  0  0  0  0
 16 35  1  0  0  0  0
 16 36  1  0  0  0  0
 17 18  1  0  0  0  0
M  CHG  1  12   1
M  END
> <s_m_source_file>
AV-unprocessed.smi

> <i_m_source_file_index>
3237

> <i_lp_mmshare_version>
43012

> <i_f3d_flags>
0

> <s_epik_input>
W0NIM11jMVtjSF1jKG5vMSlbTkhdQyg9TylbTkhdW0NAQEhdMltDSDJdW0NIMl1OKFtDSDJdMilbQ0hdM1tDSDJdW0NIMl0z

> <s_epik_cmdline>
J2VwaWtfcHl0aG9uJywgJy1waCcsICc3LjAnLCAnLXRuJywgJzgnLCAnLW1hJywgJzIwMCcsICctbWV0YWxfYmluZGluZycsICctaW1hZScsICc8aW5maWxlLm1hZT4nLCAnLW9tYWUnLCAnPG91dGZpbGUubWFlPic=

> <r_epik_Ionization_Penalty>
0.000720579

> <r_epik_Ionization_Penalty_Charging>
0.000680516

> <r_epik_Ionization_Penalty_Neutral>
4.00628e-05

> <r_epik_State_Penalty>
0.000432256

> <r_epik_Charging_Adjusted_Penalty>
0.00111277

> <i_epik_Tot_Q>
1

> <i_epik_Tot_abs_Q>
1

> <r_epik_Metal_State_Penalty>
0.0255091

> <b_epik_Metal_Only>
0

> <s_lp_Force_Field>
OPLS_2005

> <r_lp_Energy>
35.1178

> <b_lp_Chiralities_Consistent>
1

> <s_lp_Variant>
AV-unprocessed.smi:3237-4

> <Gold.Version>
5.8.1

> <Gold.Id.Protein>
6NUR|6NUR_protein|mol2

> <Gold.PLP.Fitness>
36.7104

> <Gold.PLP.PLP>
-20.2797

> <Gold.PLP.part.hbond>
-5.5985

> <Gold.PLP.part.metal>
0.0000

> <Gold.PLP.part.buried>
-2.7577

> <Gold.PLP.part.nonpolar>
-13.3827

> <Gold.PLP.part.repulsive>
0.3072

> <Gold.PLP.ligand.clash>
0.0000

> <Gold.PLP.ligand.torsion>
1.1762

> <Gold.PLP.Chemscore.Hbond>
5.8400

> <Gold.PLP.Chemscore.CHOScore>
0.0000

> <Gold.PLP.Chemscore.Metal>
0.0000

> <Gold.Chemscore.Hbonds>
donor molecule, donor type, donor heavy atom, donor atom, acceptor molecule, acceptor atom, score
      L1  H     5    23       P1  7957  0.80
      L1  H     8    24       P1  7957  0.93
      L1  H    12    37       P1 10175  2.00
      P1  H  7989  7998       L1    17  0.74
      P1  H  7997  8008       L1    18  1.00

> <Gold.PLP.Chemscore.Internal.Correction>
1.2630

> <Gold.Rescore>
     Score         DG    S(hbond)    S(metal)    S(lipo)     H(rot)  DE(clash)    DE(int)     intcor
     18.42     -20.86       4.35        0.00      34.75       1.26       0.17       2.27       ----

> <Gold.Chemscore.Fitness>
18.4211

> <Gold.Chemscore.DG>
-20.8560

> <Gold.Chemscore.ZeroCoef>
-5.4800

> <Gold.Chemscore.Hbond>
4.3514

> <Gold.Chemscore.Metal>
0.0000

> <Gold.Chemscore.Lipo>
34.7533

> <Gold.Chemscore.Internal_Hbond>
0.0000

> <Gold.Chemscore.DEClash>
0.1684

> <Gold.Chemscore.DEInternal>
2.2664

> <Gold.Chemscore.Rot>
1.2593

> <Gold.Chemscore.Internal.Correction>
   9.000000E+99

> <Gold.Chemscore.Hbonds>
donor molecule, donor type, donor heavy atom, donor atom, acceptor molecule, acceptor atom, score
      L1  H     5    23       P1  7957  0.31
      L1  H     8    24       P1  7957  0.86
      L1  H    12    37       P1 10175  0.95
      P1  H  7989  7998       L1    17  0.44
      P1  H  7997  8008       L1    18  0.91

> <Gold.Chemscore.Hbond.Weighted>
-14.5335

> <Gold.Chemscore.Metal.Weighted>
-0.0000

> <Gold.Chemscore.Lipo.Weighted>
-4.0661

> <Gold.Chemscore.Internal_Hbond.Weighted>
0.0000

> <Gold.Chemscore.DEClash.Weighted>
0.1684

> <Gold.Chemscore.DEInternal.Weighted>
2.2664

> <Gold.Chemscore.Rot.Weighted>
3.2237

> <Gold.Chemscore.Internal.Correction.Weighted>
   9.000000E+99

> <Gold.Protein.RotatedTorsions>
[ 6907 6896 6895 6894 ] final  -78.07 input  -60.11 | X-H torsion
[ 7974 7965 7964 7962 ] final  108.36 input  175.53 | X-H torsion
[ 8008 7997 7996 7995 ] final  -38.42 input   59.86 | X-H torsion
[ 10167 10162 10161 10158 ] final  -16.97 input  -65.29 | X-H torsion
[ 10718 10713 10712 10709 ] final   26.31 input   66.30 | X-H torsion
[ 10763 10752 10751 10750 ] final  140.23 input  -60.55 | X-H torsion
[ 11005 11000 10999 10996 ] final -137.55 input  -57.11 | X-H torsion

> <Gold.Protein.ActiveResidues>
 VAL166  LYS551  ARG553  GLY616  TRP617  ASP618  TYR619  PRO620  LYS621  CYS622 
 ASP623  PHE694  ASN695  SER759  ASP760  ASP761  ALA762  ILE779  LEU786  VAL792 
 PHE793  MET794  SER795  GLU796  ALA797  LYS798  CYS799  TRP800  GLU811  SER814 

> <Gold.Protein.RotatedAtoms>
  150.6982  134.4327  159.5255 H   0  0  0  0  0  0  0  0  0  0  0  0  # atno 6907 bound_to 6896
  152.2051  134.8550  160.0513 H   0  0  0  0  0  0  0  0  0  0  0  0  # atno 6908 bound_to 6896
  151.9456  133.3615  159.4018 H   0  0  0  0  0  0  0  0  0  0  0  0  # atno 6909 bound_to 6896
  145.2817  139.2630  143.3912 H   0  0  0  0  0  0  0  0  0  0  0  0  # atno 7974 bound_to 7965
  154.4037  140.1578  156.2698 H   0  0  0  0  0  0  0  0  0  0  0  0  # atno 8008 bound_to 7997
  155.8964  140.3435  155.5971 H   0  0  0  0  0  0  0  0  0  0  0  0  # atno 8009 bound_to 7997
  155.7499  140.0803  157.2196 H   0  0  0  0  0  0  0  0  0  0  0  0  # atno 8010 bound_to 7997
  140.7241  143.5062  150.9807 H   0  0  0  0  0  0  0  0  0  0  0  0  # atno 10167 bound_to 10162
  157.2051  130.6908  149.6204 H   0  0  0  0  0  0  0  0  0  0  0  0  # atno 10718 bound_to 10713
  153.9192  135.3002  155.3448 H   0  0  0  0  0  0  0  0  0  0  0  0  # atno 10763 bound_to 10752
  154.7584  135.4946  153.9421 H   0  0  0  0  0  0  0  0  0  0  0  0  # atno 10764 bound_to 10752
  153.1151  135.6768  153.9536 H   0  0  0  0  0  0  0  0  0  0  0  0  # atno 10765 bound_to 10752
  140.8700  134.2062  157.4656 H   0  0  0  0  0  0  0  0  0  0  0  0  # atno 11005 bound_to 11000
  146.3214  140.3286  142.8638 LP  0  0  0  0  0  0  0  0  0  0  0  0  # atno 17320 bound_to 7965
  144.9247  140.7908  143.5726 LP  0  0  0  0  0  0  0  0  0  0  0  0  # atno 17321 bound_to 7965
  139.8774  143.7116  152.3160 LP  0  0  0  0  0  0  0  0  0  0  0  0  # atno 17342 bound_to 10162
  139.7386  144.7565  151.0689 LP  0  0  0  0  0  0  0  0  0  0  0  0  # atno 17343 bound_to 10162
  155.9696  130.4570  150.5945 LP  0  0  0  0  0  0  0  0  0  0  0  0  # atno 17370 bound_to 10713
  157.3728  131.0768  151.1543 LP  0  0  0  0  0  0  0  0  0  0  0  0  # atno 17371 bound_to 10713
  139.8711  134.9770  156.4942 LP  0  0  0  0  0  0  0  0  0  0  0  0  # atno 17394 bound_to 11000
  140.8584  133.8079  155.9239 LP  0  0  0  0  0  0  0  0  0  0  0  0  # atno 17395 bound_to 11000

$$$$
