AV-unprocessed.smi:1209|AV-procd|sdf|5076|dock1
  -GOLD-   22720 4123D 1   1.00000     0.00000
 Structure written by MMmdl.
 49 51  0  0  0  0  0  0  0  0  2 V2000
  144.0434  145.2242  154.5702 C   0  0  0  0  0  0  0  0  0  0  0  0
  144.4772  143.8289  154.8634 C   0  0  0  0  0  0  0  0  0  0  0  0
  145.3622  142.9813  154.2599 C   0  0  0  0  0  0  0  0  0  0  0  0
  145.2907  141.8022  155.0517 C   0  0  0  0  0  0  0  0  0  0  0  0
  146.0484  140.5136  154.8845 C   0  0  0  0  0  0  0  0  0  0  0  0
  146.8979  140.5220  153.6658 N   0  3  2  0  0  0  0  0  0  0  0  0
  147.2656  139.1557  153.2163 C   0  0  0  0  0  0  0  0  0  0  0  0
  148.0773  141.4142  153.8118 C   0  0  0  0  0  0  0  0  0  0  0  0
  149.1941  140.7906  154.6789 C   0  0  1  0  0  0  0  0  0  0  0  0
  150.0626  140.0536  153.8426 O   0  0  0  0  0  0  0  0  0  0  0  0
  150.0436  141.8317  155.4343 C   0  0  0  0  0  0  0  0  0  0  0  0
  150.7733  141.2521  156.5469 N   0  0  0  0  0  0  0  0  0  0  0  0
  151.1895  139.9767  156.6663 C   0  0  0  0  0  0  0  0  0  0  0  0
  151.8326  139.6491  157.7831 N   0  0  0  0  0  0  0  0  0  0  0  0
  151.8407  140.8535  158.4657 C   0  0  0  0  0  0  0  0  0  0  0  0
  152.3700  141.1883  159.7311 C   0  0  0  0  0  0  0  0  0  0  0  0
  152.2541  142.5012  160.2411 C   0  0  0  0  0  0  0  0  0  0  0  0
  152.8391  142.8177  161.6064 C   0  0  0  0  0  0  0  0  0  0  0  0
  151.6000  143.5036  159.4810 C   0  0  0  0  0  0  0  0  0  0  0  0
  151.4588  144.9198  160.0100 C   0  0  0  0  0  0  0  0  0  0  0  0
  151.0686  143.1871  158.2138 C   0  0  0  0  0  0  0  0  0  0  0  0
  151.1890  141.8772  157.7178 C   0  0  0  0  0  0  0  0  0  0  0  0
  144.4364  141.9340  156.0529 N   0  0  0  0  0  0  0  0  0  0  0  0
  143.9105  143.2257  155.9397 O   0  0  0  0  0  0  0  0  0  0  0  0
  144.5547  145.6150  153.6901 H   0  0  0  0  0  0  0  0  0  0  0  0
  144.2647  145.8828  155.4101 H   0  0  0  0  0  0  0  0  0  0  0  0
  142.9704  145.2636  154.3822 H   0  0  0  0  0  0  0  0  0  0  0  0
  145.9667  143.1752  153.3863 H   0  0  0  0  0  0  0  0  0  0  0  0
  146.6714  140.3604  155.7670 H   0  0  0  0  0  0  0  0  0  0  0  0
  145.3626  139.6660  154.8454 H   0  0  0  0  0  0  0  0  0  0  0  0
  147.8657  138.6457  153.9711 H   0  0  0  0  0  0  0  0  0  0  0  0
  147.8377  139.1783  152.2902 H   0  0  0  0  0  0  0  0  0  0  0  0
  146.3805  138.5499  153.0225 H   0  0  0  0  0  0  0  0  0  0  0  0
  148.5001  141.6464  152.8333 H   0  0  0  0  0  0  0  0  0  0  0  0
  147.7378  142.3640  154.2259 H   0  0  0  0  0  0  0  0  0  0  0  0
  148.7693  140.1032  155.4096 H   0  0  0  0  0  0  0  0  0  0  0  0
  149.6706  139.9797  152.9854 H   0  0  0  0  0  0  0  0  0  0  0  0
  150.7637  142.2951  154.7584 H   0  0  0  0  0  0  0  0  0  0  0  0
  149.4140  142.6369  155.8155 H   0  0  0  0  0  0  0  0  0  0  0  0
  151.0036  139.2461  155.8924 H   0  0  0  0  0  0  0  0  0  0  0  0
  152.8676  140.4245  160.3104 H   0  0  0  0  0  0  0  0  0  0  0  0
  153.6255  143.5676  161.5187 H   0  0  0  0  0  0  0  0  0  0  0  0
  153.2724  141.9310  162.0702 H   0  0  0  0  0  0  0  0  0  0  0  0
  152.0680  143.2005  162.2750 H   0  0  0  0  0  0  0  0  0  0  0  0
  150.9350  145.5596  159.2991 H   0  0  0  0  0  0  0  0  0  0  0  0
  152.4394  145.3584  160.1955 H   0  0  0  0  0  0  0  0  0  0  0  0
  150.8941  144.9248  160.9424 H   0  0  0  0  0  0  0  0  0  0  0  0
  150.5683  143.9419  157.6255 H   0  0  0  0  0  0  0  0  0  0  0  0
  146.3286  140.9312  152.9379 H   0  0  0  0  0  0  0  0  0  0  0  0
  1  2  1  0  0  0  0
  1 25  1  0  0  0  0
  1 26  1  0  0  0  0
  1 27  1  0  0  0  0
  2 24  1  0  0  0  0
  2  3  2  0  0  0  0
  3  4  1  0  0  0  0
  3 28  1  0  0  0  0
  4  5  1  0  0  0  0
  4 23  2  0  0  0  0
  5  6  1  0  0  0  0
  5 29  1  0  0  0  0
  5 30  1  0  0  0  0
  6  7  1  0  0  0  0
  6  8  1  0  0  0  0
  6 49  1  0  0  0  0
  7 31  1  0  0  0  0
  7 32  1  0  0  0  0
  7 33  1  0  0  0  0
  8  9  1  0  0  0  0
  8 34  1  0  0  0  0
  8 35  1  0  0  0  0
  9 10  1  0  0  0  0
  9 11  1  0  0  0  0
  9 36  1  0  0  0  0
 10 37  1  0  0  0  0
 11 12  1  0  0  0  0
 11 38  1  0  0  0  0
 11 39  1  0  0  0  0
 12 22  1  0  0  0  0
 12 13  1  0  0  0  0
 13 14  2  0  0  0  0
 13 40  1  0  0  0  0
 14 15  1  0  0  0  0
 15 22  2  0  0  0  0
 15 16  1  0  0  0  0
 16 17  2  0  0  0  0
 16 41  1  0  0  0  0
 17 18  1  0  0  0  0
 17 19  1  0  0  0  0
 18 42  1  0  0  0  0
 18 43  1  0  0  0  0
 18 44  1  0  0  0  0
 19 20  1  0  0  0  0
 19 21  2  0  0  0  0
 20 45  1  0  0  0  0
 20 46  1  0  0  0  0
 20 47  1  0  0  0  0
 21 22  1  0  0  0  0
 21 48  1  0  0  0  0
 23 24  1  0  0  0  0
M  CHG  1   6   1
M  END
> <s_m_source_file>
AV-unprocessed.smi

> <i_m_source_file_index>
1209

> <i_lp_mmshare_version>
43012

> <i_f3d_flags>
0

> <s_epik_input>
W0NIM11jMVtjSF1jKG5vMSlbQ0gyXU4oW0NIM10pW0NIMl1bQ0BIXShbT0hdKVtDSDJdbihbY0hdbjIpYyhjMjMpW2NIXWMoW0NIM10pYyhbY0hdMylbQ0gzXQ==

> <s_epik_cmdline>
J2VwaWtfcHl0aG9uJywgJy1waCcsICc3LjAnLCAnLXRuJywgJzgnLCAnLW1hJywgJzIwMCcsICctbWV0YWxfYmluZGluZycsICctaW1hZScsICc8aW5maWxlLm1hZT4nLCAnLW9tYWUnLCAnPG91dGZpbGUubWFlPic=

> <r_epik_Ionization_Penalty>
2.05249

> <r_epik_Ionization_Penalty_Charging>
1.96618

> <r_epik_Ionization_Penalty_Neutral>
0.0863156

> <r_epik_State_Penalty>
2.19215

> <r_epik_Charging_Adjusted_Penalty>
4.15833

> <i_epik_Tot_Q>
1

> <i_epik_Tot_abs_Q>
1

> <r_epik_Metal_State_Penalty>
2.17654

> <b_epik_Metal_Only>
0

> <s_lp_Force_Field>
OPLS_2005

> <r_lp_Energy>
8.03996

> <b_lp_Chiralities_Consistent>
1

> <s_lp_Variant>
AV-unprocessed.smi:1209-8

> <Gold.Version>
5.8.1

> <Gold.Id.Protein>
6NUR|6NUR_protein|mol2

> <Gold.PLP.Fitness>
53.3842

> <Gold.PLP.PLP>
-49.6326

> <Gold.PLP.part.hbond>
-2.0000

> <Gold.PLP.part.metal>
0.0000

> <Gold.PLP.part.buried>
-6.6162

> <Gold.PLP.part.nonpolar>
-41.4502

> <Gold.PLP.part.repulsive>
0.1598

> <Gold.PLP.ligand.clash>
0.0000

> <Gold.PLP.ligand.torsion>
1.1280

> <Gold.PLP.Chemscore.Hbond>
1.8480

> <Gold.PLP.Chemscore.CHOScore>
0.0000

> <Gold.PLP.Chemscore.Metal>
0.0000

> <Gold.Chemscore.Hbonds>
donor molecule, donor type, donor heavy atom, donor atom, acceptor molecule, acceptor atom, score
      L1  H    10    37       P1  7957  1.00
      P1  H  7989  7998       L1    10  0.85

> <Gold.PLP.Chemscore.Internal.Correction>
0.4635

> <Gold.Rescore>
     Score         DG    S(hbond)    S(metal)    S(lipo)     H(rot)  DE(clash)    DE(int)     intcor
     17.65     -18.98       1.51        0.00     127.65       2.53       0.10       1.23       ----

> <Gold.Chemscore.Fitness>
17.6528

> <Gold.Chemscore.DG>
-18.9841

> <Gold.Chemscore.ZeroCoef>
-5.4800

> <Gold.Chemscore.Hbond>
1.5132

> <Gold.Chemscore.Metal>
0.0000

> <Gold.Chemscore.Lipo>
127.6515

> <Gold.Chemscore.Internal_Hbond>
0.0000

> <Gold.Chemscore.DEClash>
0.0980

> <Gold.Chemscore.DEInternal>
1.2332

> <Gold.Chemscore.Rot>
2.5332

> <Gold.Chemscore.Internal.Correction>
   9.000000E+99

> <Gold.Chemscore.Hbonds>
donor molecule, donor type, donor heavy atom, donor atom, acceptor molecule, acceptor atom, score
      L1  H    10    37       P1  7957  0.99
      P1  H  7989  7998       L1    10  0.26

> <Gold.Chemscore.Hbond.Weighted>
-5.0539

> <Gold.Chemscore.Metal.Weighted>
-0.0000

> <Gold.Chemscore.Lipo.Weighted>
-14.9352

> <Gold.Chemscore.Internal_Hbond.Weighted>
0.0000

> <Gold.Chemscore.DEClash.Weighted>
0.0980

> <Gold.Chemscore.DEInternal.Weighted>
1.2332

> <Gold.Chemscore.Rot.Weighted>
6.4851

> <Gold.Chemscore.Internal.Correction.Weighted>
   9.000000E+99

> <Gold.Protein.RotatedTorsions>
[ 6907 6896 6895 6894 ] final   36.95 input  -60.11 | X-H torsion
[ 7974 7965 7964 7962 ] final  166.17 input  175.53 | X-H torsion
[ 8008 7997 7996 7995 ] final   75.20 input   59.86 | X-H torsion
[ 10167 10162 10161 10158 ] final -153.73 input  -65.29 | X-H torsion
[ 10718 10713 10712 10709 ] final  158.23 input   66.30 | X-H torsion
[ 10763 10752 10751 10750 ] final  -24.18 input  -60.55 | X-H torsion
[ 11005 11000 10999 10996 ] final  -62.42 input  -57.11 | X-H torsion

> <Gold.Protein.ActiveResidues>
 VAL166  LYS551  ARG553  GLY616  TRP617  ASP618  TYR619  PRO620  LYS621  CYS622 
 ASP623  PHE694  ASN695  SER759  ASP760  ASP761  ALA762  ILE779  LEU786  VAL792 
 PHE793  MET794  SER795  GLU796  ALA797  LYS798  CYS799  TRP800  GLU811  SER814 

> <Gold.Protein.RotatedAtoms>
  152.1366  134.9094  160.0555 H   0  0  0  0  0  0  0  0  0  0  0  0  # atno 6907 bound_to 6896
  152.0178  133.3882  159.4254 H   0  0  0  0  0  0  0  0  0  0  0  0  # atno 6908 bound_to 6896
  150.6861  134.3581  159.4982 H   0  0  0  0  0  0  0  0  0  0  0  0  # atno 6909 bound_to 6896
  144.7473  139.8576  143.6378 H   0  0  0  0  0  0  0  0  0  0  0  0  # atno 7974 bound_to 7965
  155.8094  140.3473  155.5449 H   0  0  0  0  0  0  0  0  0  0  0  0  # atno 8008 bound_to 7997
  155.8456  140.0948  157.1727 H   0  0  0  0  0  0  0  0  0  0  0  0  # atno 8009 bound_to 7997
  154.4006  140.1386  156.3769 H   0  0  0  0  0  0  0  0  0  0  0  0  # atno 8010 bound_to 7997
  139.7072  143.9166  152.2453 H   0  0  0  0  0  0  0  0  0  0  0  0  # atno 10167 bound_to 10162
  157.1807  131.0632  151.2133 H   0  0  0  0  0  0  0  0  0  0  0  0  # atno 10718 bound_to 10713
  153.6797  135.6967  153.5122 H   0  0  0  0  0  0  0  0  0  0  0  0  # atno 10763 bound_to 10752
  153.2494  135.4280  155.0781 H   0  0  0  0  0  0  0  0  0  0  0  0  # atno 10764 bound_to 10752
  154.8403  135.3527  154.6340 H   0  0  0  0  0  0  0  0  0  0  0  0  # atno 10765 bound_to 10752
  141.1359  133.6640  156.5525 H   0  0  0  0  0  0  0  0  0  0  0  0  # atno 11005 bound_to 11000
  146.1371  139.4419  143.0132 LP  0  0  0  0  0  0  0  0  0  0  0  0  # atno 17320 bound_to 7965
  145.7075  141.0117  143.1471 LP  0  0  0  0  0  0  0  0  0  0  0  0  # atno 17321 bound_to 7965
  139.9025  144.6903  150.8649 LP  0  0  0  0  0  0  0  0  0  0  0  0  # atno 17342 bound_to 10162
  140.7724  143.3503  151.2028 LP  0  0  0  0  0  0  0  0  0  0  0  0  # atno 17343 bound_to 10162
  157.3955  130.7305  149.6729 LP  0  0  0  0  0  0  0  0  0  0  0  0  # atno 17370 bound_to 10713
  155.9725  130.4135  150.4084 LP  0  0  0  0  0  0  0  0  0  0  0  0  # atno 17371 bound_to 10713
  140.4052  134.7321  157.4804 LP  0  0  0  0  0  0  0  0  0  0  0  0  # atno 17394 bound_to 11000
  140.0467  134.6189  155.8912 LP  0  0  0  0  0  0  0  0  0  0  0  0  # atno 17395 bound_to 11000

$$$$
