AV-unprocessed.smi:3039|AV-procd|sdf|11591|dock1
  -GOLD-   2272016563D 1   1.00000     0.00000
 Structure written by MMmdl.
 38 39  0  0  0  0  0  0  0  0  1 V2000
  147.6119  132.0710  154.2440 O   0  0  0  0  0  0  0  0  0  0  0  0
  148.0744  133.0824  153.7166 C   0  0  0  0  0  0  0  0  0  0  0  0
  149.4475  133.6016  154.1423 C   0  0  0  0  0  0  0  0  0  0  0  0
  149.9231  132.8619  155.3630 C   0  0  0  0  0  0  0  0  0  0  0  0
  150.1951  131.4724  155.5035 C   0  0  0  0  0  0  0  0  0  0  0  0
  150.5892  131.3544  156.8050 C   0  0  0  0  0  0  0  0  0  0  0  0
  150.5695  132.5641  157.4193 O   0  0  0  0  0  0  0  0  0  0  0  0
  150.1450  133.5210  156.4904 N   0  0  0  0  0  0  0  0  0  0  0  0
  147.4408  133.7868  152.7624 N   0  0  0  0  0  0  0  0  0  0  0  0
  146.1189  133.5209  152.1855 C   0  0  2  0  0  0  0  0  0  0  0  0
  146.1404  132.1905  151.3918 C   0  0  0  0  0  0  0  0  0  0  0  0
  144.7430  131.5942  151.1559 C   0  0  0  0  0  0  0  0  0  0  0  0
  144.0247  132.0915  149.8915 C   0  0  0  0  0  0  0  0  0  0  0  0
  144.1903  133.5843  149.5654 C   0  0  0  0  0  0  0  0  0  0  0  0
  144.1665  134.5256  150.7810 C   0  0  0  0  0  0  0  0  0  0  0  0
  145.5599  134.7549  151.4132 C   0  0  1  0  0  0  0  0  0  0  0  0
  145.5533  136.0433  152.2713 C   0  0  0  0  0  0  0  0  0  0  0  0
  146.8186  136.2918  152.8497 O   0  0  0  0  0  0  0  0  0  0  0  0
  150.1509  133.4666  153.3200 H   0  0  0  0  0  0  0  0  0  0  0  0
  149.3953  134.6753  154.3302 H   0  0  0  0  0  0  0  0  0  0  0  0
  150.1100  130.6877  154.7665 H   0  0  0  0  0  0  0  0  0  0  0  0
  150.9016  130.5184  157.4132 H   0  0  0  0  0  0  0  0  0  0  0  0
  147.9189  134.6008  152.4031 H   0  0  0  0  0  0  0  0  0  0  0  0
  145.4777  133.3594  153.0524 H   0  0  0  0  0  0  0  0  0  0  0  0
  146.6752  132.2960  150.4473 H   0  0  0  0  0  0  0  0  0  0  0  0
  146.7077  131.4607  151.9718 H   0  0  0  0  0  0  0  0  0  0  0  0
  144.8286  130.5092  151.0855 H   0  0  0  0  0  0  0  0  0  0  0  0
  144.1161  131.7744  152.0301 H   0  0  0  0  0  0  0  0  0  0  0  0
  144.3702  131.5157  149.0321 H   0  0  0  0  0  0  0  0  0  0  0  0
  142.9633  131.8611  149.9910 H   0  0  0  0  0  0  0  0  0  0  0  0
  145.1107  133.7376  149.0006 H   0  0  0  0  0  0  0  0  0  0  0  0
  143.3878  133.8667  148.8831 H   0  0  0  0  0  0  0  0  0  0  0  0
  143.7909  135.4876  150.4305 H   0  0  0  0  0  0  0  0  0  0  0  0
  143.4454  134.1856  151.5251 H   0  0  0  0  0  0  0  0  0  0  0  0
  146.2394  134.9626  150.5864 H   0  0  0  0  0  0  0  0  0  0  0  0
  145.2600  136.9112  151.6808 H   0  0  0  0  0  0  0  0  0  0  0  0
  144.8173  135.9617  153.0717 H   0  0  0  0  0  0  0  0  0  0  0  0
  147.4855  135.9656  152.2650 H   0  0  0  0  0  0  0  0  0  0  0  0
  1  2  2  0  0  0  0
  2  3  1  0  0  0  0
  2  9  1  0  0  0  0
  3  4  1  0  0  0  0
  3 19  1  0  0  0  0
  3 20  1  0  0  0  0
  4  8  2  0  0  0  0
  4  5  1  0  0  0  0
  5  6  2  0  0  0  0
  5 21  1  0  0  0  0
  6  7  1  0  0  0  0
  6 22  1  0  0  0  0
  7  8  1  0  0  0  0
  9 10  1  0  0  0  0
  9 23  1  0  0  0  0
 10 16  1  0  0  0  0
 10 11  1  0  0  0  0
 10 24  1  0  0  0  0
 11 12  1  0  0  0  0
 11 25  1  0  0  0  0
 11 26  1  0  0  0  0
 12 13  1  0  0  0  0
 12 27  1  0  0  0  0
 12 28  1  0  0  0  0
 13 14  1  0  0  0  0
 13 29  1  0  0  0  0
 13 30  1  0  0  0  0
 14 15  1  0  0  0  0
 14 31  1  0  0  0  0
 14 32  1  0  0  0  0
 15 16  1  0  0  0  0
 15 33  1  0  0  0  0
 15 34  1  0  0  0  0
 16 17  1  0  0  0  0
 16 35  1  0  0  0  0
 17 18  1  0  0  0  0
 17 36  1  0  0  0  0
 17 37  1  0  0  0  0
 18 38  1  0  0  0  0
M  END
> <s_m_source_file>
AV-unprocessed.smi

> <i_m_source_file_index>
3039

> <i_lp_mmshare_version>
43012

> <i_f3d_flags>
0

> <s_epik_input>
bjFvW2NIXVtjSF1jMVtDSDJdQyg9TylbTkhdW0NAQEhdMltDSDJdW0NIMl1bQ0gyXVtDSDJdW0NIMl1bQ0BIXTJbQ0gyXVtPSF0=

> <s_epik_cmdline>
J2VwaWtfcHl0aG9uJywgJy1waCcsICc3LjAnLCAnLXRuJywgJzgnLCAnLW1hJywgJzIwMCcsICctbWV0YWxfYmluZGluZycsICctaW1hZScsICc8aW5maWxlLm1hZT4nLCAnLW9tYWUnLCAnPG91dGZpbGUubWFlPic=

> <r_lp_tautomer_probability>
1

> <r_epik_Ionization_Penalty>
3.05817e-07

> <r_epik_Ionization_Penalty_Charging>
0

> <r_epik_Ionization_Penalty_Neutral>
3.05817e-07

> <r_epik_State_Penalty>
-0

> <r_epik_Charging_Adjusted_Penalty>
0

> <i_epik_Tot_Q>
0

> <i_epik_Tot_abs_Q>
0

> <r_epik_Metal_State_Penalty>
-0

> <b_epik_Metal_Only>
0

> <s_lp_Force_Field>
OPLS_2005

> <r_lp_Energy>
18.2522

> <b_lp_Chiralities_Consistent>
1

> <s_lp_Variant>
AV-unprocessed.smi:3039-1

> <Gold.Version>
5.8.1

> <Gold.Id.Protein>
6NUR|6NUR_protein|mol2

> <Gold.PLP.Fitness>
40.6090

> <Gold.PLP.PLP>
-32.2188

> <Gold.PLP.part.hbond>
-2.6096

> <Gold.PLP.part.metal>
0.0000

> <Gold.PLP.part.buried>
-2.9592

> <Gold.PLP.part.nonpolar>
-27.2526

> <Gold.PLP.part.repulsive>
0.0479

> <Gold.PLP.ligand.clash>
0.0000

> <Gold.PLP.ligand.torsion>
0.2286

> <Gold.PLP.Chemscore.Hbond>
2.9120

> <Gold.PLP.Chemscore.CHOScore>
0.0000

> <Gold.PLP.Chemscore.Metal>
0.0000

> <Gold.Chemscore.Hbonds>
donor molecule, donor type, donor heavy atom, donor atom, acceptor molecule, acceptor atom, score
      L1  H     9    23       P1  7948  1.00
      L1  H    18    38       P1  7948  0.84
      P1  H  6896  6909       L1     7  0.86

> <Gold.PLP.Chemscore.Internal.Correction>
0.1114

> <Gold.Rescore>
     Score         DG    S(hbond)    S(metal)    S(lipo)     H(rot)  DE(clash)    DE(int)     intcor
     14.97     -18.05       2.85        0.00      75.43       2.26       0.06       3.02       ----

> <Gold.Chemscore.Fitness>
14.9726

> <Gold.Chemscore.DG>
-18.0490

> <Gold.Chemscore.ZeroCoef>
-5.4800

> <Gold.Chemscore.Hbond>
2.8544

> <Gold.Chemscore.Metal>
0.0000

> <Gold.Chemscore.Lipo>
75.4254

> <Gold.Chemscore.Internal_Hbond>
0.0000

> <Gold.Chemscore.DEClash>
0.0574

> <Gold.Chemscore.DEInternal>
3.0189

> <Gold.Chemscore.Rot>
2.2616

> <Gold.Chemscore.Internal.Correction>
   9.000000E+99

> <Gold.Chemscore.Hbonds>
donor molecule, donor type, donor heavy atom, donor atom, acceptor molecule, acceptor atom, score
      L1  H     9    23       P1  7948  0.54
      L1  H    18    38       P1  7948  0.77
      P1  H  6896  6909       L1     7  0.71

> <Gold.Chemscore.Hbond.Weighted>
-9.5338

> <Gold.Chemscore.Metal.Weighted>
-0.0000

> <Gold.Chemscore.Lipo.Weighted>
-8.8248

> <Gold.Chemscore.Internal_Hbond.Weighted>
0.0000

> <Gold.Chemscore.DEClash.Weighted>
0.0574

> <Gold.Chemscore.DEInternal.Weighted>
3.0189

> <Gold.Chemscore.Rot.Weighted>
5.7896

> <Gold.Chemscore.Internal.Correction.Weighted>
   9.000000E+99

> <Gold.Protein.RotatedTorsions>
[ 6907 6896 6895 6894 ] final  -36.29 input  -60.11 | X-H torsion
[ 7974 7965 7964 7962 ] final -111.17 input  175.53 | X-H torsion
[ 8008 7997 7996 7995 ] final    8.63 input   59.86 | X-H torsion
[ 10167 10162 10161 10158 ] final   43.52 input  -65.29 | X-H torsion
[ 10718 10713 10712 10709 ] final -148.41 input   66.30 | X-H torsion
[ 10763 10752 10751 10750 ] final   24.63 input  -60.55 | X-H torsion
[ 11005 11000 10999 10996 ] final  -82.68 input  -57.11 | X-H torsion

> <Gold.Protein.ActiveResidues>
 VAL166  LYS551  ARG553  GLY616  TRP617  ASP618  TYR619  PRO620  LYS621  CYS622 
 ASP623  PHE694  ASN695  SER759  ASP760  ASP761  ALA762  ILE779  LEU786  VAL792 
 PHE793  MET794  SER795  GLU796  ALA797  LYS798  CYS799  TRP800  GLU811  SER814 

> <Gold.Protein.RotatedAtoms>
  151.0290  134.9525  159.8100 H   0  0  0  0  0  0  0  0  0  0  0  0  # atno 6907 bound_to 6896
  152.5341  134.2805  159.9015 H   0  0  0  0  0  0  0  0  0  0  0  0  # atno 6908 bound_to 6896
  151.2814  133.4166  159.2661 H   0  0  0  0  0  0  0  0  0  0  0  0  # atno 6909 bound_to 6896
  145.1594  140.8870  143.3600 H   0  0  0  0  0  0  0  0  0  0  0  0  # atno 7974 bound_to 7965
  154.7694  140.2799  155.6150 H   0  0  0  0  0  0  0  0  0  0  0  0  # atno 8008 bound_to 7997
  156.2931  140.2644  156.2420 H   0  0  0  0  0  0  0  0  0  0  0  0  # atno 8009 bound_to 7997
  154.9919  140.0373  157.2313 H   0  0  0  0  0  0  0  0  0  0  0  0  # atno 8010 bound_to 7997
  140.3436  144.2439  150.6153 H   0  0  0  0  0  0  0  0  0  0  0  0  # atno 10167 bound_to 10162
  156.4200  130.8024  151.2246 H   0  0  0  0  0  0  0  0  0  0  0  0  # atno 10718 bound_to 10713
  153.0750  135.6601  154.0165 H   0  0  0  0  0  0  0  0  0  0  0  0  # atno 10763 bound_to 10752
  153.9801  135.2956  155.3422 H   0  0  0  0  0  0  0  0  0  0  0  0  # atno 10764 bound_to 10752
  154.7136  135.5195  153.8774 H   0  0  0  0  0  0  0  0  0  0  0  0  # atno 10765 bound_to 10752
  141.1662  133.7256  156.8608 H   0  0  0  0  0  0  0  0  0  0  0  0  # atno 11005 bound_to 11000
  145.0347  139.3311  143.6007 LP  0  0  0  0  0  0  0  0  0  0  0  0  # atno 17320 bound_to 7965
  146.3484  139.9698  142.8707 LP  0  0  0  0  0  0  0  0  0  0  0  0  # atno 17321 bound_to 7965
  140.5286  143.2248  151.8275 LP  0  0  0  0  0  0  0  0  0  0  0  0  # atno 17342 bound_to 10162
  139.4837  144.4749  151.9380 LP  0  0  0  0  0  0  0  0  0  0  0  0  # atno 17343 bound_to 10162
  157.7508  131.0231  150.3820 LP  0  0  0  0  0  0  0  0  0  0  0  0  # atno 17370 bound_to 10713
  156.4135  130.3939  149.6874 LP  0  0  0  0  0  0  0  0  0  0  0  0  # atno 17371 bound_to 10713
  140.1850  134.9006  157.2993 LP  0  0  0  0  0  0  0  0  0  0  0  0  # atno 17394 bound_to 11000
  140.2353  134.3860  155.7504 LP  0  0  0  0  0  0  0  0  0  0  0  0  # atno 17395 bound_to 11000

$$$$
