AV-unprocessed.smi:244|AV-procd|sdf|1875|dock10
  -GOLD-   2262020513D 1   1.00000     0.00000
 Structure written by MMmdl.
 56 60  0  0  0  0  0  0  0  0  1 V2000
  155.2517  139.3942  159.1459 C   0  0  0  0  0  0  0  0  0  0  0  0
  154.0159  139.3481  159.9194 N   0  0  0  0  0  0  0  0  0  0  0  0
  154.0974  140.1292  161.1570 C   0  0  0  0  0  0  0  0  0  0  0  0
  154.0667  141.6506  160.9029 C   0  0  0  0  0  0  0  0  0  0  0  0
  152.8206  142.0296  160.0960 C   0  0  1  0  0  0  0  0  0  0  0  0
  152.8302  143.4220  159.7994 O   0  0  0  0  0  0  0  0  0  0  0  0
  151.6533  143.8162  159.1005 C   0  0  0  0  0  0  0  0  0  0  0  0
  151.5640  143.0516  157.7692 C   0  0  0  0  0  0  0  0  0  0  0  0
  151.6178  141.6116  158.0054 N   0  0  0  0  0  0  0  0  0  0  0  0
  151.4271  140.8933  156.8765 C   0  0  0  0  0  0  0  0  0  0  0  0
  152.3985  140.0559  156.4254 N   0  0  0  0  0  0  0  0  0  0  0  0
  152.1874  139.3218  155.3285 C   0  0  0  0  0  0  0  0  0  0  0  0
  151.0991  139.2672  154.5567 N   0  0  0  0  0  0  0  0  0  0  0  0
  150.1250  140.1073  155.0116 C   0  0  0  0  0  0  0  0  0  0  0  0
  150.2104  140.9548  156.1500 C   0  0  0  0  0  0  0  0  0  0  0  0
  149.0308  141.6706  156.3047 N   0  0  0  0  0  0  0  0  0  0  0  0
  148.2865  141.2668  155.3113 C   0  0  0  0  0  0  0  0  0  0  0  0
  148.8562  140.3122  154.4982 N   0  0  0  0  0  0  0  0  0  0  0  0
  148.2477  139.6778  153.3394 C   0  0  0  0  0  0  0  0  0  0  0  0
  147.2235  138.5657  153.6836 C   0  0  0  0  0  0  0  0  0  0  0  0
  147.9914  137.5047  154.2221 O   0  0  0  0  0  0  0  0  0  0  0  0
  146.1885  139.0048  154.7424 C   0  0  0  0  0  0  0  0  0  0  0  0
  145.1295  137.9167  154.9964 C   0  0  0  0  0  0  0  0  0  0  0  0
  144.4946  137.5592  153.7741 O   0  0  0  0  0  0  0  0  0  0  0  0
  145.3951  137.0009  152.8242 C   0  0  0  0  0  0  0  0  0  0  0  0
  146.4686  138.0369  152.4443 C   0  0  0  0  0  0  0  0  0  0  0  0
  152.7946  141.2211  158.7845 C   0  0  2  0  0  0  0  0  0  0  0  0
  152.8396  139.7071  159.1216 C   0  0  0  0  0  0  0  0  0  0  0  0
  156.0874  139.0367  159.7480 H   0  0  0  0  0  0  0  0  0  0  0  0
  155.4911  140.3997  158.8019 H   0  0  0  0  0  0  0  0  0  0  0  0
  155.1753  138.7475  158.2713 H   0  0  0  0  0  0  0  0  0  0  0  0
  153.2516  139.8544  161.7883 H   0  0  0  0  0  0  0  0  0  0  0  0
  154.9959  139.8523  161.7094 H   0  0  0  0  0  0  0  0  0  0  0  0
  154.0658  142.1818  161.8549 H   0  0  0  0  0  0  0  0  0  0  0  0
  154.9671  141.9695  160.3773 H   0  0  0  0  0  0  0  0  0  0  0  0
  151.9356  141.7996  160.6934 H   0  0  0  0  0  0  0  0  0  0  0  0
  150.7712  143.6301  159.7153 H   0  0  0  0  0  0  0  0  0  0  0  0
  151.6915  144.8897  158.9161 H   0  0  0  0  0  0  0  0  0  0  0  0
  150.6378  143.3089  157.2534 H   0  0  0  0  0  0  0  0  0  0  0  0
  152.3882  143.3524  157.1206 H   0  0  0  0  0  0  0  0  0  0  0  0
  153.0048  138.6825  155.0296 H   0  0  0  0  0  0  0  0  0  0  0  0
  147.2875  141.6460  155.1517 H   0  0  0  0  0  0  0  0  0  0  0  0
  147.7704  140.4566  152.7428 H   0  0  0  0  0  0  0  0  0  0  0  0
  149.0480  139.2707  152.7195 H   0  0  0  0  0  0  0  0  0  0  0  0
  148.4015  137.0386  153.5096 H   0  0  0  0  0  0  0  0  0  0  0  0
  146.6849  139.2734  155.6758 H   0  0  0  0  0  0  0  0  0  0  0  0
  145.6684  139.9005  154.4032 H   0  0  0  0  0  0  0  0  0  0  0  0
  145.5719  137.0344  155.4610 H   0  0  0  0  0  0  0  0  0  0  0  0
  144.3728  138.2890  155.6870 H   0  0  0  0  0  0  0  0  0  0  0  0
  145.8459  136.0912  153.2236 H   0  0  0  0  0  0  0  0  0  0  0  0
  144.8311  136.7089  151.9383 H   0  0  0  0  0  0  0  0  0  0  0  0
  145.9660  138.8593  151.9362 H   0  0  0  0  0  0  0  0  0  0  0  0
  147.1664  137.6099  151.7229 H   0  0  0  0  0  0  0  0  0  0  0  0
  153.6743  141.4840  158.1958 H   0  0  0  0  0  0  0  0  0  0  0  0
  152.8366  139.1001  158.2156 H   0  0  0  0  0  0  0  0  0  0  0  0
  151.9447  139.4308  159.6810 H   0  0  0  0  0  0  0  0  0  0  0  0
  1  2  1  0  0  0  0
  1 29  1  0  0  0  0
  1 30  1  0  0  0  0
  1 31  1  0  0  0  0
  2 28  1  0  0  0  0
  2  3  1  0  0  0  0
  3  4  1  0  0  0  0
  3 32  1  0  0  0  0
  3 33  1  0  0  0  0
  4  5  1  0  0  0  0
  4 34  1  0  0  0  0
  4 35  1  0  0  0  0
  5 27  1  0  0  0  0
  5  6  1  0  0  0  0
  5 36  1  0  0  0  0
  6  7  1  0  0  0  0
  7  8  1  0  0  0  0
  7 37  1  0  0  0  0
  7 38  1  0  0  0  0
  8  9  1  0  0  0  0
  8 39  1  0  0  0  0
  8 40  1  0  0  0  0
  9 10  1  0  0  0  0
  9 27  1  0  0  0  0
 10 15  1  0  0  0  0
 10 11  2  0  0  0  0
 11 12  1  0  0  0  0
 12 13  2  0  0  0  0
 12 41  1  0  0  0  0
 13 14  1  0  0  0  0
 14 18  1  0  0  0  0
 14 15  2  0  0  0  0
 15 16  1  0  0  0  0
 16 17  2  0  0  0  0
 17 18  1  0  0  0  0
 17 42  1  0  0  0  0
 18 19  1  0  0  0  0
 19 20  1  0  0  0  0
 19 43  1  0  0  0  0
 19 44  1  0  0  0  0
 20 26  1  0  0  0  0
 20 21  1  0  0  0  0
 20 22  1  0  0  0  0
 21 45  1  0  0  0  0
 22 23  1  0  0  0  0
 22 46  1  0  0  0  0
 22 47  1  0  0  0  0
 23 24  1  0  0  0  0
 23 48  1  0  0  0  0
 23 49  1  0  0  0  0
 24 25  1  0  0  0  0
 25 26  1  0  0  0  0
 25 50  1  0  0  0  0
 25 51  1  0  0  0  0
 26 52  1  0  0  0  0
 26 53  1  0  0  0  0
 27 28  1  0  0  0  0
 27 54  1  0  0  0  0
 28 55  1  0  0  0  0
 28 56  1  0  0  0  0
M  END
> <s_m_source_file>
AV-unprocessed.smi

> <i_m_source_file_index>
244

> <i_lp_mmshare_version>
43012

> <i_f3d_flags>
0

> <s_epik_input>
W0NIMl0xW0NIMl1OKFtDSDNdKVtDSDJdW0NAQEhdKFtDQEhdMTIpTihbQ0gyXVtDSDJdTzIpYyhuW2NIXW4zKWMoYzM0KW5bY0hdbjRbQ0gyXUM1KFtPSF0pW0NIMl1bQ0gyXU9bQ0gyXVtDSDJdNQ==

> <s_epik_cmdline>
J2VwaWtfcHl0aG9uJywgJy1waCcsICc3LjAnLCAnLXRuJywgJzgnLCAnLW1hJywgJzIwMCcsICctbWV0YWxfYmluZGluZycsICctaW1hZScsICc8aW5maWxlLm1hZT4nLCAnLW9tYWUnLCAnPG91dGZpbGUubWFlPic=

> <r_lp_tautomer_probability>
1

> <r_epik_Ionization_Penalty>
2.27765

> <r_epik_Ionization_Penalty_Charging>
0

> <r_epik_Ionization_Penalty_Neutral>
2.27765

> <r_epik_State_Penalty>
2.4114

> <r_epik_Charging_Adjusted_Penalty>
2.4114

> <i_epik_Tot_Q>
0

> <i_epik_Tot_abs_Q>
0

> <r_epik_Metal_State_Penalty>
2.39769

> <b_epik_Metal_Only>
0

> <s_lp_Force_Field>
OPLS_2005

> <r_lp_Energy>
45.6912

> <b_lp_Chiralities_Consistent>
1

> <s_lp_Variant>
AV-unprocessed.smi:244-12

> <Gold.Version>
5.8.1

> <Gold.Id.Protein>
6NUR|6NUR_protein|mol2

> <Gold.PLP.Fitness>
47.6383

> <Gold.PLP.PLP>
-42.1641

> <Gold.PLP.part.hbond>
-3.0000

> <Gold.PLP.part.metal>
0.0000

> <Gold.PLP.part.buried>
1.3858

> <Gold.PLP.part.nonpolar>
-41.6028

> <Gold.PLP.part.repulsive>
2.1112

> <Gold.PLP.ligand.clash>
0.0000

> <Gold.PLP.ligand.torsion>
0.4284

> <Gold.PLP.Chemscore.Hbond>
2.0750

> <Gold.PLP.Chemscore.CHOScore>
0.0000

> <Gold.PLP.Chemscore.Metal>
0.0000

> <Gold.Chemscore.Hbonds>
donor molecule, donor type, donor heavy atom, donor atom, acceptor molecule, acceptor atom, score
      L1  H    21    45       P1  7948  1.00
      P1  H  7989  7998       L1    13  0.10
      P1  H  7997  8010       L1    11  1.00

> <Gold.PLP.Chemscore.Internal.Correction>
0.1060

> <Gold.Rescore>
     Score         DG    S(hbond)    S(metal)    S(lipo)     H(rot)  DE(clash)    DE(int)     intcor
     13.87     -17.70       1.67        0.00     101.82       2.06       2.00       1.82       ----

> <Gold.Chemscore.Fitness>
13.8706

> <Gold.Chemscore.DG>
-17.6965

> <Gold.Chemscore.ZeroCoef>
-5.4800

> <Gold.Chemscore.Hbond>
1.6705

> <Gold.Chemscore.Metal>
0.0000

> <Gold.Chemscore.Lipo>
101.8248

> <Gold.Chemscore.Internal_Hbond>
0.0000

> <Gold.Chemscore.DEClash>
2.0019

> <Gold.Chemscore.DEInternal>
1.8240

> <Gold.Chemscore.Rot>
2.0611

> <Gold.Chemscore.Internal.Correction>
   9.000000E+99

> <Gold.Chemscore.Hbonds>
donor molecule, donor type, donor heavy atom, donor atom, acceptor molecule, acceptor atom, score
      L1  H    21    45       P1  7948  1.00
      P1  H  7997  8010       L1    11  0.25

> <Gold.Chemscore.Hbond.Weighted>
-5.5795

> <Gold.Chemscore.Metal.Weighted>
-0.0000

> <Gold.Chemscore.Lipo.Weighted>
-11.9135

> <Gold.Chemscore.Internal_Hbond.Weighted>
0.0000

> <Gold.Chemscore.DEClash.Weighted>
2.0019

> <Gold.Chemscore.DEInternal.Weighted>
1.8240

> <Gold.Chemscore.Rot.Weighted>
5.2765

> <Gold.Chemscore.Internal.Correction.Weighted>
   9.000000E+99

> <Gold.Protein.RotatedTorsions>
[ 6907 6896 6895 6894 ] final   50.42 input  -60.11 | X-H torsion
[ 7974 7965 7964 7962 ] final -167.27 input  175.53 | X-H torsion
[ 8008 7997 7996 7995 ] final   74.41 input   59.86 | X-H torsion
[ 10167 10162 10161 10158 ] final  -30.25 input  -65.29 | X-H torsion
[ 10718 10713 10712 10709 ] final -111.23 input   66.30 | X-H torsion
[ 10763 10752 10751 10750 ] final  -15.68 input  -60.55 | X-H torsion
[ 11005 11000 10999 10996 ] final -108.46 input  -57.11 | X-H torsion

> <Gold.Protein.ActiveResidues>
 VAL166  LYS551  ARG553  GLY616  TRP617  ASP618  TYR619  PRO620  LYS621  CYS622 
 ASP623  PHE694  ASN695  SER759  ASP760  ASP761  ALA762  ILE779  LEU786  VAL792 
 PHE793  MET794  SER795  GLU796  ALA797  LYS798  CYS799  TRP800  GLU811  SER814 

> <Gold.Protein.RotatedAtoms>
  152.3016  134.7604  160.0356 H   0  0  0  0  0  0  0  0  0  0  0  0  # atno 6907 bound_to 6896
  151.8116  133.3377  159.3565 H   0  0  0  0  0  0  0  0  0  0  0  0  # atno 6908 bound_to 6896
  150.7276  134.5588  159.5876 H   0  0  0  0  0  0  0  0  0  0  0  0  # atno 6909 bound_to 6896
  144.7227  140.2544  143.6274 H   0  0  0  0  0  0  0  0  0  0  0  0  # atno 7974 bound_to 7965
  155.7980  140.3477  155.5386 H   0  0  0  0  0  0  0  0  0  0  0  0  # atno 8008 bound_to 7997
  155.8567  140.0965  157.1660 H   0  0  0  0  0  0  0  0  0  0  0  0  # atno 8009 bound_to 7997
  154.4010  140.1366  156.3898 H   0  0  0  0  0  0  0  0  0  0  0  0  # atno 8010 bound_to 7997
  140.7251  143.3864  151.1508 H   0  0  0  0  0  0  0  0  0  0  0  0  # atno 10167 bound_to 10162
  156.0635  130.5857  150.8346 H   0  0  0  0  0  0  0  0  0  0  0  0  # atno 10718 bound_to 10713
  153.5471  135.7012  153.5609 H   0  0  0  0  0  0  0  0  0  0  0  0  # atno 10763 bound_to 10752
  153.3549  135.3985  155.1674 H   0  0  0  0  0  0  0  0  0  0  0  0  # atno 10764 bound_to 10752
  154.8666  135.3774  154.4979 H   0  0  0  0  0  0  0  0  0  0  0  0  # atno 10765 bound_to 10752
  141.0900  133.9071  157.2097 H   0  0  0  0  0  0  0  0  0  0  0  0  # atno 11005 bound_to 11000
  145.8197  139.2038  143.1945 LP  0  0  0  0  0  0  0  0  0  0  0  0  # atno 17320 bound_to 7965
  146.0525  140.8055  142.9775 LP  0  0  0  0  0  0  0  0  0  0  0  0  # atno 17321 bound_to 7965
  139.7461  143.8849  152.3064 LP  0  0  0  0  0  0  0  0  0  0  0  0  # atno 17342 bound_to 10162
  139.8687  144.7079  150.9013 LP  0  0  0  0  0  0  0  0  0  0  0  0  # atno 17343 bound_to 10162
  157.5661  131.0946  150.9487 LP  0  0  0  0  0  0  0  0  0  0  0  0  # atno 17370 bound_to 10713
  156.9714  130.5492  149.5291 LP  0  0  0  0  0  0  0  0  0  0  0  0  # atno 17371 bound_to 10713
  139.9724  135.0124  156.9546 LP  0  0  0  0  0  0  0  0  0  0  0  0  # atno 17394 bound_to 11000
  140.5274  134.0847  155.7307 LP  0  0  0  0  0  0  0  0  0  0  0  0  # atno 17395 bound_to 11000

$$$$
