AV-unprocessed.smi:1983|AV-procd|sdf|8036|dock5
  -GOLD-   2272010233D 1   1.00000     0.00000
 Structure written by MMmdl.
 50 51  0  0  0  0  0  0  0  0  2 V2000
  143.9825  137.3453  156.3433 C   0  0  0  0  0  0  0  0  0  0  0  0
  143.7166  138.8374  156.0922 C   0  0  2  0  0  0  0  0  0  0  0  0
  142.2272  139.1275  155.8196 C   0  0  0  0  0  0  0  0  0  0  0  0
  141.9114  138.8555  154.4708 O   0  0  0  0  0  0  0  0  0  0  0  0
  144.5384  139.2845  154.9704 N   0  0  0  0  0  0  0  0  0  0  0  0
  145.8763  139.2225  154.9147 C   0  0  0  0  0  0  0  0  0  0  0  0
  146.5888  138.7988  155.8248 O   0  0  0  0  0  0  0  0  0  0  0  0
  146.3476  139.6839  153.7478 N   0  0  0  0  0  0  0  0  0  0  0  0
  147.7589  139.7211  153.3753 C   0  0  0  0  0  0  0  0  0  0  0  0
  148.6994  140.2528  154.4503 C   0  0  0  0  0  0  0  0  0  0  0  0
  149.7007  139.4509  155.0437 C   0  0  0  0  0  0  0  0  0  0  0  0
  150.5315  139.9972  156.0438 C   0  0  0  0  0  0  0  0  0  0  0  0
  150.3522  141.3423  156.4548 C   0  0  0  0  0  0  0  0  0  0  0  0
  151.1331  141.9752  157.4468 N   0  0  0  0  0  0  0  0  0  0  0  0
  151.9600  141.1390  158.3101 C   0  0  0  0  0  0  0  0  0  0  0  0
  152.9910  141.9953  159.0666 C   0  0  2  0  0  0  0  0  0  0  0  0
  153.7782  141.1703  160.0902 C   0  0  0  0  0  0  0  0  0  0  0  0
  152.3218  143.0435  159.7651 O   0  0  0  0  0  0  0  0  0  0  0  0
  151.5471  143.9130  158.9375 C   0  0  1  0  0  0  0  0  0  0  0  0
  152.4261  144.8202  158.0578 C   0  0  0  0  0  0  0  0  0  0  0  0
  150.5090  143.1025  158.1378 C   0  0  0  0  0  0  0  0  0  0  0  0
  149.3756  142.0667  155.8562 N   0  3  0  0  0  0  0  0  0  0  0  0
  148.5615  141.5835  154.8932 C   0  0  0  0  0  0  0  0  0  0  0  0
  143.4228  136.9841  157.2065 H   0  0  0  0  0  0  0  0  0  0  0  0
  145.0394  137.1624  156.5406 H   0  0  0  0  0  0  0  0  0  0  0  0
  143.6943  136.7392  155.4837 H   0  0  0  0  0  0  0  0  0  0  0  0
  144.0276  139.3896  156.9816 H   0  0  0  0  0  0  0  0  0  0  0  0
  141.5897  138.4964  156.4394 H   0  0  0  0  0  0  0  0  0  0  0  0
  141.9787  140.1633  156.0532 H   0  0  0  0  0  0  0  0  0  0  0  0
  142.6397  139.1227  153.9311 H   0  0  0  0  0  0  0  0  0  0  0  0
  144.0458  139.6514  154.1691 H   0  0  0  0  0  0  0  0  0  0  0  0
  145.6839  140.0084  153.0595 H   0  0  0  0  0  0  0  0  0  0  0  0
  148.0810  138.7233  153.0716 H   0  0  0  0  0  0  0  0  0  0  0  0
  147.8576  140.3555  152.4943 H   0  0  0  0  0  0  0  0  0  0  0  0
  149.8377  138.4221  154.7452 H   0  0  0  0  0  0  0  0  0  0  0  0
  151.2854  139.3640  156.4865 H   0  0  0  0  0  0  0  0  0  0  0  0
  151.3178  140.6075  159.0140 H   0  0  0  0  0  0  0  0  0  0  0  0
  152.4915  140.3928  157.7188 H   0  0  0  0  0  0  0  0  0  0  0  0
  153.7032  142.4206  158.3592 H   0  0  0  0  0  0  0  0  0  0  0  0
  154.3219  140.3584  159.6065 H   0  0  0  0  0  0  0  0  0  0  0  0
  153.1163  140.7319  160.8379 H   0  0  0  0  0  0  0  0  0  0  0  0
  154.5057  141.7914  160.6134 H   0  0  0  0  0  0  0  0  0  0  0  0
  151.0015  144.5692  159.6162 H   0  0  0  0  0  0  0  0  0  0  0  0
  151.8180  145.5668  157.5464 H   0  0  0  0  0  0  0  0  0  0  0  0
  152.9626  144.2621  157.2908 H   0  0  0  0  0  0  0  0  0  0  0  0
  153.1611  145.3527  158.6617 H   0  0  0  0  0  0  0  0  0  0  0  0
  149.9919  143.7688  157.4475 H   0  0  0  0  0  0  0  0  0  0  0  0
  149.7531  142.7064  158.8172 H   0  0  0  0  0  0  0  0  0  0  0  0
  147.8270  142.2757  154.5076 H   0  0  0  0  0  0  0  0  0  0  0  0
  149.2487  143.0360  156.1480 H   0  0  0  0  0  0  0  0  0  0  0  0
  1  2  1  0  0  0  0
  1 24  1  0  0  0  0
  1 25  1  0  0  0  0
  1 26  1  0  0  0  0
  2  3  1  0  0  0  0
  2  5  1  0  0  0  0
  2 27  1  0  0  0  0
  3  4  1  0  0  0  0
  3 28  1  0  0  0  0
  3 29  1  0  0  0  0
  4 30  1  0  0  0  0
  5  6  1  0  0  0  0
  5 31  1  0  0  0  0
  6  7  2  0  0  0  0
  6  8  1  0  0  0  0
  8  9  1  0  0  0  0
  8 32  1  0  0  0  0
  9 10  1  0  0  0  0
  9 33  1  0  0  0  0
  9 34  1  0  0  0  0
 10 23  1  0  0  0  0
 10 11  2  0  0  0  0
 11 12  1  0  0  0  0
 11 35  1  0  0  0  0
 12 13  2  0  0  0  0
 12 36  1  0  0  0  0
 13 14  1  0  0  0  0
 13 22  1  0  0  0  0
 14 21  1  0  0  0  0
 14 15  1  0  0  0  0
 15 16  1  0  0  0  0
 15 37  1  0  0  0  0
 15 38  1  0  0  0  0
 16 17  1  0  0  0  0
 16 18  1  0  0  0  0
 16 39  1  0  0  0  0
 17 40  1  0  0  0  0
 17 41  1  0  0  0  0
 17 42  1  0  0  0  0
 18 19  1  0  0  0  0
 19 20  1  0  0  0  0
 19 21  1  0  0  0  0
 19 43  1  0  0  0  0
 20 44  1  0  0  0  0
 20 45  1  0  0  0  0
 20 46  1  0  0  0  0
 21 47  1  0  0  0  0
 21 48  1  0  0  0  0
 22 23  2  0  0  0  0
 22 50  1  0  0  0  0
 23 49  1  0  0  0  0
M  CHG  1  22   1
M  END
> <s_m_source_file>
AV-unprocessed.smi

> <i_m_source_file_index>
1983

> <i_lp_mmshare_version>
43012

> <i_f3d_flags>
0

> <s_epik_input>
W09IXVtDSDJdW0NAQEhdKFtDSDNdKVtOSF1DKD1PKVtOSF1bQ0gyXWMxW2NIXVtjSF1jKG5bY0hdMSlOMltDSDJdW0NAQEhdKFtDSDNdKU9bQ0BASF0oW0NIM10pW0NIMl0y

> <s_epik_cmdline>
J2VwaWtfcHl0aG9uJywgJy1waCcsICc3LjAnLCAnLXRuJywgJzgnLCAnLW1hJywgJzIwMCcsICctbWV0YWxfYmluZGluZycsICctaW1hZScsICc8aW5maWxlLm1hZT4nLCAnLW9tYWUnLCAnPG91dGZpbGUubWFlPic=

> <r_lp_tautomer_probability>
0.999994

> <r_epik_Ionization_Penalty>
2.55677

> <r_epik_Ionization_Penalty_Charging>
2.55673

> <r_epik_Ionization_Penalty_Neutral>
3.71772e-05

> <r_epik_State_Penalty>
2.72571

> <r_epik_Charging_Adjusted_Penalty>
5.28244

> <i_epik_Tot_Q>
1

> <i_epik_Tot_abs_Q>
1

> <r_epik_Metal_State_Penalty>
2.73364

> <b_epik_Metal_Only>
0

> <s_lp_Force_Field>
OPLS_2005

> <r_lp_Energy>
21.0227

> <b_lp_Chiralities_Consistent>
1

> <s_lp_Variant>
AV-unprocessed.smi:1983-9

> <Gold.Version>
5.8.1

> <Gold.Id.Protein>
6NUR|6NUR_protein|mol2

> <Gold.PLP.Fitness>
49.2732

> <Gold.PLP.PLP>
-35.8088

> <Gold.PLP.part.hbond>
-4.0000

> <Gold.PLP.part.metal>
0.0000

> <Gold.PLP.part.buried>
-4.3474

> <Gold.PLP.part.nonpolar>
-28.9650

> <Gold.PLP.part.repulsive>
0.2000

> <Gold.PLP.ligand.clash>
0.0000

> <Gold.PLP.ligand.torsion>
0.8309

> <Gold.PLP.Chemscore.Hbond>
4.8960

> <Gold.PLP.Chemscore.CHOScore>
0.0000

> <Gold.PLP.Chemscore.Metal>
0.0000

> <Gold.Chemscore.Hbonds>
donor molecule, donor type, donor heavy atom, donor atom, acceptor molecule, acceptor atom, score
      L1  H     4    30       P1 10175  0.62
      L1  H     5    31       P1 10175  1.00
      L1  H     8    32       P1 10175  0.73
      L1  H    22    50       P1  8028  1.89

> <Gold.PLP.Chemscore.Internal.Correction>
0.4383

> <Gold.Rescore>
     Score         DG    S(hbond)    S(metal)    S(lipo)     H(rot)  DE(clash)    DE(int)     intcor
     19.95     -22.10       3.81        0.00      91.46       2.66       0.03       2.12       ----

> <Gold.Chemscore.Fitness>
19.9532

> <Gold.Chemscore.DG>
-22.1034

> <Gold.Chemscore.ZeroCoef>
-5.4800

> <Gold.Chemscore.Hbond>
3.8150

> <Gold.Chemscore.Metal>
0.0000

> <Gold.Chemscore.Lipo>
91.4575

> <Gold.Chemscore.Internal_Hbond>
0.0000

> <Gold.Chemscore.DEClash>
0.0341

> <Gold.Chemscore.DEInternal>
2.1161

> <Gold.Chemscore.Rot>
2.6637

> <Gold.Chemscore.Internal.Correction>
   9.000000E+99

> <Gold.Chemscore.Hbonds>
donor molecule, donor type, donor heavy atom, donor atom, acceptor molecule, acceptor atom, score
      L1  H     4    30       P1 10175  0.58
      L1  H     5    31       P1 10175  1.00
      L1  H     8    32       P1 10175  0.69
      L1  H    22    50       P1  8028  0.91

> <Gold.Chemscore.Hbond.Weighted>
-12.7420

> <Gold.Chemscore.Metal.Weighted>
-0.0000

> <Gold.Chemscore.Lipo.Weighted>
-10.7005

> <Gold.Chemscore.Internal_Hbond.Weighted>
0.0000

> <Gold.Chemscore.DEClash.Weighted>
0.0341

> <Gold.Chemscore.DEInternal.Weighted>
2.1161

> <Gold.Chemscore.Rot.Weighted>
6.8191

> <Gold.Chemscore.Internal.Correction.Weighted>
   9.000000E+99

> <Gold.Protein.RotatedTorsions>
[ 6907 6896 6895 6894 ] final -137.51 input  -60.11 | X-H torsion
[ 7974 7965 7964 7962 ] final  128.93 input  175.53 | X-H torsion
[ 8008 7997 7996 7995 ] final   66.99 input   59.86 | X-H torsion
[ 10167 10162 10161 10158 ] final    2.18 input  -65.29 | X-H torsion
[ 10718 10713 10712 10709 ] final   89.41 input   66.30 | X-H torsion
[ 10763 10752 10751 10750 ] final -151.01 input  -60.55 | X-H torsion
[ 11005 11000 10999 10996 ] final  163.09 input  -57.11 | X-H torsion

> <Gold.Protein.ActiveResidues>
 VAL166  LYS551  ARG553  GLY616  TRP617  ASP618  TYR619  PRO620  LYS621  CYS622 
 ASP623  PHE694  ASN695  SER759  ASP760  ASP761  ALA762  ILE779  LEU786  VAL792 
 PHE793  MET794  SER795  GLU796  ALA797  LYS798  CYS799  TRP800  GLU811  SER814 

> <Gold.Protein.RotatedAtoms>
  151.0233  133.5856  159.2668 H   0  0  0  0  0  0  0  0  0  0  0  0  # atno 6907 bound_to 6896
  151.2965  135.0756  159.9233 H   0  0  0  0  0  0  0  0  0  0  0  0  # atno 6908 bound_to 6896
  152.5328  133.9923  159.7910 H   0  0  0  0  0  0  0  0  0  0  0  0  # atno 6909 bound_to 6896
  145.0342  139.4020  143.5135 H   0  0  0  0  0  0  0  0  0  0  0  0  # atno 7974 bound_to 7965
  155.6860  140.3496  155.4874 H   0  0  0  0  0  0  0  0  0  0  0  0  # atno 8008 bound_to 7997
  155.9566  140.1129  157.0954 H   0  0  0  0  0  0  0  0  0  0  0  0  # atno 8009 bound_to 7997
  154.4133  140.1184  156.5109 H   0  0  0  0  0  0  0  0  0  0  0  0  # atno 8010 bound_to 7997
  140.6647  143.7210  150.7805 H   0  0  0  0  0  0  0  0  0  0  0  0  # atno 10167 bound_to 10162
  157.6955  131.0332  150.3422 H   0  0  0  0  0  0  0  0  0  0  0  0  # atno 10718 bound_to 10713
  154.8084  135.3270  154.7370 H   0  0  0  0  0  0  0  0  0  0  0  0  # atno 10763 bound_to 10752
  153.8024  135.6902  153.4858 H   0  0  0  0  0  0  0  0  0  0  0  0  # atno 10764 bound_to 10752
  153.1845  135.4574  155.0017 H   0  0  0  0  0  0  0  0  0  0  0  0  # atno 10765 bound_to 10752
  140.2323  134.8115  157.3329 H   0  0  0  0  0  0  0  0  0  0  0  0  # atno 11005 bound_to 11000
  146.3502  139.9908  142.8686 LP  0  0  0  0  0  0  0  0  0  0  0  0  # atno 17320 bound_to 7965
  145.1732  140.9731  143.4310 LP  0  0  0  0  0  0  0  0  0  0  0  0  # atno 17321 bound_to 7965
  140.0885  143.4900  152.2491 LP  0  0  0  0  0  0  0  0  0  0  0  0  # atno 17342 bound_to 10162
  139.5892  144.7543  151.3443 LP  0  0  0  0  0  0  0  0  0  0  0  0  # atno 17343 bound_to 10162
  156.3881  130.3893  149.7050 LP  0  0  0  0  0  0  0  0  0  0  0  0  # atno 17370 bound_to 10713
  156.4410  130.7861  151.2882 LP  0  0  0  0  0  0  0  0  0  0  0  0  # atno 17371 bound_to 10713
  140.1738  134.4575  155.7815 LP  0  0  0  0  0  0  0  0  0  0  0  0  # atno 17394 bound_to 11000
  141.2217  133.6953  156.7753 LP  0  0  0  0  0  0  0  0  0  0  0  0  # atno 17395 bound_to 11000

$$$$
