AV-unprocessed.smi:415|AV-procd|sdf|2521|dock6
  -GOLD-   2262022473D 1   1.00000     0.00000
 Structure written by MMmdl.
 53 54  0  0  0  0  0  0  0  0  1 V2000
  143.3371  139.5776  156.3275 C   0  0  0  0  0  0  0  0  0  0  0  0
  144.2283  140.5573  155.8241 O   0  0  0  0  0  0  0  0  0  0  0  0
  145.1838  140.9683  156.7865 C   0  0  0  0  0  0  0  0  0  0  0  0
  146.0375  142.0940  156.1842 C   0  0  0  0  0  0  0  0  0  0  0  0
  147.3917  141.6707  155.8863 N   0  0  0  0  0  0  0  0  0  0  0  0
  147.9755  141.8013  154.6295 C   0  0  0  0  0  0  0  0  0  0  0  0
  147.2560  142.3754  153.5968 N   0  0  0  0  0  0  0  0  0  0  0  0
  149.2418  141.3906  154.3951 C   0  0  0  0  0  0  0  0  0  0  0  0
  150.0650  140.7990  155.4406 C   0  0  0  0  0  0  0  0  0  0  0  0
  151.2119  140.3975  155.2412 O   0  0  0  0  0  0  0  0  0  0  0  0
  149.4631  140.7058  156.7166 N   0  0  0  0  0  0  0  0  0  0  0  0
  150.2368  140.1091  157.8278 C   0  0  0  0  0  0  0  0  0  0  0  0
  151.6065  140.7707  158.0411 C   0  0  0  0  0  0  0  0  0  0  0  0
  152.6504  140.1362  157.8812 O   0  0  0  0  0  0  0  0  0  0  0  0
  151.5793  142.0644  158.3939 N   0  0  0  0  0  0  0  0  0  0  0  0
  152.7507  142.9036  158.6511 C   0  0  1  0  0  0  0  0  0  0  0  0
  152.4097  144.3936  158.4512 C   0  0  0  0  0  0  0  0  0  0  0  0
  151.4752  144.9167  159.5511 C   0  0  0  0  0  0  0  0  0  0  0  0
  152.0747  144.6712  160.9420 C   0  0  0  0  0  0  0  0  0  0  0  0
  152.4009  143.1822  161.1815 C   0  0  2  0  0  0  0  0  0  0  0  0
  152.9865  142.9994  162.5931 C   0  0  0  0  0  0  0  0  0  0  0  0
  153.3334  142.6365  160.0636 C   0  0  1  0  0  0  0  0  0  0  0  0
  153.6914  141.1473  160.2469 C   0  0  0  0  0  0  0  0  0  0  0  0
  148.1392  141.1341  156.9658 C   0  0  0  0  0  0  0  0  0  0  0  0
  147.6560  141.0365  158.0976 O   0  0  0  0  0  0  0  0  0  0  0  0
  142.6270  139.2950  155.5504 H   0  0  0  0  0  0  0  0  0  0  0  0
  142.7712  139.9590  157.1784 H   0  0  0  0  0  0  0  0  0  0  0  0
  143.8720  138.6786  156.6368 H   0  0  0  0  0  0  0  0  0  0  0  0
  144.6782  141.3216  157.6867 H   0  0  0  0  0  0  0  0  0  0  0  0
  145.8122  140.1229  157.0713 H   0  0  0  0  0  0  0  0  0  0  0  0
  145.5997  142.5006  155.2707 H   0  0  0  0  0  0  0  0  0  0  0  0
  146.1080  142.9430  156.8632 H   0  0  0  0  0  0  0  0  0  0  0  0
  146.3105  142.7069  153.7251 H   0  0  0  0  0  0  0  0  0  0  0  0
  147.6568  142.5116  152.6799 H   0  0  0  0  0  0  0  0  0  0  0  0
  149.6655  141.5015  153.4071 H   0  0  0  0  0  0  0  0  0  0  0  0
  149.6870  140.1575  158.7686 H   0  0  0  0  0  0  0  0  0  0  0  0
  150.3813  139.0396  157.6638 H   0  0  0  0  0  0  0  0  0  0  0  0
  150.6768  142.5059  158.4959 H   0  0  0  0  0  0  0  0  0  0  0  0
  153.5224  142.6388  157.9254 H   0  0  0  0  0  0  0  0  0  0  0  0
  153.3318  144.9761  158.4597 H   0  0  0  0  0  0  0  0  0  0  0  0
  151.9607  144.5550  157.4705 H   0  0  0  0  0  0  0  0  0  0  0  0
  151.2955  145.9825  159.4080 H   0  0  0  0  0  0  0  0  0  0  0  0
  150.5025  144.4287  159.4772 H   0  0  0  0  0  0  0  0  0  0  0  0
  152.9807  145.2682  161.0545 H   0  0  0  0  0  0  0  0  0  0  0  0
  151.3776  145.0271  161.7015 H   0  0  0  0  0  0  0  0  0  0  0  0
  151.4621  142.6275  161.1459 H   0  0  0  0  0  0  0  0  0  0  0  0
  153.9664  143.4696  162.6806 H   0  0  0  0  0  0  0  0  0  0  0  0
  153.0939  141.9468  162.8534 H   0  0  0  0  0  0  0  0  0  0  0  0
  152.3371  143.4460  163.3465 H   0  0  0  0  0  0  0  0  0  0  0  0
  154.2706  143.1922  160.1242 H   0  0  0  0  0  0  0  0  0  0  0  0
  152.7999  140.5252  160.3312 H   0  0  0  0  0  0  0  0  0  0  0  0
  154.2948  140.9859  161.1397 H   0  0  0  0  0  0  0  0  0  0  0  0
  154.2738  140.7794  159.4018 H   0  0  0  0  0  0  0  0  0  0  0  0
  1  2  1  0  0  0  0
  1 26  1  0  0  0  0
  1 27  1  0  0  0  0
  1 28  1  0  0  0  0
  2  3  1  0  0  0  0
  3  4  1  0  0  0  0
  3 29  1  0  0  0  0
  3 30  1  0  0  0  0
  4  5  1  0  0  0  0
  4 31  1  0  0  0  0
  4 32  1  0  0  0  0
  5 24  1  0  0  0  0
  5  6  1  0  0  0  0
  6  7  1  0  0  0  0
  6  8  2  0  0  0  0
  7 33  1  0  0  0  0
  7 34  1  0  0  0  0
  8  9  1  0  0  0  0
  8 35  1  0  0  0  0
  9 10  2  0  0  0  0
  9 11  1  0  0  0  0
 11 12  1  0  0  0  0
 11 24  1  0  0  0  0
 12 13  1  0  0  0  0
 12 36  1  0  0  0  0
 12 37  1  0  0  0  0
 13 14  2  0  0  0  0
 13 15  1  0  0  0  0
 15 16  1  0  0  0  0
 15 38  1  0  0  0  0
 16 22  1  0  0  0  0
 16 17  1  0  0  0  0
 16 39  1  0  0  0  0
 17 18  1  0  0  0  0
 17 40  1  0  0  0  0
 17 41  1  0  0  0  0
 18 19  1  0  0  0  0
 18 42  1  0  0  0  0
 18 43  1  0  0  0  0
 19 20  1  0  0  0  0
 19 44  1  0  0  0  0
 19 45  1  0  0  0  0
 20 21  1  0  0  0  0
 20 22  1  0  0  0  0
 20 46  1  0  0  0  0
 21 47  1  0  0  0  0
 21 48  1  0  0  0  0
 21 49  1  0  0  0  0
 22 23  1  0  0  0  0
 22 50  1  0  0  0  0
 23 51  1  0  0  0  0
 23 52  1  0  0  0  0
 23 53  1  0  0  0  0
 24 25  2  0  0  0  0
M  END
> <s_m_source_file>
AV-unprocessed.smi

> <i_m_source_file_index>
415

> <i_lp_mmshare_version>
43012

> <i_f3d_flags>
0

> <s_epik_input>
W0NIM11PW0NIMl1bQ0gyXW4xYyhbTkgyXSlbY0hdYyg9TyluKGMxPU8pW0NIMl1DKD1PKVtOSF1bQ0BASF0yW0NIMl1bQ0gyXVtDSDJdW0NAQEhdKFtDSDNdKVtDQEhdMltDSDNd

> <s_epik_cmdline>
J2VwaWtfcHl0aG9uJywgJy1waCcsICc3LjAnLCAnLXRuJywgJzgnLCAnLW1hJywgJzIwMCcsICctbWV0YWxfYmluZGluZycsICctaW1hZScsICc8aW5maWxlLm1hZT4nLCAnLW9tYWUnLCAnPG91dGZpbGUubWFlPic=

> <r_lp_tautomer_probability>
1

> <r_epik_Ionization_Penalty>
8.6647e-06

> <r_epik_Ionization_Penalty_Charging>
1.81162e-08

> <r_epik_Ionization_Penalty_Neutral>
8.64658e-06

> <r_epik_State_Penalty>
-0

> <r_epik_Charging_Adjusted_Penalty>
1.81162e-08

> <i_epik_Tot_Q>
0

> <i_epik_Tot_abs_Q>
0

> <r_epik_Metal_State_Penalty>
-0

> <b_epik_Metal_Only>
0

> <s_lp_Force_Field>
OPLS_2005

> <r_lp_Energy>
19.0862

> <b_lp_Chiralities_Consistent>
1

> <s_lp_Variant>
AV-unprocessed.smi:415-4

> <Gold.Version>
5.8.1

> <Gold.Id.Protein>
6NUR|6NUR_protein|mol2

> <Gold.PLP.Fitness>
54.7950

> <Gold.PLP.PLP>
-50.3727

> <Gold.PLP.part.hbond>
-3.0000

> <Gold.PLP.part.metal>
0.0000

> <Gold.PLP.part.buried>
-5.5659

> <Gold.PLP.part.nonpolar>
-41.7918

> <Gold.PLP.part.repulsive>
0.3387

> <Gold.PLP.ligand.clash>
0.0000

> <Gold.PLP.ligand.torsion>
0.7230

> <Gold.PLP.Chemscore.Hbond>
1.9360

> <Gold.PLP.Chemscore.CHOScore>
0.0000

> <Gold.PLP.Chemscore.Metal>
0.0000

> <Gold.Chemscore.Hbonds>
donor molecule, donor type, donor heavy atom, donor atom, acceptor molecule, acceptor atom, score
      P1  H  7989  7998       L1    10  0.99
      P1  H  7997  8010       L1    14  0.82

> <Gold.PLP.Chemscore.Internal.Correction>
0.0602

> <Gold.Rescore>
     Score         DG    S(hbond)    S(metal)    S(lipo)     H(rot)  DE(clash)    DE(int)     intcor
     14.36     -18.52       1.94        0.00     105.55       2.26       0.01       4.15       ----

> <Gold.Chemscore.Fitness>
14.3611

> <Gold.Chemscore.DG>
-18.5240

> <Gold.Chemscore.ZeroCoef>
-5.4800

> <Gold.Chemscore.Hbond>
1.9436

> <Gold.Chemscore.Metal>
0.0000

> <Gold.Chemscore.Lipo>
105.5507

> <Gold.Chemscore.Internal_Hbond>
0.0000

> <Gold.Chemscore.DEClash>
0.0093

> <Gold.Chemscore.DEInternal>
4.1536

> <Gold.Chemscore.Rot>
2.2645

> <Gold.Chemscore.Internal.Correction>
   9.000000E+99

> <Gold.Chemscore.Hbonds>
donor molecule, donor type, donor heavy atom, donor atom, acceptor molecule, acceptor atom, score
      P1  H  7989  7998       L1    10  0.56
      P1  H  7997  8010       L1    14  0.78

> <Gold.Chemscore.Hbond.Weighted>
-6.4917

> <Gold.Chemscore.Metal.Weighted>
-0.0000

> <Gold.Chemscore.Lipo.Weighted>
-12.3494

> <Gold.Chemscore.Internal_Hbond.Weighted>
0.0000

> <Gold.Chemscore.DEClash.Weighted>
0.0093

> <Gold.Chemscore.DEInternal.Weighted>
4.1536

> <Gold.Chemscore.Rot.Weighted>
5.7972

> <Gold.Chemscore.Internal.Correction.Weighted>
   9.000000E+99

> <Gold.Protein.RotatedTorsions>
[ 6907 6896 6895 6894 ] final -122.03 input  -60.11 | X-H torsion
[ 7974 7965 7964 7962 ] final  -62.72 input  175.53 | X-H torsion
[ 8008 7997 7996 7995 ] final   55.00 input   59.86 | X-H torsion
[ 10167 10162 10161 10158 ] final  -48.24 input  -65.29 | X-H torsion
[ 10718 10713 10712 10709 ] final   -0.24 input   66.30 | X-H torsion
[ 10763 10752 10751 10750 ] final  -43.00 input  -60.55 | X-H torsion
[ 11005 11000 10999 10996 ] final  -98.16 input  -57.11 | X-H torsion

> <Gold.Protein.ActiveResidues>
 VAL166  LYS551  ARG553  GLY616  TRP617  ASP618  TYR619  PRO620  LYS621  CYS622 
 ASP623  PHE694  ASN695  SER759  ASP760  ASP761  ALA762  ILE779  LEU786  VAL792 
 PHE793  MET794  SER795  GLU796  ALA797  LYS798  CYS799  TRP800  GLU811  SER814 

> <Gold.Protein.RotatedAtoms>
  150.8538  133.7746  159.3015 H   0  0  0  0  0  0  0  0  0  0  0  0  # atno 6907 bound_to 6896
  151.5410  135.1067  159.9936 H   0  0  0  0  0  0  0  0  0  0  0  0  # atno 6908 bound_to 6896
  152.4574  133.7707  159.6853 H   0  0  0  0  0  0  0  0  0  0  0  0  # atno 6909 bound_to 6896
  145.7879  140.8726  143.0296 H   0  0  0  0  0  0  0  0  0  0  0  0  # atno 7974 bound_to 7965
  155.4940  140.3472  155.4360 H   0  0  0  0  0  0  0  0  0  0  0  0  # atno 8008 bound_to 7997
  156.0958  140.1422  156.9561 H   0  0  0  0  0  0  0  0  0  0  0  0  # atno 8009 bound_to 7997
  154.4662  140.0916  156.7005 H   0  0  0  0  0  0  0  0  0  0  0  0  # atno 8010 bound_to 7997
  140.6739  143.2748  151.4043 H   0  0  0  0  0  0  0  0  0  0  0  0  # atno 10167 bound_to 10162
  156.8234  130.5464  149.5694 H   0  0  0  0  0  0  0  0  0  0  0  0  # atno 10718 bound_to 10713
  153.9884  135.6708  153.4753 H   0  0  0  0  0  0  0  0  0  0  0  0  # atno 10763 bound_to 10752
  153.0716  135.4971  154.8314 H   0  0  0  0  0  0  0  0  0  0  0  0  # atno 10764 bound_to 10752
  154.7124  135.3100  154.9139 H   0  0  0  0  0  0  0  0  0  0  0  0  # atno 10765 bound_to 10752
  141.1354  133.8224  157.0802 H   0  0  0  0  0  0  0  0  0  0  0  0  # atno 11005 bound_to 11000
  144.6786  140.0081  143.7484 LP  0  0  0  0  0  0  0  0  0  0  0  0  # atno 17320 bound_to 7965
  146.0007  139.3089  143.0929 LP  0  0  0  0  0  0  0  0  0  0  0  0  # atno 17321 bound_to 7965
  139.6022  144.1272  152.2210 LP  0  0  0  0  0  0  0  0  0  0  0  0  # atno 17342 bound_to 10162
  140.0660  144.5818  150.7227 LP  0  0  0  0  0  0  0  0  0  0  0  0  # atno 17343 bound_to 10162
  156.0975  130.5944  150.9839 LP  0  0  0  0  0  0  0  0  0  0  0  0  # atno 17370 bound_to 10713
  157.6445  131.0906  150.8183 LP  0  0  0  0  0  0  0  0  0  0  0  0  # atno 17371 bound_to 10713
  140.0456  134.9832  157.1043 LP  0  0  0  0  0  0  0  0  0  0  0  0  # atno 17394 bound_to 11000
  140.4068  134.2024  155.7163 LP  0  0  0  0  0  0  0  0  0  0  0  0  # atno 17395 bound_to 11000

$$$$
