#       Name:                AV-unprocessed.smi:3118
#       Creating user name   scv26
#       Creation time:       Fri Mar 27 17:27:49 2020


#       File generated by GOLD software.
#

@<TRIPOS>MOLECULE
AV-unprocessed.smi:3118
    35    36     1
SMALL
NO_CHARGES


@<TRIPOS>ATOM
      1 ****         0.3188  -2.5669   1.7893 C.3            1 S1                 0.0000
      2 ****         0.5437  -1.7419   0.5132 C.3            1 S1                 0.0000
      3 ****         2.0212  -1.7641   0.0779 C.3            1 S1                 0.0000
      4 ****         2.2269  -1.1104  -1.2016 N.pl3          1 S1                 0.0000
      5 ****         1.9346  -1.6213  -2.4590 C.2            1 S1                 0.0000
      6 ****         2.2922  -0.6528  -3.3696 C.2            1 S1                 0.0000
      7 ****         2.8061   0.4546  -2.6989 N.2            1 S1                 0.0000
      8 ****         2.7372   0.1095  -1.4199 C.2            1 S1                 0.0000
      9 ****         0.1062  -0.3641   0.7289 N.am           1 S1                 0.0000
     10 ****        -1.1277   0.1077   0.4962 C.2            1 S1                 0.0000
     11 ****        -2.0550  -0.5946   0.0912 O.2            1 S1                 0.0000
     12 ****        -1.3338   1.6041   0.7641 C.3            1 S1                 0.0000
     13 ****        -2.5824   1.9426   1.5979 C.3            1 S1                 0.0000
     14 ****        -2.8730   3.0858   0.6211 C.3            1 S1                 0.0000
     15 ****        -1.9775   2.3778  -0.3999 C.3            1 S1                 0.0000
     16 ****         0.6223  -3.6038   1.6432 H              1 S1                 0.0000
     17 ****        -0.7332  -2.5715   2.0764 H              1 S1                 0.0000
     18 ****         0.8913  -2.1673   2.6271 H              1 S1                 0.0000
     19 ****        -0.0485  -2.1909  -0.2866 H              1 S1                 0.0000
     20 ****         2.6524  -1.2842   0.8274 H              1 S1                 0.0000
     21 ****         2.3714  -2.7931  -0.0127 H              1 S1                 0.0000
     22 ****         1.5052  -2.6026  -2.5974 H              1 S1                 0.0000
     23 ****         2.2197  -0.6676  -4.4470 H              1 S1                 0.0000
     24 ****         3.0616   0.7620  -0.6226 H              1 S1                 0.0000
     25 ****         0.8024   0.2858   1.0645 H              1 S1                 0.0000
     26 ****        -0.4411   2.1062   1.1425 H              1 S1                 0.0000
     27 ****        -3.3555   1.1723   1.5851 H              1 S1                 0.0000
     28 ****        -2.3683   2.2724   2.6149 H              1 S1                 0.0000
     29 ****        -3.9180   3.1772   0.3240 H              1 S1                 0.0000
     30 ****        -2.4603   4.0395   0.9535 H              1 S1                 0.0000
     31 ****        -1.2955   3.0439  -0.9292 H              1 S1                 0.0000
     32 ****        -2.5437   1.7550  -1.0950 H              1 S1                 0.0000
     33 ****         3.1471   1.3095  -3.0899 LP             1 S1                 0.0000
     34 ****        -1.9065  -1.5685  -0.0805 LP             1 S1                 0.0000
     35 ****        -2.9563  -0.1909  -0.0659 LP             1 S1                 0.0000
@<TRIPOS>BOND
    1    1    2 1     
    2    1   16 1     
    3    1   17 1     
    4    1   18 1     
    5    2    3 1     
    6    2    9 1     
    7    2   19 1     
    8    3    4 1     
    9    3   20 1     
   10    3   21 1     
   11    4    8 1     
   12    4    5 1     
   13    5    6 2     
   14    5   22 1     
   15    6    7 1     
   16    6   23 1     
   17    7    8 2     
   18    8   24 1     
   19    9   10 am    
   20    9   25 1     
   21   10   11 2     
   22   10   12 1     
   23   12   15 1     
   24   12   13 1     
   25   12   26 1     
   26   13   14 1     
   27   13   27 1     
   28   13   28 1     
   29   14   15 1     
   30   14   29 1     
   31   14   30 1     
   32   15   31 1     
   33   15   32 1     
   34    7   33 1     
   35   11   34 1     
   36   11   35 1     
@<TRIPOS>SUBSTRUCTURE
      1 S1             1
@<TRIPOS>SET
LONE_PAIRS      STATIC     ATOMS    <user>   **** ""
3 33 34 35
DONOR_HYDROGENS      STATIC     ATOMS    <user>   **** ""
1 25
ATOM$BLUE        STATIC     ATOMS    COLORGROUP SYSTEM
3 33 34 35
ATOM$RED        STATIC     ATOMS    COLORGROUP SYSTEM
1 25
