AV-unprocessed.smi:722|AV-procd|sdf|3504|dock7
  -GOLD-   22720 0503D 1   1.00000     0.00000
 Structure written by MMmdl.
 38 39  0  0  0  0  0  0  0  0  1 V2000
  154.2992  134.8499  162.0694 C   0  0  0  0  0  0  0  0  0  0  0  0
  154.0476  136.2155  161.5169 C   0  0  0  0  0  0  0  0  0  0  0  0
  153.4335  136.4378  160.3525 N   0  0  0  0  0  0  0  0  0  0  0  0
  153.4071  137.8076  160.2088 N   0  0  0  0  0  0  0  0  0  0  0  0
  154.0054  138.2919  161.2993 C   0  0  0  0  0  0  0  0  0  0  0  0
  154.2432  140.0111  161.5926 S   0  0  0  0  0  0  0  0  0  0  0  0
  153.0691  140.6172  160.3517 C   0  0  0  0  0  0  0  0  0  0  0  0
  153.5146  141.9634  159.7665 C   0  0  0  0  0  0  0  0  0  0  0  0
  152.3563  142.9622  159.6010 C   0  0  0  0  0  0  0  0  0  0  0  0
  152.6689  144.1497  158.6831 C   0  0  0  0  0  0  0  0  0  0  0  0
  151.6717  145.2458  159.0789 C   0  0  0  0  0  0  0  0  0  0  0  0
  151.1544  144.8774  160.4776 C   0  0  0  0  0  0  0  0  0  0  0  0
  151.9431  143.6381  160.9099 C   0  0  0  0  0  0  0  0  0  0  0  0
  154.4271  137.3404  162.1575 N   0  0  0  0  0  0  0  0  0  0  0  0
  155.1218  137.4914  163.4299 C   0  0  0  0  0  0  0  0  0  0  0  0
  154.3149  136.8822  164.5793 C   0  0  0  0  0  0  0  0  0  0  0  0
  154.8452  136.9556  165.8027 N   0  0  0  0  0  0  0  0  0  0  0  0
  153.2302  136.3450  164.3654 O   0  0  0  0  0  0  0  0  0  0  0  0
  153.9853  134.0864  161.3571 H   0  0  0  0  0  0  0  0  0  0  0  0
  153.7399  134.7105  162.9947 H   0  0  0  0  0  0  0  0  0  0  0  0
  155.3613  134.7139  162.2738 H   0  0  0  0  0  0  0  0  0  0  0  0
  152.9868  139.8717  159.5607 H   0  0  0  0  0  0  0  0  0  0  0  0
  152.0838  140.7064  160.8102 H   0  0  0  0  0  0  0  0  0  0  0  0
  154.2718  142.3992  160.4194 H   0  0  0  0  0  0  0  0  0  0  0  0
  153.9993  141.8006  158.8030 H   0  0  0  0  0  0  0  0  0  0  0  0
  151.4857  142.4371  159.2039 H   0  0  0  0  0  0  0  0  0  0  0  0
  153.6846  144.5033  158.8659 H   0  0  0  0  0  0  0  0  0  0  0  0
  152.5976  143.8908  157.6263 H   0  0  0  0  0  0  0  0  0  0  0  0
  152.1464  146.2276  159.0698 H   0  0  0  0  0  0  0  0  0  0  0  0
  150.8412  145.2792  158.3726 H   0  0  0  0  0  0  0  0  0  0  0  0
  151.2683  145.6964  161.1883 H   0  0  0  0  0  0  0  0  0  0  0  0
  150.0916  144.6389  160.4224 H   0  0  0  0  0  0  0  0  0  0  0  0
  151.3621  142.9793  161.5562 H   0  0  0  0  0  0  0  0  0  0  0  0
  152.8301  143.9475  161.4649 H   0  0  0  0  0  0  0  0  0  0  0  0
  156.1061  137.0270  163.3557 H   0  0  0  0  0  0  0  0  0  0  0  0
  155.2928  138.5493  163.6292 H   0  0  0  0  0  0  0  0  0  0  0  0
  154.3480  136.5710  166.5932 H   0  0  0  0  0  0  0  0  0  0  0  0
  155.7423  137.4002  165.9336 H   0  0  0  0  0  0  0  0  0  0  0  0
  1  2  1  0  0  0  0
  1 19  1  0  0  0  0
  1 20  1  0  0  0  0
  1 21  1  0  0  0  0
  2 14  1  0  0  0  0
  2  3  2  0  0  0  0
  3  4  1  0  0  0  0
  4  5  2  0  0  0  0
  5  6  1  0  0  0  0
  5 14  1  0  0  0  0
  6  7  1  0  0  0  0
  7  8  1  0  0  0  0
  7 22  1  0  0  0  0
  7 23  1  0  0  0  0
  8  9  1  0  0  0  0
  8 24  1  0  0  0  0
  8 25  1  0  0  0  0
  9 13  1  0  0  0  0
  9 10  1  0  0  0  0
  9 26  1  0  0  0  0
 10 11  1  0  0  0  0
 10 27  1  0  0  0  0
 10 28  1  0  0  0  0
 11 12  1  0  0  0  0
 11 29  1  0  0  0  0
 11 30  1  0  0  0  0
 12 13  1  0  0  0  0
 12 31  1  0  0  0  0
 12 32  1  0  0  0  0
 13 33  1  0  0  0  0
 13 34  1  0  0  0  0
 14 15  1  0  0  0  0
 15 16  1  0  0  0  0
 15 35  1  0  0  0  0
 15 36  1  0  0  0  0
 16 17  1  0  0  0  0
 16 18  2  0  0  0  0
 17 37  1  0  0  0  0
 17 38  1  0  0  0  0
M  END
> <s_m_source_file>
AV-unprocessed.smi

> <i_m_source_file_index>
722

> <i_lp_mmshare_version>
43012

> <i_f3d_flags>
0

> <s_epik_input>
W0NIM11jMW5uYyhuMVtDSDJdQyg9TylbTkgyXSlTW0NIMl1bQ0gyXVtDSF0yW0NIMl1bQ0gyXVtDSDJdW0NIMl0y

> <s_epik_cmdline>
J2VwaWtfcHl0aG9uJywgJy1waCcsICc3LjAnLCAnLXRuJywgJzgnLCAnLW1hJywgJzIwMCcsICctbWV0YWxfYmluZGluZycsICctaW1hZScsICc8aW5maWxlLm1hZT4nLCAnLW9tYWUnLCAnPG91dGZpbGUubWFlPic=

> <r_lp_tautomer_probability>
1

> <r_epik_Ionization_Penalty>
8.38536e-06

> <r_epik_Ionization_Penalty_Charging>
0

> <r_epik_Ionization_Penalty_Neutral>
8.38536e-06

> <r_epik_State_Penalty>
-0

> <r_epik_Charging_Adjusted_Penalty>
0

> <i_epik_Tot_Q>
0

> <i_epik_Tot_abs_Q>
0

> <r_epik_Metal_State_Penalty>
-0

> <b_epik_Metal_Only>
0

> <s_lp_Force_Field>
OPLS_2005

> <r_lp_Energy>
19.4661

> <b_lp_Chiralities_Consistent>
1

> <s_lp_Variant>
AV-unprocessed.smi:722-1

> <Gold.Version>
5.8.1

> <Gold.Id.Protein>
6NUR|6NUR_protein|mol2

> <Gold.PLP.Fitness>
43.5405

> <Gold.PLP.PLP>
-42.2066

> <Gold.PLP.part.hbond>
-1.9527

> <Gold.PLP.part.metal>
0.0000

> <Gold.PLP.part.buried>
-5.8178

> <Gold.PLP.part.nonpolar>
-34.3509

> <Gold.PLP.part.repulsive>
0.1919

> <Gold.PLP.ligand.clash>
0.0000

> <Gold.PLP.ligand.torsion>
0.8331

> <Gold.PLP.Chemscore.Hbond>
0.9913

> <Gold.PLP.Chemscore.CHOScore>
0.0000

> <Gold.PLP.Chemscore.Metal>
0.0000

> <Gold.Chemscore.Hbonds>
donor molecule, donor type, donor heavy atom, donor atom, acceptor molecule, acceptor atom, score
      P1  H  6896  6908       L1     3  1.00

> <Gold.PLP.Chemscore.Internal.Correction>
0.0262

> <Gold.Rescore>
     Score         DG    S(hbond)    S(metal)    S(lipo)     H(rot)  DE(clash)    DE(int)     intcor
     12.84     -13.67       0.97        0.00     100.55       2.66       0.05       0.78       ----

> <Gold.Chemscore.Fitness>
12.8423

> <Gold.Chemscore.DG>
-13.6705

> <Gold.Chemscore.ZeroCoef>
-5.4800

> <Gold.Chemscore.Hbond>
0.9675

> <Gold.Chemscore.Metal>
0.0000

> <Gold.Chemscore.Lipo>
100.5486

> <Gold.Chemscore.Internal_Hbond>
0.0000

> <Gold.Chemscore.DEClash>
0.0529

> <Gold.Chemscore.DEInternal>
0.7754

> <Gold.Chemscore.Rot>
2.6583

> <Gold.Chemscore.Internal.Correction>
   9.000000E+99

> <Gold.Chemscore.Hbonds>
donor molecule, donor type, donor heavy atom, donor atom, acceptor molecule, acceptor atom, score
      P1  H  6896  6908       L1     3  0.54

> <Gold.Chemscore.Hbond.Weighted>
-3.2315

> <Gold.Chemscore.Metal.Weighted>
-0.0000

> <Gold.Chemscore.Lipo.Weighted>
-11.7642

> <Gold.Chemscore.Internal_Hbond.Weighted>
0.0000

> <Gold.Chemscore.DEClash.Weighted>
0.0529

> <Gold.Chemscore.DEInternal.Weighted>
0.7754

> <Gold.Chemscore.Rot.Weighted>
6.8052

> <Gold.Chemscore.Internal.Correction.Weighted>
   9.000000E+99

> <Gold.Protein.RotatedTorsions>
[ 6907 6896 6895 6894 ] final  -78.36 input  -60.11 | X-H torsion
[ 7974 7965 7964 7962 ] final -108.98 input  175.53 | X-H torsion
[ 8008 7997 7996 7995 ] final  -23.47 input   59.86 | X-H torsion
[ 10167 10162 10161 10158 ] final  172.92 input  -65.29 | X-H torsion
[ 10718 10713 10712 10709 ] final   -3.97 input   66.30 | X-H torsion
[ 10763 10752 10751 10750 ] final   58.06 input  -60.55 | X-H torsion
[ 11005 11000 10999 10996 ] final  162.64 input  -57.11 | X-H torsion

> <Gold.Protein.ActiveResidues>
 VAL166  LYS551  ARG553  GLY616  TRP617  ASP618  TYR619  PRO620  LYS621  CYS622 
 ASP623  PHE694  ASN695  SER759  ASP760  ASP761  ALA762  ILE779  LEU786  VAL792 
 PHE793  MET794  SER795  GLU796  ALA797  LYS798  CYS799  TRP800  GLU811  SER814 

> <Gold.Protein.RotatedAtoms>
  150.6975  134.4283  159.5236 H   0  0  0  0  0  0  0  0  0  0  0  0  # atno 6907 bound_to 6896
  152.2014  134.8581  160.0516 H   0  0  0  0  0  0  0  0  0  0  0  0  # atno 6908 bound_to 6896
  151.9500  133.3628  159.4033 H   0  0  0  0  0  0  0  0  0  0  0  0  # atno 6909 bound_to 6896
  145.1862  140.8994  143.3451 H   0  0  0  0  0  0  0  0  0  0  0  0  # atno 7974 bound_to 7965
  154.4583  140.1980  156.0315 H   0  0  0  0  0  0  0  0  0  0  0  0  # atno 8008 bound_to 7997
  156.0791  140.3274  155.7643 H   0  0  0  0  0  0  0  0  0  0  0  0  # atno 8009 bound_to 7997
  155.5141  140.0564  157.2909 H   0  0  0  0  0  0  0  0  0  0  0  0  # atno 8010 bound_to 7997
  139.5091  144.3320  152.0102 H   0  0  0  0  0  0  0  0  0  0  0  0  # atno 10167 bound_to 10162
  156.7681  130.5291  149.5772 H   0  0  0  0  0  0  0  0  0  0  0  0  # atno 10718 bound_to 10713
  152.9862  135.5620  154.5491 H   0  0  0  0  0  0  0  0  0  0  0  0  # atno 10763 bound_to 10752
  154.4931  135.2793  155.1483 H   0  0  0  0  0  0  0  0  0  0  0  0  # atno 10764 bound_to 10752
  154.2944  135.6320  153.5451 H   0  0  0  0  0  0  0  0  0  0  0  0  # atno 10765 bound_to 10752
  140.2278  134.8147  157.3286 H   0  0  0  0  0  0  0  0  0  0  0  0  # atno 11005 bound_to 11000
  145.0087  139.3530  143.6131 LP  0  0  0  0  0  0  0  0  0  0  0  0  # atno 17320 bound_to 7965
  146.3444  139.9340  142.8750 LP  0  0  0  0  0  0  0  0  0  0  0  0  # atno 17321 bound_to 7965
  140.2759  144.3913  150.6135 LP  0  0  0  0  0  0  0  0  0  0  0  0  # atno 17342 bound_to 10162
  140.6054  143.2167  151.6991 LP  0  0  0  0  0  0  0  0  0  0  0  0  # atno 17343 bound_to 10162
  156.1295  130.6168  151.0313 LP  0  0  0  0  0  0  0  0  0  0  0  0  # atno 17370 bound_to 10713
  157.6703  131.0863  150.7627 LP  0  0  0  0  0  0  0  0  0  0  0  0  # atno 17371 bound_to 10713
  140.1782  134.4523  155.7788 LP  0  0  0  0  0  0  0  0  0  0  0  0  # atno 17394 bound_to 11000
  141.2219  133.6972  156.7824 LP  0  0  0  0  0  0  0  0  0  0  0  0  # atno 17395 bound_to 11000

$$$$
