AV-unprocessed.smi:171|AV-procd|sdf|1421|dock3
  -GOLD-   2262019183D 1   1.00000     0.00000
 Structure written by MMmdl.
 56 59  0  0  0  0  0  0  0  0  1 V2000
  151.8919  143.4532  157.4962 C   0  0  0  0  0  0  0  0  0  0  0  0
  151.0896  142.2779  156.9155 C   0  0  0  0  0  0  0  0  0  0  0  0
  149.8435  142.0120  157.7743 C   0  0  0  0  0  0  0  0  0  0  0  0
  151.9186  140.9829  156.7476 C   0  0  0  0  0  0  0  0  0  0  0  0
  151.2707  139.8902  155.8435 C   0  0  1  0  0  0  0  0  0  0  0  0
  152.2688  138.9836  155.0803 C   0  0  0  0  0  0  0  0  0  0  0  0
  153.3974  139.3823  154.8014 O   0  0  0  0  0  0  0  0  0  0  0  0
  151.8615  137.7503  154.7295 N   0  0  0  0  0  0  0  0  0  0  0  0
  150.5635  137.1503  155.0490 C   0  0  0  0  0  0  0  0  0  0  0  0
  149.5618  138.1395  155.6817 C   0  0  0  0  0  0  0  0  0  0  0  0
  150.2472  139.0964  156.5476 N   0  0  0  0  0  0  0  0  0  0  0  0
  150.4894  138.5942  157.7895 C   0  0  0  0  0  0  0  0  0  0  0  0
  151.7147  138.7250  158.3651 N   0  0  0  0  0  0  0  0  0  0  0  0
  151.9491  138.2155  159.5775 C   0  0  0  0  0  0  0  0  0  0  0  0
  151.1167  137.5444  160.3754 N   0  0  0  0  0  0  0  0  0  0  0  0
  149.8871  137.4059  159.8022 C   0  0  0  0  0  0  0  0  0  0  0  0
  149.4922  137.8979  158.5264 C   0  0  0  0  0  0  0  0  0  0  0  0
  148.1622  137.5766  158.2843 N   0  0  0  0  0  0  0  0  0  0  0  0
  147.7933  136.9264  159.3541 C   0  0  0  0  0  0  0  0  0  0  0  0
  148.7699  136.7677  160.3117 N   0  0  0  0  0  0  0  0  0  0  0  0
  148.6385  136.0811  161.5878 C   0  0  0  0  0  0  0  0  0  0  0  0
  148.3695  137.0397  162.7778 C   0  0  2  0  0  0  0  0  0  0  0  0
  147.3222  137.9209  162.4072 O   0  0  0  0  0  0  0  0  0  0  0  0
  149.5799  137.8900  163.1577 C   0  0  0  0  0  0  0  0  0  0  0  0
  149.3835  138.1246  164.6473 C   0  0  0  0  0  0  0  0  0  0  0  0
  148.8958  136.8706  165.0891 O   0  0  0  0  0  0  0  0  0  0  0  0
  147.9713  136.3731  164.1256 C   0  0  2  0  0  0  0  0  0  0  0  0
  148.0130  134.8381  164.1812 C   0  0  0  0  0  0  0  0  0  0  0  0
  152.3160  143.2029  158.4691 H   0  0  0  0  0  0  0  0  0  0  0  0
  151.2598  144.3318  157.6270 H   0  0  0  0  0  0  0  0  0  0  0  0
  152.7081  143.7451  156.8361 H   0  0  0  0  0  0  0  0  0  0  0  0
  150.7363  142.5774  155.9279 H   0  0  0  0  0  0  0  0  0  0  0  0
  150.1172  141.7043  158.7843 H   0  0  0  0  0  0  0  0  0  0  0  0
  149.2253  141.2247  157.3422 H   0  0  0  0  0  0  0  0  0  0  0  0
  149.2233  142.9052  157.8554 H   0  0  0  0  0  0  0  0  0  0  0  0
  152.9242  141.2256  156.4012 H   0  0  0  0  0  0  0  0  0  0  0  0
  152.0578  140.5787  157.7510 H   0  0  0  0  0  0  0  0  0  0  0  0
  150.7157  140.4170  155.0662 H   0  0  0  0  0  0  0  0  0  0  0  0
  152.5164  137.1694  154.2265 H   0  0  0  0  0  0  0  0  0  0  0  0
  150.1384  136.6958  154.1538 H   0  0  0  0  0  0  0  0  0  0  0  0
  150.7547  136.3368  155.7497 H   0  0  0  0  0  0  0  0  0  0  0  0
  149.0628  138.7028  154.8923 H   0  0  0  0  0  0  0  0  0  0  0  0
  148.7707  137.5988  156.2024 H   0  0  0  0  0  0  0  0  0  0  0  0
  152.9470  138.3654  159.9622 H   0  0  0  0  0  0  0  0  0  0  0  0
  146.7923  136.5376  159.4719 H   0  0  0  0  0  0  0  0  0  0  0  0
  147.8353  135.3485  161.4988 H   0  0  0  0  0  0  0  0  0  0  0  0
  149.5562  135.5160  161.7526 H   0  0  0  0  0  0  0  0  0  0  0  0
  146.5976  137.7912  162.9997 H   0  0  0  0  0  0  0  0  0  0  0  0
  150.4988  137.3202  163.0136 H   0  0  0  0  0  0  0  0  0  0  0  0
  149.6696  138.8141  162.5847 H   0  0  0  0  0  0  0  0  0  0  0  0
  150.3060  138.4018  165.1576 H   0  0  0  0  0  0  0  0  0  0  0  0
  148.6370  138.8991  164.8299 H   0  0  0  0  0  0  0  0  0  0  0  0
  146.9753  136.6998  164.4308 H   0  0  0  0  0  0  0  0  0  0  0  0
  147.3108  134.3950  163.4748 H   0  0  0  0  0  0  0  0  0  0  0  0
  147.7409  134.4836  165.1754 H   0  0  0  0  0  0  0  0  0  0  0  0
  149.0093  134.4543  163.9607 H   0  0  0  0  0  0  0  0  0  0  0  0
  1  2  1  0  0  0  0
  1 29  1  0  0  0  0
  1 30  1  0  0  0  0
  1 31  1  0  0  0  0
  2  3  1  0  0  0  0
  2  4  1  0  0  0  0
  2 32  1  0  0  0  0
  3 33  1  0  0  0  0
  3 34  1  0  0  0  0
  3 35  1  0  0  0  0
  4  5  1  0  0  0  0
  4 36  1  0  0  0  0
  4 37  1  0  0  0  0
  5 11  1  0  0  0  0
  5  6  1  0  0  0  0
  5 38  1  0  0  0  0
  6  7  2  0  0  0  0
  6  8  1  0  0  0  0
  8  9  1  0  0  0  0
  8 39  1  0  0  0  0
  9 10  1  0  0  0  0
  9 40  1  0  0  0  0
  9 41  1  0  0  0  0
 10 11  1  0  0  0  0
 10 42  1  0  0  0  0
 10 43  1  0  0  0  0
 11 12  1  0  0  0  0
 12 17  1  0  0  0  0
 12 13  2  0  0  0  0
 13 14  1  0  0  0  0
 14 15  2  0  0  0  0
 14 44  1  0  0  0  0
 15 16  1  0  0  0  0
 16 20  1  0  0  0  0
 16 17  2  0  0  0  0
 17 18  1  0  0  0  0
 18 19  2  0  0  0  0
 19 20  1  0  0  0  0
 19 45  1  0  0  0  0
 20 21  1  0  0  0  0
 21 22  1  0  0  0  0
 21 46  1  0  0  0  0
 21 47  1  0  0  0  0
 22 27  1  0  0  0  0
 22 23  1  0  0  0  0
 22 24  1  0  0  0  0
 23 48  1  0  0  0  0
 24 25  1  0  0  0  0
 24 49  1  0  0  0  0
 24 50  1  0  0  0  0
 25 26  1  0  0  0  0
 25 51  1  0  0  0  0
 25 52  1  0  0  0  0
 26 27  1  0  0  0  0
 27 28  1  0  0  0  0
 27 53  1  0  0  0  0
 28 54  1  0  0  0  0
 28 55  1  0  0  0  0
 28 56  1  0  0  0  0
M  END
> <s_m_source_file>
AV-unprocessed.smi

> <i_m_source_file_index>
171

> <i_lp_mmshare_version>
43012

> <i_f3d_flags>
0

> <s_epik_input>
W0NIM11bQ0hdKFtDSDNdKVtDSDJdW0NAQEhdMUMoPU8pW05IXVtDSDJdW0NIMl1OMWMobltjSF1uMiljKGMyMyluW2NIXW4zW0NIMl1bQ0BAXTQoW09IXSlbQ0gyXVtDSDJdT1tDQEhdNFtDSDNd

> <s_epik_cmdline>
J2VwaWtfcHl0aG9uJywgJy1waCcsICc3LjAnLCAnLXRuJywgJzgnLCAnLW1hJywgJzIwMCcsICctbWV0YWxfYmluZGluZycsICctaW1hZScsICc8aW5maWxlLm1hZT4nLCAnLW9tYWUnLCAnPG91dGZpbGUubWFlPic=

> <r_lp_tautomer_probability>
1

> <r_epik_Ionization_Penalty>
0.000670584

> <r_epik_Ionization_Penalty_Charging>
0

> <r_epik_Ionization_Penalty_Neutral>
0.000670584

> <r_epik_State_Penalty>
0.000304767

> <r_epik_Charging_Adjusted_Penalty>
0.000304767

> <i_epik_Tot_Q>
0

> <i_epik_Tot_abs_Q>
0

> <r_epik_Metal_State_Penalty>
-0

> <b_epik_Metal_Only>
0

> <s_lp_Force_Field>
OPLS_2005

> <r_lp_Energy>
45.2633

> <b_lp_Chiralities_Consistent>
1

> <s_lp_Variant>
AV-unprocessed.smi:171-8

> <Gold.Version>
5.8.1

> <Gold.Id.Protein>
6NUR|6NUR_protein|mol2

> <Gold.PLP.Fitness>
46.0546

> <Gold.PLP.PLP>
-38.5925

> <Gold.PLP.part.hbond>
-5.1271

> <Gold.PLP.part.metal>
0.0000

> <Gold.PLP.part.buried>
2.4907

> <Gold.PLP.part.nonpolar>
-34.6820

> <Gold.PLP.part.repulsive>
0.2097

> <Gold.PLP.ligand.clash>
0.0000

> <Gold.PLP.ligand.torsion>
0.9477

> <Gold.PLP.Chemscore.Hbond>
2.9913

> <Gold.PLP.Chemscore.CHOScore>
0.0000

> <Gold.PLP.Chemscore.Metal>
0.0000

> <Gold.Chemscore.Hbonds>
donor molecule, donor type, donor heavy atom, donor atom, acceptor molecule, acceptor atom, score
      P1  H  6934  6947       L1    23  0.34
      P1  H  7997  8010       L1     7  1.00

> <Gold.PLP.Chemscore.Internal.Correction>
0.3837

> <Gold.Rescore>
     Score         DG    S(hbond)    S(metal)    S(lipo)     H(rot)  DE(clash)    DE(int)     intcor
     11.86     -16.48       1.95        0.00      95.55       2.61       1.15       3.47       ----

> <Gold.Chemscore.Fitness>
11.8563

> <Gold.Chemscore.DG>
-16.4810

> <Gold.Chemscore.ZeroCoef>
-5.4800

> <Gold.Chemscore.Hbond>
1.9451

> <Gold.Chemscore.Metal>
0.0000

> <Gold.Chemscore.Lipo>
95.5481

> <Gold.Chemscore.Internal_Hbond>
0.0000

> <Gold.Chemscore.DEClash>
1.1506

> <Gold.Chemscore.DEInternal>
3.4742

> <Gold.Chemscore.Rot>
2.6074

> <Gold.Chemscore.Internal.Correction>
   9.000000E+99

> <Gold.Chemscore.Hbonds>
donor molecule, donor type, donor heavy atom, donor atom, acceptor molecule, acceptor atom, score
      P1  H  6934  6947       L1    23  0.33
      P1  H  7997  8010       L1     7  0.96

> <Gold.Chemscore.Hbond.Weighted>
-6.4967

> <Gold.Chemscore.Metal.Weighted>
-0.0000

> <Gold.Chemscore.Lipo.Weighted>
-11.1791

> <Gold.Chemscore.Internal_Hbond.Weighted>
0.0000

> <Gold.Chemscore.DEClash.Weighted>
1.1506

> <Gold.Chemscore.DEInternal.Weighted>
3.4742

> <Gold.Chemscore.Rot.Weighted>
6.6748

> <Gold.Chemscore.Internal.Correction.Weighted>
   9.000000E+99

> <Gold.Protein.RotatedTorsions>
[ 6907 6896 6895 6894 ] final   97.70 input  -60.11 | X-H torsion
[ 7974 7965 7964 7962 ] final   38.51 input  175.53 | X-H torsion
[ 8008 7997 7996 7995 ] final  129.78 input   59.86 | X-H torsion
[ 10167 10162 10161 10158 ] final  -89.99 input  -65.29 | X-H torsion
[ 10718 10713 10712 10709 ] final -176.64 input   66.30 | X-H torsion
[ 10763 10752 10751 10750 ] final  -15.59 input  -60.55 | X-H torsion
[ 11005 11000 10999 10996 ] final  -90.69 input  -57.11 | X-H torsion

> <Gold.Protein.ActiveResidues>
 VAL166  LYS551  ARG553  GLY616  TRP617  ASP618  TYR619  PRO620  LYS621  CYS622 
 ASP623  PHE694  ASN695  SER759  ASP760  ASP761  ALA762  ILE779  LEU786  VAL792 
 PHE793  MET794  SER795  GLU796  ALA797  LYS798  CYS799  TRP800  GLU811  SER814 

> <Gold.Protein.RotatedAtoms>
  152.5420  134.0693  159.8186 H   0  0  0  0  0  0  0  0  0  0  0  0  # atno 6907 bound_to 6896
  151.0809  133.5383  159.2628 H   0  0  0  0  0  0  0  0  0  0  0  0  # atno 6908 bound_to 6896
  151.2210  135.0527  159.9004 H   0  0  0  0  0  0  0  0  0  0  0  0  # atno 6909 bound_to 6896
  146.1056  139.5763  142.9386 H   0  0  0  0  0  0  0  0  0  0  0  0  # atno 7974 bound_to 7965
  156.2943  140.2612  156.2655 H   0  0  0  0  0  0  0  0  0  0  0  0  # atno 8008 bound_to 7997
  154.9746  140.0390  157.2269 H   0  0  0  0  0  0  0  0  0  0  0  0  # atno 8009 bound_to 7997
  154.7827  140.2798  155.6056 H   0  0  0  0  0  0  0  0  0  0  0  0  # atno 8010 bound_to 7997
  140.3594  143.2850  151.9632 H   0  0  0  0  0  0  0  0  0  0  0  0  # atno 10167 bound_to 10162
  156.8176  130.9608  151.3113 H   0  0  0  0  0  0  0  0  0  0  0  0  # atno 10718 bound_to 10713
  153.5457  135.7012  153.5615 H   0  0  0  0  0  0  0  0  0  0  0  0  # atno 10763 bound_to 10752
  153.3561  135.3982  155.1683 H   0  0  0  0  0  0  0  0  0  0  0  0  # atno 10764 bound_to 10752
  154.8668  135.3777  154.4965 H   0  0  0  0  0  0  0  0  0  0  0  0  # atno 10765 bound_to 10752
  141.1560  133.7708  156.9774 H   0  0  0  0  0  0  0  0  0  0  0  0  # atno 11005 bound_to 11000
  145.5767  141.0387  143.2144 LP  0  0  0  0  0  0  0  0  0  0  0  0  # atno 17320 bound_to 7965
  144.7468  139.7299  143.7289 LP  0  0  0  0  0  0  0  0  0  0  0  0  # atno 17321 bound_to 7965
  139.4816  144.6006  151.7612 LP  0  0  0  0  0  0  0  0  0  0  0  0  # atno 17342 bound_to 10162
  140.5142  144.0979  150.6003 LP  0  0  0  0  0  0  0  0  0  0  0  0  # atno 17343 bound_to 10162
  157.6473  130.8855  149.9564 LP  0  0  0  0  0  0  0  0  0  0  0  0  # atno 17370 bound_to 10713
  156.1007  130.3656  150.0223 LP  0  0  0  0  0  0  0  0  0  0  0  0  # atno 17371 bound_to 10713
  140.1089  134.9489  157.2035 LP  0  0  0  0  0  0  0  0  0  0  0  0  # atno 17394 bound_to 11000
  140.3220  134.2906  155.7244 LP  0  0  0  0  0  0  0  0  0  0  0  0  # atno 17395 bound_to 11000

$$$$
