#       Name:                AV-unprocessed.smi:1760
#       Creating user name   scv26
#       Creation time:       Fri Mar 27 08:31:14 2020


#       File generated by GOLD software.
#

@<TRIPOS>MOLECULE
AV-unprocessed.smi:1760
    48    50     1
SMALL
NO_CHARGES


@<TRIPOS>ATOM
      1 ****         1.9030   1.2301   0.0402 O.2            1 S1                 0.0000
      2 ****         1.5507   0.0528  -0.0271 C.2            1 S1                 0.0000
      3 ****         2.3668  -1.0154  -0.0839 N.am           1 S1                 0.0000
      4 ****         3.7713  -1.0723  -0.0630 C.2            1 S1                 0.0000
      5 ****         4.5881  -0.0509   0.3177 C.2            1 S1                 0.0000
      6 ****         6.0406  -0.1759   0.3223 C.2            1 S1                 0.0000
      7 ****         6.9950   0.9367   0.7155 C.3            1 S1                 0.0000
      8 ****         7.7420   0.5577   1.7518 F              1 S1                 0.0000
      9 ****         7.8119   1.2227  -0.2978 F              1 S1                 0.0000
     10 ****         6.3385   2.0468   1.0532 F              1 S1                 0.0000
     11 ****         6.4623  -1.4267  -0.0816 C.2            1 S1                 0.0000
     12 ****         5.7235  -2.4928  -0.4595 N.pl3          1 S1                -1.0000
     13 ****         4.3666  -2.3634  -0.4677 C.2            1 S1                 0.0000
     14 ****         3.6330  -3.2944  -0.8026 O.2            1 S1                 0.0000
     15 ****         0.2660  -0.3300  -0.0771 N.am           1 S1                 0.0000
     16 ****        -0.8931   0.5588  -0.0759 C.3            1 S1                 0.0000
     17 ****        -1.7454   0.3155   1.1807 C.3            1 S1                 0.0000
     18 ****        -3.0324   1.1620   1.1517 C.3            1 S1                 0.0000
     19 ****        -3.8255   0.9334  -0.0838 N.4            1 S1                 1.0000
     20 ****        -4.5438  -0.3626  -0.0892 C.3            1 S1                 0.0000
     21 ****        -5.8463  -0.3300  -0.8544 C.3            1 S1                 0.0000
     22 ****        -5.8568  -0.3309   0.6579 C.3            1 S1                 0.0000
     23 ****        -3.0247   1.1673  -1.3132 C.3            1 S1                 0.0000
     24 ****        -1.7390   0.3193  -1.3373 C.3            1 S1                 0.0000
     25 ****         1.9218  -1.9142  -0.1999 H              1 S1                 0.0000
     26 ****         4.1794   0.8899   0.6462 H              1 S1                 0.0000
     27 ****         7.5606  -1.5926  -0.1060 H              1 S1                 0.0000
     28 ****         0.0770  -1.3202  -0.1340 H              1 S1                 0.0000
     29 ****        -0.5747   1.6029  -0.0753 H              1 S1                 0.0000
     30 ****        -2.0001  -0.7421   1.2610 H              1 S1                 0.0000
     31 ****        -1.1677   0.5580   2.0735 H              1 S1                 0.0000
     32 ****        -3.6438   0.9561   2.0309 H              1 S1                 0.0000
     33 ****        -2.7716   2.2201   1.2005 H              1 S1                 0.0000
     34 ****        -3.9337  -1.2637  -0.0857 H              1 S1                 0.0000
     35 ****        -6.1270   0.5936  -1.3576 H              1 S1                 0.0000
     36 ****        -6.1568  -1.2448  -1.3553 H              1 S1                 0.0000
     37 ****        -6.1748  -1.2461   1.1530 H              1 S1                 0.0000
     38 ****        -6.1444   0.5922   1.1582 H              1 S1                 0.0000
     39 ****        -3.6305   0.9663  -2.1974 H              1 S1                 0.0000
     40 ****        -2.7621   2.2252  -1.3555 H              1 S1                 0.0000
     41 ****        -1.1566   0.5628  -2.2268 H              1 S1                 0.0000
     42 ****        -1.9949  -0.7378  -1.4213 H              1 S1                 0.0000
     43 ****        -4.5503   1.6371  -0.0847 H              1 S1                 0.0000
     44 ****         2.8759   1.4607   0.0568 LP             1 S1                 0.0000
     45 ****         1.2163   1.9561   0.0783 LP             1 S1                 0.0000
     46 ****         6.1597  -3.3524  -0.7256 LP             1 S1                 0.0000
     47 ****         2.6402  -3.1746  -0.7998 LP             1 S1                 0.0000
     48 ****         4.0301  -4.1701  -1.0773 LP             1 S1                 0.0000
@<TRIPOS>BOND
    1    1    2 2     
    2    2    3 am    
    3    2   15 am    
    4    3    4 1     
    5    3   25 1     
    6    4   13 1     
    7    4    5 2     
    8    5    6 1     
    9    5   26 1     
   10    6    7 1     
   11    6   11 2     
   12    7    8 1     
   13    7    9 1     
   14    7   10 1     
   15   11   12 1     
   16   11   27 1     
   17   12   13 1     
   18   13   14 2     
   19   15   16 1     
   20   15   28 1     
   21   16   24 1     
   22   16   17 1     
   23   16   29 1     
   24   17   18 1     
   25   17   30 1     
   26   17   31 1     
   27   18   19 1     
   28   18   32 1     
   29   18   33 1     
   30   19   20 1     
   31   19   23 1     
   32   19   43 1     
   33   20   22 1     
   34   20   21 1     
   35   20   34 1     
   36   21   22 1     
   37   21   35 1     
   38   21   36 1     
   39   22   37 1     
   40   22   38 1     
   41   23   24 1     
   42   23   39 1     
   43   23   40 1     
   44   24   41 1     
   45   24   42 1     
   46    1   44 1     
   47    1   45 1     
   48   12   46 1     
   49   14   47 1     
   50   14   48 1     
@<TRIPOS>SUBSTRUCTURE
      1 S1             1
@<TRIPOS>SET
LONE_PAIRS      STATIC     ATOMS    <user>   **** ""
5 44 45 46 47 48
DONOR_HYDROGENS      STATIC     ATOMS    <user>   **** ""
3 25 28 43
ATOM$BLUE        STATIC     ATOMS    COLORGROUP SYSTEM
5 44 45 46 47 48
ATOM$RED        STATIC     ATOMS    COLORGROUP SYSTEM
3 25 28 43
