AV-unprocessed.smi:3185|AV-procd|sdf|12169|dock1
  -GOLD-   2272018 03D 1   1.00000     0.00000
 Structure written by MMmdl.
 37 38  0  0  0  0  0  0  0  0  1 V2000
  148.7005  141.4211  153.9992 N   0  0  0  0  0  0  0  0  0  0  0  0
  149.1705  140.5938  154.6573 C   0  0  0  0  0  0  0  0  0  0  0  0
  149.7685  139.5427  155.4936 C   0  0  0  0  0  0  0  0  0  0  0  0
  151.2590  139.7835  155.7687 C   0  0  0  0  0  0  0  0  0  0  0  0
  151.5038  141.0097  156.6572 C   0  0  0  0  0  0  0  0  0  0  0  0
  151.0295  140.7367  158.0051 N   0  0  0  0  0  0  0  0  0  0  0  0
  151.1780  141.8843  158.8948 C   0  0  2  0  0  0  0  0  0  0  0  0
  150.3655  143.0788  158.3469 C   0  0  0  0  0  0  0  0  0  0  0  0
  150.5898  144.3480  159.1827 C   0  0  0  0  0  0  0  0  0  0  0  0
  152.0813  144.7013  159.2661 C   0  0  0  0  0  0  0  0  0  0  0  0
  152.8916  143.5272  159.8337 C   0  0  0  0  0  0  0  0  0  0  0  0
  152.6834  142.2423  159.0042 C   0  0  1  0  0  0  0  0  0  0  0  0
  153.4683  141.1401  159.5502 N   0  0  0  0  0  0  0  0  0  0  0  0
  154.1834  141.1084  160.7296 C   0  0  0  0  0  0  0  0  0  0  0  0
  154.7702  139.8789  160.8203 C   0  0  0  0  0  0  0  0  0  0  0  0
  154.3506  139.2162  159.6336 C   0  0  0  0  0  0  0  0  0  0  0  0
  153.5726  139.9717  158.8761 N   0  0  0  0  0  0  0  0  0  0  0  0
  149.2101  139.5011  156.4289 H   0  0  0  0  0  0  0  0  0  0  0  0
  149.6186  138.5900  154.9850 H   0  0  0  0  0  0  0  0  0  0  0  0
  151.7063  138.8960  156.2182 H   0  0  0  0  0  0  0  0  0  0  0  0
  151.7698  139.9322  154.8169 H   0  0  0  0  0  0  0  0  0  0  0  0
  152.5691  141.2388  156.6827 H   0  0  0  0  0  0  0  0  0  0  0  0
  150.9914  141.8783  156.2418 H   0  0  0  0  0  0  0  0  0  0  0  0
  151.4932  139.9272  158.3917 H   0  0  0  0  0  0  0  0  0  0  0  0
  150.8119  141.6241  159.8894 H   0  0  0  0  0  0  0  0  0  0  0  0
  150.6493  143.2772  157.3122 H   0  0  0  0  0  0  0  0  0  0  0  0
  149.3004  142.8462  158.3353 H   0  0  0  0  0  0  0  0  0  0  0  0
  150.0350  145.1809  158.7500 H   0  0  0  0  0  0  0  0  0  0  0  0
  150.1917  144.1995  160.1873 H   0  0  0  0  0  0  0  0  0  0  0  0
  152.4543  144.9605  158.2746 H   0  0  0  0  0  0  0  0  0  0  0  0
  152.2203  145.5844  159.8903 H   0  0  0  0  0  0  0  0  0  0  0  0
  153.9501  143.7893  159.8550 H   0  0  0  0  0  0  0  0  0  0  0  0
  152.5947  143.3581  160.8698 H   0  0  0  0  0  0  0  0  0  0  0  0
  153.0621  142.4374  157.9989 H   0  0  0  0  0  0  0  0  0  0  0  0
  154.2180  141.9562  161.3979 H   0  0  0  0  0  0  0  0  0  0  0  0
  155.4033  139.5096  161.6131 H   0  0  0  0  0  0  0  0  0  0  0  0
  154.5870  138.2161  159.3022 H   0  0  0  0  0  0  0  0  0  0  0  0
  1  2  3  0  0  0  0
  2  3  1  0  0  0  0
  3  4  1  0  0  0  0
  3 18  1  0  0  0  0
  3 19  1  0  0  0  0
  4  5  1  0  0  0  0
  4 20  1  0  0  0  0
  4 21  1  0  0  0  0
  5  6  1  0  0  0  0
  5 22  1  0  0  0  0
  5 23  1  0  0  0  0
  6  7  1  0  0  0  0
  6 24  1  0  0  0  0
  7 12  1  0  0  0  0
  7  8  1  0  0  0  0
  7 25  1  0  0  0  0
  8  9  1  0  0  0  0
  8 26  1  0  0  0  0
  8 27  1  0  0  0  0
  9 10  1  0  0  0  0
  9 28  1  0  0  0  0
  9 29  1  0  0  0  0
 10 11  1  0  0  0  0
 10 30  1  0  0  0  0
 10 31  1  0  0  0  0
 11 12  1  0  0  0  0
 11 32  1  0  0  0  0
 11 33  1  0  0  0  0
 12 13  1  0  0  0  0
 12 34  1  0  0  0  0
 13 17  1  0  0  0  0
 13 14  1  0  0  0  0
 14 15  2  0  0  0  0
 14 35  1  0  0  0  0
 15 16  1  0  0  0  0
 15 36  1  0  0  0  0
 16 17  2  0  0  0  0
 16 37  1  0  0  0  0
M  END
> <s_m_source_file>
AV-unprocessed.smi

> <i_m_source_file_index>
3185

> <i_lp_mmshare_version>
43012

> <i_f3d_flags>
0

> <s_epik_input>
TiNDW0NIMl1bQ0gyXVtDSDJdW05IXVtDQEBIXTFbQ0gyXVtDSDJdW0NIMl1bQ0gyXVtDQEhdMW4yW2NIXVtjSF1bY0hdbjI=

> <s_epik_cmdline>
J2VwaWtfcHl0aG9uJywgJy1waCcsICc3LjAnLCAnLXRuJywgJzgnLCAnLW1hJywgJzIwMCcsICctbWV0YWxfYmluZGluZycsICctaW1hZScsICc8aW5maWxlLm1hZT4nLCAnLW9tYWUnLCAnPG91dGZpbGUubWFlPic=

> <r_lp_tautomer_probability>
1

> <r_epik_Ionization_Penalty>
2.21326

> <r_epik_Ionization_Penalty_Charging>
0

> <r_epik_Ionization_Penalty_Neutral>
2.21326

> <r_epik_State_Penalty>
2.35651

> <r_epik_Charging_Adjusted_Penalty>
2.35651

> <i_epik_Tot_Q>
0

> <i_epik_Tot_abs_Q>
0

> <r_epik_Metal_State_Penalty>
2.3555

> <b_epik_Metal_Only>
0

> <s_lp_Force_Field>
OPLS_2005

> <r_lp_Energy>
16.739

> <b_lp_Chiralities_Consistent>
1

> <s_lp_Variant>
AV-unprocessed.smi:3185-5

> <Gold.Version>
5.8.1

> <Gold.Id.Protein>
6NUR|6NUR_protein|mol2

> <Gold.PLP.Fitness>
43.2219

> <Gold.PLP.PLP>
-38.0092

> <Gold.PLP.part.hbond>
-2.8350

> <Gold.PLP.part.metal>
0.0000

> <Gold.PLP.part.buried>
-4.2536

> <Gold.PLP.part.nonpolar>
-31.9667

> <Gold.PLP.part.repulsive>
0.9549

> <Gold.PLP.ligand.clash>
0.0000

> <Gold.PLP.ligand.torsion>
0.1198

> <Gold.PLP.Chemscore.Hbond>
1.8000

> <Gold.PLP.Chemscore.CHOScore>
0.0000

> <Gold.PLP.Chemscore.Metal>
0.0000

> <Gold.Chemscore.Hbonds>
donor molecule, donor type, donor heavy atom, donor atom, acceptor molecule, acceptor atom, score
      P1  H  7997  8008       L1    17  0.65
      P1  H  8011  8017       L1     1  0.37

> <Gold.PLP.Chemscore.Internal.Correction>
0.0524

> <Gold.Rescore>
     Score         DG    S(hbond)    S(metal)    S(lipo)     H(rot)  DE(clash)    DE(int)     intcor
     15.33     -17.74       1.48        0.00     102.19       1.81       0.66       1.76       ----

> <Gold.Chemscore.Fitness>
15.3288

> <Gold.Chemscore.DG>
-17.7418

> <Gold.Chemscore.ZeroCoef>
-5.4800

> <Gold.Chemscore.Hbond>
1.4797

> <Gold.Chemscore.Metal>
0.0000

> <Gold.Chemscore.Lipo>
102.1873

> <Gold.Chemscore.Internal_Hbond>
0.0000

> <Gold.Chemscore.DEClash>
0.6552

> <Gold.Chemscore.DEInternal>
1.7578

> <Gold.Chemscore.Rot>
1.8110

> <Gold.Chemscore.Internal.Correction>
   9.000000E+99

> <Gold.Chemscore.Hbonds>
donor molecule, donor type, donor heavy atom, donor atom, acceptor molecule, acceptor atom, score
      P1  H  7997  8008       L1    17  0.07
      P1  H  8011  8017       L1     1  0.36

> <Gold.Chemscore.Hbond.Weighted>
-4.9421

> <Gold.Chemscore.Metal.Weighted>
-0.0000

> <Gold.Chemscore.Lipo.Weighted>
-11.9559

> <Gold.Chemscore.Internal_Hbond.Weighted>
0.0000

> <Gold.Chemscore.DEClash.Weighted>
0.6552

> <Gold.Chemscore.DEInternal.Weighted>
1.7578

> <Gold.Chemscore.Rot.Weighted>
4.6362

> <Gold.Chemscore.Internal.Correction.Weighted>
   9.000000E+99

> <Gold.Protein.RotatedTorsions>
[ 6907 6896 6895 6894 ] final  160.49 input  -60.11 | X-H torsion
[ 7974 7965 7964 7962 ] final -132.57 input  175.53 | X-H torsion
[ 8008 7997 7996 7995 ] final -107.23 input   59.86 | X-H torsion
[ 10167 10162 10161 10158 ] final  157.95 input  -65.29 | X-H torsion
[ 10718 10713 10712 10709 ] final  -24.96 input   66.30 | X-H torsion
[ 10763 10752 10751 10750 ] final  -42.34 input  -60.55 | X-H torsion
[ 11005 11000 10999 10996 ] final  154.82 input  -57.11 | X-H torsion

> <Gold.Protein.ActiveResidues>
 VAL166  LYS551  ARG553  GLY616  TRP617  ASP618  TYR619  PRO620  LYS621  CYS622 
 ASP623  PHE694  ASN695  SER759  ASP760  ASP761  ALA762  ILE779  LEU786  VAL792 
 PHE793  MET794  SER795  GLU796  ALA797  LYS798  CYS799  TRP800  GLU811  SER814 

> <Gold.Protein.RotatedAtoms>
  151.9698  133.3722  159.4066 H   0  0  0  0  0  0  0  0  0  0  0  0  # atno 6907 bound_to 6896
  150.6951  134.4152  159.5189 H   0  0  0  0  0  0  0  0  0  0  0  0  # atno 6908 bound_to 6896
  152.1854  134.8718  160.0573 H   0  0  0  0  0  0  0  0  0  0  0  0  # atno 6909 bound_to 6896
  144.9273  140.7086  143.4928 H   0  0  0  0  0  0  0  0  0  0  0  0  # atno 7974 bound_to 7965
  154.9262  140.0406  157.2024 H   0  0  0  0  0  0  0  0  0  0  0  0  # atno 8008 bound_to 7997
  154.8205  140.2883  155.5768 H   0  0  0  0  0  0  0  0  0  0  0  0  # atno 8009 bound_to 7997
  156.2979  140.2520  156.3111 H   0  0  0  0  0  0  0  0  0  0  0  0  # atno 8010 bound_to 7997
  139.4825  144.4870  151.8363 H   0  0  0  0  0  0  0  0  0  0  0  0  # atno 10167 bound_to 10162
  156.4707  130.4524  149.6871 H   0  0  0  0  0  0  0  0  0  0  0  0  # atno 10718 bound_to 10713
  153.9775  135.6721  153.4749 H   0  0  0  0  0  0  0  0  0  0  0  0  # atno 10763 bound_to 10752
  153.0764  135.4946  154.8409 H   0  0  0  0  0  0  0  0  0  0  0  0  # atno 10764 bound_to 10752
  154.7184  135.3112  154.9048 H   0  0  0  0  0  0  0  0  0  0  0  0  # atno 10765 bound_to 10752
  140.1524  134.8666  157.2471 H   0  0  0  0  0  0  0  0  0  0  0  0  # atno 11005 bound_to 11000
  145.3199  139.1791  143.4593 LP  0  0  0  0  0  0  0  0  0  0  0  0  # atno 17320 bound_to 7965
  146.3231  140.3215  142.8633 LP  0  0  0  0  0  0  0  0  0  0  0  0  # atno 17321 bound_to 7965
  140.4350  144.2063  150.5889 LP  0  0  0  0  0  0  0  0  0  0  0  0  # atno 17342 bound_to 10162
  140.4740  143.2402  151.9048 LP  0  0  0  0  0  0  0  0  0  0  0  0  # atno 17343 bound_to 10162
  156.3621  130.7487  151.2460 LP  0  0  0  0  0  0  0  0  0  0  0  0  # atno 17370 bound_to 10713
  157.7491  131.0347  150.4330 LP  0  0  0  0  0  0  0  0  0  0  0  0  # atno 17371 bound_to 10713
  140.2588  134.3595  155.7414 LP  0  0  0  0  0  0  0  0  0  0  0  0  # atno 17394 bound_to 11000
  141.2200  133.7358  156.9049 LP  0  0  0  0  0  0  0  0  0  0  0  0  # atno 17395 bound_to 11000

$$$$
