AV-unprocessed.smi:2263|AV-procd|sdf|9140|dock2
  -GOLD-   2272012343D 1   1.00000     0.00000
 Structure written by MMmdl.
 40 41  0  0  0  0  0  0  0  0  1 V2000
  146.2417  138.6843  151.2779 C   0  0  0  0  0  0  0  0  0  0  0  0
  146.6512  138.7452  152.7457 C   0  0  0  0  0  0  0  0  0  0  0  0
  145.8261  138.5074  153.6271 O   0  0  0  0  0  0  0  0  0  0  0  0
  147.9294  139.0680  152.9936 N   0  0  0  0  0  0  0  0  0  0  0  0
  148.5178  139.1912  154.3223 C   0  0  0  0  0  0  0  0  0  0  0  0
  149.3581  140.4719  154.4504 C   0  0  0  0  0  0  0  0  0  0  0  0
  150.2731  140.4373  155.6278 C   0  0  0  0  0  0  0  0  0  0  0  0
  150.1930  141.2933  156.6499 N   0  0  0  0  0  0  0  0  0  0  0  0
  151.1830  141.0758  157.6133 C   0  0  0  0  0  0  0  0  0  0  0  0
  151.2377  141.9370  158.8387 C   0  0  0  0  0  0  0  0  0  0  0  0
  152.3956  142.9468  158.7901 C   0  0  0  0  0  0  0  0  0  0  0  0
  152.9181  143.3410  160.1832 C   0  0  0  0  0  0  0  0  0  0  0  0
  153.2647  142.1391  161.0675 C   0  0  0  0  0  0  0  0  0  0  0  0
  153.2139  142.6573  162.5110 C   0  0  0  0  0  0  0  0  0  0  0  0
  152.4436  143.9854  162.4692 C   0  0  0  0  0  0  0  0  0  0  0  0
  151.9181  144.1240  161.0384 C   0  0  0  0  0  0  0  0  0  0  0  0
  152.0265  140.0399  157.2977 C   0  0  0  0  0  0  0  0  0  0  0  0
  151.6110  139.3041  155.7745 S   0  0  0  0  0  0  0  0  0  0  0  0
  146.4583  139.6306  150.7814 H   0  0  0  0  0  0  0  0  0  0  0  0
  145.1736  138.4859  151.1814 H   0  0  0  0  0  0  0  0  0  0  0  0
  146.7842  137.8906  150.7635 H   0  0  0  0  0  0  0  0  0  0  0  0
  148.5366  139.2457  152.2066 H   0  0  0  0  0  0  0  0  0  0  0  0
  147.7348  139.1691  155.0822 H   0  0  0  0  0  0  0  0  0  0  0  0
  149.1448  138.3165  154.4977 H   0  0  0  0  0  0  0  0  0  0  0  0
  149.9524  140.6244  153.5485 H   0  0  0  0  0  0  0  0  0  0  0  0
  148.7093  141.3431  154.5468 H   0  0  0  0  0  0  0  0  0  0  0  0
  150.2953  142.4735  158.9554 H   0  0  0  0  0  0  0  0  0  0  0  0
  151.3343  141.3088  159.7246 H   0  0  0  0  0  0  0  0  0  0  0  0
  153.2122  142.5437  158.1892 H   0  0  0  0  0  0  0  0  0  0  0  0
  152.0548  143.8463  158.2756 H   0  0  0  0  0  0  0  0  0  0  0  0
  153.8203  143.9446  160.0687 H   0  0  0  0  0  0  0  0  0  0  0  0
  152.5151  141.3566  160.9408 H   0  0  0  0  0  0  0  0  0  0  0  0
  154.2337  141.7066  160.8165 H   0  0  0  0  0  0  0  0  0  0  0  0
  152.7263  141.9326  163.1644 H   0  0  0  0  0  0  0  0  0  0  0  0
  154.2201  142.8199  162.8994 H   0  0  0  0  0  0  0  0  0  0  0  0
  151.6380  144.0203  163.2030 H   0  0  0  0  0  0  0  0  0  0  0  0
  153.1240  144.8083  162.6919 H   0  0  0  0  0  0  0  0  0  0  0  0
  151.8259  145.1662  160.7319 H   0  0  0  0  0  0  0  0  0  0  0  0
  150.9293  143.6686  160.9672 H   0  0  0  0  0  0  0  0  0  0  0  0
  152.8660  139.6681  157.8660 H   0  0  0  0  0  0  0  0  0  0  0  0
  1  2  1  0  0  0  0
  1 19  1  0  0  0  0
  1 20  1  0  0  0  0
  1 21  1  0  0  0  0
  2  3  2  0  0  0  0
  2  4  1  0  0  0  0
  4  5  1  0  0  0  0
  4 22  1  0  0  0  0
  5  6  1  0  0  0  0
  5 23  1  0  0  0  0
  5 24  1  0  0  0  0
  6  7  1  0  0  0  0
  6 25  1  0  0  0  0
  6 26  1  0  0  0  0
  7 18  1  0  0  0  0
  7  8  2  0  0  0  0
  8  9  1  0  0  0  0
  9 10  1  0  0  0  0
  9 17  2  0  0  0  0
 10 11  1  0  0  0  0
 10 27  1  0  0  0  0
 10 28  1  0  0  0  0
 11 12  1  0  0  0  0
 11 29  1  0  0  0  0
 11 30  1  0  0  0  0
 12 16  1  0  0  0  0
 12 13  1  0  0  0  0
 12 31  1  0  0  0  0
 13 14  1  0  0  0  0
 13 32  1  0  0  0  0
 13 33  1  0  0  0  0
 14 15  1  0  0  0  0
 14 34  1  0  0  0  0
 14 35  1  0  0  0  0
 15 16  1  0  0  0  0
 15 36  1  0  0  0  0
 15 37  1  0  0  0  0
 16 38  1  0  0  0  0
 16 39  1  0  0  0  0
 17 18  1  0  0  0  0
 17 40  1  0  0  0  0
M  END
> <s_m_source_file>
AV-unprocessed.smi

> <i_m_source_file_index>
2263

> <i_lp_mmshare_version>
43012

> <i_f3d_flags>
0

> <s_epik_input>
W0NIM11DKD1PKVtOSF1bQ0gyXVtDSDJdYzFuYyhbY0hdczEpW0NIMl1bQ0gyXVtDSF0yW0NIMl1bQ0gyXVtDSDJdW0NIMl0y

> <s_epik_cmdline>
J2VwaWtfcHl0aG9uJywgJy1waCcsICc3LjAnLCAnLXRuJywgJzgnLCAnLW1hJywgJzIwMCcsICctbWV0YWxfYmluZGluZycsICctaW1hZScsICc8aW5maWxlLm1hZT4nLCAnLW9tYWUnLCAnPG91dGZpbGUubWFlPic=

> <r_epik_Ionization_Penalty>
0.00116713

> <r_epik_Ionization_Penalty_Charging>
0

> <r_epik_Ionization_Penalty_Neutral>
0.00116713

> <r_epik_State_Penalty>
0.000768465

> <r_epik_Charging_Adjusted_Penalty>
0.000768465

> <i_epik_Tot_Q>
0

> <i_epik_Tot_abs_Q>
0

> <r_epik_Metal_State_Penalty>
-0

> <b_epik_Metal_Only>
0

> <s_lp_Force_Field>
OPLS_2005

> <r_lp_Energy>
10.4461

> <b_lp_Chiralities_Consistent>
1

> <s_lp_Variant>
AV-unprocessed.smi:2263-1

> <Gold.Version>
5.8.1

> <Gold.Id.Protein>
6NUR|6NUR_protein|mol2

> <Gold.PLP.Fitness>
47.0000

> <Gold.PLP.PLP>
-44.9807

> <Gold.PLP.part.hbond>
-1.7155

> <Gold.PLP.part.metal>
0.0000

> <Gold.PLP.part.buried>
0.3158

> <Gold.PLP.part.nonpolar>
-44.3532

> <Gold.PLP.part.repulsive>
0.3256

> <Gold.PLP.ligand.clash>
0.0000

> <Gold.PLP.ligand.torsion>
0.5296

> <Gold.PLP.Chemscore.Hbond>
1.0000

> <Gold.PLP.Chemscore.CHOScore>
0.0000

> <Gold.PLP.Chemscore.Metal>
0.0000

> <Gold.Chemscore.Hbonds>
donor molecule, donor type, donor heavy atom, donor atom, acceptor molecule, acceptor atom, score
      L1  H     4    22       P1  7957  1.00

> <Gold.PLP.Chemscore.Internal.Correction>
0.0785

> <Gold.Rescore>
     Score         DG    S(hbond)    S(metal)    S(lipo)     H(rot)  DE(clash)    DE(int)     intcor
     17.09     -19.00       1.00        0.00     126.35       1.80       1.31       0.59       ----

> <Gold.Chemscore.Fitness>
17.0944

> <Gold.Chemscore.DG>
-18.9956

> <Gold.Chemscore.ZeroCoef>
-5.4800

> <Gold.Chemscore.Hbond>
0.9980

> <Gold.Chemscore.Metal>
0.0000

> <Gold.Chemscore.Lipo>
126.3523

> <Gold.Chemscore.Internal_Hbond>
0.0000

> <Gold.Chemscore.DEClash>
1.3105

> <Gold.Chemscore.DEInternal>
0.5907

> <Gold.Chemscore.Rot>
1.7972

> <Gold.Chemscore.Internal.Correction>
   9.000000E+99

> <Gold.Chemscore.Hbonds>
donor molecule, donor type, donor heavy atom, donor atom, acceptor molecule, acceptor atom, score
      L1  H     4    22       P1  7957  1.00

> <Gold.Chemscore.Hbond.Weighted>
-3.3332

> <Gold.Chemscore.Metal.Weighted>
-0.0000

> <Gold.Chemscore.Lipo.Weighted>
-14.7832

> <Gold.Chemscore.Internal_Hbond.Weighted>
0.0000

> <Gold.Chemscore.DEClash.Weighted>
1.3105

> <Gold.Chemscore.DEInternal.Weighted>
0.5907

> <Gold.Chemscore.Rot.Weighted>
4.6008

> <Gold.Chemscore.Internal.Correction.Weighted>
   9.000000E+99

> <Gold.Protein.RotatedTorsions>
[ 6907 6896 6895 6894 ] final  122.44 input  -60.11 | X-H torsion
[ 7974 7965 7964 7962 ] final  -22.22 input  175.53 | X-H torsion
[ 8008 7997 7996 7995 ] final    9.47 input   59.86 | X-H torsion
[ 10167 10162 10161 10158 ] final  -53.79 input  -65.29 | X-H torsion
[ 10718 10713 10712 10709 ] final  173.75 input   66.30 | X-H torsion
[ 10763 10752 10751 10750 ] final -109.54 input  -60.55 | X-H torsion
[ 11005 11000 10999 10996 ] final -121.16 input  -57.11 | X-H torsion

> <Gold.Protein.ActiveResidues>
 VAL166  LYS551  ARG553  GLY616  TRP617  ASP618  TYR619  PRO620  LYS621  CYS622 
 ASP623  PHE694  ASN695  SER759  ASP760  ASP761  ALA762  ILE779  LEU786  VAL792 
 PHE793  MET794  SER795  GLU796  ALA797  LYS798  CYS799  TRP800  GLU811  SER814 

> <Gold.Protein.RotatedAtoms>
  152.4243  133.7168  159.6510 H   0  0  0  0  0  0  0  0  0  0  0  0  # atno 6907 bound_to 6896
  150.8119  133.8395  159.3184 H   0  0  0  0  0  0  0  0  0  0  0  0  # atno 6908 bound_to 6896
  151.6103  135.1043  160.0131 H   0  0  0  0  0  0  0  0  0  0  0  0  # atno 6909 bound_to 6896
  146.1688  140.4448  142.8541 H   0  0  0  0  0  0  0  0  0  0  0  0  # atno 7974 bound_to 7965
  154.7805  140.2818  155.6067 H   0  0  0  0  0  0  0  0  0  0  0  0  # atno 8008 bound_to 7997
  156.2949  140.2624  156.2557 H   0  0  0  0  0  0  0  0  0  0  0  0  # atno 8009 bound_to 7997
  154.9790  140.0375  157.2259 H   0  0  0  0  0  0  0  0  0  0  0  0  # atno 8010 bound_to 7997
  140.6466  143.2539  151.4842 H   0  0  0  0  0  0  0  0  0  0  0  0  # atno 10167 bound_to 10162
  156.9596  131.0056  151.2930 H   0  0  0  0  0  0  0  0  0  0  0  0  # atno 10718 bound_to 10713
  154.8199  135.4597  154.0748 H   0  0  0  0  0  0  0  0  0  0  0  0  # atno 10763 bound_to 10752
  153.2110  135.6882  153.8120 H   0  0  0  0  0  0  0  0  0  0  0  0  # atno 10764 bound_to 10752
  153.7571  135.3289  155.3308 H   0  0  0  0  0  0  0  0  0  0  0  0  # atno 10765 bound_to 10752
  141.0091  134.0291  157.3438 H   0  0  0  0  0  0  0  0  0  0  0  0  # atno 11005 bound_to 11000
  144.8132  140.6423  143.6401 LP  0  0  0  0  0  0  0  0  0  0  0  0  # atno 17320 bound_to 7965
  145.4395  139.1537  143.3978 LP  0  0  0  0  0  0  0  0  0  0  0  0  # atno 17321 bound_to 7965
  139.5677  144.2003  152.1790 LP  0  0  0  0  0  0  0  0  0  0  0  0  # atno 17342 bound_to 10162
  140.1290  144.5306  150.6815 LP  0  0  0  0  0  0  0  0  0  0  0  0  # atno 17343 bound_to 10162
  157.5666  130.8282  149.8336 LP  0  0  0  0  0  0  0  0  0  0  0  0  # atno 17370 bound_to 10713
  156.0328  130.3760  150.1642 LP  0  0  0  0  0  0  0  0  0  0  0  0  # atno 17371 bound_to 10713
  139.9080  135.0184  156.7568 LP  0  0  0  0  0  0  0  0  0  0  0  0  # atno 17394 bound_to 11000
  140.6764  133.9514  155.7885 LP  0  0  0  0  0  0  0  0  0  0  0  0  # atno 17395 bound_to 11000

$$$$
