AV-unprocessed.smi:2416|AV-procd|sdf|9544|dock9
  -GOLD-   2272013173D 1   1.00000     0.00000
 Structure written by MMmdl.
 40 41  0  0  0  0  0  0  0  0  1 V2000
  151.0485  138.6568  154.4164 C   0  0  0  0  0  0  0  0  0  0  0  0
  149.7967  138.9765  153.8213 O   0  0  0  0  0  0  0  0  0  0  0  0
  148.9620  139.9212  154.5047 C   0  0  1  0  0  0  0  0  0  0  0  0
  149.7994  141.1050  155.0065 C   0  0  0  0  0  0  0  0  0  0  0  0
  147.6863  140.1929  153.6847 C   0  0  0  0  0  0  0  0  0  0  0  0
  147.0191  139.0054  154.3823 C   0  0  1  0  0  0  0  0  0  0  0  0
  147.1484  137.7829  153.5887 N   0  0  0  0  0  0  0  0  0  0  0  0
  146.1180  137.0595  153.1303 C   0  0  0  0  0  0  0  0  0  0  0  0
  144.9398  137.3663  153.3147 O   0  0  0  0  0  0  0  0  0  0  0  0
  146.5452  135.9725  152.4641 N   0  0  0  0  0  0  0  0  0  0  0  0
  145.7661  134.9418  151.8743 C   0  0  0  0  0  0  0  0  0  0  0  0
  146.5083  133.9101  151.2556 C   0  0  0  0  0  0  0  0  0  0  0  0
  145.8293  132.8367  150.6465 C   0  0  0  0  0  0  0  0  0  0  0  0
  144.4236  132.8245  150.6732 C   0  0  0  0  0  0  0  0  0  0  0  0
  143.7272  131.8128  150.1030 F   0  0  0  0  0  0  0  0  0  0  0  0
  143.7598  133.8904  151.3079 C   0  0  0  0  0  0  0  0  0  0  0  0
  144.4095  134.9197  151.8919 N   0  0  0  0  0  0  0  0  0  0  0  0
  148.0651  139.1434  155.5222 C   0  0  0  0  0  0  0  0  0  0  0  0
  148.6574  137.8637  156.1362 C   0  0  0  0  0  0  0  0  0  0  0  0
  147.5482  139.9596  156.7164 C   0  0  0  0  0  0  0  0  0  0  0  0
  151.6309  138.0586  153.7161 H   0  0  0  0  0  0  0  0  0  0  0  0
  150.9239  138.0609  155.3203 H   0  0  0  0  0  0  0  0  0  0  0  0
  151.6337  139.5433  154.6586 H   0  0  0  0  0  0  0  0  0  0  0  0
  149.2116  141.7894  155.6171 H   0  0  0  0  0  0  0  0  0  0  0  0
  150.1965  141.7012  154.1856 H   0  0  0  0  0  0  0  0  0  0  0  0
  150.6401  140.7662  155.6126 H   0  0  0  0  0  0  0  0  0  0  0  0
  147.2168  141.1421  153.9467 H   0  0  0  0  0  0  0  0  0  0  0  0
  147.7774  140.0968  152.6029 H   0  0  0  0  0  0  0  0  0  0  0  0
  145.9956  139.2243  154.6922 H   0  0  0  0  0  0  0  0  0  0  0  0
  148.0859  137.4579  153.4028 H   0  0  0  0  0  0  0  0  0  0  0  0
  147.5451  135.8590  152.3869 H   0  0  0  0  0  0  0  0  0  0  0  0
  147.5884  133.9354  151.2463 H   0  0  0  0  0  0  0  0  0  0  0  0
  146.3780  132.0381  150.1695 H   0  0  0  0  0  0  0  0  0  0  0  0
  142.6808  133.9184  151.3500 H   0  0  0  0  0  0  0  0  0  0  0  0
  147.9067  137.3073  156.6982 H   0  0  0  0  0  0  0  0  0  0  0  0
  149.4759  138.0924  156.8191 H   0  0  0  0  0  0  0  0  0  0  0  0
  149.0565  137.1815  155.3861 H   0  0  0  0  0  0  0  0  0  0  0  0
  146.7842  139.4130  157.2705 H   0  0  0  0  0  0  0  0  0  0  0  0
  147.0962  140.9008  156.4029 H   0  0  0  0  0  0  0  0  0  0  0  0
  148.3480  140.2022  157.4170 H   0  0  0  0  0  0  0  0  0  0  0  0
  1  2  1  0  0  0  0
  1 21  1  0  0  0  0
  1 22  1  0  0  0  0
  1 23  1  0  0  0  0
  2  3  1  0  0  0  0
  3 18  1  0  0  0  0
  3  4  1  0  0  0  0
  3  5  1  0  0  0  0
  4 24  1  0  0  0  0
  4 25  1  0  0  0  0
  4 26  1  0  0  0  0
  5  6  1  0  0  0  0
  5 27  1  0  0  0  0
  5 28  1  0  0  0  0
  6  7  1  0  0  0  0
  6 18  1  0  0  0  0
  6 29  1  0  0  0  0
  7  8  1  0  0  0  0
  7 30  1  0  0  0  0
  8  9  2  0  0  0  0
  8 10  1  0  0  0  0
 10 11  1  0  0  0  0
 10 31  1  0  0  0  0
 11 17  1  0  0  0  0
 11 12  2  0  0  0  0
 12 13  1  0  0  0  0
 12 32  1  0  0  0  0
 13 14  2  0  0  0  0
 13 33  1  0  0  0  0
 14 15  1  0  0  0  0
 14 16  1  0  0  0  0
 16 17  2  0  0  0  0
 16 34  1  0  0  0  0
 18 19  1  0  0  0  0
 18 20  1  0  0  0  0
 19 35  1  0  0  0  0
 19 36  1  0  0  0  0
 19 37  1  0  0  0  0
 20 38  1  0  0  0  0
 20 39  1  0  0  0  0
 20 40  1  0  0  0  0
M  END
> <s_m_source_file>
AV-unprocessed.smi

> <i_m_source_file_index>
2416

> <i_lp_mmshare_version>
43012

> <i_f3d_flags>
0

> <s_epik_input>
W0NIM11PW0NAQF0xKFtDSDNdKVtDSDJdW0NASF0oQzEoW0NIM10pW0NIM10pW05IXUMoPU8pW05IXWMyW2NIXVtjSF1jKEYpW2NIXW4y

> <s_epik_cmdline>
J2VwaWtfcHl0aG9uJywgJy1waCcsICc3LjAnLCAnLXRuJywgJzgnLCAnLW1hJywgJzIwMCcsICctbWV0YWxfYmluZGluZycsICctaW1hZScsICc8aW5maWxlLm1hZT4nLCAnLW9tYWUnLCAnPG91dGZpbGUubWFlPic=

> <r_lp_tautomer_probability>
1

> <r_epik_Ionization_Penalty>
3.67756e-05

> <r_epik_Ionization_Penalty_Charging>
0

> <r_epik_Ionization_Penalty_Neutral>
3.67756e-05

> <r_epik_State_Penalty>
-0

> <r_epik_Charging_Adjusted_Penalty>
0

> <i_epik_Tot_Q>
0

> <i_epik_Tot_abs_Q>
0

> <r_epik_Metal_State_Penalty>
-0

> <b_epik_Metal_Only>
0

> <s_lp_Force_Field>
OPLS_2005

> <r_lp_Energy>
27.553

> <b_lp_Chiralities_Consistent>
1

> <s_lp_Variant>
AV-unprocessed.smi:2416-1

> <Gold.Version>
5.8.1

> <Gold.Id.Protein>
6NUR|6NUR_protein|mol2

> <Gold.PLP.Fitness>
33.7761

> <Gold.PLP.PLP>
-26.6895

> <Gold.PLP.part.hbond>
-1.8349

> <Gold.PLP.part.metal>
0.0000

> <Gold.PLP.part.buried>
-2.7423

> <Gold.PLP.part.nonpolar>
-23.8881

> <Gold.PLP.part.repulsive>
2.2494

> <Gold.PLP.ligand.clash>
0.0000

> <Gold.PLP.ligand.torsion>
0.3859

> <Gold.PLP.Chemscore.Hbond>
1.4919

> <Gold.PLP.Chemscore.CHOScore>
1.0000

> <Gold.PLP.Chemscore.Metal>
0.0000

> <Gold.Chemscore.Hbonds>
donor molecule, donor type, donor heavy atom, donor atom, acceptor molecule, acceptor atom, score
      L1  H     7    30       P1  7948  0.48
      L1  H    10    31       P1  7948  1.00
      L1  C    16    34       P1 10186  1.00

> <Gold.PLP.Chemscore.Internal.Correction>
0.3828

> <Gold.Rescore>
     Score         DG    S(hbond)    S(metal)    S(lipo)     H(rot)  DE(clash)    DE(int)     intcor
     13.46     -15.23       1.77        0.00      60.44       1.27       0.06       1.71       ----

> <Gold.Chemscore.Fitness>
13.4622

> <Gold.Chemscore.DG>
-15.2324

> <Gold.Chemscore.ZeroCoef>
-5.4800

> <Gold.Chemscore.Hbond>
1.7725

> <Gold.Chemscore.Metal>
0.0000

> <Gold.Chemscore.Lipo>
60.4399

> <Gold.Chemscore.Internal_Hbond>
0.0000

> <Gold.Chemscore.DEClash>
0.0643

> <Gold.Chemscore.DEInternal>
1.7059

> <Gold.Chemscore.Rot>
1.2653

> <Gold.Chemscore.Internal.Correction>
   9.000000E+99

> <Gold.Chemscore.Hbonds>
donor molecule, donor type, donor heavy atom, donor atom, acceptor molecule, acceptor atom, score
      L1  H     7    30       P1  7948  0.48
      L1  H    10    31       P1  7948  0.91

> <Gold.Chemscore.Hbond.Weighted>
-5.9202

> <Gold.Chemscore.Metal.Weighted>
-0.0000

> <Gold.Chemscore.Lipo.Weighted>
-7.0715

> <Gold.Chemscore.Internal_Hbond.Weighted>
0.0000

> <Gold.Chemscore.DEClash.Weighted>
0.0643

> <Gold.Chemscore.DEInternal.Weighted>
1.7059

> <Gold.Chemscore.Rot.Weighted>
3.2392

> <Gold.Chemscore.Internal.Correction.Weighted>
   9.000000E+99

> <Gold.Protein.RotatedTorsions>
[ 6907 6896 6895 6894 ] final  -14.82 input  -60.11 | X-H torsion
[ 7974 7965 7964 7962 ] final  102.95 input  175.53 | X-H torsion
[ 8008 7997 7996 7995 ] final   94.96 input   59.86 | X-H torsion
[ 10167 10162 10161 10158 ] final  150.00 input  -65.29 | X-H torsion
[ 10718 10713 10712 10709 ] final  113.45 input   66.30 | X-H torsion
[ 10763 10752 10751 10750 ] final  -45.58 input  -60.55 | X-H torsion
[ 11005 11000 10999 10996 ] final   49.15 input  -57.11 | X-H torsion

> <Gold.Protein.ActiveResidues>
 VAL166  LYS551  ARG553  GLY616  TRP617  ASP618  TYR619  PRO620  LYS621  CYS622 
 ASP623  PHE694  ASN695  SER759  ASP760  ASP761  ALA762  ILE779  LEU786  VAL792 
 PHE793  MET794  SER795  GLU796  ALA797  LYS798  CYS799  TRP800  GLU811  SER814 

> <Gold.Protein.RotatedAtoms>
  151.3336  135.0847  159.9346 H   0  0  0  0  0  0  0  0  0  0  0  0  # atno 6907 bound_to 6896
  152.5229  133.9518  159.7686 H   0  0  0  0  0  0  0  0  0  0  0  0  # atno 6908 bound_to 6896
  150.9862  133.6143  159.2745 H   0  0  0  0  0  0  0  0  0  0  0  0  # atno 6909 bound_to 6896
  145.3523  139.2436  143.3551 H   0  0  0  0  0  0  0  0  0  0  0  0  # atno 7974 bound_to 7965
  156.0637  140.3293  155.7492 H   0  0  0  0  0  0  0  0  0  0  0  0  # atno 8008 bound_to 7997
  155.5415  140.0602  157.2886 H   0  0  0  0  0  0  0  0  0  0  0  0  # atno 8009 bound_to 7997
  154.4494  140.1910  156.0584 H   0  0  0  0  0  0  0  0  0  0  0  0  # atno 8010 bound_to 7997
  139.4855  144.5557  151.7322 H   0  0  0  0  0  0  0  0  0  0  0  0  # atno 10167 bound_to 10162
  157.6337  131.0984  150.7043 H   0  0  0  0  0  0  0  0  0  0  0  0  # atno 10718 bound_to 10713
  154.0309  135.6657  153.4780 H   0  0  0  0  0  0  0  0  0  0  0  0  # atno 10763 bound_to 10752
  153.0541  135.5067  154.7934 H   0  0  0  0  0  0  0  0  0  0  0  0  # atno 10764 bound_to 10752
  154.6879  135.3056  154.9487 H   0  0  0  0  0  0  0  0  0  0  0  0  # atno 10765 bound_to 10752
  140.1128  134.4931  155.8663 H   0  0  0  0  0  0  0  0  0  0  0  0  # atno 11005 bound_to 11000
  146.2963  140.4141  142.8720 LP  0  0  0  0  0  0  0  0  0  0  0  0  # atno 17320 bound_to 7965
  144.8708  140.7270  143.6048 LP  0  0  0  0  0  0  0  0  0  0  0  0  # atno 17321 bound_to 7965
  140.5118  144.1013  150.5997 LP  0  0  0  0  0  0  0  0  0  0  0  0  # atno 17342 bound_to 10162
  140.3942  143.2737  152.0025 LP  0  0  0  0  0  0  0  0  0  0  0  0  # atno 17343 bound_to 10162
  156.7378  130.4729  149.5484 LP  0  0  0  0  0  0  0  0  0  0  0  0  # atno 17370 bound_to 10713
  156.1560  130.6342  151.0657 LP  0  0  0  0  0  0  0  0  0  0  0  0  # atno 17371 bound_to 10713
  141.2134  133.6733  156.6739 LP  0  0  0  0  0  0  0  0  0  0  0  0  # atno 17394 bound_to 11000
  140.3068  134.8119  157.4143 LP  0  0  0  0  0  0  0  0  0  0  0  0  # atno 17395 bound_to 11000

$$$$
