AV-unprocessed.smi:1824|AV-procd|sdf|7398|dock1
  -GOLD-   22720 9 63D 1   1.00000     0.00000
 Structure written by MMmdl.
 44 46  0  0  0  0  0  0  0  0  1 V2000
  152.4164  138.0371  155.3661 C   0  0  0  0  0  0  0  0  0  0  0  0
  151.1456  138.8000  155.7539 C   0  0  1  0  0  0  0  0  0  0  0  0
  151.4245  139.8994  156.7942 C   0  0  0  0  0  0  0  0  0  0  0  0
  150.2302  140.6756  157.1030 N   0  0  0  0  0  0  0  0  0  0  0  0
  150.5111  141.6810  158.1293 C   0  0  0  0  0  0  0  0  0  0  0  0
  150.7882  143.1060  157.6086 C   0  0  1  0  0  0  0  0  0  0  0  0
  149.7799  143.9721  158.0933 O   0  0  0  0  0  0  0  0  0  0  0  0
  152.1629  143.6204  158.0761 C   0  0  0  0  0  0  0  0  0  0  0  0
  152.2607  143.7035  159.5226 N   0  0  0  0  0  0  0  0  0  0  0  0
  151.7269  144.6464  160.3227 C   0  0  0  0  0  0  0  0  0  0  0  0
  151.9431  144.5297  161.6299 N   0  0  0  0  0  0  0  0  0  0  0  0
  152.7063  143.3761  161.6853 C   0  0  0  0  0  0  0  0  0  0  0  0
  153.2693  142.7002  162.7915 C   0  0  0  0  0  0  0  0  0  0  0  0
  154.0211  141.5221  162.6024 C   0  0  0  0  0  0  0  0  0  0  0  0
  154.5536  140.8870  163.6733 F   0  0  0  0  0  0  0  0  0  0  0  0
  154.2209  141.0022  161.3062 C   0  0  0  0  0  0  0  0  0  0  0  0
  154.9440  139.8704  161.1338 F   0  0  0  0  0  0  0  0  0  0  0  0
  153.6698  141.6582  160.1888 C   0  0  0  0  0  0  0  0  0  0  0  0
  152.9210  142.8333  160.3826 C   0  0  0  0  0  0  0  0  0  0  0  0
  149.7120  141.2581  155.8660 C   0  0  0  0  0  0  0  0  0  0  0  0
  149.4472  140.2017  154.7743 C   0  0  2  0  0  0  0  0  0  0  0  0
  148.1961  139.3488  155.0446 C   0  0  0  0  0  0  0  0  0  0  0  0
  150.6072  139.3926  154.5736 O   0  0  0  0  0  0  0  0  0  0  0  0
  152.8625  137.5511  156.2341 H   0  0  0  0  0  0  0  0  0  0  0  0
  153.1624  138.7058  154.9359 H   0  0  0  0  0  0  0  0  0  0  0  0
  152.1969  137.2642  154.6291 H   0  0  0  0  0  0  0  0  0  0  0  0
  150.4283  138.0867  156.1608 H   0  0  0  0  0  0  0  0  0  0  0  0
  151.8095  139.4383  157.7047 H   0  0  0  0  0  0  0  0  0  0  0  0
  152.2096  140.5617  156.4250 H   0  0  0  0  0  0  0  0  0  0  0  0
  149.6687  141.7343  158.8210 H   0  0  0  0  0  0  0  0  0  0  0  0
  151.3603  141.3469  158.7274 H   0  0  0  0  0  0  0  0  0  0  0  0
  150.7671  143.1317  156.5201 H   0  0  0  0  0  0  0  0  0  0  0  0
  149.3119  144.3316  157.3554 H   0  0  0  0  0  0  0  0  0  0  0  0
  152.9607  142.9745  157.7064 H   0  0  0  0  0  0  0  0  0  0  0  0
  152.3514  144.6138  157.6675 H   0  0  0  0  0  0  0  0  0  0  0  0
  151.1492  145.4667  159.9223 H   0  0  0  0  0  0  0  0  0  0  0  0
  153.1231  143.0888  163.7882 H   0  0  0  0  0  0  0  0  0  0  0  0
  153.8218  141.2639  159.1952 H   0  0  0  0  0  0  0  0  0  0  0  0
  148.7881  141.8040  156.0519 H   0  0  0  0  0  0  0  0  0  0  0  0
  150.4277  141.9872  155.4828 H   0  0  0  0  0  0  0  0  0  0  0  0
  149.2757  140.7275  153.8346 H   0  0  0  0  0  0  0  0  0  0  0  0
  147.3023  139.9723  155.0779 H   0  0  0  0  0  0  0  0  0  0  0  0
  148.2578  138.8195  155.9952 H   0  0  0  0  0  0  0  0  0  0  0  0
  148.0528  138.6082  154.2576 H   0  0  0  0  0  0  0  0  0  0  0  0
  1  2  1  0  0  0  0
  1 24  1  0  0  0  0
  1 25  1  0  0  0  0
  1 26  1  0  0  0  0
  2 23  1  0  0  0  0
  2  3  1  0  0  0  0
  2 27  1  0  0  0  0
  3  4  1  0  0  0  0
  3 28  1  0  0  0  0
  3 29  1  0  0  0  0
  4  5  1  0  0  0  0
  4 20  1  0  0  0  0
  5  6  1  0  0  0  0
  5 30  1  0  0  0  0
  5 31  1  0  0  0  0
  6  7  1  0  0  0  0
  6  8  1  0  0  0  0
  6 32  1  0  0  0  0
  7 33  1  0  0  0  0
  8  9  1  0  0  0  0
  8 34  1  0  0  0  0
  8 35  1  0  0  0  0
  9 19  1  0  0  0  0
  9 10  1  0  0  0  0
 10 11  2  0  0  0  0
 10 36  1  0  0  0  0
 11 12  1  0  0  0  0
 12 19  2  0  0  0  0
 12 13  1  0  0  0  0
 13 14  2  0  0  0  0
 13 37  1  0  0  0  0
 14 15  1  0  0  0  0
 14 16  1  0  0  0  0
 16 17  1  0  0  0  0
 16 18  2  0  0  0  0
 18 19  1  0  0  0  0
 18 38  1  0  0  0  0
 20 21  1  0  0  0  0
 20 39  1  0  0  0  0
 20 40  1  0  0  0  0
 21 22  1  0  0  0  0
 21 23  1  0  0  0  0
 21 41  1  0  0  0  0
 22 42  1  0  0  0  0
 22 43  1  0  0  0  0
 22 44  1  0  0  0  0
M  END
> <s_m_source_file>
AV-unprocessed.smi

> <i_m_source_file_index>
1824

> <i_lp_mmshare_version>
43012

> <i_f3d_flags>
0

> <s_epik_input>
W0NIM11bQ0BASF0xW0NIMl1OKFtDSDJdW0NASF0oTzEpW0NIM10pW0NIMl1bQ0BIXShbT0hdKVtDSDJdbihbY0hdbjIpYyhjMjMpW2NIXWMoRiljKEYpW2NIXTM=

> <s_epik_cmdline>
J2VwaWtfcHl0aG9uJywgJy1waCcsICc3LjAnLCAnLXRuJywgJzgnLCAnLW1hJywgJzIwMCcsICctbWV0YWxfYmluZGluZycsICctaW1hZScsICc8aW5maWxlLm1hZT4nLCAnLW9tYWUnLCAnPG91dGZpbGUubWFlPic=

> <r_epik_Ionization_Penalty>
0.273778

> <r_epik_Ionization_Penalty_Charging>
0

> <r_epik_Ionization_Penalty_Neutral>
0.273778

> <r_epik_State_Penalty>
0.246794

> <r_epik_Charging_Adjusted_Penalty>
0.246794

> <i_epik_Tot_Q>
0

> <i_epik_Tot_abs_Q>
0

> <r_epik_Metal_State_Penalty>
0.238234

> <b_epik_Metal_Only>
0

> <s_lp_Force_Field>
OPLS_2005

> <r_lp_Energy>
30.0542

> <b_lp_Chiralities_Consistent>
1

> <s_lp_Variant>
AV-unprocessed.smi:1824-6

> <Gold.Version>
5.8.1

> <Gold.Id.Protein>
6NUR|6NUR_protein|mol2

> <Gold.PLP.Fitness>
57.2276

> <Gold.PLP.PLP>
-55.4604

> <Gold.PLP.part.hbond>
-3.0000

> <Gold.PLP.part.metal>
0.0000

> <Gold.PLP.part.buried>
-2.8550

> <Gold.PLP.part.nonpolar>
-49.9056

> <Gold.PLP.part.repulsive>
0.4205

> <Gold.PLP.ligand.clash>
0.0000

> <Gold.PLP.ligand.torsion>
1.4731

> <Gold.PLP.Chemscore.Hbond>
1.5500

> <Gold.PLP.Chemscore.CHOScore>
0.0000

> <Gold.PLP.Chemscore.Metal>
0.0000

> <Gold.Chemscore.Hbonds>
donor molecule, donor type, donor heavy atom, donor atom, acceptor molecule, acceptor atom, score
      L1  H     7    33       P1  8028  0.60
      P1  H  7989  7998       L1    23  0.59

> <Gold.PLP.Chemscore.Internal.Correction>
0.0634

> <Gold.Rescore>
     Score         DG    S(hbond)    S(metal)    S(lipo)     H(rot)  DE(clash)    DE(int)     intcor
     15.48     -17.15       0.68        0.00     129.72       2.26       0.06       1.61       ----

> <Gold.Chemscore.Fitness>
15.4812

> <Gold.Chemscore.DG>
-17.1538

> <Gold.Chemscore.ZeroCoef>
-5.4800

> <Gold.Chemscore.Hbond>
0.6846

> <Gold.Chemscore.Metal>
0.0000

> <Gold.Chemscore.Lipo>
129.7230

> <Gold.Chemscore.Internal_Hbond>
0.0000

> <Gold.Chemscore.DEClash>
0.0647

> <Gold.Chemscore.DEInternal>
1.6079

> <Gold.Chemscore.Rot>
2.2619

> <Gold.Chemscore.Internal.Correction>
   9.000000E+99

> <Gold.Chemscore.Hbonds>
donor molecule, donor type, donor heavy atom, donor atom, acceptor molecule, acceptor atom, score
      L1  H     7    33       P1  8028  0.04
      P1  H  7989  7998       L1    23  0.06

> <Gold.Chemscore.Hbond.Weighted>
-2.2867

> <Gold.Chemscore.Metal.Weighted>
-0.0000

> <Gold.Chemscore.Lipo.Weighted>
-15.1776

> <Gold.Chemscore.Internal_Hbond.Weighted>
0.0000

> <Gold.Chemscore.DEClash.Weighted>
0.0647

> <Gold.Chemscore.DEInternal.Weighted>
1.6079

> <Gold.Chemscore.Rot.Weighted>
5.7904

> <Gold.Chemscore.Internal.Correction.Weighted>
   9.000000E+99

> <Gold.Protein.RotatedTorsions>
[ 6907 6896 6895 6894 ] final  155.33 input  -60.11 | X-H torsion
[ 7974 7965 7964 7962 ] final  -19.25 input  175.53 | X-H torsion
[ 8008 7997 7996 7995 ] final  -56.43 input   59.86 | X-H torsion
[ 10167 10162 10161 10158 ] final -104.15 input  -65.29 | X-H torsion
[ 10718 10713 10712 10709 ] final   85.66 input   66.30 | X-H torsion
[ 10763 10752 10751 10750 ] final  114.77 input  -60.55 | X-H torsion
[ 11005 11000 10999 10996 ] final   18.14 input  -57.11 | X-H torsion

> <Gold.Protein.ActiveResidues>
 VAL166  LYS551  ARG553  GLY616  TRP617  ASP618  TYR619  PRO620  LYS621  CYS622 
 ASP623  PHE694  ASN695  SER759  ASP760  ASP761  ALA762  ILE779  LEU786  VAL792 
 PHE793  MET794  SER795  GLU796  ALA797  LYS798  CYS799  TRP800  GLU811  SER814 

> <Gold.Protein.RotatedAtoms>
  152.0456  133.3996  159.4355 H   0  0  0  0  0  0  0  0  0  0  0  0  # atno 6907 bound_to 6896
  150.6873  134.3365  159.4859 H   0  0  0  0  0  0  0  0  0  0  0  0  # atno 6908 bound_to 6896
  152.1169  134.9233  160.0615 H   0  0  0  0  0  0  0  0  0  0  0  0  # atno 6909 bound_to 6896
  146.1851  140.4035  142.8479 H   0  0  0  0  0  0  0  0  0  0  0  0  # atno 7974 bound_to 7965
  154.4230  140.1130  156.5637 H   0  0  0  0  0  0  0  0  0  0  0  0  # atno 8008 bound_to 7997
  155.6285  140.3495  155.4656 H   0  0  0  0  0  0  0  0  0  0  0  0  # atno 8009 bound_to 7997
  155.9967  140.1190  157.0576 H   0  0  0  0  0  0  0  0  0  0  0  0  # atno 8010 bound_to 7997
  140.2123  143.3737  152.1040 H   0  0  0  0  0  0  0  0  0  0  0  0  # atno 10167 bound_to 10162
  157.6918  131.0184  150.2855 H   0  0  0  0  0  0  0  0  0  0  0  0  # atno 10718 bound_to 10713
  153.5122  135.3615  155.2592 H   0  0  0  0  0  0  0  0  0  0  0  0  # atno 10763 bound_to 10752
  154.8741  135.4025  154.3356 H   0  0  0  0  0  0  0  0  0  0  0  0  # atno 10764 bound_to 10752
  153.4011  135.7075  153.6492 H   0  0  0  0  0  0  0  0  0  0  0  0  # atno 10765 bound_to 10752
  140.4281  134.1448  155.7678 H   0  0  0  0  0  0  0  0  0  0  0  0  # atno 11005 bound_to 11000
  144.8383  140.6817  143.6246 LP  0  0  0  0  0  0  0  0  0  0  0  0  # atno 17320 bound_to 7965
  145.3962  139.1606  143.4202 LP  0  0  0  0  0  0  0  0  0  0  0  0  # atno 17321 bound_to 7965
  139.5175  144.6993  151.5540 LP  0  0  0  0  0  0  0  0  0  0  0  0  # atno 17342 bound_to 10162
  140.6314  143.9068  150.6609 LP  0  0  0  0  0  0  0  0  0  0  0  0  # atno 17343 bound_to 10162
  156.3395  130.3813  149.7421 LP  0  0  0  0  0  0  0  0  0  0  0  0  # atno 17370 bound_to 10713
  156.4935  130.8096  151.3104 LP  0  0  0  0  0  0  0  0  0  0  0  0  # atno 17371 bound_to 10713
  141.1757  133.8519  157.1430 LP  0  0  0  0  0  0  0  0  0  0  0  0  # atno 17394 bound_to 11000
  140.0153  134.9970  157.0480 LP  0  0  0  0  0  0  0  0  0  0  0  0  # atno 17395 bound_to 11000

$$$$
