#       Name:                AV-unprocessed.smi:1923
#       Creating user name   scv26
#       Creation time:       Fri Mar 27 09:53:30 2020


#       File generated by GOLD software.
#

@<TRIPOS>MOLECULE
AV-unprocessed.smi:1923
    61    63     1
SMALL
NO_CHARGES


@<TRIPOS>ATOM
      1 ****        -5.3580   6.8697  -2.1450 C.3            1 S1                 0.0000
      2 ****        -4.9346   5.3975  -2.0463 C.3            1 S1                 0.0000
      3 ****        -5.3243   4.7818  -0.6922 C.3            1 S1                 0.0000
      4 ****        -4.8669   3.3165  -0.5920 C.3            1 S1                 0.0000
      5 ****        -3.4025   3.1919  -0.8123 N.4            1 S1                 1.0000
      6 ****        -2.9194   1.8051  -0.5911 C.3            1 S1                 0.0000
      7 ****        -1.4167   1.7495  -0.2705 C.3            1 S1                 0.0000
      8 ****        -0.9973   0.3781  -0.0151 N.am           1 S1                 0.0000
      9 ****         0.2645   0.0149   0.2507 C.2            1 S1                 0.0000
     10 ****         1.1969   0.8156   0.3139 O.2            1 S1                 0.0000
     11 ****         0.3588  -1.3110   0.4506 N.am           1 S1                 0.0000
     12 ****         1.5172  -2.0869   0.7277 C.ar           1 S1                 0.0000
     13 ****         2.8418  -1.6745   0.4531 C.ar           1 S1                 0.0000
     14 ****         3.9047  -2.5463   0.7574 C.ar           1 S1                 0.0000
     15 ****         3.6234  -3.8138   1.3199 C.ar           1 S1                 0.0000
     16 ****         4.6751  -4.7034   1.6304 N.3            1 S1                 0.0000
     17 ****         4.3604  -5.8849   2.4322 C.3            1 S1                 0.0000
     18 ****         5.6527  -6.5674   2.9115 C.3            1 S1                 0.0000
     19 ****         6.4799  -6.8674   1.7922 O.3            1 S1                 0.0000
     20 ****         6.8660  -5.6912   1.0892 C.3            1 S1                 0.0000
     21 ****         5.6176  -4.9736   0.5471 C.3            1 S1                 0.0000
     22 ****         2.3518  -4.2071   1.5767 N.ar           1 S1                 0.0000
     23 ****         1.3361  -3.3694   1.2824 C.ar           1 S1                 0.0000
     24 ****        -3.0033   3.7504  -2.1321 C.3            1 S1                 0.0000
     25 ****        -3.4221   5.2246  -2.2623 C.3            1 S1                 0.0000
     26 ****        -4.8690   7.4762  -1.3819 H              1 S1                 0.0000
     27 ****        -6.4353   6.9777  -2.0161 H              1 S1                 0.0000
     28 ****        -5.0997   7.2879  -3.1183 H              1 S1                 0.0000
     29 ****        -5.4557   4.8490  -2.8326 H              1 S1                 0.0000
     30 ****        -4.8783   5.3587   0.1195 H              1 S1                 0.0000
     31 ****        -6.4046   4.8386  -0.5534 H              1 S1                 0.0000
     32 ****        -5.1265   2.9309   0.3949 H              1 S1                 0.0000
     33 ****        -5.3998   2.7047  -1.3219 H              1 S1                 0.0000
     34 ****        -3.4585   1.3686   0.2512 H              1 S1                 0.0000
     35 ****        -3.1550   1.1890  -1.4604 H              1 S1                 0.0000
     36 ****        -0.8248   2.1442  -1.0965 H              1 S1                 0.0000
     37 ****        -1.1971   2.3616   0.6060 H              1 S1                 0.0000
     38 ****        -1.7079  -0.3385  -0.0437 H              1 S1                 0.0000
     39 ****        -0.5106  -1.8239   0.4468 H              1 S1                 0.0000
     40 ****         3.0664  -0.7179   0.0081 H              1 S1                 0.0000
     41 ****         4.9185  -2.2282   0.5655 H              1 S1                 0.0000
     42 ****         3.7572  -5.6057   3.2971 H              1 S1                 0.0000
     43 ****         3.7711  -6.5808   1.8336 H              1 S1                 0.0000
     44 ****         6.1914  -5.9309   3.6153 H              1 S1                 0.0000
     45 ****         5.4159  -7.4928   3.4365 H              1 S1                 0.0000
     46 ****         7.4377  -5.0331   1.7456 H              1 S1                 0.0000
     47 ****         7.5249  -5.9701   0.2667 H              1 S1                 0.0000
     48 ****         5.1243  -5.5968  -0.2000 H              1 S1                 0.0000
     49 ****         5.9273  -4.0600   0.0419 H              1 S1                 0.0000
     50 ****         0.3442  -3.7368   1.5022 H              1 S1                 0.0000
     51 ****        -1.9246   3.6818  -2.2652 H              1 S1                 0.0000
     52 ****        -3.4570   3.1614  -2.9308 H              1 S1                 0.0000
     53 ****        -3.1409   5.5991  -3.2475 H              1 S1                 0.0000
     54 ****        -2.8721   5.8248  -1.5358 H              1 S1                 0.0000
     55 ****        -2.9638   3.7638  -0.1046 H              1 S1                 0.0000
     56 ****         1.0302   1.7900   0.1634 LP             1 S1                 0.0000
     57 ****         2.1212   0.4918   0.5158 LP             1 S1                 0.0000
     58 ****         5.1722  -4.1306   2.2821 LP             1 S1                 0.0000
     59 ****         5.9767  -7.4663   1.1692 LP             1 S1                 0.0000
     60 ****         7.3022  -7.3367   2.1141 LP             1 S1                 0.0000
     61 ****         2.1694  -5.1046   1.9782 LP             1 S1                 0.0000
@<TRIPOS>BOND
    1    1    2 1     
    2    1   26 1     
    3    1   27 1     
    4    1   28 1     
    5    2   25 1     
    6    2    3 1     
    7    2   29 1     
    8    3    4 1     
    9    3   30 1     
   10    3   31 1     
   11    4    5 1     
   12    4   32 1     
   13    4   33 1     
   14    5    6 1     
   15    5   24 1     
   16    5   55 1     
   17    6    7 1     
   18    6   34 1     
   19    6   35 1     
   20    7    8 1     
   21    7   36 1     
   22    7   37 1     
   23    8    9 am    
   24    8   38 1     
   25    9   10 2     
   26    9   11 am    
   27   11   12 1     
   28   11   39 1     
   29   12   23 ar    
   30   12   13 ar    
   31   13   14 ar    
   32   13   40 1     
   33   14   15 ar    
   34   14   41 1     
   35   15   16 1     
   36   15   22 ar    
   37   16   21 1     
   38   16   17 1     
   39   17   18 1     
   40   17   42 1     
   41   17   43 1     
   42   18   19 1     
   43   18   44 1     
   44   18   45 1     
   45   19   20 1     
   46   20   21 1     
   47   20   46 1     
   48   20   47 1     
   49   21   48 1     
   50   21   49 1     
   51   22   23 ar    
   52   23   50 1     
   53   24   25 1     
   54   24   51 1     
   55   24   52 1     
   56   25   53 1     
   57   25   54 1     
   58   10   56 1     
   59   10   57 1     
   60   16   58 1     
   61   19   59 1     
   62   19   60 1     
   63   22   61 1     
@<TRIPOS>SUBSTRUCTURE
      1 S1             1
@<TRIPOS>SET
LONE_PAIRS      STATIC     ATOMS    <user>   **** ""
6 56 57 58 59 60 61
DONOR_HYDROGENS      STATIC     ATOMS    <user>   **** ""
3 55 38 39
ATOM$BLUE        STATIC     ATOMS    COLORGROUP SYSTEM
6 56 57 58 59 60 61
ATOM$RED        STATIC     ATOMS    COLORGROUP SYSTEM
3 55 38 39
