AV-unprocessed.smi:1887|AV-procd|sdf|7655|dock9
  -GOLD-   22720 9393D 1   1.00000     0.00000
 Structure written by MMmdl.
 44 46  0  0  0  0  0  0  0  0  1 V2000
  146.3954  133.9816  155.5071 C   0  0  0  0  0  0  0  0  0  0  0  0
  146.0038  135.2550  155.9860 O   0  0  0  0  0  0  0  0  0  0  0  0
  147.1021  136.0385  156.4216 C   0  0  0  0  0  0  0  0  0  0  0  0
  147.8077  135.3307  157.5864 C   0  0  0  0  0  0  0  0  0  0  0  0
  148.8498  136.1616  158.1832 N   0  0  0  0  0  0  0  0  0  0  0  0
  148.9564  136.5894  159.4683 C   0  0  0  0  0  0  0  0  0  0  0  0
  147.9983  136.2444  160.4443 N   0  0  0  0  0  0  0  0  0  0  0  0
  147.4252  137.2047  161.1988 N   0  0  0  0  0  0  0  0  0  0  0  0
  146.6040  136.5567  162.0073 C   0  0  0  0  0  0  0  0  0  0  0  0
  145.7800  137.3415  162.9870 C   0  0  0  0  0  0  0  0  0  0  0  0
  146.6419  135.1460  161.8047 C   0  0  0  0  0  0  0  0  0  0  0  0
  145.8583  134.0940  162.5410 C   0  0  0  0  0  0  0  0  0  0  0  0
  147.5507  134.9832  160.7941 C   0  0  0  0  0  0  0  0  0  0  0  0
  148.0399  133.7378  160.1240 C   0  0  0  0  0  0  0  0  0  0  0  0
  150.0421  137.3220  159.7310 N   0  0  0  0  0  0  0  0  0  0  0  0
  150.6837  137.3694  158.5017 C   0  0  0  0  0  0  0  0  0  0  0  0
  149.9889  136.6748  157.5644 C   0  0  0  0  0  0  0  0  0  0  0  0
  150.4530  136.5363  156.1786 C   0  0  0  0  0  0  0  0  0  0  0  0
  149.8424  135.9035  155.3199 O   0  0  0  0  0  0  0  0  0  0  0  0
  151.6273  137.1715  155.9464 N   0  0  0  0  0  0  0  0  0  0  0  0
  152.3765  137.8871  156.8400 C   0  0  0  0  0  0  0  0  0  0  0  0
  153.4332  138.4057  156.4802 O   0  0  0  0  0  0  0  0  0  0  0  0
  151.9071  137.9940  158.1245 N   0  0  0  0  0  0  0  0  0  0  0  0
  152.6701  138.7459  159.1225 C   0  0  0  0  0  0  0  0  0  0  0  0
  151.9935  137.1066  155.0079 H   0  0  0  0  0  0  0  0  0  0  0  0
  145.5144  133.4270  155.1840 H   0  0  0  0  0  0  0  0  0  0  0  0
  146.8905  133.4023  156.2874 H   0  0  0  0  0  0  0  0  0  0  0  0
  147.0695  134.0710  154.6543 H   0  0  0  0  0  0  0  0  0  0  0  0
  147.8007  136.1936  155.5980 H   0  0  0  0  0  0  0  0  0  0  0  0
  146.7540  137.0210  156.7435 H   0  0  0  0  0  0  0  0  0  0  0  0
  147.0892  135.0544  158.3573 H   0  0  0  0  0  0  0  0  0  0  0  0
  148.2372  134.3920  157.2407 H   0  0  0  0  0  0  0  0  0  0  0  0
  145.1962  136.6871  163.6340 H   0  0  0  0  0  0  0  0  0  0  0  0
  145.0829  138.0015  162.4703 H   0  0  0  0  0  0  0  0  0  0  0  0
  146.4120  137.9584  163.6262 H   0  0  0  0  0  0  0  0  0  0  0  0
  146.2505  133.0921  162.3673 H   0  0  0  0  0  0  0  0  0  0  0  0
  144.8120  134.0871  162.2354 H   0  0  0  0  0  0  0  0  0  0  0  0
  145.8779  134.2574  163.6186 H   0  0  0  0  0  0  0  0  0  0  0  0
  147.2745  132.9619  160.1355 H   0  0  0  0  0  0  0  0  0  0  0  0
  148.9229  133.3500  160.6320 H   0  0  0  0  0  0  0  0  0  0  0  0
  148.3036  133.9196  159.0821 H   0  0  0  0  0  0  0  0  0  0  0  0
  152.8641  139.7619  158.7750 H   0  0  0  0  0  0  0  0  0  0  0  0
  153.6290  138.2611  159.3109 H   0  0  0  0  0  0  0  0  0  0  0  0
  152.1489  138.8251  160.0765 H   0  0  0  0  0  0  0  0  0  0  0  0
  1  2  1  0  0  0  0
  1 26  1  0  0  0  0
  1 27  1  0  0  0  0
  1 28  1  0  0  0  0
  2  3  1  0  0  0  0
  3  4  1  0  0  0  0
  3 29  1  0  0  0  0
  3 30  1  0  0  0  0
  4  5  1  0  0  0  0
  4 31  1  0  0  0  0
  4 32  1  0  0  0  0
  5 17  1  0  0  0  0
  5  6  1  0  0  0  0
  6  7  1  0  0  0  0
  6 15  2  0  0  0  0
  7 13  1  0  0  0  0
  7  8  1  0  0  0  0
  8  9  2  0  0  0  0
  9 10  1  0  0  0  0
  9 11  1  0  0  0  0
 10 33  1  0  0  0  0
 10 34  1  0  0  0  0
 10 35  1  0  0  0  0
 11 12  1  0  0  0  0
 11 13  2  0  0  0  0
 12 36  1  0  0  0  0
 12 37  1  0  0  0  0
 12 38  1  0  0  0  0
 13 14  1  0  0  0  0
 14 39  1  0  0  0  0
 14 40  1  0  0  0  0
 14 41  1  0  0  0  0
 15 16  1  0  0  0  0
 16 23  1  0  0  0  0
 16 17  2  0  0  0  0
 17 18  1  0  0  0  0
 18 19  2  0  0  0  0
 18 20  1  0  0  0  0
 20 25  1  0  0  0  0
 20 21  1  0  0  0  0
 21 22  2  0  0  0  0
 21 23  1  0  0  0  0
 23 24  1  0  0  0  0
 24 42  1  0  0  0  0
 24 43  1  0  0  0  0
 24 44  1  0  0  0  0
M  END
> <s_m_source_file>
AV-unprocessed.smi

> <i_m_source_file_index>
1887

> <i_lp_mmshare_version>
43012

> <i_f3d_flags>
0

> <s_epik_input>
W0NIM11uMWMoPU8pW25IXWMoPU8pYyhjMTIpbihbQ0gyXVtDSDJdT1tDSDNdKWMobjIpLW4zbmMoW0NIM10pYyhbQ0gzXSljM1tDSDNd

> <s_epik_cmdline>
J2VwaWtfcHl0aG9uJywgJy1waCcsICc3LjAnLCAnLXRuJywgJzgnLCAnLW1hJywgJzIwMCcsICctbWV0YWxfYmluZGluZycsICctaW1hZScsICc8aW5maWxlLm1hZT4nLCAnLW9tYWUnLCAnPG91dGZpbGUubWFlPic=

> <r_lp_tautomer_probability>
1

> <r_epik_Ionization_Penalty>
0.00244877

> <r_epik_Ionization_Penalty_Charging>
0.000731299

> <r_epik_Ionization_Penalty_Neutral>
0.00171747

> <r_epik_State_Penalty>
-0

> <r_epik_Charging_Adjusted_Penalty>
0.000731299

> <i_epik_Tot_Q>
0

> <i_epik_Tot_abs_Q>
0

> <r_epik_Metal_State_Penalty>
0.260296

> <b_epik_Metal_Only>
0

> <s_lp_Force_Field>
OPLS_2005

> <r_lp_Energy>
24.2445

> <b_lp_Chiralities_Consistent>
1

> <s_lp_Variant>
AV-unprocessed.smi:1887-1

> <Gold.Version>
5.8.1

> <Gold.Id.Protein>
6NUR|6NUR_protein|mol2

> <Gold.PLP.Fitness>
34.5239

> <Gold.PLP.PLP>
-28.0558

> <Gold.PLP.part.hbond>
-4.0000

> <Gold.PLP.part.metal>
0.0000

> <Gold.PLP.part.buried>
-5.9203

> <Gold.PLP.part.nonpolar>
-18.3378

> <Gold.PLP.part.repulsive>
0.2125

> <Gold.PLP.ligand.clash>
0.0000

> <Gold.PLP.ligand.torsion>
0.9815

> <Gold.PLP.Chemscore.Hbond>
2.6880

> <Gold.PLP.Chemscore.CHOScore>
0.0000

> <Gold.PLP.Chemscore.Metal>
0.0000

> <Gold.Chemscore.Hbonds>
donor molecule, donor type, donor heavy atom, donor atom, acceptor molecule, acceptor atom, score
      P1  H  6931  6943       L1     8  0.86
      P1  H  6934  6947       L1     8  0.99
      P1  H  7997  8009       L1    22  0.85

> <Gold.PLP.Chemscore.Internal.Correction>
0.3672

> <Gold.Rescore>
     Score         DG    S(hbond)    S(metal)    S(lipo)     H(rot)  DE(clash)    DE(int)     intcor
     12.98     -14.21       1.95        0.00      51.74       1.50       0.12       1.11       ----

> <Gold.Chemscore.Fitness>
12.9821

> <Gold.Chemscore.DG>
-14.2144

> <Gold.Chemscore.ZeroCoef>
-5.4800

> <Gold.Chemscore.Hbond>
1.9533

> <Gold.Chemscore.Metal>
0.0000

> <Gold.Chemscore.Lipo>
51.7444

> <Gold.Chemscore.Internal_Hbond>
0.0000

> <Gold.Chemscore.DEClash>
0.1211

> <Gold.Chemscore.DEInternal>
1.1112

> <Gold.Chemscore.Rot>
1.5014

> <Gold.Chemscore.Internal.Correction>
   9.000000E+99

> <Gold.Chemscore.Hbonds>
donor molecule, donor type, donor heavy atom, donor atom, acceptor molecule, acceptor atom, score
      P1  H  6931  6943       L1     8  0.31
      P1  H  6934  6947       L1     8  0.90
      P1  H  7997  8009       L1    22  0.83

> <Gold.Chemscore.Hbond.Weighted>
-6.5240

> <Gold.Chemscore.Metal.Weighted>
-0.0000

> <Gold.Chemscore.Lipo.Weighted>
-6.0541

> <Gold.Chemscore.Internal_Hbond.Weighted>
0.0000

> <Gold.Chemscore.DEClash.Weighted>
0.1211

> <Gold.Chemscore.DEInternal.Weighted>
1.1112

> <Gold.Chemscore.Rot.Weighted>
3.8437

> <Gold.Chemscore.Internal.Correction.Weighted>
   9.000000E+99

> <Gold.Protein.RotatedTorsions>
[ 6907 6896 6895 6894 ] final  -52.77 input  -60.11 | X-H torsion
[ 7974 7965 7964 7962 ] final  -43.10 input  175.53 | X-H torsion
[ 8008 7997 7996 7995 ] final  178.44 input   59.86 | X-H torsion
[ 10167 10162 10161 10158 ] final  121.33 input  -65.29 | X-H torsion
[ 10718 10713 10712 10709 ] final    4.85 input   66.30 | X-H torsion
[ 10763 10752 10751 10750 ] final -121.36 input  -60.55 | X-H torsion
[ 11005 11000 10999 10996 ] final   87.04 input  -57.11 | X-H torsion

> <Gold.Protein.ActiveResidues>
 VAL166  LYS551  ARG553  GLY616  TRP617  ASP618  TYR619  PRO620  LYS621  CYS622 
 ASP623  PHE694  ASN695  SER759  ASP760  ASP761  ALA762  ILE779  LEU786  VAL792 
 PHE793  MET794  SER795  GLU796  ALA797  LYS798  CYS799  TRP800  GLU811  SER814 

> <Gold.Protein.RotatedAtoms>
  150.8487  134.7804  159.6990 H   0  0  0  0  0  0  0  0  0  0  0  0  # atno 6907 bound_to 6896
  152.4557  134.5293  159.9816 H   0  0  0  0  0  0  0  0  0  0  0  0  # atno 6908 bound_to 6896
  151.5418  133.3393  159.2972 H   0  0  0  0  0  0  0  0  0  0  0  0  # atno 6909 bound_to 6896
  146.0051  140.7029  142.9251 H   0  0  0  0  0  0  0  0  0  0  0  0  # atno 7974 bound_to 7965
  156.0546  140.1333  157.0011 H   0  0  0  0  0  0  0  0  0  0  0  0  # atno 8008 bound_to 7997
  154.4451  140.1004  156.6497 H   0  0  0  0  0  0  0  0  0  0  0  0  # atno 8009 bound_to 7997
  155.5471  140.3462  155.4462 H   0  0  0  0  0  0  0  0  0  0  0  0  # atno 8010 bound_to 7997
  139.5926  144.7030  151.3253 H   0  0  0  0  0  0  0  0  0  0  0  0  # atno 10167 bound_to 10162
  156.8988  130.5714  149.5648 H   0  0  0  0  0  0  0  0  0  0  0  0  # atno 10718 bound_to 10713
  154.8666  135.4170  154.2608 H   0  0  0  0  0  0  0  0  0  0  0  0  # atno 10763 bound_to 10752
  153.3536  135.7000  153.6774 H   0  0  0  0  0  0  0  0  0  0  0  0  # atno 10764 bound_to 10752
  153.5703  135.3592  155.2808 H   0  0  0  0  0  0  0  0  0  0  0  0  # atno 10765 bound_to 10752
  139.8929  134.8396  156.2805 H   0  0  0  0  0  0  0  0  0  0  0  0  # atno 11005 bound_to 11000
  144.6933  140.3301  143.7217 LP  0  0  0  0  0  0  0  0  0  0  0  0  # atno 17320 bound_to 7965
  145.7428  139.1769  143.2366 LP  0  0  0  0  0  0  0  0  0  0  0  0  # atno 17321 bound_to 7965
  140.7186  143.7199  150.7704 LP  0  0  0  0  0  0  0  0  0  0  0  0  # atno 17342 bound_to 10162
  140.0758  143.5017  152.2556 LP  0  0  0  0  0  0  0  0  0  0  0  0  # atno 17343 bound_to 10162
  156.0592  130.5648  150.9157 LP  0  0  0  0  0  0  0  0  0  0  0  0  # atno 17370 bound_to 10713
  157.6039  131.0940  150.8913 LP  0  0  0  0  0  0  0  0  0  0  0  0  # atno 17371 bound_to 10713
  141.0042  133.7133  156.1008 LP  0  0  0  0  0  0  0  0  0  0  0  0  # atno 17394 bound_to 11000
  140.7457  134.4101  157.5548 LP  0  0  0  0  0  0  0  0  0  0  0  0  # atno 17395 bound_to 11000

$$$$
