AV-unprocessed.smi:239|AV-procd|sdf|1821|dock3
  -GOLD-   2262020413D 1   1.00000     0.00000
 Structure written by MMmdl.
 54 58  0  0  0  0  0  0  0  0  1 V2000
  151.7575  145.4146  159.1708 C   0  0  0  0  0  0  0  0  0  0  0  0
  151.6714  143.8870  159.2524 C   0  0  1  0  0  0  0  0  0  0  0  0
  151.6252  143.2358  157.8584 C   0  0  0  0  0  0  0  0  0  0  0  0
  151.6570  141.7806  157.9796 N   0  0  0  0  0  0  0  0  0  0  0  0
  151.3771  141.0416  156.8752 C   0  0  0  0  0  0  0  0  0  0  0  0
  152.2831  140.1358  156.4178 N   0  0  0  0  0  0  0  0  0  0  0  0
  152.0155  139.3973  155.3370 C   0  0  0  0  0  0  0  0  0  0  0  0
  150.9239  139.4055  154.5705 N   0  0  0  0  0  0  0  0  0  0  0  0
  150.0149  140.3195  155.0149 C   0  0  0  0  0  0  0  0  0  0  0  0
  150.1580  141.1681  156.1496 C   0  0  0  0  0  0  0  0  0  0  0  0
  149.0285  141.9675  156.2845 N   0  0  0  0  0  0  0  0  0  0  0  0
  148.2585  141.6034  155.2959 C   0  0  0  0  0  0  0  0  0  0  0  0
  148.7774  140.6267  154.4763 N   0  0  0  0  0  0  0  0  0  0  0  0
  148.1425  140.0433  153.3038 C   0  0  0  0  0  0  0  0  0  0  0  0
  146.9680  139.0869  153.6305 C   0  0  0  0  0  0  0  0  0  0  0  0
  145.9157  139.8628  154.1764 O   0  0  0  0  0  0  0  0  0  0  0  0
  146.4546  138.4090  152.3440 C   0  0  0  0  0  0  0  0  0  0  0  0
  145.4040  137.3234  152.6384 C   0  0  0  0  0  0  0  0  0  0  0  0
  145.9348  136.3681  153.5486 O   0  0  0  0  0  0  0  0  0  0  0  0
  146.2545  136.9334  154.8139 C   0  0  0  0  0  0  0  0  0  0  0  0
  147.3539  137.9990  154.6567 C   0  0  0  0  0  0  0  0  0  0  0  0
  152.7790  141.2985  158.7784 C   0  0  0  0  0  0  0  0  0  0  0  0
  152.7971  141.9982  160.1498 C   0  0  1  0  0  0  0  0  0  0  0  0
  153.9892  141.5584  160.9833 C   0  0  0  0  0  0  0  0  0  0  0  0
  154.0328  140.1918  161.6333 C   0  0  0  0  0  0  0  0  0  0  0  0
  153.8899  141.4250  162.4879 C   0  0  0  0  0  0  0  0  0  0  0  0
  152.8192  143.4113  159.9493 O   0  0  0  0  0  0  0  0  0  0  0  0
  150.8932  145.8291  158.6515 H   0  0  0  0  0  0  0  0  0  0  0  0
  152.6531  145.7313  158.6354 H   0  0  0  0  0  0  0  0  0  0  0  0
  151.7907  145.8569  160.1668 H   0  0  0  0  0  0  0  0  0  0  0  0
  150.7748  143.6183  159.8137 H   0  0  0  0  0  0  0  0  0  0  0  0
  150.7185  143.5481  157.3380 H   0  0  0  0  0  0  0  0  0  0  0  0
  152.4760  143.5678  157.2613 H   0  0  0  0  0  0  0  0  0  0  0  0
  152.7865  138.6997  155.0449 H   0  0  0  0  0  0  0  0  0  0  0  0
  147.2879  142.0477  155.1297 H   0  0  0  0  0  0  0  0  0  0  0  0
  147.8007  140.8552  152.6601 H   0  0  0  0  0  0  0  0  0  0  0  0
  148.9090  139.5126  152.7376 H   0  0  0  0  0  0  0  0  0  0  0  0
  145.2997  140.0612  153.4879 H   0  0  0  0  0  0  0  0  0  0  0  0
  146.0441  139.1504  151.6573 H   0  0  0  0  0  0  0  0  0  0  0  0
  147.2923  137.9432  151.8232 H   0  0  0  0  0  0  0  0  0  0  0  0
  144.4881  137.7581  153.0414 H   0  0  0  0  0  0  0  0  0  0  0  0
  145.1293  136.8123  151.7156 H   0  0  0  0  0  0  0  0  0  0  0  0
  145.3595  137.3566  155.2727 H   0  0  0  0  0  0  0  0  0  0  0  0
  146.5995  136.1384  155.4751 H   0  0  0  0  0  0  0  0  0  0  0  0
  148.2699  137.5057  154.3292 H   0  0  0  0  0  0  0  0  0  0  0  0
  147.5733  138.4402  155.6294 H   0  0  0  0  0  0  0  0  0  0  0  0
  152.7314  140.2200  158.9231 H   0  0  0  0  0  0  0  0  0  0  0  0
  153.7064  141.5036  158.2417 H   0  0  0  0  0  0  0  0  0  0  0  0
  151.8963  141.7341  160.7066 H   0  0  0  0  0  0  0  0  0  0  0  0
  154.9405  141.9283  160.6049 H   0  0  0  0  0  0  0  0  0  0  0  0
  153.1618  139.5471  161.5337 H   0  0  0  0  0  0  0  0  0  0  0  0
  154.9911  139.6767  161.6506 H   0  0  0  0  0  0  0  0  0  0  0  0
  154.7527  141.7333  163.0748 H   0  0  0  0  0  0  0  0  0  0  0  0
  152.9235  141.6036  162.9550 H   0  0  0  0  0  0  0  0  0  0  0  0
  1  2  1  0  0  0  0
  1 28  1  0  0  0  0
  1 29  1  0  0  0  0
  1 30  1  0  0  0  0
  2 27  1  0  0  0  0
  2  3  1  0  0  0  0
  2 31  1  0  0  0  0
  3  4  1  0  0  0  0
  3 32  1  0  0  0  0
  3 33  1  0  0  0  0
  4  5  1  0  0  0  0
  4 22  1  0  0  0  0
  5 10  1  0  0  0  0
  5  6  2  0  0  0  0
  6  7  1  0  0  0  0
  7  8  2  0  0  0  0
  7 34  1  0  0  0  0
  8  9  1  0  0  0  0
  9 13  1  0  0  0  0
  9 10  2  0  0  0  0
 10 11  1  0  0  0  0
 11 12  2  0  0  0  0
 12 13  1  0  0  0  0
 12 35  1  0  0  0  0
 13 14  1  0  0  0  0
 14 15  1  0  0  0  0
 14 36  1  0  0  0  0
 14 37  1  0  0  0  0
 15 21  1  0  0  0  0
 15 16  1  0  0  0  0
 15 17  1  0  0  0  0
 16 38  1  0  0  0  0
 17 18  1  0  0  0  0
 17 39  1  0  0  0  0
 17 40  1  0  0  0  0
 18 19  1  0  0  0  0
 18 41  1  0  0  0  0
 18 42  1  0  0  0  0
 19 20  1  0  0  0  0
 20 21  1  0  0  0  0
 20 43  1  0  0  0  0
 20 44  1  0  0  0  0
 21 45  1  0  0  0  0
 21 46  1  0  0  0  0
 22 23  1  0  0  0  0
 22 47  1  0  0  0  0
 22 48  1  0  0  0  0
 23 24  1  0  0  0  0
 23 27  1  0  0  0  0
 23 49  1  0  0  0  0
 24 26  1  0  0  0  0
 24 25  1  0  0  0  0
 24 50  1  0  0  0  0
 25 26  1  0  0  0  0
 25 51  1  0  0  0  0
 25 52  1  0  0  0  0
 26 53  1  0  0  0  0
 26 54  1  0  0  0  0
M  END
> <s_m_source_file>
AV-unprocessed.smi

> <i_m_source_file_index>
239

> <i_lp_mmshare_version>
43012

> <i_f3d_flags>
0

> <s_epik_input>
W0NIMl0xW0NIMl1bQ0hdMVtDQEBIXShPMilbQ0gyXU4oW0NIMl1bQ0BIXTJbQ0gzXSljKG5bY0hdbjMpYyhjMzQpbltjSF1uNFtDSDJdQzUoW09IXSlbQ0gyXVtDSDJdT1tDSDJdW0NIMl01

> <s_epik_cmdline>
J2VwaWtfcHl0aG9uJywgJy1waCcsICc3LjAnLCAnLXRuJywgJzgnLCAnLW1hJywgJzIwMCcsICctbWV0YWxfYmluZGluZycsICctaW1hZScsICc8aW5maWxlLm1hZT4nLCAnLW9tYWUnLCAnPG91dGZpbGUubWFlPic=

> <r_lp_tautomer_probability>
1

> <r_epik_Ionization_Penalty>
9.13091e-05

> <r_epik_Ionization_Penalty_Charging>
0

> <r_epik_Ionization_Penalty_Neutral>
9.13091e-05

> <r_epik_State_Penalty>
-0

> <r_epik_Charging_Adjusted_Penalty>
0

> <i_epik_Tot_Q>
0

> <i_epik_Tot_abs_Q>
0

> <r_epik_Metal_State_Penalty>
-0

> <b_epik_Metal_Only>
0

> <s_lp_Force_Field>
OPLS_2005

> <r_lp_Energy>
35.8814

> <b_lp_Chiralities_Consistent>
1

> <s_lp_Variant>
AV-unprocessed.smi:239-2

> <Gold.Version>
5.8.1

> <Gold.Id.Protein>
6NUR|6NUR_protein|mol2

> <Gold.PLP.Fitness>
52.6230

> <Gold.PLP.PLP>
-46.4602

> <Gold.PLP.part.hbond>
-3.0000

> <Gold.PLP.part.metal>
0.0000

> <Gold.PLP.part.buried>
-0.1663

> <Gold.PLP.part.nonpolar>
-46.0706

> <Gold.PLP.part.repulsive>
2.1894

> <Gold.PLP.ligand.clash>
0.0000

> <Gold.PLP.ligand.torsion>
0.9359

> <Gold.PLP.Chemscore.Hbond>
2.2163

> <Gold.PLP.Chemscore.CHOScore>
0.0000

> <Gold.PLP.Chemscore.Metal>
0.0000

> <Gold.Chemscore.Hbonds>
donor molecule, donor type, donor heavy atom, donor atom, acceptor molecule, acceptor atom, score
      L1  H    16    38       P1 10175  1.00
      P1  H  7989  7998       L1     8  0.17
      P1  H  7997  8010       L1     6  0.94

> <Gold.PLP.Chemscore.Internal.Correction>
1.3858

> <Gold.Rescore>
     Score         DG    S(hbond)    S(metal)    S(lipo)     H(rot)  DE(clash)    DE(int)     intcor
     16.09     -17.67       1.59        0.00     107.73       2.24       0.48       1.10       ----

> <Gold.Chemscore.Fitness>
16.0903

> <Gold.Chemscore.DG>
-17.6736

> <Gold.Chemscore.ZeroCoef>
-5.4800

> <Gold.Chemscore.Hbond>
1.5929

> <Gold.Chemscore.Metal>
0.0000

> <Gold.Chemscore.Lipo>
107.7296

> <Gold.Chemscore.Internal_Hbond>
0.0000

> <Gold.Chemscore.DEClash>
0.4848

> <Gold.Chemscore.DEInternal>
1.0985

> <Gold.Chemscore.Rot>
2.2387

> <Gold.Chemscore.Internal.Correction>
   9.000000E+99

> <Gold.Chemscore.Hbonds>
donor molecule, donor type, donor heavy atom, donor atom, acceptor molecule, acceptor atom, score
      L1  H    16    38       P1 10175  0.99
      P1  H  7997  8010       L1     6  0.31

> <Gold.Chemscore.Hbond.Weighted>
-5.3203

> <Gold.Chemscore.Metal.Weighted>
-0.0000

> <Gold.Chemscore.Lipo.Weighted>
-12.6044

> <Gold.Chemscore.Internal_Hbond.Weighted>
0.0000

> <Gold.Chemscore.DEClash.Weighted>
0.4848

> <Gold.Chemscore.DEInternal.Weighted>
1.0985

> <Gold.Chemscore.Rot.Weighted>
5.7311

> <Gold.Chemscore.Internal.Correction.Weighted>
   9.000000E+99

> <Gold.Protein.RotatedTorsions>
[ 6907 6896 6895 6894 ] final    8.26 input  -60.11 | X-H torsion
[ 7974 7965 7964 7962 ] final  167.36 input  175.53 | X-H torsion
[ 8008 7997 7996 7995 ] final   70.74 input   59.86 | X-H torsion
[ 10167 10162 10161 10158 ] final -156.39 input  -65.29 | X-H torsion
[ 10718 10713 10712 10709 ] final  -26.34 input   66.30 | X-H torsion
[ 10763 10752 10751 10750 ] final  -58.73 input  -60.55 | X-H torsion
[ 11005 11000 10999 10996 ] final   29.69 input  -57.11 | X-H torsion

> <Gold.Protein.ActiveResidues>
 VAL166  LYS551  ARG553  GLY616  TRP617  ASP618  TYR619  PRO620  LYS621  CYS622 
 ASP623  PHE694  ASN695  SER759  ASP760  ASP761  ALA762  ILE779  LEU786  VAL792 
 PHE793  MET794  SER795  GLU796  ALA797  LYS798  CYS799  TRP800  GLU811  SER814 

> <Gold.Protein.RotatedAtoms>
  151.7031  135.0926  160.0254 H   0  0  0  0  0  0  0  0  0  0  0  0  # atno 6907 bound_to 6896
  152.3708  133.6412  159.6094 H   0  0  0  0  0  0  0  0  0  0  0  0  # atno 6908 bound_to 6896
  150.7672  133.9189  159.3433 H   0  0  0  0  0  0  0  0  0  0  0  0  # atno 6909 bound_to 6896
  144.7427  139.8749  143.6392 H   0  0  0  0  0  0  0  0  0  0  0  0  # atno 7974 bound_to 7965
  155.7433  140.3490  155.5115 H   0  0  0  0  0  0  0  0  0  0  0  0  # atno 8008 bound_to 7997
  155.9073  140.1044  157.1327 H   0  0  0  0  0  0  0  0  0  0  0  0  # atno 8009 bound_to 7997
  154.4051  140.1274  156.4499 H   0  0  0  0  0  0  0  0  0  0  0  0  # atno 8010 bound_to 7997
  139.6854  143.9510  152.2358 H   0  0  0  0  0  0  0  0  0  0  0  0  # atno 10167 bound_to 10162
  156.4524  130.4487  149.6981 H   0  0  0  0  0  0  0  0  0  0  0  0  # atno 10718 bound_to 10713
  154.2426  135.6340  153.5212 H   0  0  0  0  0  0  0  0  0  0  0  0  # atno 10763 bound_to 10752
  152.9927  135.5546  154.5893 H   0  0  0  0  0  0  0  0  0  0  0  0  # atno 10764 bound_to 10752
  154.5402  135.2894  155.1076 H   0  0  0  0  0  0  0  0  0  0  0  0  # atno 10765 bound_to 10752
  140.3023  134.2743  155.7751 H   0  0  0  0  0  0  0  0  0  0  0  0  # atno 11005 bound_to 11000
  146.1253  139.4278  143.0203 LP  0  0  0  0  0  0  0  0  0  0  0  0  # atno 17320 bound_to 7965
  145.7244  141.0064  143.1385 LP  0  0  0  0  0  0  0  0  0  0  0  0  # atno 17321 bound_to 7965
  139.9311  144.6740  150.8362 LP  0  0  0  0  0  0  0  0  0  0  0  0  # atno 17342 bound_to 10162
  140.7666  143.3308  151.2415 LP  0  0  0  0  0  0  0  0  0  0  0  0  # atno 17343 bound_to 10162
  156.3802  130.7575  151.2567 LP  0  0  0  0  0  0  0  0  0  0  0  0  # atno 17370 bound_to 10713
  157.7502  131.0298  150.4108 LP  0  0  0  0  0  0  0  0  0  0  0  0  # atno 17371 bound_to 10713
  141.2125  133.7654  156.9785 LP  0  0  0  0  0  0  0  0  0  0  0  0  # atno 17394 bound_to 11000
  140.1098  134.9484  157.2049 LP  0  0  0  0  0  0  0  0  0  0  0  0  # atno 17395 bound_to 11000

$$$$
