AV-unprocessed.smi:871|AV-procd|sdf|4011|dock7
  -GOLD-   22720 1503D 1   1.00000     0.00000
 Structure written by MMmdl.
 19 19  0  0  0  0  0  0  0  0  2 V2000
  149.3509  142.3140  155.0540 N   0  0  0  0  0  0  0  0  0  0  0  0
  150.1530  141.6494  155.9615 C   0  0  0  0  0  0  0  0  0  0  0  0
  150.4240  142.1623  157.1794 C   0  0  0  0  0  0  0  0  0  0  0  0
  151.2677  141.4513  158.1085 C   0  0  0  0  0  0  0  0  0  0  0  0
  151.7631  140.2636  157.7319 C   0  0  0  0  0  0  0  0  0  0  0  0
  151.4775  139.6989  156.4726 N   0  0  0  0  0  0  0  0  0  0  0  0
  152.1107  138.4036  156.1710 C   0  0  0  0  0  0  0  0  0  0  0  0
  152.8008  138.4066  154.8036 C   0  0  0  0  0  0  0  0  0  0  0  0
  153.6596  139.2926  154.6013 O   0  0  0  0  0  0  0  0  0  0  0  0
  152.4575  137.5245  153.9861 O   0  5  0  0  0  0  0  0  0  0  0  0
  150.7056  140.3466  155.5450 C   0  0  0  0  0  0  0  0  0  0  0  0
  150.4835  139.8646  154.4316 O   0  0  0  0  0  0  0  0  0  0  0  0
  149.1454  141.9331  154.1420 H   0  0  0  0  0  0  0  0  0  0  0  0
  149.0069  143.2451  155.2417 H   0  0  0  0  0  0  0  0  0  0  0  0
  150.0097  143.1174  157.4679 H   0  0  0  0  0  0  0  0  0  0  0  0
  151.4990  141.8663  159.0783 H   0  0  0  0  0  0  0  0  0  0  0  0
  152.4082  139.6694  158.3634 H   0  0  0  0  0  0  0  0  0  0  0  0
  152.8377  138.0931  156.9223 H   0  0  0  0  0  0  0  0  0  0  0  0
  151.3426  137.6285  156.1814 H   0  0  0  0  0  0  0  0  0  0  0  0
  1  2  1  0  0  0  0
  1 13  1  0  0  0  0
  1 14  1  0  0  0  0
  2 11  1  0  0  0  0
  2  3  2  0  0  0  0
  3  4  1  0  0  0  0
  3 15  1  0  0  0  0
  4  5  2  0  0  0  0
  4 16  1  0  0  0  0
  5  6  1  0  0  0  0
  5 17  1  0  0  0  0
  6  7  1  0  0  0  0
  6 11  1  0  0  0  0
  7  8  1  0  0  0  0
  7 18  1  0  0  0  0
  7 19  1  0  0  0  0
  8  9  2  0  0  0  0
  8 10  1  0  0  0  0
 11 12  2  0  0  0  0
M  CHG  1  10  -1
M  END
> <s_m_source_file>
AV-unprocessed.smi

> <i_m_source_file_index>
871

> <i_lp_mmshare_version>
43012

> <i_f3d_flags>
0

> <s_epik_input>
W05IMl1jMVtjSF1bY0hdW2NIXW4oYzE9TylbQ0gyXUMoPU8pW09IXQ==

> <s_epik_cmdline>
J2VwaWtfcHl0aG9uJywgJy1waCcsICc3LjAnLCAnLXRuJywgJzgnLCAnLW1hJywgJzIwMCcsICctbWV0YWxfYmluZGluZycsICctaW1hZScsICc8aW5maWxlLm1hZT4nLCAnLW9tYWUnLCAnPG91dGZpbGUubWFlPic=

> <r_lp_tautomer_probability>
1

> <r_epik_Ionization_Penalty>
0.00200637

> <r_epik_Ionization_Penalty_Charging>
0.0012605

> <r_epik_Ionization_Penalty_Neutral>
0.000745874

> <r_epik_State_Penalty>
-0

> <r_epik_Charging_Adjusted_Penalty>
0.0012605

> <i_epik_Tot_Q>
-1

> <i_epik_Tot_abs_Q>
1

> <r_epik_Metal_State_Penalty>
-0

> <b_epik_Metal_Only>
0

> <s_lp_Force_Field>
OPLS_2005

> <r_lp_Energy>
10.9711

> <b_lp_Chiralities_Consistent>
1

> <s_lp_Variant>
AV-unprocessed.smi:871-1

> <Gold.Version>
5.8.1

> <Gold.Id.Protein>
6NUR|6NUR_protein|mol2

> <Gold.PLP.Fitness>
39.4834

> <Gold.PLP.PLP>
-23.3627

> <Gold.PLP.part.hbond>
-4.0316

> <Gold.PLP.part.metal>
0.0000

> <Gold.PLP.part.buried>
-4.8989

> <Gold.PLP.part.nonpolar>
-16.4026

> <Gold.PLP.part.repulsive>
0.4903

> <Gold.PLP.ligand.clash>
0.0000

> <Gold.PLP.ligand.torsion>
0.1504

> <Gold.PLP.Chemscore.Hbond>
5.4720

> <Gold.PLP.Chemscore.CHOScore>
0.0000

> <Gold.PLP.Chemscore.Metal>
0.0000

> <Gold.Chemscore.Hbonds>
donor molecule, donor type, donor heavy atom, donor atom, acceptor molecule, acceptor atom, score
      L1  H     1    14       P1  8028  0.99
      P1  H  7989  7998       L1    12  0.90
      P1  H  7997  8008       L1     9  2.00
      P1  H 10752 10765       L1    10  1.47

> <Gold.PLP.Chemscore.Internal.Correction>
0.0055

> <Gold.Rescore>
     Score         DG    S(hbond)    S(metal)    S(lipo)     H(rot)  DE(clash)    DE(int)     intcor
     14.45     -15.99       3.36        0.00      28.60       1.58       0.00       1.54       ----

> <Gold.Chemscore.Fitness>
14.4493

> <Gold.Chemscore.DG>
-15.9934

> <Gold.Chemscore.ZeroCoef>
-5.4800

> <Gold.Chemscore.Hbond>
3.3600

> <Gold.Chemscore.Metal>
0.0000

> <Gold.Chemscore.Lipo>
28.6020

> <Gold.Chemscore.Internal_Hbond>
0.0000

> <Gold.Chemscore.DEClash>
0.0009

> <Gold.Chemscore.DEInternal>
1.5433

> <Gold.Chemscore.Rot>
1.5841

> <Gold.Chemscore.Internal.Correction>
   9.000000E+99

> <Gold.Chemscore.Hbonds>
donor molecule, donor type, donor heavy atom, donor atom, acceptor molecule, acceptor atom, score
      L1  H     1    14       P1  8028  0.92
      P1  H  7989  7998       L1    12  0.18
      P1  H  7997  8008       L1     9  0.98
      P1  H 10752 10765       L1    10  0.73

> <Gold.Chemscore.Hbond.Weighted>
-11.2224

> <Gold.Chemscore.Metal.Weighted>
-0.0000

> <Gold.Chemscore.Lipo.Weighted>
-3.3464

> <Gold.Chemscore.Internal_Hbond.Weighted>
0.0000

> <Gold.Chemscore.DEClash.Weighted>
0.0009

> <Gold.Chemscore.DEInternal.Weighted>
1.5433

> <Gold.Chemscore.Rot.Weighted>
4.0554

> <Gold.Chemscore.Internal.Correction.Weighted>
   9.000000E+99

> <Gold.Protein.RotatedTorsions>
[ 6907 6896 6895 6894 ] final   -6.54 input  -60.11 | X-H torsion
[ 7974 7965 7964 7962 ] final   93.47 input  175.53 | X-H torsion
[ 8008 7997 7996 7995 ] final  -14.11 input   59.86 | X-H torsion
[ 10167 10162 10161 10158 ] final  146.42 input  -65.29 | X-H torsion
[ 10718 10713 10712 10709 ] final  120.75 input   66.30 | X-H torsion
[ 10763 10752 10751 10750 ] final  146.06 input  -60.55 | X-H torsion
[ 11005 11000 10999 10996 ] final -100.02 input  -57.11 | X-H torsion

> <Gold.Protein.ActiveResidues>
 VAL166  LYS551  ARG553  GLY616  TRP617  ASP618  TYR619  PRO620  LYS621  CYS622 
 ASP623  PHE694  ASN695  SER759  ASP760  ASP761  ALA762  ILE779  LEU786  VAL792 
 PHE793  MET794  SER795  GLU796  ALA797  LYS798  CYS799  TRP800  GLU811  SER814 

> <Gold.Protein.RotatedAtoms>
  151.4640  135.1040  159.9732 H   0  0  0  0  0  0  0  0  0  0  0  0  # atno 6907 bound_to 6896
  152.4842  133.8326  159.7122 H   0  0  0  0  0  0  0  0  0  0  0  0  # atno 6908 bound_to 6896
  150.8938  133.7148  159.2924 H   0  0  0  0  0  0  0  0  0  0  0  0  # atno 6909 bound_to 6896
  145.4785  139.2279  143.2895 H   0  0  0  0  0  0  0  0  0  0  0  0  # atno 7974 bound_to 7965
  154.5237  140.2231  155.8930 H   0  0  0  0  0  0  0  0  0  0  0  0  # atno 8008 bound_to 7997
  156.1689  140.3126  155.8903 H   0  0  0  0  0  0  0  0  0  0  0  0  # atno 8009 bound_to 7997
  155.3598  140.0460  157.3037 H   0  0  0  0  0  0  0  0  0  0  0  0  # atno 8010 bound_to 7997
  139.4907  144.5830  151.6833 H   0  0  0  0  0  0  0  0  0  0  0  0  # atno 10167 bound_to 10162
  157.5868  131.1069  150.8078 H   0  0  0  0  0  0  0  0  0  0  0  0  # atno 10718 bound_to 10713
  154.0156  135.2910  155.3387 H   0  0  0  0  0  0  0  0  0  0  0  0  # atno 10763 bound_to 10752
  154.7077  135.5162  153.8622 H   0  0  0  0  0  0  0  0  0  0  0  0  # atno 10764 bound_to 10752
  153.0703  135.6645  154.0383 H   0  0  0  0  0  0  0  0  0  0  0  0  # atno 10765 bound_to 10752
  141.1286  133.8367  157.1048 H   0  0  0  0  0  0  0  0  0  0  0  0  # atno 11005 bound_to 11000
  146.2355  140.5569  142.8957 LP  0  0  0  0  0  0  0  0  0  0  0  0  # atno 17320 bound_to 7965
  144.7903  140.6018  143.6546 LP  0  0  0  0  0  0  0  0  0  0  0  0  # atno 17321 bound_to 7965
  140.5441  144.0532  150.6100 LP  0  0  0  0  0  0  0  0  0  0  0  0  # atno 17342 bound_to 10162
  140.3564  143.2933  152.0431 LP  0  0  0  0  0  0  0  0  0  0  0  0  # atno 17343 bound_to 10162
  156.8510  130.5080  149.5312 LP  0  0  0  0  0  0  0  0  0  0  0  0  # atno 17370 bound_to 10713
  156.0918  130.5902  150.9746 LP  0  0  0  0  0  0  0  0  0  0  0  0  # atno 17371 bound_to 10713
  140.0311  134.9901  157.0782 LP  0  0  0  0  0  0  0  0  0  0  0  0  # atno 17394 bound_to 11000
  140.4284  134.1807  155.7167 LP  0  0  0  0  0  0  0  0  0  0  0  0  # atno 17395 bound_to 11000

$$$$
