#       Name:                AV-unprocessed.smi:1602
#       Creating user name   scv26
#       Creation time:       Fri Mar 27 07:08:39 2020


#       File generated by GOLD software.
#

@<TRIPOS>MOLECULE
AV-unprocessed.smi:1602
    41    42     1
SMALL
NO_CHARGES


@<TRIPOS>ATOM
      1 ****        -1.9872  -1.9835   2.4730 C.3            1 S1                 0.0000
      2 ****        -1.8989  -1.0509   1.2585 C.3            1 S1                 0.0000
      3 ****        -2.5210  -1.6726  -0.0065 C.3            1 S1                 0.0000
      4 ****        -2.5469  -0.7424  -1.1215 N.pl3          1 S1                 0.0000
      5 ****        -1.6903  -0.6731  -2.2000 C.2            1 S1                 0.0000
      6 ****        -2.0959   0.3756  -2.9744 C.2            1 S1                 0.0000
      7 ****        -3.2257   0.8910  -2.2794 C.2            1 S1                 0.0000
      8 ****        -3.4953   0.2176  -1.1726 N.2            1 S1                 0.0000
      9 ****        -0.4956  -0.7113   1.0097 N.3            1 S1                 0.0000
     10 ****         0.0104   0.9286   1.1705 S.o2           1 S1                 0.0000
     11 ****        -0.7589   1.7570   0.2295 O.2            1 S1                 0.0000
     12 ****         0.0523   1.2508   2.6051 O.2            1 S1                 0.0000
     13 ****         1.6297   0.7852   0.5772 N.3            1 S1                 0.0000
     14 ****         1.8007   0.3448  -0.8196 C.3            1 S1                 0.0000
     15 ****         3.2776   0.0601  -1.1365 C.3            1 S1                 0.0000
     16 ****         4.0731   1.1901  -0.8140 O.3            1 S1                 0.0000
     17 ****         4.0127   1.4856   0.5727 C.3            1 S1                 0.0000
     18 ****         2.5727   1.8431   0.9755 C.3            1 S1                 0.0000
     19 ****        -3.0244  -2.2281   2.7033 H              1 S1                 0.0000
     20 ****        -1.5551  -1.5165   3.3589 H              1 S1                 0.0000
     21 ****        -1.4563  -2.9194   2.2954 H              1 S1                 0.0000
     22 ****        -2.4431  -0.1363   1.4997 H              1 S1                 0.0000
     23 ****        -1.9695  -2.5643  -0.3076 H              1 S1                 0.0000
     24 ****        -3.5446  -1.9922   0.1948 H              1 S1                 0.0000
     25 ****        -0.8685  -1.3634  -2.3206 H              1 S1                 0.0000
     26 ****        -1.6520   0.7235  -3.8952 H              1 S1                 0.0000
     27 ****        -3.8533   1.7290  -2.5444 H              1 S1                 0.0000
     28 ****         0.1540  -1.3609   1.4520 H              1 S1                 0.0000
     29 ****         1.2079  -0.5498  -1.0068 H              1 S1                 0.0000
     30 ****         1.4204   1.1225  -1.4830 H              1 S1                 0.0000
     31 ****         3.6294  -0.8160  -0.5890 H              1 S1                 0.0000
     32 ****         3.3953  -0.1626  -2.1970 H              1 S1                 0.0000
     33 ****         4.3787   0.6376   1.1539 H              1 S1                 0.0000
     34 ****         4.6778   2.3232   0.7839 H              1 S1                 0.0000
     35 ****         2.2721   2.7785   0.5019 H              1 S1                 0.0000
     36 ****         2.5191   1.9979   2.0533 H              1 S1                 0.0000
     37 ****        -4.2353   0.3826  -0.5205 LP             1 S1                 0.0000
     38 ****        -0.4570  -0.8287   0.0174 LP             1 S1                 0.0000
     39 ****         1.9142  -0.0134   1.1075 LP             1 S1                 0.0000
     40 ****         3.7412   1.9799  -1.3300 LP             1 S1                 0.0000
     41 ****         5.0225   1.0025  -1.0659 LP             1 S1                 0.0000
@<TRIPOS>BOND
    1    1    2 1     
    2    1   19 1     
    3    1   20 1     
    4    1   21 1     
    5    2    3 1     
    6    2    9 1     
    7    2   22 1     
    8    3    4 1     
    9    3   23 1     
   10    3   24 1     
   11    4    8 1     
   12    4    5 1     
   13    5    6 2     
   14    5   25 1     
   15    6    7 1     
   16    6   26 1     
   17    7    8 2     
   18    7   27 1     
   19    9   10 1     
   20    9   28 1     
   21   10   11 2     
   22   10   12 2     
   23   10   13 1     
   24   13   18 1     
   25   13   14 1     
   26   14   15 1     
   27   14   29 1     
   28   14   30 1     
   29   15   16 1     
   30   15   31 1     
   31   15   32 1     
   32   16   17 1     
   33   17   18 1     
   34   17   33 1     
   35   17   34 1     
   36   18   35 1     
   37   18   36 1     
   38    8   37 1     
   39    9   38 1     
   40   13   39 1     
   41   16   40 1     
   42   16   41 1     
@<TRIPOS>SUBSTRUCTURE
      1 S1             1
@<TRIPOS>SET
LONE_PAIRS      STATIC     ATOMS    <user>   **** ""
7 37 38 11 12 39 40 41
DONOR_HYDROGENS      STATIC     ATOMS    <user>   **** ""
1 28
ATOM$BLUE        STATIC     ATOMS    COLORGROUP SYSTEM
7 37 38 11 12 39 40 41
ATOM$RED        STATIC     ATOMS    COLORGROUP SYSTEM
1 28
