AV-unprocessed.smi:3201|AV-procd|sdf|12237|dock8
  -GOLD-   2272018 73D 1   1.00000     0.00000
 Structure written by MMmdl.
 41 43  0  0  0  0  0  0  0  0  2 V2000
  153.1292  141.7404  160.0746 C   0  0  0  0  0  0  0  0  0  0  0  0
  152.1542  142.8276  159.7560 C   0  0  0  0  0  0  0  0  0  0  0  0
  151.3739  143.0340  158.6499 C   0  0  0  0  0  0  0  0  0  0  0  0
  151.2669  142.2102  157.3960 C   0  0  0  0  0  0  0  0  0  0  0  0
  149.8066  141.8669  157.0755 C   0  0  0  0  0  0  0  0  0  0  0  0
  149.5268  142.0286  155.6345 N   0  3  0  0  0  0  0  0  0  0  0  0
  148.5530  141.0593  155.0863 C   0  0  2  0  0  0  0  0  0  0  0  0
  148.3219  141.1867  153.5644 C   0  0  0  0  0  0  0  0  0  0  0  0
  146.7870  141.2850  153.4627 C   0  0  2  0  0  0  0  0  0  0  0  0
  146.3478  142.6916  153.9051 C   0  0  0  0  0  0  0  0  0  0  0  0
  146.5861  142.6545  155.4257 C   0  0  0  0  0  0  0  0  0  0  0  0
  147.1286  141.2270  155.6583 C   0  0  1  0  0  0  0  0  0  0  0  0
  146.3208  140.4306  154.6381 C   0  0  0  0  0  0  0  0  0  0  0  0
  150.6708  144.2342  158.9530 C   0  0  0  0  0  0  0  0  0  0  0  0
  150.9851  144.7283  160.1368 N   0  0  0  0  0  0  0  0  0  0  0  0
  151.8957  143.8654  160.6321 N   0  0  0  0  0  0  0  0  0  0  0  0
  152.4635  144.1066  161.9448 C   0  0  0  0  0  0  0  0  0  0  0  0
  153.2773  141.0788  159.2214 H   0  0  0  0  0  0  0  0  0  0  0  0
  152.7751  141.1370  160.9105 H   0  0  0  0  0  0  0  0  0  0  0  0
  154.1004  142.1554  160.3444 H   0  0  0  0  0  0  0  0  0  0  0  0
  151.7108  142.7370  156.5506 H   0  0  0  0  0  0  0  0  0  0  0  0
  151.8381  141.2869  157.4997 H   0  0  0  0  0  0  0  0  0  0  0  0
  149.5943  140.8399  157.3753 H   0  0  0  0  0  0  0  0  0  0  0  0
  149.1381  142.5138  157.6452 H   0  0  0  0  0  0  0  0  0  0  0  0
  149.1572  142.9579  155.4937 H   0  0  0  0  0  0  0  0  0  0  0  0
  148.9021  140.0517  155.3196 H   0  0  0  0  0  0  0  0  0  0  0  0
  148.8112  142.0565  153.1238 H   0  0  0  0  0  0  0  0  0  0  0  0
  148.6928  140.3007  153.0477 H   0  0  0  0  0  0  0  0  0  0  0  0
  146.3918  140.9901  152.4902 H   0  0  0  0  0  0  0  0  0  0  0  0
  146.9166  143.4805  153.4116 H   0  0  0  0  0  0  0  0  0  0  0  0
  145.2917  142.8554  153.6868 H   0  0  0  0  0  0  0  0  0  0  0  0
  147.2706  143.4340  155.7603 H   0  0  0  0  0  0  0  0  0  0  0  0
  145.6447  142.7970  155.9582 H   0  0  0  0  0  0  0  0  0  0  0  0
  147.0280  140.8829  156.6881 H   0  0  0  0  0  0  0  0  0  0  0  0
  145.2432  140.4769  154.8059 H   0  0  0  0  0  0  0  0  0  0  0  0
  146.6247  139.3849  154.5606 H   0  0  0  0  0  0  0  0  0  0  0  0
  149.9460  144.7590  158.3481 H   0  0  0  0  0  0  0  0  0  0  0  0
  152.1711  143.3042  162.6225 H   0  0  0  0  0  0  0  0  0  0  0  0
  152.1114  145.0566  162.3494 H   0  0  0  0  0  0  0  0  0  0  0  0
  153.5509  144.1372  161.8751 H   0  0  0  0  0  0  0  0  0  0  0  0
  150.3910  141.9444  155.1187 H   0  0  0  0  0  0  0  0  0  0  0  0
  1  2  1  0  0  0  0
  1 18  1  0  0  0  0
  1 19  1  0  0  0  0
  1 20  1  0  0  0  0
  2 16  1  0  0  0  0
  2  3  2  0  0  0  0
  3  4  1  0  0  0  0
  3 14  1  0  0  0  0
  4  5  1  0  0  0  0
  4 21  1  0  0  0  0
  4 22  1  0  0  0  0
  5  6  1  0  0  0  0
  5 23  1  0  0  0  0
  5 24  1  0  0  0  0
  6  7  1  0  0  0  0
  6 25  1  0  0  0  0
  6 41  1  0  0  0  0
  7 12  1  0  0  0  0
  7  8  1  0  0  0  0
  7 26  1  0  0  0  0
  8  9  1  0  0  0  0
  8 27  1  0  0  0  0
  8 28  1  0  0  0  0
  9 13  1  0  0  0  0
  9 10  1  0  0  0  0
  9 29  1  0  0  0  0
 10 11  1  0  0  0  0
 10 30  1  0  0  0  0
 10 31  1  0  0  0  0
 11 12  1  0  0  0  0
 11 32  1  0  0  0  0
 11 33  1  0  0  0  0
 12 13  1  0  0  0  0
 12 34  1  0  0  0  0
 13 35  1  0  0  0  0
 13 36  1  0  0  0  0
 14 15  2  0  0  0  0
 14 37  1  0  0  0  0
 15 16  1  0  0  0  0
 16 17  1  0  0  0  0
 17 38  1  0  0  0  0
 17 39  1  0  0  0  0
 17 40  1  0  0  0  0
M  CHG  1   6   1
M  END
> <s_m_source_file>
AV-unprocessed.smi

> <i_m_source_file_index>
3201

> <i_lp_mmshare_version>
43012

> <i_f3d_flags>
0

> <s_epik_input>
W0NIM11uMW5bY0hdYyhjMVtDSDNdKVtDSDJdW0NIMl1bTkhdW0NASF0oW0NIMl1bQ0BIXTIzKVtDQEhdKFtDSDJdMylbQ0gyXVtDSDJdMg==

> <s_epik_cmdline>
J2VwaWtfcHl0aG9uJywgJy1waCcsICc3LjAnLCAnLXRuJywgJzgnLCAnLW1hJywgJzIwMCcsICctbWV0YWxfYmluZGluZycsICctaW1hZScsICc8aW5maWxlLm1hZT4nLCAnLW9tYWUnLCAnPG91dGZpbGUubWFlPic=

> <r_lp_tautomer_probability>
1

> <r_epik_Ionization_Penalty>
0.000331174

> <r_epik_Ionization_Penalty_Charging>
0.000242709

> <r_epik_Ionization_Penalty_Neutral>
8.84659e-05

> <r_epik_State_Penalty>
-0

> <r_epik_Charging_Adjusted_Penalty>
0.000242709

> <i_epik_Tot_Q>
1

> <i_epik_Tot_abs_Q>
1

> <r_epik_Metal_State_Penalty>
-0

> <b_epik_Metal_Only>
0

> <s_lp_Force_Field>
OPLS_2005

> <r_lp_Energy>
50.9619

> <b_lp_Chiralities_Consistent>
1

> <s_lp_Variant>
AV-unprocessed.smi:3201-1

> <Gold.Version>
5.8.1

> <Gold.Id.Protein>
6NUR|6NUR_protein|mol2

> <Gold.PLP.Fitness>
44.0873

> <Gold.PLP.PLP>
-36.5188

> <Gold.PLP.part.hbond>
-1.0000

> <Gold.PLP.part.metal>
0.0000

> <Gold.PLP.part.buried>
-2.4210

> <Gold.PLP.part.nonpolar>
-32.1178

> <Gold.PLP.part.repulsive>
0.2855

> <Gold.PLP.ligand.clash>
0.0000

> <Gold.PLP.ligand.torsion>
0.6112

> <Gold.PLP.Chemscore.Hbond>
2.0000

> <Gold.PLP.Chemscore.CHOScore>
0.9247

> <Gold.PLP.Chemscore.Metal>
0.0000

> <Gold.Chemscore.Hbonds>
donor molecule, donor type, donor heavy atom, donor atom, acceptor molecule, acceptor atom, score
      L1  H     6    25       P1  8028  2.00
      L1  C    14    37       P1  8028  0.08
      L1  C    14    37       P1  8029  0.84

> <Gold.PLP.Chemscore.Internal.Correction>
0.0166

> <Gold.Rescore>
     Score         DG    S(hbond)    S(metal)    S(lipo)     H(rot)  DE(clash)    DE(int)     intcor
     16.58     -17.81       1.00        0.00     106.57       1.36       0.69       0.54       ----

> <Gold.Chemscore.Fitness>
16.5831

> <Gold.Chemscore.DG>
-17.8088

> <Gold.Chemscore.ZeroCoef>
-5.4800

> <Gold.Chemscore.Hbond>
0.9994

> <Gold.Chemscore.Metal>
0.0000

> <Gold.Chemscore.Lipo>
106.5748

> <Gold.Chemscore.Internal_Hbond>
0.0000

> <Gold.Chemscore.DEClash>
0.6876

> <Gold.Chemscore.DEInternal>
0.5381

> <Gold.Chemscore.Rot>
1.3588

> <Gold.Chemscore.Internal.Correction>
   9.000000E+99

> <Gold.Chemscore.Hbonds>
donor molecule, donor type, donor heavy atom, donor atom, acceptor molecule, acceptor atom, score
      L1  H     6    25       P1  8028  1.00

> <Gold.Chemscore.Hbond.Weighted>
-3.3381

> <Gold.Chemscore.Metal.Weighted>
-0.0000

> <Gold.Chemscore.Lipo.Weighted>
-12.4693

> <Gold.Chemscore.Internal_Hbond.Weighted>
0.0000

> <Gold.Chemscore.DEClash.Weighted>
0.6876

> <Gold.Chemscore.DEInternal.Weighted>
0.5381

> <Gold.Chemscore.Rot.Weighted>
3.4786

> <Gold.Chemscore.Internal.Correction.Weighted>
   9.000000E+99

> <Gold.Protein.RotatedTorsions>
[ 6907 6896 6895 6894 ] final  179.88 input  -60.11 | X-H torsion
[ 7974 7965 7964 7962 ] final  127.59 input  175.53 | X-H torsion
[ 8008 7997 7996 7995 ] final  -11.18 input   59.86 | X-H torsion
[ 10167 10162 10161 10158 ] final  178.65 input  -65.29 | X-H torsion
[ 10718 10713 10712 10709 ] final   50.62 input   66.30 | X-H torsion
[ 10763 10752 10751 10750 ] final   -5.39 input  -60.55 | X-H torsion
[ 11005 11000 10999 10996 ] final   88.94 input  -57.11 | X-H torsion

> <Gold.Protein.ActiveResidues>
 VAL166  LYS551  ARG553  GLY616  TRP617  ASP618  TYR619  PRO620  LYS621  CYS622 
 ASP623  PHE694  ASN695  SER759  ASP760  ASP761  ALA762  ILE779  LEU786  VAL792 
 PHE793  MET794  SER795  GLU796  ALA797  LYS798  CYS799  TRP800  GLU811  SER814 

> <Gold.Protein.RotatedAtoms>
  151.6644  133.3316  159.3181 H   0  0  0  0  0  0  0  0  0  0  0  0  # atno 6907 bound_to 6896
  150.7898  134.6916  159.6509 H   0  0  0  0  0  0  0  0  0  0  0  0  # atno 6908 bound_to 6896
  152.3975  134.6345  160.0135 H   0  0  0  0  0  0  0  0  0  0  0  0  # atno 6909 bound_to 6896
  145.0489  139.3900  143.5064 H   0  0  0  0  0  0  0  0  0  0  0  0  # atno 7974 bound_to 7965
  154.5488  140.2309  155.8519 H   0  0  0  0  0  0  0  0  0  0  0  0  # atno 8008 bound_to 7997
  156.1928  140.3073  155.9327 H   0  0  0  0  0  0  0  0  0  0  0  0  # atno 8009 bound_to 7997
  155.3111  140.0436  157.3025 H   0  0  0  0  0  0  0  0  0  0  0  0  # atno 8010 bound_to 7997
  139.5303  144.2654  152.0672 H   0  0  0  0  0  0  0  0  0  0  0  0  # atno 10167 bound_to 10162
  157.4902  130.8371  149.8194 H   0  0  0  0  0  0  0  0  0  0  0  0  # atno 10718 bound_to 10713
  153.3978  135.7004  153.6448 H   0  0  0  0  0  0  0  0  0  0  0  0  # atno 10763 bound_to 10752
  153.4993  135.3655  155.2532 H   0  0  0  0  0  0  0  0  0  0  0  0  # atno 10764 bound_to 10752
  154.8708  135.4108  154.3308 H   0  0  0  0  0  0  0  0  0  0  0  0  # atno 10765 bound_to 10752
  139.8885  134.8520  156.3072 H   0  0  0  0  0  0  0  0  0  0  0  0  # atno 11005 bound_to 11000
  146.3516  140.0128  142.8665 LP  0  0  0  0  0  0  0  0  0  0  0  0  # atno 17320 bound_to 7965
  145.1553  140.9644  143.4409 LP  0  0  0  0  0  0  0  0  0  0  0  0  # atno 17321 bound_to 7965
  140.2117  144.4556  150.6383 LP  0  0  0  0  0  0  0  0  0  0  0  0  # atno 17342 bound_to 10162
  140.6476  143.2217  151.6150 LP  0  0  0  0  0  0  0  0  0  0  0  0  # atno 17343 bound_to 10162
  156.0169  130.3810  150.2083 LP  0  0  0  0  0  0  0  0  0  0  0  0  # atno 17370 bound_to 10713
  157.0271  130.9996  151.3323 LP  0  0  0  0  0  0  0  0  0  0  0  0  # atno 17371 bound_to 10713
  140.9874  133.7229  156.0763 LP  0  0  0  0  0  0  0  0  0  0  0  0  # atno 17394 bound_to 11000
  140.7670  134.3875  157.5515 LP  0  0  0  0  0  0  0  0  0  0  0  0  # atno 17395 bound_to 11000

$$$$
