#       Name:                AV-unprocessed.smi:284
#       Creating user name   scv26
#       Creation time:       Thu Mar 26 21:51:20 2020


#       File generated by GOLD software.
#

@<TRIPOS>MOLECULE
AV-unprocessed.smi:284
    72    74     1
SMALL
NO_CHARGES


@<TRIPOS>ATOM
      1 ****        -0.6014   4.9682  -2.6295 C.3            1 S1                 0.0000
      2 ****        -0.0183   3.5823  -2.4028 C.2            1 S1                 0.0000
      3 ****         1.3133   3.3730  -2.2868 C.2            1 S1                 0.0000
      4 ****         1.8761   2.1272  -2.0804 N.am           1 S1                 0.0000
      5 ****         3.3742   1.9504  -1.9616 C.3            1 S1                 0.0000
      6 ****         4.0031   1.7775  -3.3461 C.3            1 S1                 0.0000
      7 ****         4.5487   3.1645  -3.6190 C.3            1 S1                 0.0000
      8 ****         5.6464   3.1102  -4.5066 O.3            1 S1                 0.0000
      9 ****         4.9520   3.6299  -2.2176 C.3            1 S1                 0.0000
     10 ****         5.0138   5.1584  -2.0694 C.3            1 S1                 0.0000
     11 ****         5.7873   5.5056  -0.9408 O.3            1 S1                 0.0000
     12 ****         3.9282   3.0949  -1.3804 O.3            1 S1                 0.0000
     13 ****         1.0461   0.9898  -2.0130 C.2            1 S1                 0.0000
     14 ****         1.5260  -0.1358  -1.8591 O.2            1 S1                 0.0000
     15 ****        -0.3502   1.1736  -2.1306 N.am           1 S1                 0.0000
     16 ****        -1.2254  -0.0155  -2.0278 C.3            1 S1                 0.0000
     17 ****        -1.5641  -0.3938  -0.5774 C.2            1 S1                 0.0000
     18 ****        -1.5441   0.4628   0.3072 O.2            1 S1                 0.0000
     19 ****        -1.9099  -1.6803  -0.3872 N.am           1 S1                 0.0000
     20 ****        -2.2418  -2.3488   0.8230 C.ar           1 S1                 0.0000
     21 ****        -2.9524  -3.5599   0.7151 C.ar           1 S1                 0.0000
     22 ****        -3.3004  -4.2956   1.8642 C.ar           1 S1                 0.0000
     23 ****        -2.9377  -3.8395   3.1553 C.ar           1 S1                 0.0000
     24 ****        -3.2979  -4.6150   4.4370 C.3            1 S1                 0.0000
     25 ****        -2.0078  -4.9960   5.1932 C.3            1 S1                 0.0000
     26 ****        -4.0760  -5.9201   4.1540 C.3            1 S1                 0.0000
     27 ****        -4.1791  -3.7323   5.3450 C.3            1 S1                 0.0000
     28 ****        -2.2141  -2.6279   3.2538 C.ar           1 S1                 0.0000
     29 ****        -1.8626  -1.8922   2.1063 C.ar           1 S1                 0.0000
     30 ****        -0.9412   2.4481  -2.3141 C.2            1 S1                 0.0000
     31 ****        -2.1655   2.5686  -2.3890 O.2            1 S1                 0.0000
     32 ****         0.1752   5.7319  -2.6823 H              1 S1                 0.0000
     33 ****        -1.2767   5.2357  -1.8160 H              1 S1                 0.0000
     34 ****        -1.1616   4.9978  -3.5646 H              1 S1                 0.0000
     35 ****         1.9648   4.2300  -2.3648 H              1 S1                 0.0000
     36 ****         3.5414   1.1015  -1.2973 H              1 S1                 0.0000
     37 ****         4.8095   1.0471  -3.2624 H              1 S1                 0.0000
     38 ****         3.2860   1.4268  -4.0895 H              1 S1                 0.0000
     39 ****         3.7659   3.8028  -4.0313 H              1 S1                 0.0000
     40 ****         6.3106   2.5526  -4.1310 H              1 S1                 0.0000
     41 ****         5.9030   3.1684  -1.9436 H              1 S1                 0.0000
     42 ****         5.4966   5.6001  -2.9417 H              1 S1                 0.0000
     43 ****         4.0171   5.5939  -1.9962 H              1 S1                 0.0000
     44 ****         5.8273   6.4480  -0.8816 H              1 S1                 0.0000
     45 ****        -2.1625   0.1243  -2.5684 H              1 S1                 0.0000
     46 ****        -0.7628  -0.8703  -2.5247 H              1 S1                 0.0000
     47 ****        -1.9791  -2.2434  -1.2223 H              1 S1                 0.0000
     48 ****        -3.2397  -3.9327  -0.2573 H              1 S1                 0.0000
     49 ****        -3.8486  -5.2134   1.7208 H              1 S1                 0.0000
     50 ****        -2.2307  -5.5665   6.0957 H              1 S1                 0.0000
     51 ****        -1.4384  -4.1200   5.5037 H              1 S1                 0.0000
     52 ****        -1.3532  -5.6092   4.5727 H              1 S1                 0.0000
     53 ****        -3.4972  -6.6099   3.5383 H              1 S1                 0.0000
     54 ****        -5.0220  -5.7246   3.6475 H              1 S1                 0.0000
     55 ****        -4.3148  -6.4452   5.0795 H              1 S1                 0.0000
     56 ****        -4.4686  -4.2621   6.2533 H              1 S1                 0.0000
     57 ****        -5.0955  -3.4337   4.8345 H              1 S1                 0.0000
     58 ****        -3.6663  -2.8223   5.6567 H              1 S1                 0.0000
     59 ****        -1.9132  -2.2496   4.2192 H              1 S1                 0.0000
     60 ****        -1.2896  -0.9881   2.2396 H              1 S1                 0.0000
     61 ****         6.0156   4.0295  -4.6424 LP             1 S1                 0.0000
     62 ****         5.3506   2.7366  -5.3858 LP             1 S1                 0.0000
     63 ****         6.7108   5.1345  -1.0381 LP             1 S1                 0.0000
     64 ****         5.3639   5.1337  -0.1147 LP             1 S1                 0.0000
     65 ****         4.3198   2.8568  -0.4916 LP             1 S1                 0.0000
     66 ****         3.2117   3.7813  -1.2559 LP             1 S1                 0.0000
     67 ****         2.5162  -0.2507  -1.7803 LP             1 S1                 0.0000
     68 ****         0.9248  -0.9337  -1.8131 LP             1 S1                 0.0000
     69 ****        -1.3070   1.4079   0.0827 LP             1 S1                 0.0000
     70 ****        -1.7651   0.2132   1.2500 LP             1 S1                 0.0000
     71 ****        -2.5720   3.4733  -2.5164 LP             1 S1                 0.0000
     72 ****        -2.7524   1.7616  -2.3225 LP             1 S1                 0.0000
@<TRIPOS>BOND
    1    1    2 1     
    2    1   32 1     
    3    1   33 1     
    4    1   34 1     
    5    2   30 1     
    6    2    3 2     
    7    3    4 1     
    8    3   35 1     
    9    4    5 1     
   10    4   13 am    
   11    5   12 1     
   12    5    6 1     
   13    5   36 1     
   14    6    7 1     
   15    6   37 1     
   16    6   38 1     
   17    7    8 1     
   18    7    9 1     
   19    7   39 1     
   20    8   40 1     
   21    9   10 1     
   22    9   12 1     
   23    9   41 1     
   24   10   11 1     
   25   10   42 1     
   26   10   43 1     
   27   11   44 1     
   28   13   14 2     
   29   13   15 am    
   30   15   16 1     
   31   15   30 am    
   32   16   17 1     
   33   16   45 1     
   34   16   46 1     
   35   17   18 2     
   36   17   19 am    
   37   19   20 1     
   38   19   47 1     
   39   20   29 ar    
   40   20   21 ar    
   41   21   22 ar    
   42   21   48 1     
   43   22   23 ar    
   44   22   49 1     
   45   23   24 1     
   46   23   28 ar    
   47   24   25 1     
   48   24   26 1     
   49   24   27 1     
   50   25   50 1     
   51   25   51 1     
   52   25   52 1     
   53   26   53 1     
   54   26   54 1     
   55   26   55 1     
   56   27   56 1     
   57   27   57 1     
   58   27   58 1     
   59   28   29 ar    
   60   28   59 1     
   61   29   60 1     
   62   30   31 2     
   63    8   61 1     
   64    8   62 1     
   65   11   63 1     
   66   11   64 1     
   67   12   65 1     
   68   12   66 1     
   69   14   67 1     
   70   14   68 1     
   71   18   69 1     
   72   18   70 1     
   73   31   71 1     
   74   31   72 1     
@<TRIPOS>SUBSTRUCTURE
      1 S1             1
@<TRIPOS>SET
LONE_PAIRS      STATIC     ATOMS    <user>   **** ""
12 61 62 63 64 65 66 67 68 69 70 71 72
DONOR_HYDROGENS      STATIC     ATOMS    <user>   **** ""
3 40 44 47
ATOM$BLUE        STATIC     ATOMS    COLORGROUP SYSTEM
12 61 62 63 64 65 66 67 68 69 70 71 72
ATOM$RED        STATIC     ATOMS    COLORGROUP SYSTEM
3 40 44 47
