AV-unprocessed.smi:157|AV-procd|sdf|1297|dock3
  -GOLD-   2262018583D 1   1.00000     0.00000
 Structure written by MMmdl.
 35 37  0  0  0  0  0  0  0  0  1 V2000
  143.6730  133.3679  149.1349 O   0  0  0  0  0  0  0  0  0  0  0  0
  143.5503  132.3747  150.1303 C   0  0  0  0  0  0  0  0  0  0  0  0
  144.4611  132.7095  151.3208 C   0  0  1  0  0  0  0  0  0  0  0  0
  145.7950  132.9166  150.8668 O   0  0  0  0  0  0  0  0  0  0  0  0
  146.4825  133.7446  151.7589 C   0  0  2  0  0  0  0  0  0  0  0  0
  147.4539  132.9150  152.5454 N   0  0  0  0  0  0  0  0  0  0  0  0
  148.4939  133.3556  153.2674 C   0  0  0  0  0  0  0  0  0  0  0  0
  149.1970  132.4031  153.8568 N   0  0  0  0  0  0  0  0  0  0  0  0
  148.5473  131.2274  153.4864 C   0  0  0  0  0  0  0  0  0  0  0  0
  147.4610  131.5232  152.6755 C   0  0  0  0  0  0  0  0  0  0  0  0
  146.4841  130.8016  152.0163 N   0  0  0  0  0  0  0  0  0  0  0  0
  146.2680  129.5819  152.3966 C   0  0  0  0  0  0  0  0  0  0  0  0
  146.9353  128.8034  153.3316 N   0  0  0  0  0  0  0  0  0  0  0  0
  148.3818  128.6726  153.3747 C   0  0  0  0  0  0  0  0  0  0  0  0
  149.0914  129.9061  153.9469 C   0  0  2  0  0  0  0  0  0  0  0  0
  148.9953  129.8877  155.3567 O   0  0  0  0  0  0  0  0  0  0  0  0
  145.4401  134.3618  152.6993 C   0  0  0  0  0  0  0  0  0  0  0  0
  144.1417  134.0514  151.9806 C   0  0  2  0  0  0  0  0  0  0  0  0
  143.0655  133.9631  152.8919 O   0  0  0  0  0  0  0  0  0  0  0  0
  144.4461  131.9155  152.0705 H   0  0  0  0  0  0  0  0  0  0  0  0
  147.0889  134.4706  151.2162 H   0  0  0  0  0  0  0  0  0  0  0  0
  150.1520  129.8378  153.7024 H   0  0  0  0  0  0  0  0  0  0  0  0
  143.9373  134.8130  151.2263 H   0  0  0  0  0  0  0  0  0  0  0  0
  142.8797  133.8813  149.1233 H   0  0  0  0  0  0  0  0  0  0  0  0
  142.5104  132.2729  150.4421 H   0  0  0  0  0  0  0  0  0  0  0  0
  143.8490  131.4258  149.6838 H   0  0  0  0  0  0  0  0  0  0  0  0
  148.7496  134.4004  153.3634 H   0  0  0  0  0  0  0  0  0  0  0  0
  145.4461  129.0335  151.9340 H   0  0  0  0  0  0  0  0  0  0  0  0
  146.4822  127.9681  153.6735 H   0  0  0  0  0  0  0  0  0  0  0  0
  148.6569  127.7746  153.9286 H   0  0  0  0  0  0  0  0  0  0  0  0
  148.7231  128.5144  152.3504 H   0  0  0  0  0  0  0  0  0  0  0  0
  149.7497  129.4311  155.6977 H   0  0  0  0  0  0  0  0  0  0  0  0
  145.4788  133.8680  153.6723 H   0  0  0  0  0  0  0  0  0  0  0  0
  145.6170  135.4289  152.8371 H   0  0  0  0  0  0  0  0  0  0  0  0
  143.0915  133.1140  153.3062 H   0  0  0  0  0  0  0  0  0  0  0  0
  1  2  1  0  0  0  0
  1 24  1  0  0  0  0
  2  3  1  0  0  0  0
  2 25  1  0  0  0  0
  2 26  1  0  0  0  0
  3 20  1  0  0  0  0
  3 18  1  0  0  0  0
  3  4  1  0  0  0  0
  4  5  1  0  0  0  0
  5 21  1  0  0  0  0
  5  6  1  0  0  0  0
  5 17  1  0  0  0  0
  6 10  1  0  0  0  0
  6  7  1  0  0  0  0
  7  8  2  0  0  0  0
  7 27  1  0  0  0  0
  8  9  1  0  0  0  0
  9 15  1  0  0  0  0
  9 10  2  0  0  0  0
 10 11  1  0  0  0  0
 11 12  2  0  0  0  0
 12 13  1  0  0  0  0
 12 28  1  0  0  0  0
 13 14  1  0  0  0  0
 13 29  1  0  0  0  0
 14 15  1  0  0  0  0
 14 30  1  0  0  0  0
 14 31  1  0  0  0  0
 15 22  1  0  0  0  0
 15 16  1  0  0  0  0
 16 32  1  0  0  0  0
 17 18  1  0  0  0  0
 17 33  1  0  0  0  0
 17 34  1  0  0  0  0
 18 23  1  0  0  0  0
 18 19  1  0  0  0  0
 19 35  1  0  0  0  0
M  END
> <s_m_source_file>
AV-unprocessed.smi

> <i_m_source_file_index>
157

> <i_lp_mmshare_version>
43012

> <i_f3d_flags>
0

> <s_epik_input>
W09IXVtDSDJdW0NASF0xT1tDQEhdKFtDSDJdW0NAQEhdMVtPSF0pbihbY0hdbjIpYyhjMjMpTj1bQ0hdW05IXVtDSDJdW0NASF0zW09IXQ==

> <s_epik_cmdline>
J2VwaWtfcHl0aG9uJywgJy1waCcsICc3LjAnLCAnLXRuJywgJzgnLCAnLW1hJywgJzIwMCcsICctbWV0YWxfYmluZGluZycsICctaW1hZScsICc8aW5maWxlLm1hZT4nLCAnLW9tYWUnLCAnPG91dGZpbGUubWFlPic=

> <r_lp_tautomer_probability>
1

> <r_epik_Ionization_Penalty>
0.0357149

> <r_epik_Ionization_Penalty_Charging>
0.0355056

> <r_epik_Ionization_Penalty_Neutral>
0.000209255

> <r_epik_State_Penalty>
0.0296046

> <r_epik_Charging_Adjusted_Penalty>
0.0651102

> <i_epik_Tot_Q>
0

> <i_epik_Tot_abs_Q>
0

> <r_epik_Metal_State_Penalty>
3.03559e-05

> <b_epik_Metal_Only>
0

> <s_epik_Chemistry_Notes>
This compound has an imine and may undergo hydrolysis. This compound contains an acetal/aminal-like group ( X-CH(R)-Y where X, Y are N, S, or O) that may be acid/base labile, releasing an aldehyde.

> <s_lp_Force_Field>
OPLS_2005

> <r_lp_Energy>
44.0158

> <b_lp_Chiralities_Consistent>
1

> <s_lp_Variant>
AV-unprocessed.smi:157-7

> <Gold.Version>
5.8.1

> <Gold.Id.Protein>
6NUR|6NUR_protein|mol2

> <Gold.PLP.Fitness>
37.6470

> <Gold.PLP.PLP>
-29.6145

> <Gold.PLP.part.hbond>
-2.6368

> <Gold.PLP.part.metal>
0.0000

> <Gold.PLP.part.buried>
-3.9959

> <Gold.PLP.part.nonpolar>
-23.9982

> <Gold.PLP.part.repulsive>
1.1150

> <Gold.PLP.ligand.clash>
0.0000

> <Gold.PLP.ligand.torsion>
0.4933

> <Gold.PLP.Chemscore.Hbond>
2.0000

> <Gold.PLP.Chemscore.CHOScore>
1.0000

> <Gold.PLP.Chemscore.Metal>
0.0000

> <Gold.Chemscore.Hbonds>
donor molecule, donor type, donor heavy atom, donor atom, acceptor molecule, acceptor atom, score
      L1  H     1    24       P1 10186  1.00
      L1  H    19    35       P1 10957  0.99
      L1  C     7    27       P1  7948  0.90

> <Gold.PLP.Chemscore.Internal.Correction>
0.0191

> <Gold.Rescore>
     Score         DG    S(hbond)    S(metal)    S(lipo)     H(rot)  DE(clash)    DE(int)     intcor
      3.72      -7.26       1.98        0.00      38.27       3.64       0.00       3.55       ----

> <Gold.Chemscore.Fitness>
3.7159

> <Gold.Chemscore.DG>
-7.2644

> <Gold.Chemscore.ZeroCoef>
-5.4800

> <Gold.Chemscore.Hbond>
1.9807

> <Gold.Chemscore.Metal>
0.0000

> <Gold.Chemscore.Lipo>
38.2701

> <Gold.Chemscore.Internal_Hbond>
0.0000

> <Gold.Chemscore.DEClash>
0.0033

> <Gold.Chemscore.DEInternal>
3.5452

> <Gold.Chemscore.Rot>
3.6362

> <Gold.Chemscore.Internal.Correction>
   9.000000E+99

> <Gold.Chemscore.Hbonds>
donor molecule, donor type, donor heavy atom, donor atom, acceptor molecule, acceptor atom, score
      L1  H     1    24       P1 10186  0.97
      L1  H    19    35       P1 10957  0.77

> <Gold.Chemscore.Hbond.Weighted>
-6.6155

> <Gold.Chemscore.Metal.Weighted>
-0.0000

> <Gold.Chemscore.Lipo.Weighted>
-4.4776

> <Gold.Chemscore.Internal_Hbond.Weighted>
0.0000

> <Gold.Chemscore.DEClash.Weighted>
0.0033

> <Gold.Chemscore.DEInternal.Weighted>
3.5452

> <Gold.Chemscore.Rot.Weighted>
9.3087

> <Gold.Chemscore.Internal.Correction.Weighted>
   9.000000E+99

> <Gold.Protein.RotatedTorsions>
[ 6907 6896 6895 6894 ] final  -52.65 input  -60.11 | X-H torsion
[ 7974 7965 7964 7962 ] final   38.27 input  175.53 | X-H torsion
[ 8008 7997 7996 7995 ] final   50.94 input   59.86 | X-H torsion
[ 10167 10162 10161 10158 ] final -169.83 input  -65.29 | X-H torsion
[ 10718 10713 10712 10709 ] final  163.90 input   66.30 | X-H torsion
[ 10763 10752 10751 10750 ] final  168.54 input  -60.55 | X-H torsion
[ 11005 11000 10999 10996 ] final  -86.17 input  -57.11 | X-H torsion

> <Gold.Protein.ActiveResidues>
 VAL166  LYS551  ARG553  GLY616  TRP617  ASP618  TYR619  PRO620  LYS621  CYS622 
 ASP623  PHE694  ASN695  SER759  ASP760  ASP761  ALA762  ILE779  LEU786  VAL792 
 PHE793  MET794  SER795  GLU796  ALA797  LYS798  CYS799  TRP800  GLU811  SER814 

> <Gold.Protein.RotatedAtoms>
  150.8498  134.7819  159.6999 H   0  0  0  0  0  0  0  0  0  0  0  0  # atno 6907 bound_to 6896
  152.4566  134.5275  159.9811 H   0  0  0  0  0  0  0  0  0  0  0  0  # atno 6908 bound_to 6896
  151.5398  133.3396  159.2969 H   0  0  0  0  0  0  0  0  0  0  0  0  # atno 6909 bound_to 6896
  146.1075  139.5793  142.9374 H   0  0  0  0  0  0  0  0  0  0  0  0  # atno 7974 bound_to 7965
  155.4270  140.3449  155.4276 H   0  0  0  0  0  0  0  0  0  0  0  0  # atno 8008 bound_to 7997
  156.1359  140.1527  156.9026 H   0  0  0  0  0  0  0  0  0  0  0  0  # atno 8009 bound_to 7997
  154.4931  140.0835  156.7618 H   0  0  0  0  0  0  0  0  0  0  0  0  # atno 8010 bound_to 7997
  139.5898  144.1237  152.1621 H   0  0  0  0  0  0  0  0  0  0  0  0  # atno 10167 bound_to 10162
  157.1019  131.0445  151.2494 H   0  0  0  0  0  0  0  0  0  0  0  0  # atno 10718 bound_to 10713
  154.3700  135.2753  155.2271 H   0  0  0  0  0  0  0  0  0  0  0  0  # atno 10763 bound_to 10752
  154.4423  135.5951  153.6141 H   0  0  0  0  0  0  0  0  0  0  0  0  # atno 10764 bound_to 10752
  152.9839  135.6021  154.3931 H   0  0  0  0  0  0  0  0  0  0  0  0  # atno 10765 bound_to 10752
  141.1633  133.7440  156.9122 H   0  0  0  0  0  0  0  0  0  0  0  0  # atno 11005 bound_to 11000
  145.5732  141.0391  143.2163 LP  0  0  0  0  0  0  0  0  0  0  0  0  # atno 17320 bound_to 7965
  144.7483  139.7262  143.7283 LP  0  0  0  0  0  0  0  0  0  0  0  0  # atno 17321 bound_to 7965
  140.0809  144.5701  150.7123 LP  0  0  0  0  0  0  0  0  0  0  0  0  # atno 17342 bound_to 10162
  140.7163  143.2548  151.4422 LP  0  0  0  0  0  0  0  0  0  0  0  0  # atno 17343 bound_to 10162
  157.4633  130.7666  149.7256 LP  0  0  0  0  0  0  0  0  0  0  0  0  # atno 17370 bound_to 10713
  155.9871  130.3969  150.3179 LP  0  0  0  0  0  0  0  0  0  0  0  0  # atno 17371 bound_to 10713
  140.1509  134.9231  157.2591 LP  0  0  0  0  0  0  0  0  0  0  0  0  # atno 17394 bound_to 11000
  140.2724  134.3444  155.7369 LP  0  0  0  0  0  0  0  0  0  0  0  0  # atno 17395 bound_to 11000

$$$$
