AV-unprocessed.smi:144|AV-procd|sdf|1196|dock5
  -GOLD-   2262018353D 1   1.00000     0.00000
 Structure written by MMmdl.
 46 48  0  0  0  0  0  0  0  0  1 V2000
  151.3774  137.0529  159.6513 O   0  0  0  0  0  0  0  0  0  0  0  0
  150.9962  137.2735  158.5028 C   0  0  0  0  0  0  0  0  0  0  0  0
  151.8590  138.1835  157.6085 C   0  0  0  0  0  0  0  0  0  0  0  0
  151.3263  139.5502  157.3998 N   0  0  0  0  0  0  0  0  0  0  0  0
  150.6374  139.8363  156.1946 C   0  0  0  0  0  0  0  0  0  0  0  0
  150.4793  138.9732  155.3303 O   0  0  0  0  0  0  0  0  0  0  0  0
  150.1568  141.2062  156.0527 C   0  0  0  0  0  0  0  0  0  0  0  0
  149.4978  141.5682  154.9391 F   0  0  0  0  0  0  0  0  0  0  0  0
  150.3727  142.1213  157.0198 C   0  0  0  0  0  0  0  0  0  0  0  0
  151.0481  141.8284  158.1907 N   0  0  0  0  0  0  0  0  0  0  0  0
  151.2887  142.8830  159.2488 C   0  0  1  0  0  0  0  0  0  0  0  0
  152.7929  143.0636  159.4828 C   0  0  0  0  0  0  0  0  0  0  0  0
  153.1189  144.2003  158.5387 C   0  0  0  0  0  0  0  0  0  0  0  0
  151.8491  145.0404  158.6202 C   0  0  0  0  0  0  0  0  0  0  0  0
  150.7850  144.1081  158.7988 O   0  0  0  0  0  0  0  0  0  0  0  0
  151.5513  140.5264  158.3997 C   0  0  0  0  0  0  0  0  0  0  0  0
  152.1855  140.2530  159.4211 O   0  0  0  0  0  0  0  0  0  0  0  0
  149.8540  136.7839  157.9801 N   0  0  0  0  0  0  0  0  0  0  0  0
  148.8941  135.9270  158.5812 C   0  0  0  0  0  0  0  0  0  0  0  0
  148.5810  136.1616  159.9352 C   0  0  0  0  0  0  0  0  0  0  0  0
  147.6235  135.3672  160.6015 C   0  0  0  0  0  0  0  0  0  0  0  0
  147.2985  135.6060  162.0684 C   0  0  0  0  0  0  0  0  0  0  0  0
  146.0305  135.9957  162.2038 F   0  0  0  0  0  0  0  0  0  0  0  0
  147.4742  134.4724  162.7460 F   0  0  0  0  0  0  0  0  0  0  0  0
  148.0827  136.5466  162.5965 F   0  0  0  0  0  0  0  0  0  0  0  0
  146.9743  134.3306  159.8992 C   0  0  0  0  0  0  0  0  0  0  0  0
  147.2609  134.0972  158.5370 C   0  0  0  0  0  0  0  0  0  0  0  0
  146.5563  132.9939  157.7616 C   0  0  0  0  0  0  0  0  0  0  0  0
  145.9287  133.5167  156.7080 F   0  0  0  0  0  0  0  0  0  0  0  0
  147.4576  132.1118  157.3304 F   0  0  0  0  0  0  0  0  0  0  0  0
  145.6583  132.3517  158.5097 F   0  0  0  0  0  0  0  0  0  0  0  0
  148.2175  134.9003  157.8818 C   0  0  0  0  0  0  0  0  0  0  0  0
  152.8629  138.2196  158.0344 H   0  0  0  0  0  0  0  0  0  0  0  0
  152.0039  137.6773  156.6529 H   0  0  0  0  0  0  0  0  0  0  0  0
  150.0022  143.1221  156.8549 H   0  0  0  0  0  0  0  0  0  0  0  0
  150.7360  142.5592  160.1322 H   0  0  0  0  0  0  0  0  0  0  0  0
  152.9494  143.3698  160.5180 H   0  0  0  0  0  0  0  0  0  0  0  0
  153.3591  142.1505  159.2942 H   0  0  0  0  0  0  0  0  0  0  0  0
  154.0147  144.7520  158.8246 H   0  0  0  0  0  0  0  0  0  0  0  0
  153.2591  143.8220  157.5253 H   0  0  0  0  0  0  0  0  0  0  0  0
  151.8857  145.6978  159.4900 H   0  0  0  0  0  0  0  0  0  0  0  0
  151.6962  145.6574  157.7345 H   0  0  0  0  0  0  0  0  0  0  0  0
  149.6151  137.1223  157.0594 H   0  0  0  0  0  0  0  0  0  0  0  0
  149.0892  136.9531  160.4666 H   0  0  0  0  0  0  0  0  0  0  0  0
  146.2495  133.7185  160.4149 H   0  0  0  0  0  0  0  0  0  0  0  0
  148.4081  134.7184  156.8353 H   0  0  0  0  0  0  0  0  0  0  0  0
  1  2  2  0  0  0  0
  2  3  1  0  0  0  0
  2 18  1  0  0  0  0
  3  4  1  0  0  0  0
  3 33  1  0  0  0  0
  3 34  1  0  0  0  0
  4 16  1  0  0  0  0
  4  5  1  0  0  0  0
  5  6  2  0  0  0  0
  5  7  1  0  0  0  0
  7  8  1  0  0  0  0
  7  9  2  0  0  0  0
  9 10  1  0  0  0  0
  9 35  1  0  0  0  0
 10 11  1  0  0  0  0
 10 16  1  0  0  0  0
 11 15  1  0  0  0  0
 11 12  1  0  0  0  0
 11 36  1  0  0  0  0
 12 13  1  0  0  0  0
 12 37  1  0  0  0  0
 12 38  1  0  0  0  0
 13 14  1  0  0  0  0
 13 39  1  0  0  0  0
 13 40  1  0  0  0  0
 14 15  1  0  0  0  0
 14 41  1  0  0  0  0
 14 42  1  0  0  0  0
 16 17  2  0  0  0  0
 18 19  1  0  0  0  0
 18 43  1  0  0  0  0
 19 32  1  0  0  0  0
 19 20  2  0  0  0  0
 20 21  1  0  0  0  0
 20 44  1  0  0  0  0
 21 22  1  0  0  0  0
 21 26  2  0  0  0  0
 22 23  1  0  0  0  0
 22 24  1  0  0  0  0
 22 25  1  0  0  0  0
 26 27  1  0  0  0  0
 26 45  1  0  0  0  0
 27 28  1  0  0  0  0
 27 32  2  0  0  0  0
 28 29  1  0  0  0  0
 28 30  1  0  0  0  0
 28 31  1  0  0  0  0
 32 46  1  0  0  0  0
M  END
> <s_m_source_file>
AV-unprocessed.smi

> <i_m_source_file_index>
144

> <i_lp_mmshare_version>
43012

> <i_f3d_flags>
0

> <s_epik_input>
RkMoRikoRiljKFtjSF0xKVtjSF1jKEMoRikoRilGKVtjSF1jMVtOSF1DKD1PKVtDSDJdbjJjKD1PKWMoRilbY0hdbihjMj1PKVtDQEBIXTNbQ0gyXVtDSDJdW0NIMl1PMw==

> <s_epik_cmdline>
J2VwaWtfcHl0aG9uJywgJy1waCcsICc3LjAnLCAnLXRuJywgJzgnLCAnLW1hJywgJzIwMCcsICctbWV0YWxfYmluZGluZycsICctaW1hZScsICc8aW5maWxlLm1hZT4nLCAnLW9tYWUnLCAnPG91dGZpbGUubWFlPic=

> <r_lp_tautomer_probability>
1

> <r_epik_Ionization_Penalty>
3.68082e-06

> <r_epik_Ionization_Penalty_Charging>
3.88729e-08

> <r_epik_Ionization_Penalty_Neutral>
3.64194e-06

> <r_epik_State_Penalty>
-0

> <r_epik_Charging_Adjusted_Penalty>
3.88729e-08

> <i_epik_Tot_Q>
0

> <i_epik_Tot_abs_Q>
0

> <r_epik_Metal_State_Penalty>
-0

> <b_epik_Metal_Only>
0

> <s_epik_Chemistry_Notes>
This compound contains an acetal/aminal-like group ( X-CH(R)-Y where X, Y are N, S, or O) that may be acid/base labile, releasing an aldehyde.

> <s_lp_Force_Field>
OPLS_2005

> <r_lp_Energy>
36.4766

> <b_lp_Chiralities_Consistent>
1

> <s_lp_Variant>
AV-unprocessed.smi:144-2

> <Gold.Version>
5.8.1

> <Gold.Id.Protein>
6NUR|6NUR_protein|mol2

> <Gold.PLP.Fitness>
55.6645

> <Gold.PLP.PLP>
-51.2365

> <Gold.PLP.part.hbond>
-1.0000

> <Gold.PLP.part.metal>
0.0000

> <Gold.PLP.part.buried>
-6.0242

> <Gold.PLP.part.nonpolar>
-44.9801

> <Gold.PLP.part.repulsive>
0.2709

> <Gold.PLP.ligand.clash>
0.5536

> <Gold.PLP.ligand.torsion>
0.8597

> <Gold.PLP.Chemscore.Hbond>
1.0000

> <Gold.PLP.Chemscore.CHOScore>
1.0000

> <Gold.PLP.Chemscore.Metal>
0.0000

> <Gold.Chemscore.Hbonds>
donor molecule, donor type, donor heavy atom, donor atom, acceptor molecule, acceptor atom, score
      P1  H  6896  6909       L1     1  0.98
      L1  C     9    35       P1  8028  1.00

> <Gold.PLP.Chemscore.Internal.Correction>
0.7011

> <Gold.Rescore>
     Score         DG    S(hbond)    S(metal)    S(lipo)     H(rot)  DE(clash)    DE(int)     intcor
     10.80     -13.92       0.95        0.00      85.21       1.83       0.03       3.09       ----

> <Gold.Chemscore.Fitness>
10.8039

> <Gold.Chemscore.DG>
-13.9203

> <Gold.Chemscore.ZeroCoef>
-5.4800

> <Gold.Chemscore.Hbond>
0.9468

> <Gold.Chemscore.Metal>
0.0000

> <Gold.Chemscore.Lipo>
85.2074

> <Gold.Chemscore.Internal_Hbond>
0.0000

> <Gold.Chemscore.DEClash>
0.0266

> <Gold.Chemscore.DEInternal>
3.0898

> <Gold.Chemscore.Rot>
1.8325

> <Gold.Chemscore.Internal.Correction>
   9.000000E+99

> <Gold.Chemscore.Hbonds>
donor molecule, donor type, donor heavy atom, donor atom, acceptor molecule, acceptor atom, score
      P1  H  6896  6909       L1     1  0.40

> <Gold.Chemscore.Hbond.Weighted>
-3.1622

> <Gold.Chemscore.Metal.Weighted>
-0.0000

> <Gold.Chemscore.Lipo.Weighted>
-9.9693

> <Gold.Chemscore.Internal_Hbond.Weighted>
0.0000

> <Gold.Chemscore.DEClash.Weighted>
0.0266

> <Gold.Chemscore.DEInternal.Weighted>
3.0898

> <Gold.Chemscore.Rot.Weighted>
4.6911

> <Gold.Chemscore.Internal.Correction.Weighted>
   9.000000E+99

> <Gold.Protein.RotatedTorsions>
[ 6907 6896 6895 6894 ] final   91.24 input  -60.11 | X-H torsion
[ 7974 7965 7964 7962 ] final   97.92 input  175.53 | X-H torsion
[ 8008 7997 7996 7995 ] final  156.86 input   59.86 | X-H torsion
[ 10167 10162 10161 10158 ] final  -15.85 input  -65.29 | X-H torsion
[ 10718 10713 10712 10709 ] final  -42.75 input   66.30 | X-H torsion
[ 10763 10752 10751 10750 ] final   18.56 input  -60.55 | X-H torsion
[ 11005 11000 10999 10996 ] final  177.79 input  -57.11 | X-H torsion

> <Gold.Protein.ActiveResidues>
 VAL166  LYS551  ARG553  GLY616  TRP617  ASP618  TYR619  PRO620  LYS621  CYS622 
 ASP623  PHE694  ASN695  SER759  ASP760  ASP761  ALA762  ILE779  LEU786  VAL792 
 PHE793  MET794  SER795  GLU796  ALA797  LYS798  CYS799  TRP800  GLU811  SER814 

> <Gold.Protein.RotatedAtoms>
  152.5449  134.1688  159.8587 H   0  0  0  0  0  0  0  0  0  0  0  0  # atno 6907 bound_to 6896
  151.1699  133.4783  159.2601 H   0  0  0  0  0  0  0  0  0  0  0  0  # atno 6908 bound_to 6896
  151.1285  135.0129  159.8626 H   0  0  0  0  0  0  0  0  0  0  0  0  # atno 6909 bound_to 6896
  145.4191  139.2324  143.3206 H   0  0  0  0  0  0  0  0  0  0  0  0  # atno 7974 bound_to 7965
  156.2398  140.1901  156.7020 H   0  0  0  0  0  0  0  0  0  0  0  0  # atno 8008 bound_to 7997
  154.6175  140.0613  156.9599 H   0  0  0  0  0  0  0  0  0  0  0  0  # atno 8009 bound_to 7997
  155.1916  140.3285  155.4360 H   0  0  0  0  0  0  0  0  0  0  0  0  # atno 8010 bound_to 7997
  140.7225  143.5176  150.9672 H   0  0  0  0  0  0  0  0  0  0  0  0  # atno 10167 bound_to 10162
  156.2563  130.4192  149.8592 H   0  0  0  0  0  0  0  0  0  0  0  0  # atno 10718 bound_to 10713
  153.1238  135.6725  153.9291 H   0  0  0  0  0  0  0  0  0  0  0  0  # atno 10763 bound_to 10752
  153.8798  135.3059  155.3446 H   0  0  0  0  0  0  0  0  0  0  0  0  # atno 10764 bound_to 10752
  154.7646  135.4970  153.9610 H   0  0  0  0  0  0  0  0  0  0  0  0  # atno 10765 bound_to 10752
  140.3880  134.6888  157.4490 H   0  0  0  0  0  0  0  0  0  0  0  0  # atno 11005 bound_to 11000
  146.2666  140.4913  142.8831 LP  0  0  0  0  0  0  0  0  0  0  0  0  # atno 17320 bound_to 7965
  144.8257  140.6625  143.6323 LP  0  0  0  0  0  0  0  0  0  0  0  0  # atno 17321 bound_to 7965
  139.8892  143.6974  152.3147 LP  0  0  0  0  0  0  0  0  0  0  0  0  # atno 17342 bound_to 10162
  139.7284  144.7588  151.0842 LP  0  0  0  0  0  0  0  0  0  0  0  0  # atno 17343 bound_to 10162
  156.6123  130.8592  151.3457 LP  0  0  0  0  0  0  0  0  0  0  0  0  # atno 17370 bound_to 10713
  157.7234  130.9589  150.1531 LP  0  0  0  0  0  0  0  0  0  0  0  0  # atno 17371 bound_to 10713
  140.0428  134.6242  155.8959 LP  0  0  0  0  0  0  0  0  0  0  0  0  # atno 17394 bound_to 11000
  141.1901  133.6567  156.5395 LP  0  0  0  0  0  0  0  0  0  0  0  0  # atno 17395 bound_to 11000

$$$$
