#       Name:                AV-unprocessed.smi:2055
#       Creating user name   scv26
#       Creation time:       Fri Mar 27 11:00:31 2020


#       File generated by GOLD software.
#

@<TRIPOS>MOLECULE
AV-unprocessed.smi:2055
    51    52     1
SMALL
NO_CHARGES


@<TRIPOS>ATOM
      1 ****        -4.7635  -1.6886  -1.8992 C.3            1 S1                 0.0000
      2 ****        -3.6342  -1.4610  -0.8824 C.3            1 S1                 0.0000
      3 ****        -3.7075  -2.4718   0.2756 C.3            1 S1                 0.0000
      4 ****        -2.9887  -1.9892   1.3917 O.3            1 S1                 0.0000
      5 ****        -2.3459  -1.5926  -1.5576 N.am           1 S1                 0.0000
      6 ****        -1.6440  -0.5811  -2.0855 C.2            1 S1                 0.0000
      7 ****        -2.0271   0.5884  -2.1157 O.2            1 S1                 0.0000
      8 ****        -0.4555  -0.9906  -2.5503 N.am           1 S1                 0.0000
      9 ****         0.5637  -0.1110  -3.1161 C.3            1 S1                 0.0000
     10 ****         1.2538   0.8050  -2.1104 C.ar           1 S1                 0.0000
     11 ****         1.8619   1.9942  -2.5631 C.ar           1 S1                 0.0000
     12 ****         2.4959   2.8388  -1.6333 C.ar           1 S1                 0.0000
     13 ****         2.5160   2.5044  -0.3257 N.pl3          1 S1                 1.0000
     14 ****         1.9558   1.3756   0.1739 C.ar           1 S1                 0.0000
     15 ****         2.0333   1.1527   1.5671 N.3            1 S1                 0.0000
     16 ****         1.3572  -0.0191   2.1181 C.3            1 S1                 0.0000
     17 ****         1.2728   0.0749   3.6506 C.3            1 S1                 0.0000
     18 ****         2.5729   0.2786   4.1915 O.3            1 S1                 0.0000
     19 ****         3.1421   1.5034   3.7435 C.3            1 S1                 0.0000
     20 ****         3.3051   1.4725   2.2144 C.3            1 S1                 0.0000
     21 ****         1.3139   0.4923  -0.7309 C.ar           1 S1                 0.0000
     22 ****        -5.7416  -1.5849  -1.4285 H              1 S1                 0.0000
     23 ****        -4.7093  -2.6858  -2.3375 H              1 S1                 0.0000
     24 ****        -4.7144  -0.9631  -2.7121 H              1 S1                 0.0000
     25 ****        -3.7500  -0.4544  -0.4751 H              1 S1                 0.0000
     26 ****        -4.7422  -2.6073   0.5924 H              1 S1                 0.0000
     27 ****        -3.3335  -3.4528  -0.0197 H              1 S1                 0.0000
     28 ****        -3.0946  -2.6015   2.1038 H              1 S1                 0.0000
     29 ****        -1.9422  -2.5175  -1.5840 H              1 S1                 0.0000
     30 ****        -0.2293  -1.9726  -2.4870 H              1 S1                 0.0000
     31 ****         1.3239  -0.7335  -3.5884 H              1 S1                 0.0000
     32 ****         0.1179   0.4895  -3.9111 H              1 S1                 0.0000
     33 ****         1.8398   2.2604  -3.6101 H              1 S1                 0.0000
     34 ****         2.9809   3.7686  -1.8931 H              1 S1                 0.0000
     35 ****         0.3455  -0.0980   1.7189 H              1 S1                 0.0000
     36 ****         1.8997  -0.9191   1.8259 H              1 S1                 0.0000
     37 ****         0.6085   0.8859   3.9549 H              1 S1                 0.0000
     38 ****         0.8571  -0.8458   4.0602 H              1 S1                 0.0000
     39 ****         2.5163   2.3426   4.0512 H              1 S1                 0.0000
     40 ****         4.1125   1.6396   4.2210 H              1 S1                 0.0000
     41 ****         4.0419   0.7197   1.9319 H              1 S1                 0.0000
     42 ****         3.6906   2.4375   1.8861 H              1 S1                 0.0000
     43 ****         0.8673  -0.4256  -0.3816 H              1 S1                 0.0000
     44 ****         2.9753   3.1423   0.3245 H              1 S1                 0.0000
     45 ****        -3.3442  -1.0941   1.6607 LP             1 S1                 0.0000
     46 ****        -2.0196  -1.9067   1.1590 LP             1 S1                 0.0000
     47 ****        -2.9162   0.8334  -1.7292 LP             1 S1                 0.0000
     48 ****        -1.4491   1.2934  -2.5267 LP             1 S1                 0.0000
     49 ****         1.4232   1.8908   1.8551 LP             1 S1                 0.0000
     50 ****         3.1641  -0.4765   3.9081 LP             1 S1                 0.0000
     51 ****         2.5099   0.2961   5.1894 LP             1 S1                 0.0000
@<TRIPOS>BOND
    1    1    2 1     
    2    1   22 1     
    3    1   23 1     
    4    1   24 1     
    5    2    3 1     
    6    2    5 1     
    7    2   25 1     
    8    3    4 1     
    9    3   26 1     
   10    3   27 1     
   11    4   28 1     
   12    5    6 am    
   13    5   29 1     
   14    6    7 2     
   15    6    8 am    
   16    8    9 1     
   17    8   30 1     
   18    9   10 1     
   19    9   31 1     
   20    9   32 1     
   21   10   21 ar    
   22   10   11 ar    
   23   11   12 ar    
   24   11   33 1     
   25   12   13 ar    
   26   12   34 1     
   27   13   14 ar    
   28   13   44 1     
   29   14   15 1     
   30   14   21 ar    
   31   15   20 1     
   32   15   16 1     
   33   16   17 1     
   34   16   35 1     
   35   16   36 1     
   36   17   18 1     
   37   17   37 1     
   38   17   38 1     
   39   18   19 1     
   40   19   20 1     
   41   19   39 1     
   42   19   40 1     
   43   20   41 1     
   44   20   42 1     
   45   21   43 1     
   46    4   45 1     
   47    4   46 1     
   48    7   47 1     
   49    7   48 1     
   50   15   49 1     
   51   18   50 1     
   52   18   51 1     
@<TRIPOS>SUBSTRUCTURE
      1 S1             1
@<TRIPOS>SET
LONE_PAIRS      STATIC     ATOMS    <user>   **** ""
7 45 46 47 48 49 50 51
DONOR_HYDROGENS      STATIC     ATOMS    <user>   **** ""
4 28 29 30 44
ATOM$BLUE        STATIC     ATOMS    COLORGROUP SYSTEM
7 45 46 47 48 49 50 51
ATOM$RED        STATIC     ATOMS    COLORGROUP SYSTEM
4 28 29 30 44
