AV-unprocessed.smi:385|AV-procd|sdf|2472|dock9
  -GOLD-   2262022413D 1   1.00000     0.00000
 Structure written by MMmdl.
 38 39  0  0  0  0  0  0  0  0  3 V2000
  149.3191  141.1545  153.8186 O   0  0  0  0  0  0  0  0  0  0  0  0
  148.5455  140.4308  154.4456 C   0  0  0  0  0  0  0  0  0  0  0  0
  148.3443  140.5415  155.7677 N   0  0  0  0  0  0  0  0  0  0  0  0
  148.9922  141.5172  156.6402 C   0  0  0  0  0  0  0  0  0  0  0  0
  150.5030  141.6701  156.3670 C   0  0  0  0  0  0  0  0  0  0  0  0
  151.2345  142.4856  157.4192 C   0  0  0  0  0  0  0  0  0  0  0  0
  152.0329  141.8819  158.4155 C   0  0  0  0  0  0  0  0  0  0  0  0
  152.6922  142.6976  159.3583 C   0  0  0  0  0  0  0  0  0  0  0  0
  152.5399  144.0977  159.2854 C   0  0  0  0  0  0  0  0  0  0  0  0
  151.7294  144.6474  158.2710 C   0  0  0  0  0  0  0  0  0  0  0  0
  151.1137  143.8324  157.3862 N   0  3  0  0  0  0  0  0  0  0  0  0
  147.7403  139.3463  153.7183 C   0  0  0  0  0  0  0  0  0  0  0  0
  147.3630  139.7941  152.2908 C   0  0  0  0  0  0  0  0  0  0  0  0
  146.5109  138.7267  151.5833 C   0  0  0  0  0  0  0  0  0  0  0  0
  145.3050  138.4082  152.3782 N   0  3  0  0  0  0  0  0  0  0  0  0
  145.6228  137.9423  153.7457 C   0  0  0  0  0  0  0  0  0  0  0  0
  146.4580  138.9914  154.4998 C   0  0  0  0  0  0  0  0  0  0  0  0
  147.6958  139.9017  156.2037 H   0  0  0  0  0  0  0  0  0  0  0  0
  148.4976  142.4744  156.4736 H   0  0  0  0  0  0  0  0  0  0  0  0
  148.8187  141.2607  157.6864 H   0  0  0  0  0  0  0  0  0  0  0  0
  150.9649  140.6847  156.2967 H   0  0  0  0  0  0  0  0  0  0  0  0
  150.6547  142.1394  155.3942 H   0  0  0  0  0  0  0  0  0  0  0  0
  152.1418  140.8077  158.4557 H   0  0  0  0  0  0  0  0  0  0  0  0
  153.3072  142.2542  160.1279 H   0  0  0  0  0  0  0  0  0  0  0  0
  153.0361  144.7401  159.9983 H   0  0  0  0  0  0  0  0  0  0  0  0
  151.5557  145.7058  158.1416 H   0  0  0  0  0  0  0  0  0  0  0  0
  148.3560  138.4479  153.6439 H   0  0  0  0  0  0  0  0  0  0  0  0
  146.8075  140.7329  152.3218 H   0  0  0  0  0  0  0  0  0  0  0  0
  148.2637  139.9880  151.7067 H   0  0  0  0  0  0  0  0  0  0  0  0
  146.2047  139.0789  150.5980 H   0  0  0  0  0  0  0  0  0  0  0  0
  147.0922  137.8164  151.4300 H   0  0  0  0  0  0  0  0  0  0  0  0
  144.7364  139.2404  152.4460 H   0  0  0  0  0  0  0  0  0  0  0  0
  144.6926  137.7443  154.2789 H   0  0  0  0  0  0  0  0  0  0  0  0
  146.1638  136.9969  153.6870 H   0  0  0  0  0  0  0  0  0  0  0  0
  146.7137  138.6118  155.4901 H   0  0  0  0  0  0  0  0  0  0  0  0
  145.8521  139.8852  154.6592 H   0  0  0  0  0  0  0  0  0  0  0  0
  144.7770  137.6911  151.9011 H   0  0  0  0  0  0  0  0  0  0  0  0
  150.5317  144.2523  156.6608 H   0  0  0  0  0  0  0  0  0  0  0  0
  1  2  2  0  0  0  0
  2  3  1  0  0  0  0
  2 12  1  0  0  0  0
  3  4  1  0  0  0  0
  3 18  1  0  0  0  0
  4  5  1  0  0  0  0
  4 19  1  0  0  0  0
  4 20  1  0  0  0  0
  5  6  1  0  0  0  0
  5 21  1  0  0  0  0
  5 22  1  0  0  0  0
  6 11  1  0  0  0  0
  6  7  2  0  0  0  0
  7  8  1  0  0  0  0
  7 23  1  0  0  0  0
  8  9  2  0  0  0  0
  8 24  1  0  0  0  0
  9 10  1  0  0  0  0
  9 25  1  0  0  0  0
 10 11  2  0  0  0  0
 10 26  1  0  0  0  0
 11 38  1  0  0  0  0
 12 17  1  0  0  0  0
 12 13  1  0  0  0  0
 12 27  1  0  0  0  0
 13 14  1  0  0  0  0
 13 28  1  0  0  0  0
 13 29  1  0  0  0  0
 14 15  1  0  0  0  0
 14 30  1  0  0  0  0
 14 31  1  0  0  0  0
 15 16  1  0  0  0  0
 15 32  1  0  0  0  0
 15 37  1  0  0  0  0
 16 17  1  0  0  0  0
 16 33  1  0  0  0  0
 16 34  1  0  0  0  0
 17 35  1  0  0  0  0
 17 36  1  0  0  0  0
M  CHG  1  11   1
M  CHG  1  15   1
M  END
> <s_m_source_file>
AV-unprocessed.smi

> <i_m_source_file_index>
385

> <i_lp_mmshare_version>
43012

> <i_f3d_flags>
0

> <s_epik_input>
W0NIMl0xW0NIMl1bTkhdW0NIMl1bQ0gyXVtDSF0xQyg9TylbTkhdW0NIMl1bQ0gyXWMyW2NIXVtjSF1bY0hdW2NIXW4y

> <s_epik_cmdline>
J2VwaWtfcHl0aG9uJywgJy1waCcsICc3LjAnLCAnLXRuJywgJzgnLCAnLW1hJywgJzIwMCcsICctbWV0YWxfYmluZGluZycsICctaW1hZScsICc8aW5maWxlLm1hZT4nLCAnLW9tYWUnLCAnPG91dGZpbGUubWFlPic=

> <r_epik_Ionization_Penalty>
1.95053

> <r_epik_Ionization_Penalty_Charging>
1.95053

> <r_epik_Ionization_Penalty_Neutral>
3.30626e-08

> <r_epik_State_Penalty>
2.07441

> <r_epik_Charging_Adjusted_Penalty>
4.02494

> <i_epik_Tot_Q>
2

> <i_epik_Tot_abs_Q>
2

> <r_epik_Metal_State_Penalty>
2.09624

> <b_epik_Metal_Only>
0

> <s_lp_Force_Field>
OPLS_2005

> <r_lp_Energy>
22.1472

> <b_lp_Chiralities_Consistent>
1

> <s_lp_Variant>
AV-unprocessed.smi:385-2

> <Gold.Version>
5.8.1

> <Gold.Id.Protein>
6NUR|6NUR_protein|mol2

> <Gold.PLP.Fitness>
47.7392

> <Gold.PLP.PLP>
-34.8492

> <Gold.PLP.part.hbond>
-5.0000

> <Gold.PLP.part.metal>
0.0000

> <Gold.PLP.part.buried>
-0.1163

> <Gold.PLP.part.nonpolar>
-32.2758

> <Gold.PLP.part.repulsive>
1.7936

> <Gold.PLP.ligand.clash>
0.0000

> <Gold.PLP.ligand.torsion>
1.0620

> <Gold.PLP.Chemscore.Hbond>
5.0009

> <Gold.PLP.Chemscore.CHOScore>
0.0000

> <Gold.PLP.Chemscore.Metal>
0.0000

> <Gold.Chemscore.Hbonds>
donor molecule, donor type, donor heavy atom, donor atom, acceptor molecule, acceptor atom, score
      L1  H    11    38       P1  8028  2.00
      L1  H    15    32       P1 10175  2.00
      P1  H  7989  7998       L1     1  0.08
      P1  H  8011  8017       L1     1  0.90

> <Gold.PLP.Chemscore.Internal.Correction>
0.0112

> <Gold.Rescore>
     Score         DG    S(hbond)    S(metal)    S(lipo)     H(rot)  DE(clash)    DE(int)     intcor
     18.21     -22.35       2.86        0.00      99.17       1.67       1.93       2.21       ----

> <Gold.Chemscore.Fitness>
18.2141

> <Gold.Chemscore.DG>
-22.3535

> <Gold.Chemscore.ZeroCoef>
-5.4800

> <Gold.Chemscore.Hbond>
2.8585

> <Gold.Chemscore.Metal>
0.0000

> <Gold.Chemscore.Lipo>
99.1749

> <Gold.Chemscore.Internal_Hbond>
0.0000

> <Gold.Chemscore.DEClash>
1.9327

> <Gold.Chemscore.DEInternal>
2.2067

> <Gold.Chemscore.Rot>
1.6708

> <Gold.Chemscore.Internal.Correction>
   9.000000E+99

> <Gold.Chemscore.Hbonds>
donor molecule, donor type, donor heavy atom, donor atom, acceptor molecule, acceptor atom, score
      L1  H    11    38       P1  8028  0.98
      L1  H    15    32       P1 10175  0.99
      L1  H    15    37       P1 10171  0.01
      P1  H  7989  7998       L1     1  0.09
      P1  H  8011  8017       L1     1  0.85

> <Gold.Chemscore.Hbond.Weighted>
-9.5473

> <Gold.Chemscore.Metal.Weighted>
-0.0000

> <Gold.Chemscore.Lipo.Weighted>
-11.6035

> <Gold.Chemscore.Internal_Hbond.Weighted>
0.0000

> <Gold.Chemscore.DEClash.Weighted>
1.9327

> <Gold.Chemscore.DEInternal.Weighted>
2.2067

> <Gold.Chemscore.Rot.Weighted>
4.2772

> <Gold.Chemscore.Internal.Correction.Weighted>
   9.000000E+99

> <Gold.Protein.RotatedTorsions>
[ 6907 6896 6895 6894 ] final   94.13 input  -60.11 | X-H torsion
[ 7974 7965 7964 7962 ] final  -63.51 input  175.53 | X-H torsion
[ 8008 7997 7996 7995 ] final -128.13 input   59.86 | X-H torsion
[ 10167 10162 10161 10158 ] final  -78.40 input  -65.29 | X-H torsion
[ 10718 10713 10712 10709 ] final -167.76 input   66.30 | X-H torsion
[ 10763 10752 10751 10750 ] final   65.94 input  -60.55 | X-H torsion
[ 11005 11000 10999 10996 ] final  164.75 input  -57.11 | X-H torsion

> <Gold.Protein.ActiveResidues>
 VAL166  LYS551  ARG553  GLY616  TRP617  ASP618  TYR619  PRO620  LYS621  CYS622 
 ASP623  PHE694  ASN695  SER759  ASP760  ASP761  ALA762  ILE779  LEU786  VAL792 
 PHE793  MET794  SER795  GLU796  ALA797  LYS798  CYS799  TRP800  GLU811  SER814 

> <Gold.Protein.RotatedAtoms>
  152.5450  134.1241  159.8411 H   0  0  0  0  0  0  0  0  0  0  0  0  # atno 6907 bound_to 6896
  151.1294  133.5040  159.2607 H   0  0  0  0  0  0  0  0  0  0  0  0  # atno 6908 bound_to 6896
  151.1692  135.0320  159.8799 H   0  0  0  0  0  0  0  0  0  0  0  0  # atno 6909 bound_to 6896
  145.7782  140.8776  143.0344 H   0  0  0  0  0  0  0  0  0  0  0  0  # atno 7974 bound_to 7965
  155.2576  140.0435  157.2994 H   0  0  0  0  0  0  0  0  0  0  0  0  # atno 8008 bound_to 7997
  154.5731  140.2379  155.8132 H   0  0  0  0  0  0  0  0  0  0  0  0  # atno 8009 bound_to 7997
  156.2137  140.2991  155.9799 H   0  0  0  0  0  0  0  0  0  0  0  0  # atno 8010 bound_to 7997
  140.4685  143.2433  151.8240 H   0  0  0  0  0  0  0  0  0  0  0  0  # atno 10167 bound_to 10162
  156.6870  130.9144  151.3064 H   0  0  0  0  0  0  0  0  0  0  0  0  # atno 10718 bound_to 10713
  153.0118  135.5338  154.6745 H   0  0  0  0  0  0  0  0  0  0  0  0  # atno 10763 bound_to 10752
  154.5921  135.2860  155.0626 H   0  0  0  0  0  0  0  0  0  0  0  0  # atno 10764 bound_to 10752
  154.1715  135.6531  153.5063 H   0  0  0  0  0  0  0  0  0  0  0  0  # atno 10765 bound_to 10752
  140.2491  134.7991  157.3485 H   0  0  0  0  0  0  0  0  0  0  0  0  # atno 11005 bound_to 11000
  144.6801  139.9951  143.7484 LP  0  0  0  0  0  0  0  0  0  0  0  0  # atno 17320 bound_to 7965
  146.0101  139.3163  143.0875 LP  0  0  0  0  0  0  0  0  0  0  0  0  # atno 17321 bound_to 7965
  139.4815  144.4920  151.9172 LP  0  0  0  0  0  0  0  0  0  0  0  0  # atno 17342 bound_to 10162
  140.4006  144.2498  150.5893 LP  0  0  0  0  0  0  0  0  0  0  0  0  # atno 17343 bound_to 10162
  157.7023  130.9346  150.0822 LP  0  0  0  0  0  0  0  0  0  0  0  0  # atno 17370 bound_to 10713
  156.1825  130.3651  149.9016 LP  0  0  0  0  0  0  0  0  0  0  0  0  # atno 17371 bound_to 10713
  140.1576  134.4770  155.7917 LP  0  0  0  0  0  0  0  0  0  0  0  0  # atno 17394 bound_to 11000
  141.2203  133.6888  156.7487 LP  0  0  0  0  0  0  0  0  0  0  0  0  # atno 17395 bound_to 11000

$$$$
