AV-unprocessed.smi:1301|AV-procd|sdf|5422|dock5
  -GOLD-   22720 4583D 1   1.00000     0.00000
 Structure written by MMmdl.
 45 46  0  0  0  0  0  0  0  0  2 V2000
  153.6832  136.9617  157.4863 C   0  0  0  0  0  0  0  0  0  0  0  0
  152.8183  137.5890  156.4470 C   0  0  0  0  0  0  0  0  0  0  0  0
  151.6756  137.1806  155.8183 C   0  0  0  0  0  0  0  0  0  0  0  0
  151.3880  138.2614  154.9432 C   0  0  0  0  0  0  0  0  0  0  0  0
  150.2533  138.2284  154.0926 N   0  0  0  0  0  0  0  0  0  0  0  0
  149.2603  139.1314  154.0196 C   0  0  0  0  0  0  0  0  0  0  0  0
  149.1792  140.1536  154.7009 O   0  0  0  0  0  0  0  0  0  0  0  0
  148.3493  138.7838  153.0982 N   0  0  0  0  0  0  0  0  0  0  0  0
  147.1639  139.5668  152.7492 C   0  0  2  0  0  0  0  0  0  0  0  0
  146.2624  139.8255  153.9728 C   0  0  0  0  0  0  0  0  0  0  0  0
  145.5384  138.5500  154.4376 C   0  0  0  0  0  0  0  0  0  0  0  0
  144.7554  137.9463  153.3295 N   0  3  2  0  0  0  0  0  0  0  0  0
  143.9144  136.8093  153.7854 C   0  0  0  0  0  0  0  0  0  0  0  0
  142.9592  136.2857  152.6905 C   0  0  0  0  0  0  0  0  0  0  0  0
  141.7297  135.5814  153.2890 C   0  0  0  0  0  0  0  0  0  0  0  0
  143.7020  135.3423  151.7325 C   0  0  0  0  0  0  0  0  0  0  0  0
  145.6245  137.6123  152.1701 C   0  0  0  0  0  0  0  0  0  0  0  0
  146.3558  138.8619  151.6460 C   0  0  0  0  0  0  0  0  0  0  0  0
  152.2739  139.2416  155.0303 N   0  0  0  0  0  0  0  0  0  0  0  0
  153.1959  138.8153  155.9935 O   0  0  0  0  0  0  0  0  0  0  0  0
  153.0951  136.3260  158.1481 H   0  0  0  0  0  0  0  0  0  0  0  0
  154.1738  137.7205  158.0964 H   0  0  0  0  0  0  0  0  0  0  0  0
  154.4559  136.3475  157.0244 H   0  0  0  0  0  0  0  0  0  0  0  0
  151.1367  136.2561  155.9631 H   0  0  0  0  0  0  0  0  0  0  0  0
  150.1978  137.4373  153.4686 H   0  0  0  0  0  0  0  0  0  0  0  0
  148.4999  137.9286  152.5833 H   0  0  0  0  0  0  0  0  0  0  0  0
  147.5035  140.5264  152.3550 H   0  0  0  0  0  0  0  0  0  0  0  0
  146.8390  140.2499  154.7954 H   0  0  0  0  0  0  0  0  0  0  0  0
  145.5177  140.5784  153.7113 H   0  0  0  0  0  0  0  0  0  0  0  0
  146.2548  137.8217  154.8214 H   0  0  0  0  0  0  0  0  0  0  0  0
  144.8732  138.8045  155.2638 H   0  0  0  0  0  0  0  0  0  0  0  0
  144.5600  136.0086  154.1500 H   0  0  0  0  0  0  0  0  0  0  0  0
  143.3106  137.1219  154.6388 H   0  0  0  0  0  0  0  0  0  0  0  0
  142.6055  137.1241  152.0913 H   0  0  0  0  0  0  0  0  0  0  0  0
  142.0208  134.7337  153.9100 H   0  0  0  0  0  0  0  0  0  0  0  0
  141.0724  135.2064  152.5040 H   0  0  0  0  0  0  0  0  0  0  0  0
  141.1402  136.2602  153.9058 H   0  0  0  0  0  0  0  0  0  0  0  0
  144.0820  134.4634  152.2548 H   0  0  0  0  0  0  0  0  0  0  0  0
  144.5495  135.8434  151.2640 H   0  0  0  0  0  0  0  0  0  0  0  0
  143.0452  134.9953  150.9340 H   0  0  0  0  0  0  0  0  0  0  0  0
  146.3448  136.8466  152.4617 H   0  0  0  0  0  0  0  0  0  0  0  0
  145.0320  137.1901  151.3596 H   0  0  0  0  0  0  0  0  0  0  0  0
  145.6194  139.5588  151.2432 H   0  0  0  0  0  0  0  0  0  0  0  0
  147.0062  138.5953  150.8119 H   0  0  0  0  0  0  0  0  0  0  0  0
  144.1141  138.6630  153.0204 H   0  0  0  0  0  0  0  0  0  0  0  0
  1  2  1  0  0  0  0
  1 21  1  0  0  0  0
  1 22  1  0  0  0  0
  1 23  1  0  0  0  0
  2 20  1  0  0  0  0
  2  3  2  0  0  0  0
  3  4  1  0  0  0  0
  3 24  1  0  0  0  0
  4  5  1  0  0  0  0
  4 19  2  0  0  0  0
  5  6  1  0  0  0  0
  5 25  1  0  0  0  0
  6  7  2  0  0  0  0
  6  8  1  0  0  0  0
  8  9  1  0  0  0  0
  8 26  1  0  0  0  0
  9 18  1  0  0  0  0
  9 10  1  0  0  0  0
  9 27  1  0  0  0  0
 10 11  1  0  0  0  0
 10 28  1  0  0  0  0
 10 29  1  0  0  0  0
 11 12  1  0  0  0  0
 11 30  1  0  0  0  0
 11 31  1  0  0  0  0
 12 13  1  0  0  0  0
 12 17  1  0  0  0  0
 12 45  1  0  0  0  0
 13 14  1  0  0  0  0
 13 32  1  0  0  0  0
 13 33  1  0  0  0  0
 14 15  1  0  0  0  0
 14 16  1  0  0  0  0
 14 34  1  0  0  0  0
 15 35  1  0  0  0  0
 15 36  1  0  0  0  0
 15 37  1  0  0  0  0
 16 38  1  0  0  0  0
 16 39  1  0  0  0  0
 16 40  1  0  0  0  0
 17 18  1  0  0  0  0
 17 41  1  0  0  0  0
 17 42  1  0  0  0  0
 18 43  1  0  0  0  0
 18 44  1  0  0  0  0
 19 20  1  0  0  0  0
M  CHG  1  12   1
M  END
> <s_m_source_file>
AV-unprocessed.smi

> <i_m_source_file_index>
1301

> <i_lp_mmshare_version>
43012

> <i_f3d_flags>
0

> <s_epik_input>
W0NIM11jMVtjSF1jKG5vMSlbTkhdQyg9TylbTkhdW0NIXTJbQ0gyXVtDSDJdTihbQ0gyXVtDSDJdMilbQ0gyXVtDSF0oW0NIM10pW0NIM10=

> <s_epik_cmdline>
J2VwaWtfcHl0aG9uJywgJy1waCcsICc3LjAnLCAnLXRuJywgJzgnLCAnLW1hJywgJzIwMCcsICctbWV0YWxfYmluZGluZycsICctaW1hZScsICc8aW5maWxlLm1hZT4nLCAnLW9tYWUnLCAnPG91dGZpbGUubWFlPic=

> <r_epik_Ionization_Penalty>
0.0020743

> <r_epik_Ionization_Penalty_Charging>
0.0020412

> <r_epik_Ionization_Penalty_Neutral>
3.31029e-05

> <r_epik_State_Penalty>
0.00139626

> <r_epik_Charging_Adjusted_Penalty>
0.00343746

> <i_epik_Tot_Q>
1

> <i_epik_Tot_abs_Q>
1

> <r_epik_Metal_State_Penalty>
0.0141509

> <b_epik_Metal_Only>
0

> <s_lp_Force_Field>
OPLS_2005

> <r_lp_Energy>
16.729

> <b_lp_Chiralities_Consistent>
1

> <s_lp_Variant>
AV-unprocessed.smi:1301-2

> <Gold.Version>
5.8.1

> <Gold.Id.Protein>
6NUR|6NUR_protein|mol2

> <Gold.PLP.Fitness>
41.5545

> <Gold.PLP.PLP>
-27.4223

> <Gold.PLP.part.hbond>
-5.7613

> <Gold.PLP.part.metal>
0.0000

> <Gold.PLP.part.buried>
3.2445

> <Gold.PLP.part.nonpolar>
-25.7052

> <Gold.PLP.part.repulsive>
0.3121

> <Gold.PLP.ligand.clash>
0.0000

> <Gold.PLP.ligand.torsion>
0.7697

> <Gold.PLP.Chemscore.Hbond>
5.2102

> <Gold.PLP.Chemscore.CHOScore>
0.0000

> <Gold.PLP.Chemscore.Metal>
0.0000

> <Gold.Chemscore.Hbonds>
donor molecule, donor type, donor heavy atom, donor atom, acceptor molecule, acceptor atom, score
      L1  H     5    25       P1  7948  0.28
      L1  H     8    26       P1  7948  1.00
      L1  H    12    45       P1 10175  2.00
      P1  H  7989  7998       L1    19  0.25
      P1  H  7997  8008       L1    20  1.00

> <Gold.PLP.Chemscore.Internal.Correction>
0.0408

> <Gold.Rescore>
     Score         DG    S(hbond)    S(metal)    S(lipo)     H(rot)  DE(clash)    DE(int)     intcor
     16.90     -23.18       4.19        0.00      63.01       1.43       4.20       2.09       ----

> <Gold.Chemscore.Fitness>
16.8979

> <Gold.Chemscore.DG>
-23.1812

> <Gold.Chemscore.ZeroCoef>
-5.4800

> <Gold.Chemscore.Hbond>
4.1886

> <Gold.Chemscore.Metal>
0.0000

> <Gold.Chemscore.Lipo>
63.0060

> <Gold.Chemscore.Internal_Hbond>
0.0000

> <Gold.Chemscore.DEClash>
4.1955

> <Gold.Chemscore.DEInternal>
2.0879

> <Gold.Chemscore.Rot>
1.4298

> <Gold.Chemscore.Internal.Correction>
   9.000000E+99

> <Gold.Chemscore.Hbonds>
donor molecule, donor type, donor heavy atom, donor atom, acceptor molecule, acceptor atom, score
      L1  H     5    25       P1  7948  0.06
      L1  H     8    26       P1  7948  1.00
      L1  H    12    45       P1 10175  0.97
      P1  H  7989  7998       L1    19  0.16
      P1  H  7997  8008       L1    20  0.68

> <Gold.Chemscore.Hbond.Weighted>
-13.9899

> <Gold.Chemscore.Metal.Weighted>
-0.0000

> <Gold.Chemscore.Lipo.Weighted>
-7.3717

> <Gold.Chemscore.Internal_Hbond.Weighted>
0.0000

> <Gold.Chemscore.DEClash.Weighted>
4.1955

> <Gold.Chemscore.DEInternal.Weighted>
2.0879

> <Gold.Chemscore.Rot.Weighted>
3.6604

> <Gold.Chemscore.Internal.Correction.Weighted>
   9.000000E+99

> <Gold.Protein.RotatedTorsions>
[ 6907 6896 6895 6894 ] final  117.98 input  -60.11 | X-H torsion
[ 7974 7965 7964 7962 ] final  -90.29 input  175.53 | X-H torsion
[ 8008 7997 7996 7995 ] final  -40.32 input   59.86 | X-H torsion
[ 10167 10162 10161 10158 ] final -102.27 input  -65.29 | X-H torsion
[ 10718 10713 10712 10709 ] final -123.73 input   66.30 | X-H torsion
[ 10763 10752 10751 10750 ] final -100.15 input  -60.55 | X-H torsion
[ 11005 11000 10999 10996 ] final   10.74 input  -57.11 | X-H torsion

> <Gold.Protein.ActiveResidues>
 VAL166  LYS551  ARG553  GLY616  TRP617  ASP618  TYR619  PRO620  LYS621  CYS622 
 ASP623  PHE694  ASN695  SER759  ASP760  ASP761  ALA762  ILE779  LEU786  VAL792 
 PHE793  MET794  SER795  GLU796  ALA797  LYS798  CYS799  TRP800  GLU811  SER814 

> <Gold.Protein.RotatedAtoms>
  152.4575  133.7753  159.6820 H   0  0  0  0  0  0  0  0  0  0  0  0  # atno 6907 bound_to 6896
  150.8506  133.7783  159.3033 H   0  0  0  0  0  0  0  0  0  0  0  0  # atno 6908 bound_to 6896
  151.5379  135.1071  159.9971 H   0  0  0  0  0  0  0  0  0  0  0  0  # atno 6909 bound_to 6896
  145.4284  140.9554  143.2142 H   0  0  0  0  0  0  0  0  0  0  0  0  # atno 7974 bound_to 7965
  154.4013  140.1528  156.3008 H   0  0  0  0  0  0  0  0  0  0  0  0  # atno 8008 bound_to 7997
  155.8702  140.3449  155.5794 H   0  0  0  0  0  0  0  0  0  0  0  0  # atno 8009 bound_to 7997
  155.7783  140.0840  157.2063 H   0  0  0  0  0  0  0  0  0  0  0  0  # atno 8010 bound_to 7997
  140.2325  143.3597  152.0874 H   0  0  0  0  0  0  0  0  0  0  0  0  # atno 10167 bound_to 10162
  156.1527  130.6546  150.9937 H   0  0  0  0  0  0  0  0  0  0  0  0  # atno 10718 bound_to 10713
  154.7556  135.4946  153.9368 H   0  0  0  0  0  0  0  0  0  0  0  0  # atno 10763 bound_to 10752
  153.1192  135.6727  153.9373 H   0  0  0  0  0  0  0  0  0  0  0  0  # atno 10764 bound_to 10752
  153.9110  135.3099  155.3427 H   0  0  0  0  0  0  0  0  0  0  0  0  # atno 10765 bound_to 10752
  140.5111  134.0651  155.7818 H   0  0  0  0  0  0  0  0  0  0  0  0  # atno 11005 bound_to 11000
  144.8199  139.5810  143.6991 LP  0  0  0  0  0  0  0  0  0  0  0  0  # atno 17320 bound_to 7965
  146.2620  139.6432  142.9355 LP  0  0  0  0  0  0  0  0  0  0  0  0  # atno 17321 bound_to 7965
  139.5105  144.6885  151.5823 LP  0  0  0  0  0  0  0  0  0  0  0  0  # atno 17342 bound_to 10162
  140.6175  143.9322  150.6500 LP  0  0  0  0  0  0  0  0  0  0  0  0  # atno 17343 bound_to 10162
  157.6670  131.0869  150.7705 LP  0  0  0  0  0  0  0  0  0  0  0  0  # atno 17370 bound_to 10713
  156.7772  130.4847  149.5407 LP  0  0  0  0  0  0  0  0  0  0  0  0  # atno 17371 bound_to 10713
  141.1385  133.9179  157.2379 LP  0  0  0  0  0  0  0  0  0  0  0  0  # atno 17394 bound_to 11000
  139.9658  135.0142  156.9384 LP  0  0  0  0  0  0  0  0  0  0  0  0  # atno 17395 bound_to 11000

$$$$
