#       Name:                AV-unprocessed.smi:1278
#       Creating user name   scv26
#       Creation time:       Fri Mar 27 04:48:37 2020


#       File generated by GOLD software.
#

@<TRIPOS>MOLECULE
AV-unprocessed.smi:1278
    42    43     1
SMALL
NO_CHARGES


@<TRIPOS>ATOM
      1 ****        -0.2884   4.3335   0.9364 C.3            1 S1                 0.0000
      2 ****        -0.8685   3.4001  -0.1354 C.3            1 S1                 0.0000
      3 ****        -2.4013   3.5066  -0.2028 C.3            1 S1                 0.0000
      4 ****        -2.9546   2.5450  -1.2618 C.3            1 S1                 0.0000
      5 ****        -2.4807   1.1066  -0.9995 C.3            1 S1                 0.0000
      6 ****        -0.9979   1.0330  -0.9444 N.4            1 S1                 1.0000
      7 ****        -0.5117  -0.3636  -0.8235 C.3            1 S1                 0.0000
      8 ****         0.9288  -0.5298  -1.3435 C.3            1 S1                 0.0000
      9 ****         1.3692  -1.9158  -1.2428 N.am           1 S1                 0.0000
     10 ****         1.7672  -2.5281  -0.1187 C.2            1 S1                 0.0000
     11 ****         1.7948  -1.9027   0.9441 O.2            1 S1                 0.0000
     12 ****         2.1024  -3.8254  -0.2959 N.pl3          1 S1                -1.0000
     13 ****         2.5056  -4.5637   0.7510 C.2            1 S1                 0.0000
     14 ****         1.6908  -5.3900   1.4172 N.2            1 S1                 0.0000
     15 ****         2.3195  -6.0627   2.4667 C.2            1 S1                 0.0000
     16 ****         3.6456  -5.7459   2.5984 C.2            1 S1                 0.0000
     17 ****         4.1484  -4.5898   1.3982 S.3            1 S1                 0.0000
     18 ****        -0.4451   1.9361   0.1013 C.3            1 S1                 0.0000
     19 ****        -0.6494   4.0688   1.9309 H              1 S1                 0.0000
     20 ****        -0.5664   5.3707   0.7466 H              1 S1                 0.0000
     21 ****         0.8007   4.2829   0.9536 H              1 S1                 0.0000
     22 ****        -0.4647   3.7156  -1.0987 H              1 S1                 0.0000
     23 ****        -2.8348   3.2692   0.7698 H              1 S1                 0.0000
     24 ****        -2.7009   4.5289  -0.4369 H              1 S1                 0.0000
     25 ****        -4.0441   2.5834  -1.2665 H              1 S1                 0.0000
     26 ****        -2.6295   2.8636  -2.2532 H              1 S1                 0.0000
     27 ****        -2.8998   0.7352  -0.0629 H              1 S1                 0.0000
     28 ****        -2.8542   0.4587  -1.7934 H              1 S1                 0.0000
     29 ****        -0.6000  -0.6918   0.2134 H              1 S1                 0.0000
     30 ****        -1.1552  -1.0229  -1.4079 H              1 S1                 0.0000
     31 ****         0.9821  -0.2335  -2.3915 H              1 S1                 0.0000
     32 ****         1.6303   0.1080  -0.8053 H              1 S1                 0.0000
     33 ****         1.3658  -2.4630  -2.0914 H              1 S1                 0.0000
     34 ****         1.7455  -6.7499   3.0703 H              1 S1                 0.0000
     35 ****         4.3541  -6.1207   3.3213 H              1 S1                 0.0000
     36 ****         0.6429   1.8798   0.1071 H              1 S1                 0.0000
     37 ****        -0.7802   1.6001   1.0843 H              1 S1                 0.0000
     38 ****        -0.6657   1.3730  -1.8355 H              1 S1                 0.0000
     39 ****         1.5207  -0.9412   0.9658 LP             1 S1                 0.0000
     40 ****         2.0913  -2.3571   1.7841 LP             1 S1                 0.0000
     41 ****         2.0502  -4.2355  -1.2064 LP             1 S1                 0.0000
     42 ****         0.7258  -5.5136   1.1860 LP             1 S1                 0.0000
@<TRIPOS>BOND
    1    1    2 1     
    2    1   19 1     
    3    1   20 1     
    4    1   21 1     
    5    2   18 1     
    6    2    3 1     
    7    2   22 1     
    8    3    4 1     
    9    3   23 1     
   10    3   24 1     
   11    4    5 1     
   12    4   25 1     
   13    4   26 1     
   14    5    6 1     
   15    5   27 1     
   16    5   28 1     
   17    6    7 1     
   18    6   18 1     
   19    6   38 1     
   20    7    8 1     
   21    7   29 1     
   22    7   30 1     
   23    8    9 1     
   24    8   31 1     
   25    8   32 1     
   26    9   10 am    
   27    9   33 1     
   28   10   11 2     
   29   10   12 1     
   30   12   13 1     
   31   13   17 1     
   32   13   14 2     
   33   14   15 1     
   34   15   16 2     
   35   15   34 1     
   36   16   17 1     
   37   16   35 1     
   38   18   36 1     
   39   18   37 1     
   40   11   39 1     
   41   11   40 1     
   42   12   41 1     
   43   14   42 1     
@<TRIPOS>SUBSTRUCTURE
      1 S1             1
@<TRIPOS>SET
LONE_PAIRS      STATIC     ATOMS    <user>   **** ""
4 39 40 41 42
DONOR_HYDROGENS      STATIC     ATOMS    <user>   **** ""
2 38 33
ATOM$BLUE        STATIC     ATOMS    COLORGROUP SYSTEM
4 39 40 41 42
ATOM$RED        STATIC     ATOMS    COLORGROUP SYSTEM
2 38 33
