AV-unprocessed.smi:691|AV-procd|sdf|3366|dock8
  -GOLD-   22720 0343D 1   1.00000     0.00000
 Structure written by MMmdl.
 37 38  0  0  0  0  0  0  0  0  1 V2000
  146.6852  140.3380  154.4961 C   0  0  0  0  0  0  0  0  0  0  0  0
  147.2315  139.1563  153.6602 C   0  0  1  0  0  0  0  0  0  0  0  0
  146.7685  139.3166  152.1884 C   0  0  0  0  0  0  0  0  0  0  0  0
  147.2963  138.3002  151.3597 O   0  0  0  0  0  0  0  0  0  0  0  0
  148.7677  139.1432  153.7540 C   0  0  0  0  0  0  0  0  0  0  0  0
  149.1110  138.4460  155.0753 C   0  0  0  0  0  0  0  0  0  0  0  0
  147.8895  137.5915  155.4409 C   0  0  0  0  0  0  0  0  0  0  0  0
  146.8514  137.8061  154.3254 C   0  0  2  0  0  0  0  0  0  0  0  0
  146.9155  136.6803  153.3894 N   0  0  0  0  0  0  0  0  0  0  0  0
  145.9217  135.8223  153.1175 C   0  0  0  0  0  0  0  0  0  0  0  0
  144.8108  135.8733  153.6443 O   0  0  0  0  0  0  0  0  0  0  0  0
  146.3003  134.9286  152.1879 N   0  0  0  0  0  0  0  0  0  0  0  0
  145.5421  133.8744  151.6102 C   0  0  0  0  0  0  0  0  0  0  0  0
  146.0868  132.8489  150.7996 C   0  0  0  0  0  0  0  0  0  0  0  0
  145.2240  131.8679  150.2740 C   0  0  0  0  0  0  0  0  0  0  0  0
  143.8498  131.9512  150.5705 C   0  0  0  0  0  0  0  0  0  0  0  0
  143.3149  132.9310  151.3289 N   0  0  0  0  0  0  0  0  0  0  0  0
  144.1481  133.8681  151.8290 C   0  0  0  0  0  0  0  0  0  0  0  0
  146.9936  141.2954  154.0753 H   0  0  0  0  0  0  0  0  0  0  0  0
  147.0363  140.3098  155.5277 H   0  0  0  0  0  0  0  0  0  0  0  0
  145.5955  140.3324  154.5298 H   0  0  0  0  0  0  0  0  0  0  0  0
  145.6803  139.2787  152.1292 H   0  0  0  0  0  0  0  0  0  0  0  0
  147.0616  140.2835  151.7786 H   0  0  0  0  0  0  0  0  0  0  0  0
  147.6753  137.6301  151.9078 H   0  0  0  0  0  0  0  0  0  0  0  0
  149.1836  138.5580  152.9327 H   0  0  0  0  0  0  0  0  0  0  0  0
  149.2059  140.1398  153.6862 H   0  0  0  0  0  0  0  0  0  0  0  0
  150.0149  137.8433  154.9808 H   0  0  0  0  0  0  0  0  0  0  0  0
  149.2936  139.1842  155.8572 H   0  0  0  0  0  0  0  0  0  0  0  0
  148.1525  136.5405  155.5718 H   0  0  0  0  0  0  0  0  0  0  0  0
  147.4830  137.9325  156.3939 H   0  0  0  0  0  0  0  0  0  0  0  0
  145.8523  137.8696  154.7596 H   0  0  0  0  0  0  0  0  0  0  0  0
  147.7897  136.5551  152.9008 H   0  0  0  0  0  0  0  0  0  0  0  0
  147.2223  135.0601  151.7981 H   0  0  0  0  0  0  0  0  0  0  0  0
  147.1376  132.8014  150.5600 H   0  0  0  0  0  0  0  0  0  0  0  0
  145.6069  131.0714  149.6531 H   0  0  0  0  0  0  0  0  0  0  0  0
  143.1614  131.2150  150.1831 H   0  0  0  0  0  0  0  0  0  0  0  0
  143.6845  134.6371  152.4297 H   0  0  0  0  0  0  0  0  0  0  0  0
  1  2  1  0  0  0  0
  1 19  1  0  0  0  0
  1 20  1  0  0  0  0
  1 21  1  0  0  0  0
  2  8  1  0  0  0  0
  2  3  1  0  0  0  0
  2  5  1  0  0  0  0
  3  4  1  0  0  0  0
  3 22  1  0  0  0  0
  3 23  1  0  0  0  0
  4 24  1  0  0  0  0
  5  6  1  0  0  0  0
  5 25  1  0  0  0  0
  5 26  1  0  0  0  0
  6  7  1  0  0  0  0
  6 27  1  0  0  0  0
  6 28  1  0  0  0  0
  7  8  1  0  0  0  0
  7 29  1  0  0  0  0
  7 30  1  0  0  0  0
  8  9  1  0  0  0  0
  8 31  1  0  0  0  0
  9 10  1  0  0  0  0
  9 32  1  0  0  0  0
 10 11  2  0  0  0  0
 10 12  1  0  0  0  0
 12 13  1  0  0  0  0
 12 33  1  0  0  0  0
 13 18  1  0  0  0  0
 13 14  2  0  0  0  0
 14 15  1  0  0  0  0
 14 34  1  0  0  0  0
 15 16  2  0  0  0  0
 15 35  1  0  0  0  0
 16 17  1  0  0  0  0
 16 36  1  0  0  0  0
 17 18  2  0  0  0  0
 18 37  1  0  0  0  0
M  END
> <s_m_source_file>
AV-unprocessed.smi

> <i_m_source_file_index>
691

> <i_lp_mmshare_version>
43012

> <i_f3d_flags>
0

> <s_epik_input>
W09IXVtDSDJdW0NAXTEoW0NIM10pW0NIMl1bQ0gyXVtDSDJdW0NASF0xW05IXUMoPU8pW05IXWMyW2NIXVtjSF1bY0hdbltjSF0y

> <s_epik_cmdline>
J2VwaWtfcHl0aG9uJywgJy1waCcsICc3LjAnLCAnLXRuJywgJzgnLCAnLW1hJywgJzIwMCcsICctbWV0YWxfYmluZGluZycsICctaW1hZScsICc8aW5maWxlLm1hZT4nLCAnLW9tYWUnLCAnPG91dGZpbGUubWFlPic=

> <r_epik_Ionization_Penalty>
0.00496828

> <r_epik_Ionization_Penalty_Charging>
0

> <r_epik_Ionization_Penalty_Neutral>
0.00496828

> <r_epik_State_Penalty>
0.00358054

> <r_epik_Charging_Adjusted_Penalty>
0.00358054

> <i_epik_Tot_Q>
0

> <i_epik_Tot_abs_Q>
0

> <r_epik_Metal_State_Penalty>
-0

> <b_epik_Metal_Only>
0

> <s_lp_Force_Field>
OPLS_2005

> <r_lp_Energy>
29.635

> <b_lp_Chiralities_Consistent>
1

> <s_lp_Variant>
AV-unprocessed.smi:691-3

> <Gold.Version>
5.8.1

> <Gold.Id.Protein>
6NUR|6NUR_protein|mol2

> <Gold.PLP.Fitness>
41.4212

> <Gold.PLP.PLP>
-27.6685

> <Gold.PLP.part.hbond>
-5.0000

> <Gold.PLP.part.metal>
0.0000

> <Gold.PLP.part.buried>
-2.3720

> <Gold.PLP.part.nonpolar>
-21.3230

> <Gold.PLP.part.repulsive>
0.3391

> <Gold.PLP.ligand.clash>
0.0000

> <Gold.PLP.ligand.torsion>
0.0489

> <Gold.PLP.Chemscore.Hbond>
3.6571

> <Gold.PLP.Chemscore.CHOScore>
0.9546

> <Gold.PLP.Chemscore.Metal>
0.0000

> <Gold.Chemscore.Hbonds>
donor molecule, donor type, donor heavy atom, donor atom, acceptor molecule, acceptor atom, score
      L1  H     4    24       P1  7948  0.78
      L1  H     9    32       P1  7948  1.00
      L1  H    12    33       P1  7948  0.89
      P1  H  7954  7966       L1     4  0.80
      L1  C    16    36       P1 10952  0.90

> <Gold.PLP.Chemscore.Internal.Correction>
0.0156

> <Gold.Rescore>
     Score         DG    S(hbond)    S(metal)    S(lipo)     H(rot)  DE(clash)    DE(int)     intcor
     17.49     -18.99       3.15        0.00      64.71       1.78       0.04       1.47       ----

> <Gold.Chemscore.Fitness>
17.4900

> <Gold.Chemscore.DG>
-18.9930

> <Gold.Chemscore.ZeroCoef>
-5.4800

> <Gold.Chemscore.Hbond>
3.1462

> <Gold.Chemscore.Metal>
0.0000

> <Gold.Chemscore.Lipo>
64.7115

> <Gold.Chemscore.Internal_Hbond>
0.0000

> <Gold.Chemscore.DEClash>
0.0354

> <Gold.Chemscore.DEInternal>
1.4676

> <Gold.Chemscore.Rot>
1.7838

> <Gold.Chemscore.Internal.Correction>
   9.000000E+99

> <Gold.Chemscore.Hbonds>
donor molecule, donor type, donor heavy atom, donor atom, acceptor molecule, acceptor atom, score
      L1  H     4    24       P1  7948  0.80
      L1  H     9    32       P1  7948  0.98
      L1  H    12    33       P1  7948  0.78
      P1  H  7954  7966       L1     4  0.12

> <Gold.Chemscore.Hbond.Weighted>
-10.5084

> <Gold.Chemscore.Metal.Weighted>
-0.0000

> <Gold.Chemscore.Lipo.Weighted>
-7.5712

> <Gold.Chemscore.Internal_Hbond.Weighted>
0.0000

> <Gold.Chemscore.DEClash.Weighted>
0.0354

> <Gold.Chemscore.DEInternal.Weighted>
1.4676

> <Gold.Chemscore.Rot.Weighted>
4.5666

> <Gold.Chemscore.Internal.Correction.Weighted>
   9.000000E+99

> <Gold.Protein.RotatedTorsions>
[ 6907 6896 6895 6894 ] final   34.62 input  -60.11 | X-H torsion
[ 7974 7965 7964 7962 ] final  126.99 input  175.53 | X-H torsion
[ 8008 7997 7996 7995 ] final   93.94 input   59.86 | X-H torsion
[ 10167 10162 10161 10158 ] final  111.33 input  -65.29 | X-H torsion
[ 10718 10713 10712 10709 ] final  -70.71 input   66.30 | X-H torsion
[ 10763 10752 10751 10750 ] final  -87.97 input  -60.55 | X-H torsion
[ 11005 11000 10999 10996 ] final -158.94 input  -57.11 | X-H torsion

> <Gold.Protein.ActiveResidues>
 VAL166  LYS551  ARG553  GLY616  TRP617  ASP618  TYR619  PRO620  LYS621  CYS622 
 ASP623  PHE694  ASN695  SER759  ASP760  ASP761  ALA762  ILE779  LEU786  VAL792 
 PHE793  MET794  SER795  GLU796  ALA797  LYS798  CYS799  TRP800  GLU811  SER814 

> <Gold.Protein.RotatedAtoms>
  152.1049  134.9315  160.0568 H   0  0  0  0  0  0  0  0  0  0  0  0  # atno 6907 bound_to 6896
  152.0515  133.4016  159.4387 H   0  0  0  0  0  0  0  0  0  0  0  0  # atno 6908 bound_to 6896
  150.6841  134.3223  159.4835 H   0  0  0  0  0  0  0  0  0  0  0  0  # atno 6909 bound_to 6896
  145.0556  139.3847  143.5032 H   0  0  0  0  0  0  0  0  0  0  0  0  # atno 7974 bound_to 7965
  156.0524  140.3306  155.7366 H   0  0  0  0  0  0  0  0  0  0  0  0  # atno 8008 bound_to 7997
  155.5580  140.0616  157.2852 H   0  0  0  0  0  0  0  0  0  0  0  0  # atno 8009 bound_to 7997
  154.4442  140.1882  156.0742 H   0  0  0  0  0  0  0  0  0  0  0  0  # atno 8010 bound_to 7997
  139.6619  144.7128  151.1849 H   0  0  0  0  0  0  0  0  0  0  0  0  # atno 10167 bound_to 10162
  156.0395  130.4337  150.2336 H   0  0  0  0  0  0  0  0  0  0  0  0  # atno 10718 bound_to 10713
  154.6395  135.5394  153.7772 H   0  0  0  0  0  0  0  0  0  0  0  0  # atno 10763 bound_to 10752
  153.0326  135.6455  154.1181 H   0  0  0  0  0  0  0  0  0  0  0  0  # atno 10764 bound_to 10752
  154.1106  135.2927  155.3211 H   0  0  0  0  0  0  0  0  0  0  0  0  # atno 10765 bound_to 10752
  140.6481  134.4480  157.5234 H   0  0  0  0  0  0  0  0  0  0  0  0  # atno 11005 bound_to 11000
  146.3521  140.0228  142.8657 LP  0  0  0  0  0  0  0  0  0  0  0  0  # atno 17320 bound_to 7965
  145.1473  140.9604  143.4453 LP  0  0  0  0  0  0  0  0  0  0  0  0  # atno 17321 bound_to 7965
  140.7583  143.5980  150.8728 LP  0  0  0  0  0  0  0  0  0  0  0  0  # atno 17342 bound_to 10162
  139.9638  143.6133  152.2994 LP  0  0  0  0  0  0  0  0  0  0  0  0  # atno 17343 bound_to 10162
  157.0432  131.0041  151.3277 LP  0  0  0  0  0  0  0  0  0  0  0  0  # atno 17370 bound_to 10713
  157.5194  130.7988  149.7792 LP  0  0  0  0  0  0  0  0  0  0  0  0  # atno 17371 bound_to 10713
  139.9056  134.8457  156.1721 LP  0  0  0  0  0  0  0  0  0  0  0  0  # atno 17394 bound_to 11000
  141.0557  133.6866  156.1856 LP  0  0  0  0  0  0  0  0  0  0  0  0  # atno 17395 bound_to 11000

$$$$
