AV-unprocessed.smi:1644|AV-procd|sdf|6586|dock7
  -GOLD-   22720 7283D 1   1.00000     0.00000
 Structure written by MMmdl.
 49 51  0  0  0  0  0  0  0  0  1 V2000
  144.0849  145.5490  154.9559 C   0  0  0  0  0  0  0  0  0  0  0  0
  143.5974  144.0970  154.9962 C   0  0  0  0  0  0  0  0  0  0  0  0
  144.5815  143.1678  155.7356 C   0  0  0  0  0  0  0  0  0  0  0  0
  145.9900  143.0465  155.1110 C   0  0  2  0  0  0  0  0  0  0  0  0
  145.9859  142.4266  153.8024 N   0  0  0  0  0  0  0  0  0  0  0  0
  146.7721  141.3439  153.7451 C   0  0  0  0  0  0  0  0  0  0  0  0
  146.9368  140.6454  152.7463 O   0  0  0  0  0  0  0  0  0  0  0  0
  147.3439  141.1657  154.9515 N   0  0  0  0  0  0  0  0  0  0  0  0
  148.2799  140.0788  155.2742 C   0  0  0  0  0  0  0  0  0  0  0  0
  149.7603  140.3858  154.9281 C   0  0  1  0  0  0  0  0  0  0  0  0
  149.8026  140.8364  153.5905 O   0  0  0  0  0  0  0  0  0  0  0  0
  150.4630  141.4546  155.7974 C   0  0  0  0  0  0  0  0  0  0  0  0
  151.1898  140.9191  156.9356 N   0  0  0  0  0  0  0  0  0  0  0  0
  151.5709  139.6393  157.1152 C   0  0  0  0  0  0  0  0  0  0  0  0
  152.2449  139.3535  158.2252 N   0  0  0  0  0  0  0  0  0  0  0  0
  152.2876  140.5871  158.8501 C   0  0  0  0  0  0  0  0  0  0  0  0
  152.8808  140.9726  160.0717 C   0  0  0  0  0  0  0  0  0  0  0  0
  152.8044  142.3085  160.5245 C   0  0  0  0  0  0  0  0  0  0  0  0
  153.4681  142.6826  161.8380 C   0  0  0  0  0  0  0  0  0  0  0  0
  152.1152  143.2801  159.7560 C   0  0  0  0  0  0  0  0  0  0  0  0
  152.0201  144.7224  160.2210 C   0  0  0  0  0  0  0  0  0  0  0  0
  151.5132  142.9109  158.5355 C   0  0  0  0  0  0  0  0  0  0  0  0
  151.6139  141.5830  158.0835 C   0  0  0  0  0  0  0  0  0  0  0  0
  146.9157  142.0836  155.8304 C   0  0  0  0  0  0  0  0  0  0  0  0
  147.2019  142.1673  157.0245 O   0  0  0  0  0  0  0  0  0  0  0  0
  143.3728  146.1835  154.4278 H   0  0  0  0  0  0  0  0  0  0  0  0
  145.0448  145.6286  154.4447 H   0  0  0  0  0  0  0  0  0  0  0  0
  144.2060  145.9512  155.9621 H   0  0  0  0  0  0  0  0  0  0  0  0
  142.6187  144.0682  155.4759 H   0  0  0  0  0  0  0  0  0  0  0  0
  143.4509  143.7460  153.9743 H   0  0  0  0  0  0  0  0  0  0  0  0
  144.6910  143.5207  156.7617 H   0  0  0  0  0  0  0  0  0  0  0  0
  144.1442  142.1714  155.8138 H   0  0  0  0  0  0  0  0  0  0  0  0
  146.4681  144.0248  155.0470 H   0  0  0  0  0  0  0  0  0  0  0  0
  145.4466  142.7831  153.0266 H   0  0  0  0  0  0  0  0  0  0  0  0
  148.1899  139.8995  156.3472 H   0  0  0  0  0  0  0  0  0  0  0  0
  147.9816  139.1421  154.8007 H   0  0  0  0  0  0  0  0  0  0  0  0
  150.3432  139.4668  154.9434 H   0  0  0  0  0  0  0  0  0  0  0  0
  149.5766  140.1147  153.0236 H   0  0  0  0  0  0  0  0  0  0  0  0
  151.1706  142.0208  155.1905 H   0  0  0  0  0  0  0  0  0  0  0  0
  149.7283  142.1727  156.1656 H   0  0  0  0  0  0  0  0  0  0  0  0
  151.3621  138.8778  156.3781 H   0  0  0  0  0  0  0  0  0  0  0  0
  153.4013  140.2305  160.6589 H   0  0  0  0  0  0  0  0  0  0  0  0
  152.7291  143.0583  162.5459 H   0  0  0  0  0  0  0  0  0  0  0  0
  154.2204  143.4554  161.6789 H   0  0  0  0  0  0  0  0  0  0  0  0
  153.9619  141.8241  162.2942 H   0  0  0  0  0  0  0  0  0  0  0  0
  151.4391  145.3272  159.5242 H   0  0  0  0  0  0  0  0  0  0  0  0
  153.0139  145.1637  160.2987 H   0  0  0  0  0  0  0  0  0  0  0  0
  151.5368  144.7794  161.1964 H   0  0  0  0  0  0  0  0  0  0  0  0
  150.9904  143.6456  157.9420 H   0  0  0  0  0  0  0  0  0  0  0  0
  1  2  1  0  0  0  0
  1 26  1  0  0  0  0
  1 27  1  0  0  0  0
  1 28  1  0  0  0  0
  2  3  1  0  0  0  0
  2 29  1  0  0  0  0
  2 30  1  0  0  0  0
  3  4  1  0  0  0  0
  3 31  1  0  0  0  0
  3 32  1  0  0  0  0
  4 24  1  0  0  0  0
  4  5  1  0  0  0  0
  4 33  1  0  0  0  0
  5  6  1  0  0  0  0
  5 34  1  0  0  0  0
  6  7  2  0  0  0  0
  6  8  1  0  0  0  0
  8  9  1  0  0  0  0
  8 24  1  0  0  0  0
  9 10  1  0  0  0  0
  9 35  1  0  0  0  0
  9 36  1  0  0  0  0
 10 11  1  0  0  0  0
 10 12  1  0  0  0  0
 10 37  1  0  0  0  0
 11 38  1  0  0  0  0
 12 13  1  0  0  0  0
 12 39  1  0  0  0  0
 12 40  1  0  0  0  0
 13 23  1  0  0  0  0
 13 14  1  0  0  0  0
 14 15  2  0  0  0  0
 14 41  1  0  0  0  0
 15 16  1  0  0  0  0
 16 23  2  0  0  0  0
 16 17  1  0  0  0  0
 17 18  2  0  0  0  0
 17 42  1  0  0  0  0
 18 19  1  0  0  0  0
 18 20  1  0  0  0  0
 19 43  1  0  0  0  0
 19 44  1  0  0  0  0
 19 45  1  0  0  0  0
 20 21  1  0  0  0  0
 20 22  2  0  0  0  0
 21 46  1  0  0  0  0
 21 47  1  0  0  0  0
 21 48  1  0  0  0  0
 22 23  1  0  0  0  0
 22 49  1  0  0  0  0
 24 25  2  0  0  0  0
M  END
> <s_m_source_file>
AV-unprocessed.smi

> <i_m_source_file_index>
1644

> <i_lp_mmshare_version>
43012

> <i_f3d_flags>
0

> <s_epik_input>
W0NIM11bQ0gyXVtDSDJdW0NAQEhdMVtOSF1DKD1PKU4oQzE9TylbQ0gyXVtDQEhdKFtPSF0pW0NIMl1uKFtjSF1uMiljKGMyMylbY0hdYyhbQ0gzXSljKFtjSF0zKVtDSDNd

> <s_epik_cmdline>
J2VwaWtfcHl0aG9uJywgJy1waCcsICc3LjAnLCAnLXRuJywgJzgnLCAnLW1hJywgJzIwMCcsICctbWV0YWxfYmluZGluZycsICctaW1hZScsICc8aW5maWxlLm1hZT4nLCAnLW9tYWUnLCAnPG91dGZpbGUubWFlPic=

> <r_lp_tautomer_probability>
1

> <r_epik_Ionization_Penalty>
0.10693

> <r_epik_Ionization_Penalty_Charging>
0

> <r_epik_Ionization_Penalty_Neutral>
0.10693

> <r_epik_State_Penalty>
0.096713

> <r_epik_Charging_Adjusted_Penalty>
0.096713

> <i_epik_Tot_Q>
0

> <i_epik_Tot_abs_Q>
0

> <r_epik_Metal_State_Penalty>
0.102757

> <b_epik_Metal_Only>
0

> <s_lp_Force_Field>
OPLS_2005

> <r_lp_Energy>
20.4665

> <b_lp_Chiralities_Consistent>
1

> <s_lp_Variant>
AV-unprocessed.smi:1644-3

> <Gold.Version>
5.8.1

> <Gold.Id.Protein>
6NUR|6NUR_protein|mol2

> <Gold.PLP.Fitness>
51.9161

> <Gold.PLP.PLP>
-48.1679

> <Gold.PLP.part.hbond>
-3.0937

> <Gold.PLP.part.metal>
0.0000

> <Gold.PLP.part.buried>
-7.6245

> <Gold.PLP.part.nonpolar>
-38.3107

> <Gold.PLP.part.repulsive>
0.4847

> <Gold.PLP.ligand.clash>
0.0000

> <Gold.PLP.ligand.torsion>
1.0890

> <Gold.PLP.Chemscore.Hbond>
1.9208

> <Gold.PLP.Chemscore.CHOScore>
0.0000

> <Gold.PLP.Chemscore.Metal>
0.0000

> <Gold.Chemscore.Hbonds>
donor molecule, donor type, donor heavy atom, donor atom, acceptor molecule, acceptor atom, score
      L1  H    11    38       P1  7957  0.58
      P1  H  7989  7998       L1    11  0.31
      P1  H  8011  8017       L1    11  1.00

> <Gold.PLP.Chemscore.Internal.Correction>
0.1639

> <Gold.Rescore>
     Score         DG    S(hbond)    S(metal)    S(lipo)     H(rot)  DE(clash)    DE(int)     intcor
     13.82     -15.04       0.93        0.00     114.76       2.72       0.19       1.03       ----

> <Gold.Chemscore.Fitness>
13.8158

> <Gold.Chemscore.DG>
-15.0395

> <Gold.Chemscore.ZeroCoef>
-5.4800

> <Gold.Chemscore.Hbond>
0.9278

> <Gold.Chemscore.Metal>
0.0000

> <Gold.Chemscore.Lipo>
114.7591

> <Gold.Chemscore.Internal_Hbond>
0.0000

> <Gold.Chemscore.DEClash>
0.1945

> <Gold.Chemscore.DEInternal>
1.0292

> <Gold.Chemscore.Rot>
2.7212

> <Gold.Chemscore.Internal.Correction>
   9.000000E+99

> <Gold.Chemscore.Hbonds>
donor molecule, donor type, donor heavy atom, donor atom, acceptor molecule, acceptor atom, score
      L1  H    11    38       P1  7957  0.58
      P1  H  7989  7998       L1    11  0.02
      P1  H  8011  8017       L1    11  0.36

> <Gold.Chemscore.Hbond.Weighted>
-3.0989

> <Gold.Chemscore.Metal.Weighted>
-0.0000

> <Gold.Chemscore.Lipo.Weighted>
-13.4268

> <Gold.Chemscore.Internal_Hbond.Weighted>
0.0000

> <Gold.Chemscore.DEClash.Weighted>
0.1945

> <Gold.Chemscore.DEInternal.Weighted>
1.0292

> <Gold.Chemscore.Rot.Weighted>
6.9663

> <Gold.Chemscore.Internal.Correction.Weighted>
   9.000000E+99

> <Gold.Protein.RotatedTorsions>
[ 6907 6896 6895 6894 ] final -164.24 input  -60.11 | X-H torsion
[ 7974 7965 7964 7962 ] final    7.63 input  175.53 | X-H torsion
[ 8008 7997 7996 7995 ] final    2.27 input   59.86 | X-H torsion
[ 10167 10162 10161 10158 ] final   58.18 input  -65.29 | X-H torsion
[ 10718 10713 10712 10709 ] final  119.88 input   66.30 | X-H torsion
[ 10763 10752 10751 10750 ] final  -52.30 input  -60.55 | X-H torsion
[ 11005 11000 10999 10996 ] final  -15.41 input  -57.11 | X-H torsion

> <Gold.Protein.ActiveResidues>
 VAL166  LYS551  ARG553  GLY616  TRP617  ASP618  TYR619  PRO620  LYS621  CYS622 
 ASP623  PHE694  ASN695  SER759  ASP760  ASP761  ALA762  ILE779  LEU786  VAL792 
 PHE793  MET794  SER795  GLU796  ALA797  LYS798  CYS799  TRP800  GLU811  SER814 

> <Gold.Protein.RotatedAtoms>
  151.4087  133.3734  159.2740 H   0  0  0  0  0  0  0  0  0  0  0  0  # atno 6907 bound_to 6896
  150.9379  134.8792  159.7604 H   0  0  0  0  0  0  0  0  0  0  0  0  # atno 6908 bound_to 6896
  152.5058  134.4035  159.9477 H   0  0  0  0  0  0  0  0  0  0  0  0  # atno 6909 bound_to 6896
  146.2424  140.0054  142.8412 H   0  0  0  0  0  0  0  0  0  0  0  0  # atno 7974 bound_to 7965
  154.6895  140.2650  155.6826 H   0  0  0  0  0  0  0  0  0  0  0  0  # atno 8008 bound_to 7997
  156.2727  140.2794  156.1392 H   0  0  0  0  0  0  0  0  0  0  0  0  # atno 8009 bound_to 7997
  155.0916  140.0373  157.2660 H   0  0  0  0  0  0  0  0  0  0  0  0  # atno 8010 bound_to 7997
  140.1900  144.4095  150.6575 H   0  0  0  0  0  0  0  0  0  0  0  0  # atno 10167 bound_to 10162
  157.5931  131.1061  150.7958 H   0  0  0  0  0  0  0  0  0  0  0  0  # atno 10718 bound_to 10713
  154.1405  135.6506  153.4941 H   0  0  0  0  0  0  0  0  0  0  0  0  # atno 10763 bound_to 10752
  153.0167  135.5314  154.6910 H   0  0  0  0  0  0  0  0  0  0  0  0  # atno 10764 bound_to 10752
  154.6170  135.2960  155.0340 H   0  0  0  0  0  0  0  0  0  0  0  0  # atno 10765 bound_to 10752
  140.7964  133.8248  155.9428 H   0  0  0  0  0  0  0  0  0  0  0  0  # atno 11005 bound_to 11000
  145.1377  140.9554  143.4507 LP  0  0  0  0  0  0  0  0  0  0  0  0  # atno 17320 bound_to 7965
  145.0326  139.3328  143.6017 LP  0  0  0  0  0  0  0  0  0  0  0  0  # atno 17321 bound_to 7965
  140.6462  143.2214  151.6181 LP  0  0  0  0  0  0  0  0  0  0  0  0  # atno 17342 bound_to 10162
  139.5260  144.3059  152.1034 LP  0  0  0  0  0  0  0  0  0  0  0  0  # atno 17343 bound_to 10162
  156.8375  130.5036  149.5324 LP  0  0  0  0  0  0  0  0  0  0  0  0  # atno 17370 bound_to 10713
  156.0988  130.5953  150.9859 LP  0  0  0  0  0  0  0  0  0  0  0  0  # atno 17371 bound_to 10713
  140.9339  134.1987  157.4845 LP  0  0  0  0  0  0  0  0  0  0  0  0  # atno 17394 bound_to 11000
  139.8726  134.9844  156.5238 LP  0  0  0  0  0  0  0  0  0  0  0  0  # atno 17395 bound_to 11000

$$$$
