AV-unprocessed.smi:1680|AV-procd|sdf|6739|dock8
  -GOLD-   22720 7493D 1   1.00000     0.00000
 Structure written by MMmdl.
 37 38  0  0  0  0  0  0  0  0  2 V2000
  152.1785  145.2542  157.7005 C   0  0  0  0  0  0  0  0  0  0  0  0
  151.9496  145.2356  159.2132 C   0  0  0  0  0  0  0  0  0  0  0  0
  151.9004  146.3148  159.8041 O   0  0  0  0  0  0  0  0  0  0  0  0
  151.8098  144.0470  159.8464 N   0  0  0  0  0  0  0  0  0  0  0  0
  151.6419  143.9218  161.2967 C   0  0  0  0  0  0  0  0  0  0  0  0
  152.8673  143.1911  161.8792 C   0  0  0  0  0  0  0  0  0  0  0  0
  153.0073  141.8673  161.2659 N   0  0  0  0  0  0  0  0  0  0  0  0
  154.1533  141.1768  161.8578 C   0  0  0  0  0  0  0  0  0  0  0  0
  154.6793  140.0115  160.9944 C   0  0  0  0  0  0  0  0  0  0  0  0
  153.6060  139.1103  160.5828 N   0  0  0  0  0  0  0  0  0  0  0  0
  153.1719  138.9149  159.3291 C   0  0  0  0  0  0  0  0  0  0  0  0
  153.6956  139.5219  158.3919 O   0  0  0  0  0  0  0  0  0  0  0  0
  152.1573  138.0250  159.2378 N   0  5  0  0  0  0  0  0  0  0  0  0
  151.8767  137.4457  158.0588 C   0  0  0  0  0  0  0  0  0  0  0  0
  152.7583  137.4143  157.0464 N   0  0  0  0  0  0  0  0  0  0  0  0
  152.2694  136.7728  155.9164 N   0  0  0  0  0  0  0  0  0  0  0  0
  151.0224  136.3412  156.1041 C   0  0  0  0  0  0  0  0  0  0  0  0
  150.3304  136.6830  157.6757 S   0  0  0  0  0  0  0  0  0  0  0  0
  153.1468  141.9993  159.8106 C   0  0  0  0  0  0  0  0  0  0  0  0
  151.9187  142.7229  159.2262 C   0  0  0  0  0  0  0  0  0  0  0  0
  153.0952  144.7237  157.4415 H   0  0  0  0  0  0  0  0  0  0  0  0
  152.2731  146.2785  157.3384 H   0  0  0  0  0  0  0  0  0  0  0  0
  151.3405  144.7923  157.1778 H   0  0  0  0  0  0  0  0  0  0  0  0
  151.5235  144.8863  161.7918 H   0  0  0  0  0  0  0  0  0  0  0  0
  150.7300  143.3616  161.5092 H   0  0  0  0  0  0  0  0  0  0  0  0
  153.7718  143.7789  161.7149 H   0  0  0  0  0  0  0  0  0  0  0  0
  152.7444  143.0827  162.9574 H   0  0  0  0  0  0  0  0  0  0  0  0
  154.9528  141.8940  162.0494 H   0  0  0  0  0  0  0  0  0  0  0  0
  153.8650  140.7717  162.8291 H   0  0  0  0  0  0  0  0  0  0  0  0
  155.2621  140.3584  160.1412 H   0  0  0  0  0  0  0  0  0  0  0  0
  155.3722  139.4219  161.5946 H   0  0  0  0  0  0  0  0  0  0  0  0
  153.1431  138.5923  161.3150 H   0  0  0  0  0  0  0  0  0  0  0  0
  150.5053  135.8222  155.3108 H   0  0  0  0  0  0  0  0  0  0  0  0
  154.0591  142.5460  159.5674 H   0  0  0  0  0  0  0  0  0  0  0  0
  153.2274  141.0180  159.3460 H   0  0  0  0  0  0  0  0  0  0  0  0
  151.0128  142.1515  159.4353 H   0  0  0  0  0  0  0  0  0  0  0  0
  152.0009  142.7546  158.1410 H   0  0  0  0  0  0  0  0  0  0  0  0
  1  2  1  0  0  0  0
  1 21  1  0  0  0  0
  1 22  1  0  0  0  0
  1 23  1  0  0  0  0
  2  3  2  0  0  0  0
  2  4  1  0  0  0  0
  4 20  1  0  0  0  0
  4  5  1  0  0  0  0
  5  6  1  0  0  0  0
  5 24  1  0  0  0  0
  5 25  1  0  0  0  0
  6  7  1  0  0  0  0
  6 26  1  0  0  0  0
  6 27  1  0  0  0  0
  7  8  1  0  0  0  0
  7 19  1  0  0  0  0
  8  9  1  0  0  0  0
  8 28  1  0  0  0  0
  8 29  1  0  0  0  0
  9 10  1  0  0  0  0
  9 30  1  0  0  0  0
  9 31  1  0  0  0  0
 10 11  1  0  0  0  0
 10 32  1  0  0  0  0
 11 12  2  0  0  0  0
 11 13  1  0  0  0  0
 13 14  1  0  0  0  0
 14 18  1  0  0  0  0
 14 15  2  0  0  0  0
 15 16  1  0  0  0  0
 16 17  2  0  0  0  0
 17 18  1  0  0  0  0
 17 33  1  0  0  0  0
 19 20  1  0  0  0  0
 19 34  1  0  0  0  0
 19 35  1  0  0  0  0
 20 36  1  0  0  0  0
 20 37  1  0  0  0  0
M  CHG  1  13  -1
M  END
> <s_m_source_file>
AV-unprocessed.smi

> <i_m_source_file_index>
1680

> <i_lp_mmshare_version>
43012

> <i_f3d_flags>
0

> <s_epik_input>
W0NIM11DKD1PKU4xW0NIMl1bQ0gyXU4oW0NIMl1bQ0gyXTEpW0NIMl1bQ0gyXVtOSF1DKD1PKVtOSF1jMm5uW2NIXXMy

> <s_epik_cmdline>
J2VwaWtfcHl0aG9uJywgJy1waCcsICc3LjAnLCAnLXRuJywgJzgnLCAnLW1hJywgJzIwMCcsICctbWV0YWxfYmluZGluZycsICctaW1hZScsICc8aW5maWxlLm1hZT4nLCAnLW9tYWUnLCAnPG91dGZpbGUubWFlPic=

> <r_lp_tautomer_probability>
1

> <r_epik_Ionization_Penalty>
3.80493

> <r_epik_Ionization_Penalty_Charging>
3.53258

> <r_epik_Ionization_Penalty_Neutral>
0.272353

> <r_epik_State_Penalty>
3.75006

> <r_epik_Charging_Adjusted_Penalty>
7.28264

> <i_epik_Tot_Q>
-1

> <i_epik_Tot_abs_Q>
1

> <r_epik_Metal_State_Penalty>
0.749383

> <b_epik_Metal_Only>
1

> <s_lp_Force_Field>
OPLS_2005

> <r_lp_Energy>
35.6067

> <b_lp_Chiralities_Consistent>
1

> <s_lp_Variant>
AV-unprocessed.smi:1680-3

> <Gold.Version>
5.8.1

> <Gold.Id.Protein>
6NUR|6NUR_protein|mol2

> <Gold.PLP.Fitness>
42.7345

> <Gold.PLP.PLP>
-37.4963

> <Gold.PLP.part.hbond>
-3.6001

> <Gold.PLP.part.metal>
0.0000

> <Gold.PLP.part.buried>
-5.4632

> <Gold.PLP.part.nonpolar>
-28.5689

> <Gold.PLP.part.repulsive>
0.2987

> <Gold.PLP.ligand.clash>
0.0000

> <Gold.PLP.ligand.torsion>
0.3982

> <Gold.PLP.Chemscore.Hbond>
2.0000

> <Gold.PLP.Chemscore.CHOScore>
0.0000

> <Gold.PLP.Chemscore.Metal>
0.0000

> <Gold.Chemscore.Hbonds>
donor molecule, donor type, donor heavy atom, donor atom, acceptor molecule, acceptor atom, score
      P1  H  7997  8008       L1    12  1.00
      P1  H 10752 10764       L1    16  1.00

> <Gold.PLP.Chemscore.Internal.Correction>
0.0347

> <Gold.Rescore>
     Score         DG    S(hbond)    S(metal)    S(lipo)     H(rot)  DE(clash)    DE(int)     intcor
     13.96     -17.40       1.98        0.00      84.01       1.77       1.59       1.86       ----

> <Gold.Chemscore.Fitness>
13.9590

> <Gold.Chemscore.DG>
-17.4045

> <Gold.Chemscore.ZeroCoef>
-5.4800

> <Gold.Chemscore.Hbond>
1.9807

> <Gold.Chemscore.Metal>
0.0000

> <Gold.Chemscore.Lipo>
84.0091

> <Gold.Chemscore.Internal_Hbond>
0.0000

> <Gold.Chemscore.DEClash>
1.5855

> <Gold.Chemscore.DEInternal>
1.8599

> <Gold.Chemscore.Rot>
1.7657

> <Gold.Chemscore.Internal.Correction>
   9.000000E+99

> <Gold.Chemscore.Hbonds>
donor molecule, donor type, donor heavy atom, donor atom, acceptor molecule, acceptor atom, score
      P1  H  7997  8008       L1    12  1.00
      P1  H 10752 10764       L1    16  0.62

> <Gold.Chemscore.Hbond.Weighted>
-6.6155

> <Gold.Chemscore.Metal.Weighted>
-0.0000

> <Gold.Chemscore.Lipo.Weighted>
-9.8291

> <Gold.Chemscore.Internal_Hbond.Weighted>
0.0000

> <Gold.Chemscore.DEClash.Weighted>
1.5855

> <Gold.Chemscore.DEInternal.Weighted>
1.8599

> <Gold.Chemscore.Rot.Weighted>
4.5201

> <Gold.Chemscore.Internal.Correction.Weighted>
   9.000000E+99

> <Gold.Protein.RotatedTorsions>
[ 6907 6896 6895 6894 ] final  -45.77 input  -60.11 | X-H torsion
[ 7974 7965 7964 7962 ] final  178.55 input  175.53 | X-H torsion
[ 8008 7997 7996 7995 ] final -106.22 input   59.86 | X-H torsion
[ 10167 10162 10161 10158 ] final -121.93 input  -65.29 | X-H torsion
[ 10718 10713 10712 10709 ] final   58.10 input   66.30 | X-H torsion
[ 10763 10752 10751 10750 ] final  -29.75 input  -60.55 | X-H torsion
[ 11005 11000 10999 10996 ] final   24.09 input  -57.11 | X-H torsion

> <Gold.Protein.ActiveResidues>
 VAL166  LYS551  ARG553  GLY616  TRP617  ASP618  TYR619  PRO620  LYS621  CYS622 
 ASP623  PHE694  ASN695  SER759  ASP760  ASP761  ALA762  ILE779  LEU786  VAL792 
 PHE793  MET794  SER795  GLU796  ALA797  LYS798  CYS799  TRP800  GLU811  SER814 

> <Gold.Protein.RotatedAtoms>
  150.9184  134.8601  159.7471 H   0  0  0  0  0  0  0  0  0  0  0  0  # atno 6907 bound_to 6896
  152.4980  134.4255  159.9505 H   0  0  0  0  0  0  0  0  0  0  0  0  # atno 6908 bound_to 6896
  151.4291  133.3636  159.2801 H   0  0  0  0  0  0  0  0  0  0  0  0  # atno 6909 bound_to 6896
  144.7155  140.0415  143.6437 H   0  0  0  0  0  0  0  0  0  0  0  0  # atno 7974 bound_to 7965
  154.9114  140.0410  157.1948 H   0  0  0  0  0  0  0  0  0  0  0  0  # atno 8008 bound_to 7997
  154.8345  140.2904  155.5679 H   0  0  0  0  0  0  0  0  0  0  0  0  # atno 8009 bound_to 7997
  156.2989  140.2494  156.3276 H   0  0  0  0  0  0  0  0  0  0  0  0  # atno 8010 bound_to 7997
  140.0197  143.5357  152.2226 H   0  0  0  0  0  0  0  0  0  0  0  0  # atno 10167 bound_to 10162
  157.5568  130.8806  149.9049 H   0  0  0  0  0  0  0  0  0  0  0  0  # atno 10718 bound_to 10713
  153.7698  135.6913  153.4909 H   0  0  0  0  0  0  0  0  0  0  0  0  # atno 10763 bound_to 10752
  153.1882  135.4481  155.0115 H   0  0  0  0  0  0  0  0  0  0  0  0  # atno 10764 bound_to 10752
  154.8122  135.3382  154.7208 H   0  0  0  0  0  0  0  0  0  0  0  0  # atno 10765 bound_to 10752
  140.3625  134.2110  155.7671 H   0  0  0  0  0  0  0  0  0  0  0  0  # atno 11005 bound_to 11000
  146.0020  139.3098  143.0922 LP  0  0  0  0  0  0  0  0  0  0  0  0  # atno 17320 bound_to 7965
  145.8783  140.9378  143.0615 LP  0  0  0  0  0  0  0  0  0  0  0  0  # atno 17321 bound_to 7965
  139.6148  144.7617  151.2871 LP  0  0  0  0  0  0  0  0  0  0  0  0  # atno 17342 bound_to 10162
  140.7347  143.6757  150.8044 LP  0  0  0  0  0  0  0  0  0  0  0  0  # atno 17343 bound_to 10162
  156.0626  130.3697  150.0948 LP  0  0  0  0  0  0  0  0  0  0  0  0  # atno 17370 bound_to 10713
  156.9116  130.9653  151.3562 LP  0  0  0  0  0  0  0  0  0  0  0  0  # atno 17371 bound_to 10713
  141.1980  133.8046  157.0603 LP  0  0  0  0  0  0  0  0  0  0  0  0  # atno 17394 bound_to 11000
  140.0616  134.9752  157.1314 LP  0  0  0  0  0  0  0  0  0  0  0  0  # atno 17395 bound_to 11000

$$$$
