AV-unprocessed.smi:1509|AV-procd|sdf|6090|dock2
  -GOLD-   22720 6213D 1   1.00000     0.00000
 Structure written by MMmdl.
 42 43  0  0  0  0  0  0  0  0  2 V2000
  144.7354  133.5160  150.3488 C   0  0  0  0  0  0  0  0  0  0  0  0
  145.5877  132.3307  150.8240 C   0  0  2  0  0  0  0  0  0  0  0  0
  144.7135  131.1146  151.1726 C   0  0  0  0  0  0  0  0  0  0  0  0
  145.5887  129.9567  151.6675 C   0  0  0  0  0  0  0  0  0  0  0  0
  146.4699  130.3985  152.8466 C   0  0  0  0  0  0  0  0  0  0  0  0
  147.3059  131.5717  152.4823 N   0  3  2  0  0  0  0  0  0  0  0  0
  148.2598  131.9348  153.5613 C   0  0  0  0  0  0  0  0  0  0  0  0
  149.2709  133.0075  153.1209 C   0  0  0  0  0  0  0  0  0  0  0  0
  149.8137  133.8168  154.3107 C   0  0  0  0  0  0  0  0  0  0  0  0
  149.2528  135.1624  154.3528 N   0  0  0  0  0  0  0  0  0  0  0  0
  148.9192  135.8217  155.4734 C   0  0  0  0  0  0  0  0  0  0  0  0
  149.0355  135.3410  156.6005 O   0  0  0  0  0  0  0  0  0  0  0  0
  148.3775  137.2412  155.2993 C   0  0  0  0  0  0  0  0  0  0  0  0
  149.4588  138.1895  155.1070 N   0  0  0  0  0  0  0  0  0  0  0  0
  150.0012  138.6877  153.9938 C   0  0  0  0  0  0  0  0  0  0  0  0
  150.9838  139.5333  154.2642 N   0  0  0  0  0  0  0  0  0  0  0  0
  151.0245  139.5354  155.6486 N   0  0  0  0  0  0  0  0  0  0  0  0
  150.1216  138.7404  156.1541 N   0  0  0  0  0  0  0  0  0  0  0  0
  146.4704  132.7168  152.0283 C   0  0  0  0  0  0  0  0  0  0  0  0
  144.0524  133.8525  151.1295 H   0  0  0  0  0  0  0  0  0  0  0  0
  144.1377  133.2456  149.4779 H   0  0  0  0  0  0  0  0  0  0  0  0
  145.3616  134.3630  150.0668 H   0  0  0  0  0  0  0  0  0  0  0  0
  146.2457  132.0493  150.0003 H   0  0  0  0  0  0  0  0  0  0  0  0
  143.9897  131.3834  151.9436 H   0  0  0  0  0  0  0  0  0  0  0  0
  144.1385  130.7986  150.3015 H   0  0  0  0  0  0  0  0  0  0  0  0
  144.9605  129.1168  151.9657 H   0  0  0  0  0  0  0  0  0  0  0  0
  146.2185  129.5978  150.8523 H   0  0  0  0  0  0  0  0  0  0  0  0
  145.8495  130.6454  153.7097 H   0  0  0  0  0  0  0  0  0  0  0  0
  147.1094  129.5662  153.1426 H   0  0  0  0  0  0  0  0  0  0  0  0
  147.7121  132.2578  154.4481 H   0  0  0  0  0  0  0  0  0  0  0  0
  148.8223  131.0474  153.8548 H   0  0  0  0  0  0  0  0  0  0  0  0
  150.1016  132.5313  152.5983 H   0  0  0  0  0  0  0  0  0  0  0  0
  148.8087  133.6899  152.4083 H   0  0  0  0  0  0  0  0  0  0  0  0
  149.6084  133.3007  155.2502 H   0  0  0  0  0  0  0  0  0  0  0  0
  150.8977  133.9058  154.2367 H   0  0  0  0  0  0  0  0  0  0  0  0
  149.1245  135.6327  153.4683 H   0  0  0  0  0  0  0  0  0  0  0  0
  147.7058  137.2984  154.4415 H   0  0  0  0  0  0  0  0  0  0  0  0
  147.7989  137.5230  156.1804 H   0  0  0  0  0  0  0  0  0  0  0  0
  149.6810  138.4310  152.9947 H   0  0  0  0  0  0  0  0  0  0  0  0
  147.1061  133.5544  151.7436 H   0  0  0  0  0  0  0  0  0  0  0  0
  145.8487  133.0624  152.8561 H   0  0  0  0  0  0  0  0  0  0  0  0
  147.8638  131.2824  151.6916 H   0  0  0  0  0  0  0  0  0  0  0  0
  1  2  1  0  0  0  0
  1 20  1  0  0  0  0
  1 21  1  0  0  0  0
  1 22  1  0  0  0  0
  2 19  1  0  0  0  0
  2  3  1  0  0  0  0
  2 23  1  0  0  0  0
  3  4  1  0  0  0  0
  3 24  1  0  0  0  0
  3 25  1  0  0  0  0
  4  5  1  0  0  0  0
  4 26  1  0  0  0  0
  4 27  1  0  0  0  0
  5  6  1  0  0  0  0
  5 28  1  0  0  0  0
  5 29  1  0  0  0  0
  6  7  1  0  0  0  0
  6 19  1  0  0  0  0
  6 42  1  0  0  0  0
  7  8  1  0  0  0  0
  7 30  1  0  0  0  0
  7 31  1  0  0  0  0
  8  9  1  0  0  0  0
  8 32  1  0  0  0  0
  8 33  1  0  0  0  0
  9 10  1  0  0  0  0
  9 34  1  0  0  0  0
  9 35  1  0  0  0  0
 10 11  1  0  0  0  0
 10 36  1  0  0  0  0
 11 12  2  0  0  0  0
 11 13  1  0  0  0  0
 13 14  1  0  0  0  0
 13 37  1  0  0  0  0
 13 38  1  0  0  0  0
 14 18  1  0  0  0  0
 14 15  1  0  0  0  0
 15 16  2  0  0  0  0
 15 39  1  0  0  0  0
 16 17  1  0  0  0  0
 17 18  2  0  0  0  0
 19 40  1  0  0  0  0
 19 41  1  0  0  0  0
M  CHG  1   6   1
M  END
> <s_m_source_file>
AV-unprocessed.smi

> <i_m_source_file_index>
1509

> <i_lp_mmshare_version>
43012

> <i_f3d_flags>
0

> <s_epik_input>
W0NIM11bQ0BASF0xW0NIMl1bQ0gyXVtDSDJdTihbQ0gyXTEpW0NIMl1bQ0gyXVtDSDJdW05IXUMoPU8pW0NIMl1uMltjSF1ubm4y

> <s_epik_cmdline>
J2VwaWtfcHl0aG9uJywgJy1waCcsICc3LjAnLCAnLXRuJywgJzgnLCAnLW1hJywgJzIwMCcsICctbWV0YWxfYmluZGluZycsICctaW1hZScsICc8aW5maWxlLm1hZT4nLCAnLW9tYWUnLCAnPG91dGZpbGUubWFlPic=

> <r_lp_tautomer_probability>
1

> <r_epik_Ionization_Penalty>
0.00044216

> <r_epik_Ionization_Penalty_Charging>
0.000440775

> <r_epik_Ionization_Penalty_Neutral>
1.38512e-06

> <r_epik_State_Penalty>
0.000271914

> <r_epik_Charging_Adjusted_Penalty>
0.000712689

> <i_epik_Tot_Q>
1

> <i_epik_Tot_abs_Q>
1

> <r_epik_Metal_State_Penalty>
-0

> <b_epik_Metal_Only>
0

> <s_lp_Force_Field>
OPLS_2005

> <r_lp_Energy>
19.8667

> <b_lp_Chiralities_Consistent>
1

> <s_lp_Variant>
AV-unprocessed.smi:1509-1

> <Gold.Version>
5.8.1

> <Gold.Id.Protein>
6NUR|6NUR_protein|mol2

> <Gold.PLP.Fitness>
43.3063

> <Gold.PLP.PLP>
-31.3756

> <Gold.PLP.part.hbond>
-3.0000

> <Gold.PLP.part.metal>
0.0000

> <Gold.PLP.part.buried>
-4.9441

> <Gold.PLP.part.nonpolar>
-23.1224

> <Gold.PLP.part.repulsive>
0.1517

> <Gold.PLP.ligand.clash>
0.0000

> <Gold.PLP.ligand.torsion>
1.2948

> <Gold.PLP.Chemscore.Hbond>
3.0000

> <Gold.PLP.Chemscore.CHOScore>
1.8208

> <Gold.PLP.Chemscore.Metal>
0.0000

> <Gold.Chemscore.Hbonds>
donor molecule, donor type, donor heavy atom, donor atom, acceptor molecule, acceptor atom, score
      L1  H     6    42       P1 10747  1.00
      L1  H    10    36       P1  7948  1.00
      P1  H  7989  7998       L1    16  1.00
      L1  C    15    39       P1  7948  0.99
      L1  C    15    39       P1  7957  0.88

> <Gold.PLP.Chemscore.Internal.Correction>
0.0579

> <Gold.Rescore>
     Score         DG    S(hbond)    S(metal)    S(lipo)     H(rot)  DE(clash)    DE(int)     intcor
     14.65     -15.92       2.93        0.00      70.68       2.97       0.09       1.19       ----

> <Gold.Chemscore.Fitness>
14.6480

> <Gold.Chemscore.DG>
-15.9232

> <Gold.Chemscore.ZeroCoef>
-5.4800

> <Gold.Chemscore.Hbond>
2.9257

> <Gold.Chemscore.Metal>
0.0000

> <Gold.Chemscore.Lipo>
70.6778

> <Gold.Chemscore.Internal_Hbond>
0.0000

> <Gold.Chemscore.DEClash>
0.0870

> <Gold.Chemscore.DEInternal>
1.1881

> <Gold.Chemscore.Rot>
2.9680

> <Gold.Chemscore.Internal.Correction>
   9.000000E+99

> <Gold.Chemscore.Hbonds>
donor molecule, donor type, donor heavy atom, donor atom, acceptor molecule, acceptor atom, score
      L1  H     6    42       P1 10747  1.00
      L1  H    10    36       P1  7948  0.65
      P1  H  7989  7998       L1    16  0.94

> <Gold.Chemscore.Hbond.Weighted>
-9.7719

> <Gold.Chemscore.Metal.Weighted>
-0.0000

> <Gold.Chemscore.Lipo.Weighted>
-8.2693

> <Gold.Chemscore.Internal_Hbond.Weighted>
0.0000

> <Gold.Chemscore.DEClash.Weighted>
0.0870

> <Gold.Chemscore.DEInternal.Weighted>
1.1881

> <Gold.Chemscore.Rot.Weighted>
7.5980

> <Gold.Chemscore.Internal.Correction.Weighted>
   9.000000E+99

> <Gold.Protein.RotatedTorsions>
[ 6907 6896 6895 6894 ] final  165.42 input  -60.11 | X-H torsion
[ 7974 7965 7964 7962 ] final  132.38 input  175.53 | X-H torsion
[ 8008 7997 7996 7995 ] final  148.26 input   59.86 | X-H torsion
[ 10167 10162 10161 10158 ] final  -45.16 input  -65.29 | X-H torsion
[ 10718 10713 10712 10709 ] final  120.38 input   66.30 | X-H torsion
[ 10763 10752 10751 10750 ] final  146.23 input  -60.55 | X-H torsion
[ 11005 11000 10999 10996 ] final   -9.30 input  -57.11 | X-H torsion

> <Gold.Protein.ActiveResidues>
 VAL166  LYS551  ARG553  GLY616  TRP617  ASP618  TYR619  PRO620  LYS621  CYS622 
 ASP623  PHE694  ASN695  SER759  ASP760  ASP761  ALA762  ILE779  LEU786  VAL792 
 PHE793  MET794  SER795  GLU796  ALA797  LYS798  CYS799  TRP800  GLU811  SER814 

> <Gold.Protein.RotatedAtoms>
  151.8946  133.3524  159.3809 H   0  0  0  0  0  0  0  0  0  0  0  0  # atno 6907 bound_to 6896
  150.7095  134.4889  159.5515 H   0  0  0  0  0  0  0  0  0  0  0  0  # atno 6908 bound_to 6896
  152.2466  134.8175  160.0503 H   0  0  0  0  0  0  0  0  0  0  0  0  # atno 6909 bound_to 6896
  144.9975  139.4345  143.5309 H   0  0  0  0  0  0  0  0  0  0  0  0  # atno 7974 bound_to 7965
  156.2797  140.2133  156.5669 H   0  0  0  0  0  0  0  0  0  0  0  0  # atno 8008 bound_to 7997
  154.7167  140.0507  157.0624 H   0  0  0  0  0  0  0  0  0  0  0  0  # atno 8009 bound_to 7997
  155.0533  140.3158  155.4688 H   0  0  0  0  0  0  0  0  0  0  0  0  # atno 8010 bound_to 7997
  140.6869  143.2893  151.3598 H   0  0  0  0  0  0  0  0  0  0  0  0  # atno 10167 bound_to 10162
  157.5895  131.1066  150.8027 H   0  0  0  0  0  0  0  0  0  0  0  0  # atno 10718 bound_to 10713
  154.0185  135.2908  155.3384 H   0  0  0  0  0  0  0  0  0  0  0  0  # atno 10763 bound_to 10752
  154.7060  135.5169  153.8599 H   0  0  0  0  0  0  0  0  0  0  0  0  # atno 10764 bound_to 10752
  153.0691  135.6641  154.0409 H   0  0  0  0  0  0  0  0  0  0  0  0  # atno 10765 bound_to 10752
  140.7326  133.8736  155.8905 H   0  0  0  0  0  0  0  0  0  0  0  0  # atno 11005 bound_to 11000
  146.3445  139.9343  142.8749 LP  0  0  0  0  0  0  0  0  0  0  0  0  # atno 17320 bound_to 7965
  145.2200  140.9931  143.4051 LP  0  0  0  0  0  0  0  0  0  0  0  0  # atno 17321 bound_to 7965
  139.6235  144.0859  152.2413 LP  0  0  0  0  0  0  0  0  0  0  0  0  # atno 17342 bound_to 10162
  140.0311  144.6080  150.7487 LP  0  0  0  0  0  0  0  0  0  0  0  0  # atno 17343 bound_to 10162
  156.8453  130.5062  149.5317 LP  0  0  0  0  0  0  0  0  0  0  0  0  # atno 17370 bound_to 10713
  156.0948  130.5923  150.9794 LP  0  0  0  0  0  0  0  0  0  0  0  0  # atno 17371 bound_to 10713
  140.9907  134.1282  157.4410 LP  0  0  0  0  0  0  0  0  0  0  0  0  # atno 17394 bound_to 11000
  139.8823  135.0039  156.6218 LP  0  0  0  0  0  0  0  0  0  0  0  0  # atno 17395 bound_to 11000

$$$$
