AV-unprocessed.smi:3068|AV-procd|sdf|11701|dock4
  -GOLD-   2272017103D 1   1.00000     0.00000
 Structure written by MMmdl.
 40 42  0  0  0  0  0  0  0  0  2 V2000
  149.7040  132.7303  157.9349 N   0  0  0  0  0  0  0  0  0  0  0  0
  149.9266  131.9300  157.1291 C   0  0  0  0  0  0  0  0  0  0  0  0
  150.2075  130.9214  156.1153 C   0  0  0  0  0  0  0  0  0  0  0  0
  151.5112  130.6617  155.8623 N   0  0  0  0  0  0  0  0  0  0  0  0
  151.7858  129.7287  154.9261 C   0  0  0  0  0  0  0  0  0  0  0  0
  150.7612  129.0511  154.2374 C   0  0  0  0  0  0  0  0  0  0  0  0
  149.4580  129.3048  154.4819 N   0  0  0  0  0  0  0  0  0  0  0  0
  149.1677  130.2406  155.4206 C   0  0  0  0  0  0  0  0  0  0  0  0
  147.8134  130.5167  155.6869 N   0  0  0  0  0  0  0  0  0  0  0  0
  146.7908  130.4431  154.6497 C   0  0  0  0  0  0  0  0  0  0  0  0
  147.2210  131.1423  153.3491 C   0  0  1  0  0  0  0  0  0  0  0  0
  146.0967  131.1266  152.2981 C   0  0  0  0  0  0  0  0  0  0  0  0
  146.5020  131.8849  151.0886 N   0  3  1  0  0  0  0  0  0  0  0  0
  145.4886  131.8702  150.0015 C   0  0  0  0  0  0  0  0  0  0  0  0
  144.2963  132.7984  150.3031 C   0  0  0  0  0  0  0  0  0  0  0  0
  144.7713  134.2237  150.6164 C   0  0  0  0  0  0  0  0  0  0  0  0
  145.8101  134.2058  151.7468 C   0  0  0  0  0  0  0  0  0  0  0  0
  146.9820  133.2572  151.4108 C   0  0  1  0  0  0  0  0  0  0  0  0
  148.0409  133.2009  152.5292 C   0  0  0  0  0  0  0  0  0  0  0  0
  147.5301  132.4979  153.6549 O   0  0  0  0  0  0  0  0  0  0  0  0
  152.8267  129.5230  154.7253 H   0  0  0  0  0  0  0  0  0  0  0  0
  150.9871  128.3058  153.4893 H   0  0  0  0  0  0  0  0  0  0  0  0
  147.5504  130.8738  156.5947 H   0  0  0  0  0  0  0  0  0  0  0  0
  146.5445  129.3984  154.4566 H   0  0  0  0  0  0  0  0  0  0  0  0
  145.8788  130.9017  155.0328 H   0  0  0  0  0  0  0  0  0  0  0  0
  148.1028  130.6471  152.9390 H   0  0  0  0  0  0  0  0  0  0  0  0
  145.8682  130.0978  152.0175 H   0  0  0  0  0  0  0  0  0  0  0  0
  145.1856  131.5471  152.7244 H   0  0  0  0  0  0  0  0  0  0  0  0
  145.9734  132.1934  149.0793 H   0  0  0  0  0  0  0  0  0  0  0  0
  145.1452  130.8500  149.8257 H   0  0  0  0  0  0  0  0  0  0  0  0
  143.6165  132.8147  149.4509 H   0  0  0  0  0  0  0  0  0  0  0  0
  143.7195  132.4101  151.1428 H   0  0  0  0  0  0  0  0  0  0  0  0
  145.2083  134.6698  149.7220 H   0  0  0  0  0  0  0  0  0  0  0  0
  143.9233  134.8502  150.8944 H   0  0  0  0  0  0  0  0  0  0  0  0
  146.1855  135.2165  151.9116 H   0  0  0  0  0  0  0  0  0  0  0  0
  145.3317  133.9050  152.6794 H   0  0  0  0  0  0  0  0  0  0  0  0
  147.4712  133.6449  150.5159 H   0  0  0  0  0  0  0  0  0  0  0  0
  148.9511  132.7146  152.1744 H   0  0  0  0  0  0  0  0  0  0  0  0
  148.3258  134.2075  152.8364 H   0  0  0  0  0  0  0  0  0  0  0  0
  147.3041  131.3900  150.7252 H   0  0  0  0  0  0  0  0  0  0  0  0
  1  2  3  0  0  0  0
  2  3  1  0  0  0  0
  3  8  1  0  0  0  0
  3  4  2  0  0  0  0
  4  5  1  0  0  0  0
  5  6  2  0  0  0  0
  5 21  1  0  0  0  0
  6  7  1  0  0  0  0
  6 22  1  0  0  0  0
  7  8  2  0  0  0  0
  8  9  1  0  0  0  0
  9 10  1  0  0  0  0
  9 23  1  0  0  0  0
 10 11  1  0  0  0  0
 10 24  1  0  0  0  0
 10 25  1  0  0  0  0
 11 20  1  0  0  0  0
 11 12  1  0  0  0  0
 11 26  1  0  0  0  0
 12 13  1  0  0  0  0
 12 27  1  0  0  0  0
 12 28  1  0  0  0  0
 13 18  1  0  0  0  0
 13 14  1  0  0  0  0
 13 40  1  0  0  0  0
 14 15  1  0  0  0  0
 14 29  1  0  0  0  0
 14 30  1  0  0  0  0
 15 16  1  0  0  0  0
 15 31  1  0  0  0  0
 15 32  1  0  0  0  0
 16 17  1  0  0  0  0
 16 33  1  0  0  0  0
 16 34  1  0  0  0  0
 17 18  1  0  0  0  0
 17 35  1  0  0  0  0
 17 36  1  0  0  0  0
 18 19  1  0  0  0  0
 18 37  1  0  0  0  0
 19 20  1  0  0  0  0
 19 38  1  0  0  0  0
 19 39  1  0  0  0  0
M  CHG  1  13   1
M  END
> <s_m_source_file>
AV-unprocessed.smi

> <i_m_source_file_index>
3068

> <i_lp_mmshare_version>
43012

> <i_f3d_flags>
0

> <s_epik_input>
TiNDYzFuW2NIXVtjSF1uYzFbTkhdW0NIMl1bQ0BIXShbQ0gyXTIpT1tDSDJdW0NAQEhdKE4yMylbQ0gyXVtDSDJdW0NIMl1bQ0gyXTM=

> <s_epik_cmdline>
J2VwaWtfcHl0aG9uJywgJy1waCcsICc3LjAnLCAnLXRuJywgJzgnLCAnLW1hJywgJzIwMCcsICctbWV0YWxfYmluZGluZycsICctaW1hZScsICc8aW5maWxlLm1hZT4nLCAnLW9tYWUnLCAnPG91dGZpbGUubWFlPic=

> <r_epik_Ionization_Penalty>
0.0804321

> <r_epik_Ionization_Penalty_Charging>
0.0803403

> <r_epik_Ionization_Penalty_Neutral>
9.17277e-05

> <r_epik_State_Penalty>
0.0711481

> <r_epik_Charging_Adjusted_Penalty>
0.151488

> <i_epik_Tot_Q>
1

> <i_epik_Tot_abs_Q>
1

> <r_epik_Metal_State_Penalty>
0.0711481

> <b_epik_Metal_Only>
0

> <s_lp_Force_Field>
OPLS_2005

> <r_lp_Energy>
39.2156

> <b_lp_Chiralities_Consistent>
1

> <s_lp_Variant>
AV-unprocessed.smi:3068-4

> <Gold.Version>
5.8.1

> <Gold.Id.Protein>
6NUR|6NUR_protein|mol2

> <Gold.PLP.Fitness>
38.3796

> <Gold.PLP.PLP>
-29.9965

> <Gold.PLP.part.hbond>
-2.0000

> <Gold.PLP.part.metal>
0.0000

> <Gold.PLP.part.buried>
-4.1426

> <Gold.PLP.part.nonpolar>
-23.5786

> <Gold.PLP.part.repulsive>
0.1768

> <Gold.PLP.ligand.clash>
0.0000

> <Gold.PLP.ligand.torsion>
0.3093

> <Gold.PLP.Chemscore.Hbond>
2.0000

> <Gold.PLP.Chemscore.CHOScore>
1.0000

> <Gold.PLP.Chemscore.Metal>
0.0000

> <Gold.Chemscore.Hbonds>
donor molecule, donor type, donor heavy atom, donor atom, acceptor molecule, acceptor atom, score
      L1  H    13    40       P1 10747  1.00
      P1  H  6896  6909       L1     1  1.00
      L1  C     6    22       P1 10737  1.00

> <Gold.PLP.Chemscore.Internal.Correction>
0.0016

> <Gold.Rescore>
     Score         DG    S(hbond)    S(metal)    S(lipo)     H(rot)  DE(clash)    DE(int)     intcor
     17.58     -17.88       1.99        0.00      78.04       1.32       0.04       0.27       ----

> <Gold.Chemscore.Fitness>
17.5791

> <Gold.Chemscore.DG>
-17.8846

> <Gold.Chemscore.ZeroCoef>
-5.4800

> <Gold.Chemscore.Hbond>
1.9913

> <Gold.Chemscore.Metal>
0.0000

> <Gold.Chemscore.Lipo>
78.0432

> <Gold.Chemscore.Internal_Hbond>
0.0000

> <Gold.Chemscore.DEClash>
0.0352

> <Gold.Chemscore.DEInternal>
0.2702

> <Gold.Chemscore.Rot>
1.3193

> <Gold.Chemscore.Internal.Correction>
   9.000000E+99

> <Gold.Chemscore.Hbonds>
donor molecule, donor type, donor heavy atom, donor atom, acceptor molecule, acceptor atom, score
      L1  H    13    40       P1 10747  1.00
      P1  H  6896  6909       L1     1  0.97

> <Gold.Chemscore.Hbond.Weighted>
-6.6509

> <Gold.Chemscore.Metal.Weighted>
-0.0000

> <Gold.Chemscore.Lipo.Weighted>
-9.1311

> <Gold.Chemscore.Internal_Hbond.Weighted>
0.0000

> <Gold.Chemscore.DEClash.Weighted>
0.0352

> <Gold.Chemscore.DEInternal.Weighted>
0.2702

> <Gold.Chemscore.Rot.Weighted>
3.3774

> <Gold.Chemscore.Internal.Correction.Weighted>
   9.000000E+99

> <Gold.Protein.RotatedTorsions>
[ 6907 6896 6895 6894 ] final  -17.22 input  -60.11 | X-H torsion
[ 7974 7965 7964 7962 ] final -107.98 input  175.53 | X-H torsion
[ 8008 7997 7996 7995 ] final  -51.95 input   59.86 | X-H torsion
[ 10167 10162 10161 10158 ] final -146.91 input  -65.29 | X-H torsion
[ 10718 10713 10712 10709 ] final  -60.12 input   66.30 | X-H torsion
[ 10763 10752 10751 10750 ] final  168.25 input  -60.55 | X-H torsion
[ 11005 11000 10999 10996 ] final   21.05 input  -57.11 | X-H torsion

> <Gold.Protein.ActiveResidues>
 VAL166  LYS551  ARG553  GLY616  TRP617  ASP618  TYR619  PRO620  LYS621  CYS622 
 ASP623  PHE694  ASN695  SER759  ASP760  ASP761  ALA762  ILE779  LEU786  VAL792 
 PHE793  MET794  SER795  GLU796  ALA797  LYS798  CYS799  TRP800  GLU811  SER814 

> <Gold.Protein.RotatedAtoms>
  151.2967  135.0757  159.9223 H   0  0  0  0  0  0  0  0  0  0  0  0  # atno 6907 bound_to 6896
  152.5306  133.9876  159.7846 H   0  0  0  0  0  0  0  0  0  0  0  0  # atno 6908 bound_to 6896
  151.0155  133.5874  159.2708 H   0  0  0  0  0  0  0  0  0  0  0  0  # atno 6909 bound_to 6896
  145.1986  140.9046  143.3383 H   0  0  0  0  0  0  0  0  0  0  0  0  # atno 7974 bound_to 7965
  154.4095  140.1235  156.4912 H   0  0  0  0  0  0  0  0  0  0  0  0  # atno 8008 bound_to 7997
  155.6988  140.3495  155.4905 H   0  0  0  0  0  0  0  0  0  0  0  0  # atno 8009 bound_to 7997
  155.9404  140.1086  157.1050 H   0  0  0  0  0  0  0  0  0  0  0  0  # atno 8010 bound_to 7997
  139.7670  143.8294  152.2618 H   0  0  0  0  0  0  0  0  0  0  0  0  # atno 10167 bound_to 10162
  156.1013  130.4186  150.0810 H   0  0  0  0  0  0  0  0  0  0  0  0  # atno 10718 bound_to 10713
  154.3658  135.2753  155.2294 H   0  0  0  0  0  0  0  0  0  0  0  0  # atno 10763 bound_to 10752
  154.4463  135.5942  153.6165 H   0  0  0  0  0  0  0  0  0  0  0  0  # atno 10764 bound_to 10752
  152.9841  135.6031  154.3884 H   0  0  0  0  0  0  0  0  0  0  0  0  # atno 10765 bound_to 10752
  140.3958  134.1770  155.7663 H   0  0  0  0  0  0  0  0  0  0  0  0  # atno 11005 bound_to 11000
  144.9970  139.3634  143.6186 LP  0  0  0  0  0  0  0  0  0  0  0  0  # atno 17320 bound_to 7965
  146.3422  139.9177  142.8771 LP  0  0  0  0  0  0  0  0  0  0  0  0  # atno 17321 bound_to 7965
  139.8317  144.7251  150.9442 LP  0  0  0  0  0  0  0  0  0  0  0  0  # atno 17342 bound_to 10162
  140.7811  143.4064  151.1064 LP  0  0  0  0  0  0  0  0  0  0  0  0  # atno 17343 bound_to 10162
  156.8797  130.9552  151.3601 LP  0  0  0  0  0  0  0  0  0  0  0  0  # atno 17370 bound_to 10713
  157.6183  130.8635  149.9066 LP  0  0  0  0  0  0  0  0  0  0  0  0  # atno 17371 bound_to 10713
  141.1874  133.8281  157.1032 LP  0  0  0  0  0  0  0  0  0  0  0  0  # atno 17394 bound_to 11000
  140.0372  134.9872  157.0894 LP  0  0  0  0  0  0  0  0  0  0  0  0  # atno 17395 bound_to 11000

$$$$
