AV-unprocessed.smi:1896|AV-procd|sdf|7682|dock7
  -GOLD-   22720 9423D 1   1.00000     0.00000
 Structure written by MMmdl.
 47 48  0  0  0  0  0  0  0  0  2 V2000
  143.9123  132.8599  148.9986 C   0  0  0  0  0  0  0  0  0  0  0  0
  144.8466  132.4368  150.0962 C   0  0  0  0  0  0  0  0  0  0  0  0
  144.9496  131.1540  150.4007 N   0  0  0  0  0  0  0  0  0  0  0  0
  145.8432  131.1095  151.4090 N   0  0  0  0  0  0  0  0  0  0  0  0
  146.1960  129.8290  151.9909 C   0  0  0  0  0  0  0  0  0  0  0  0
  146.3064  132.3674  151.7420 C   0  0  0  0  0  0  0  0  0  0  0  0
  147.3049  132.5845  152.8330 C   0  0  0  0  0  0  0  0  0  0  0  0
  145.6794  133.2583  150.9119 C   0  0  0  0  0  0  0  0  0  0  0  0
  145.8203  134.7584  150.8628 C   0  0  0  0  0  0  0  0  0  0  0  0
  145.5015  135.3456  152.2373 C   0  0  0  0  0  0  0  0  0  0  0  0
  144.4005  135.1479  152.7507 O   0  0  0  0  0  0  0  0  0  0  0  0
  146.4722  136.0674  152.8203 N   0  0  0  0  0  0  0  0  0  0  0  0
  146.3614  136.7583  154.1024 C   0  0  0  0  0  0  0  0  0  0  0  0
  147.3108  137.9791  154.2205 C   0  0  2  0  0  0  0  0  0  0  0  0
  147.0756  138.9901  153.0749 C   0  0  0  0  0  0  0  0  0  0  0  0
  148.7327  137.5274  154.2573 N   0  3  0  0  0  0  0  0  0  0  0  0
  149.7530  138.5984  154.2991 C   0  0  0  0  0  0  0  0  0  0  0  0
  151.0159  137.9219  154.8185 C   0  0  0  0  0  0  0  0  0  0  0  0
  150.4765  136.9385  155.8500 C   0  0  0  0  0  0  0  0  0  0  0  0
  149.0691  136.5812  155.3522 C   0  0  0  0  0  0  0  0  0  0  0  0
  143.0362  133.3630  149.4074 H   0  0  0  0  0  0  0  0  0  0  0  0
  143.5632  132.0078  148.4141 H   0  0  0  0  0  0  0  0  0  0  0  0
  144.4022  133.5500  148.3120 H   0  0  0  0  0  0  0  0  0  0  0  0
  147.2329  129.5925  151.7521 H   0  0  0  0  0  0  0  0  0  0  0  0
  145.5533  129.0387  151.6008 H   0  0  0  0  0  0  0  0  0  0  0  0
  146.0801  129.8715  153.0741 H   0  0  0  0  0  0  0  0  0  0  0  0
  147.5559  133.6399  152.9366 H   0  0  0  0  0  0  0  0  0  0  0  0
  148.2269  132.0403  152.6287 H   0  0  0  0  0  0  0  0  0  0  0  0
  146.9129  132.2413  153.7906 H   0  0  0  0  0  0  0  0  0  0  0  0
  146.8299  135.0543  150.5755 H   0  0  0  0  0  0  0  0  0  0  0  0
  145.1577  135.2003  150.1177 H   0  0  0  0  0  0  0  0  0  0  0  0
  147.3432  136.1725  152.3197 H   0  0  0  0  0  0  0  0  0  0  0  0
  145.3207  137.0697  154.1865 H   0  0  0  0  0  0  0  0  0  0  0  0
  146.5322  136.0687  154.9311 H   0  0  0  0  0  0  0  0  0  0  0  0
  147.1011  138.4901  155.1618 H   0  0  0  0  0  0  0  0  0  0  0  0
  146.0467  139.3476  153.0577 H   0  0  0  0  0  0  0  0  0  0  0  0
  147.2862  138.5422  152.1033 H   0  0  0  0  0  0  0  0  0  0  0  0
  147.6961  139.8800  153.1757 H   0  0  0  0  0  0  0  0  0  0  0  0
  149.9097  139.0532  153.3205 H   0  0  0  0  0  0  0  0  0  0  0  0
  149.4413  139.3793  154.9952 H   0  0  0  0  0  0  0  0  0  0  0  0
  151.5068  137.3799  154.0089 H   0  0  0  0  0  0  0  0  0  0  0  0
  151.7346  138.6270  155.2375 H   0  0  0  0  0  0  0  0  0  0  0  0
  151.1164  136.0630  155.9652 H   0  0  0  0  0  0  0  0  0  0  0  0
  150.4081  137.4284  156.8224 H   0  0  0  0  0  0  0  0  0  0  0  0
  148.3615  136.6512  156.1798 H   0  0  0  0  0  0  0  0  0  0  0  0
  149.0315  135.5614  154.9678 H   0  0  0  0  0  0  0  0  0  0  0  0
  148.9027  137.0258  153.3971 H   0  0  0  0  0  0  0  0  0  0  0  0
  1  2  1  0  0  0  0
  1 21  1  0  0  0  0
  1 22  1  0  0  0  0
  1 23  1  0  0  0  0
  2  8  1  0  0  0  0
  2  3  2  0  0  0  0
  3  4  1  0  0  0  0
  4  5  1  0  0  0  0
  4  6  1  0  0  0  0
  5 24  1  0  0  0  0
  5 25  1  0  0  0  0
  5 26  1  0  0  0  0
  6  7  1  0  0  0  0
  6  8  2  0  0  0  0
  7 27  1  0  0  0  0
  7 28  1  0  0  0  0
  7 29  1  0  0  0  0
  8  9  1  0  0  0  0
  9 10  1  0  0  0  0
  9 30  1  0  0  0  0
  9 31  1  0  0  0  0
 10 11  2  0  0  0  0
 10 12  1  0  0  0  0
 12 13  1  0  0  0  0
 12 32  1  0  0  0  0
 13 14  1  0  0  0  0
 13 33  1  0  0  0  0
 13 34  1  0  0  0  0
 14 15  1  0  0  0  0
 14 16  1  0  0  0  0
 14 35  1  0  0  0  0
 15 36  1  0  0  0  0
 15 37  1  0  0  0  0
 15 38  1  0  0  0  0
 16 20  1  0  0  0  0
 16 17  1  0  0  0  0
 16 47  1  0  0  0  0
 17 18  1  0  0  0  0
 17 39  1  0  0  0  0
 17 40  1  0  0  0  0
 18 19  1  0  0  0  0
 18 41  1  0  0  0  0
 18 42  1  0  0  0  0
 19 20  1  0  0  0  0
 19 43  1  0  0  0  0
 19 44  1  0  0  0  0
 20 45  1  0  0  0  0
 20 46  1  0  0  0  0
M  CHG  1  16   1
M  END
> <s_m_source_file>
AV-unprocessed.smi

> <i_m_source_file_index>
1896

> <i_lp_mmshare_version>
43012

> <i_f3d_flags>
0

> <s_epik_input>
W0NIM11jMW5uKFtDSDNdKWMoW0NIM10pYzFbQ0gyXUMoPU8pW05IXVtDSDJdW0NASF0oW0NIM10pTjJbQ0gyXVtDSDJdW0NIMl1bQ0gyXTI=

> <s_epik_cmdline>
J2VwaWtfcHl0aG9uJywgJy1waCcsICc3LjAnLCAnLXRuJywgJzgnLCAnLW1hJywgJzIwMCcsICctbWV0YWxfYmluZGluZycsICctaW1hZScsICc8aW5maWxlLm1hZT4nLCAnLW9tYWUnLCAnPG91dGZpbGUubWFlPic=

> <r_lp_tautomer_probability>
1

> <r_epik_Ionization_Penalty>
0.00723064

> <r_epik_Ionization_Penalty_Charging>
0.0050435

> <r_epik_Ionization_Penalty_Neutral>
0.00218714

> <r_epik_State_Penalty>
-0

> <r_epik_Charging_Adjusted_Penalty>
0.0050435

> <i_epik_Tot_Q>
1

> <i_epik_Tot_abs_Q>
1

> <r_epik_Metal_State_Penalty>
-0

> <b_epik_Metal_Only>
0

> <s_lp_Force_Field>
OPLS_2005

> <r_lp_Energy>
25.1325

> <b_lp_Chiralities_Consistent>
1

> <s_lp_Variant>
AV-unprocessed.smi:1896-1

> <Gold.Version>
5.8.1

> <Gold.Id.Protein>
6NUR|6NUR_protein|mol2

> <Gold.PLP.Fitness>
43.8818

> <Gold.PLP.PLP>
-35.2875

> <Gold.PLP.part.hbond>
-2.6766

> <Gold.PLP.part.metal>
0.0000

> <Gold.PLP.part.buried>
-3.0129

> <Gold.PLP.part.nonpolar>
-29.6196

> <Gold.PLP.part.repulsive>
0.1956

> <Gold.PLP.ligand.clash>
0.0000

> <Gold.PLP.ligand.torsion>
0.2309

> <Gold.PLP.Chemscore.Hbond>
3.0000

> <Gold.PLP.Chemscore.CHOScore>
0.0000

> <Gold.PLP.Chemscore.Metal>
0.0000

> <Gold.Chemscore.Hbonds>
donor molecule, donor type, donor heavy atom, donor atom, acceptor molecule, acceptor atom, score
      L1  H    12    32       P1  7948  1.00
      L1  H    16    47       P1  7948  2.00

> <Gold.PLP.Chemscore.Internal.Correction>
0.0561

> <Gold.Rescore>
     Score         DG    S(hbond)    S(metal)    S(lipo)     H(rot)  DE(clash)    DE(int)     intcor
     18.25     -18.54       2.00        0.00      90.75       1.65       0.05       0.25       ----

> <Gold.Chemscore.Fitness>
18.2479

> <Gold.Chemscore.DG>
-18.5446

> <Gold.Chemscore.ZeroCoef>
-5.4800

> <Gold.Chemscore.Hbond>
1.9968

> <Gold.Chemscore.Metal>
0.0000

> <Gold.Chemscore.Lipo>
90.7524

> <Gold.Chemscore.Internal_Hbond>
0.0000

> <Gold.Chemscore.DEClash>
0.0452

> <Gold.Chemscore.DEInternal>
0.2515

> <Gold.Chemscore.Rot>
1.6495

> <Gold.Chemscore.Internal.Correction>
   9.000000E+99

> <Gold.Chemscore.Hbonds>
donor molecule, donor type, donor heavy atom, donor atom, acceptor molecule, acceptor atom, score
      L1  H    12    32       P1  7948  1.00
      L1  H    16    47       P1  7948  1.00

> <Gold.Chemscore.Hbond.Weighted>
-6.6693

> <Gold.Chemscore.Metal.Weighted>
-0.0000

> <Gold.Chemscore.Lipo.Weighted>
-10.6180

> <Gold.Chemscore.Internal_Hbond.Weighted>
0.0000

> <Gold.Chemscore.DEClash.Weighted>
0.0452

> <Gold.Chemscore.DEInternal.Weighted>
0.2515

> <Gold.Chemscore.Rot.Weighted>
4.2227

> <Gold.Chemscore.Internal.Correction.Weighted>
   9.000000E+99

> <Gold.Protein.RotatedTorsions>
[ 6907 6896 6895 6894 ] final  157.94 input  -60.11 | X-H torsion
[ 7974 7965 7964 7962 ] final -112.62 input  175.53 | X-H torsion
[ 8008 7997 7996 7995 ] final  -98.95 input   59.86 | X-H torsion
[ 10167 10162 10161 10158 ] final  131.83 input  -65.29 | X-H torsion
[ 10718 10713 10712 10709 ] final  -45.81 input   66.30 | X-H torsion
[ 10763 10752 10751 10750 ] final  -69.44 input  -60.55 | X-H torsion
[ 11005 11000 10999 10996 ] final -179.71 input  -57.11 | X-H torsion

> <Gold.Protein.ActiveResidues>
 VAL166  LYS551  ARG553  GLY616  TRP617  ASP618  TYR619  PRO620  LYS621  CYS622 
 ASP623  PHE694  ASN695  SER759  ASP760  ASP761  ALA762  ILE779  LEU786  VAL792 
 PHE793  MET794  SER795  GLU796  ALA797  LYS798  CYS799  TRP800  GLU811  SER814 

> <Gold.Protein.RotatedAtoms>
  152.0077  133.3849  159.4206 H   0  0  0  0  0  0  0  0  0  0  0  0  # atno 6907 bound_to 6896
  150.6903  134.3765  159.5024 H   0  0  0  0  0  0  0  0  0  0  0  0  # atno 6908 bound_to 6896
  152.1521  134.8979  160.0598 H   0  0  0  0  0  0  0  0  0  0  0  0  # atno 6909 bound_to 6896
  145.1418  140.8782  143.3697 H   0  0  0  0  0  0  0  0  0  0  0  0  # atno 7974 bound_to 7965
  154.8082  140.0451  157.1323 H   0  0  0  0  0  0  0  0  0  0  0  0  # atno 8008 bound_to 7997
  154.9399  140.3051  155.5106 H   0  0  0  0  0  0  0  0  0  0  0  0  # atno 8009 bound_to 7997
  156.2969  140.2307  156.4467 H   0  0  0  0  0  0  0  0  0  0  0  0  # atno 8010 bound_to 7997
  139.5366  144.6689  151.4764 H   0  0  0  0  0  0  0  0  0  0  0  0  # atno 10167 bound_to 10162
  156.2246  130.4168  149.8950 H   0  0  0  0  0  0  0  0  0  0  0  0  # atno 10718 bound_to 10713
  154.4035  135.6025  153.5911 H   0  0  0  0  0  0  0  0  0  0  0  0  # atno 10763 bound_to 10752
  152.9788  135.5912  154.4156 H   0  0  0  0  0  0  0  0  0  0  0  0  # atno 10764 bound_to 10752
  154.3958  135.2842  155.2105 H   0  0  0  0  0  0  0  0  0  0  0  0  # atno 10765 bound_to 10752
  140.4157  134.6652  157.4637 H   0  0  0  0  0  0  0  0  0  0  0  0  # atno 11005 bound_to 11000
  145.0524  139.3171  143.5922 LP  0  0  0  0  0  0  0  0  0  0  0  0  # atno 17320 bound_to 7965
  146.3504  139.9937  142.8683 LP  0  0  0  0  0  0  0  0  0  0  0  0  # atno 17321 bound_to 7965
  140.6576  143.8567  150.6852 LP  0  0  0  0  0  0  0  0  0  0  0  0  # atno 17342 bound_to 10162
  140.1951  143.4005  152.1834 LP  0  0  0  0  0  0  0  0  0  0  0  0  # atno 17343 bound_to 10162
  156.6585  130.8772  151.3543 LP  0  0  0  0  0  0  0  0  0  0  0  0  # atno 17370 bound_to 10713
  157.7104  130.9434  150.1070 LP  0  0  0  0  0  0  0  0  0  0  0  0  # atno 17371 bound_to 10713
  140.0236  134.6510  155.9205 LP  0  0  0  0  0  0  0  0  0  0  0  0  # atno 17394 bound_to 11000
  141.1804  133.6545  156.4996 LP  0  0  0  0  0  0  0  0  0  0  0  0  # atno 17395 bound_to 11000

$$$$
