#       Name:                AV-unprocessed.smi:596
#       Creating user name   scv26
#       Creation time:       Thu Mar 26 23:52:55 2020


#       File generated by GOLD software.
#

@<TRIPOS>MOLECULE
AV-unprocessed.smi:596
    47    48     1
SMALL
NO_CHARGES


@<TRIPOS>ATOM
      1 ****         0.6496   2.8330   1.1297 O.2            1 S1                 0.0000
      2 ****         1.2050   2.1344   0.2827 C.2            1 S1                 0.0000
      3 ****         2.6792   2.4119  -0.0603 C.3            1 S1                 0.0000
      4 ****         3.2436   1.5574  -1.1210 N.am           1 S1                 0.0000
      5 ****         3.8769   0.3676  -0.7105 C.2            1 S1                 0.0000
      6 ****         4.4215  -0.4944  -1.5912 C.2            1 S1                 0.0000
      7 ****         5.0564  -1.7176  -1.1522 N.pl3          1 S1                 1.0000
      8 ****         5.5025  -2.4853  -1.9986 O.2            1 S1                 0.0000
      9 ****         5.1287  -1.9524   0.0504 O.2            1 S1                -1.0000
     10 ****         4.3427  -0.1587  -2.9996 C.2            1 S1                 0.0000
     11 ****         3.7346   0.9756  -3.3990 C.2            1 S1                 0.0000
     12 ****         3.1343   1.9077  -2.4392 C.2            1 S1                 0.0000
     13 ****         2.5631   2.9369  -2.7988 O.2            1 S1                 0.0000
     14 ****         0.5780   1.1302  -0.3540 N.am           1 S1                 0.0000
     15 ****        -0.8055   0.7273  -0.1357 C.3            1 S1                 0.0000
     16 ****        -0.9382  -0.1761   1.1025 C.3            1 S1                 0.0000
     17 ****        -2.3708  -0.6120   1.3599 C.2            1 S1                 0.0000
     18 ****        -3.0624  -0.1880   2.4357 C.2            1 S1                 0.0000
     19 ****        -4.5002  -0.5762   2.7336 C.3            1 S1                 0.0000
     20 ****        -5.1967  -1.2203   1.5232 C.3            1 S1                 0.0000
     21 ****        -4.2748  -2.2278   0.8252 C.3            1 S1                 0.0000
     22 ****        -2.9821  -1.5549   0.3293 C.3            1 S1                 0.0000
     23 ****         2.7787   3.4662  -0.3238 H              1 S1                 0.0000
     24 ****         3.2628   2.2992   0.8545 H              1 S1                 0.0000
     25 ****         3.8756   0.2066   0.3581 H              1 S1                 0.0000
     26 ****         4.7710  -0.8136  -3.7442 H              1 S1                 0.0000
     27 ****         3.6870   1.2062  -4.4532 H              1 S1                 0.0000
     28 ****         1.1013   0.6028  -1.0377 H              1 S1                 0.0000
     29 ****        -1.4432   1.6077  -0.0382 H              1 S1                 0.0000
     30 ****        -1.1392   0.1988  -1.0288 H              1 S1                 0.0000
     31 ****        -0.3176  -1.0657   0.9887 H              1 S1                 0.0000
     32 ****        -0.5612   0.3490   1.9813 H              1 S1                 0.0000
     33 ****        -2.5903   0.4655   3.1549 H              1 S1                 0.0000
     34 ****        -4.4944  -1.2675   3.5768 H              1 S1                 0.0000
     35 ****        -5.0532   0.3079   3.0517 H              1 S1                 0.0000
     36 ****        -6.1211  -1.7045   1.8392 H              1 S1                 0.0000
     37 ****        -5.4821  -0.4447   0.8110 H              1 S1                 0.0000
     38 ****        -4.0239  -3.0266   1.5246 H              1 S1                 0.0000
     39 ****        -4.7922  -2.7005  -0.0099 H              1 S1                 0.0000
     40 ****        -3.1902  -0.9830  -0.5755 H              1 S1                 0.0000
     41 ****        -2.2550  -2.3212   0.0585 H              1 S1                 0.0000
     42 ****         1.1558   3.5669   1.5826 LP             1 S1                 0.0000
     43 ****        -0.3079   2.6669   1.3651 LP             1 S1                 0.0000
     44 ****         5.4233  -2.2598  -2.9696 LP             1 S1                 0.0000
     45 ****         5.9455  -3.3367  -1.7176 LP             1 S1                 0.0000
     46 ****         2.1599   3.5488  -2.1184 LP             1 S1                 0.0000
     47 ****         2.5023   3.1612  -3.7714 LP             1 S1                 0.0000
@<TRIPOS>BOND
    1    1    2 2     
    2    2    3 1     
    3    2   14 am    
    4    3    4 1     
    5    3   23 1     
    6    3   24 1     
    7    4   12 am    
    8    4    5 1     
    9    5    6 2     
   10    5   25 1     
   11    6    7 1     
   12    6   10 1     
   13    7    8 2     
   14    7    9 1     
   15   10   11 2     
   16   10   26 1     
   17   11   12 1     
   18   11   27 1     
   19   12   13 2     
   20   14   15 1     
   21   14   28 1     
   22   15   16 1     
   23   15   29 1     
   24   15   30 1     
   25   16   17 1     
   26   16   31 1     
   27   16   32 1     
   28   17   22 1     
   29   17   18 2     
   30   18   19 1     
   31   18   33 1     
   32   19   20 1     
   33   19   34 1     
   34   19   35 1     
   35   20   21 1     
   36   20   36 1     
   37   20   37 1     
   38   21   22 1     
   39   21   38 1     
   40   21   39 1     
   41   22   40 1     
   42   22   41 1     
   43    1   42 1     
   44    1   43 1     
   45    8   44 1     
   46    8   45 1     
   47   13   46 1     
   48   13   47 1     
@<TRIPOS>SUBSTRUCTURE
      1 S1             1
@<TRIPOS>SET
LONE_PAIRS      STATIC     ATOMS    <user>   **** ""
7 42 43 44 45 9 46 47
DONOR_HYDROGENS      STATIC     ATOMS    <user>   **** ""
1 28
ATOM$BLUE        STATIC     ATOMS    COLORGROUP SYSTEM
7 42 43 44 45 9 46 47
ATOM$RED        STATIC     ATOMS    COLORGROUP SYSTEM
1 28
