AV-unprocessed.smi:678|AV-procd|sdf|3314|dock5
  -GOLD-   22720 0283D 1   1.00000     0.00000
 Structure written by MMmdl.
 51 52  0  0  0  0  0  0  0  0  2 V2000
  151.0246  142.0092  156.4054 C   0  0  0  0  0  0  0  0  0  0  0  0
  150.3967  140.8700  155.6214 C   0  0  0  0  0  0  0  0  0  0  0  0
  149.2045  141.0138  155.0029 C   0  0  0  0  0  0  0  0  0  0  0  0
  148.6060  139.9221  154.2737 C   0  0  0  0  0  0  0  0  0  0  0  0
  149.2625  138.7541  154.2291 C   0  0  0  0  0  0  0  0  0  0  0  0
  150.5056  138.5773  154.8644 N   0  0  0  0  0  0  0  0  0  0  0  0
  151.1326  137.2491  154.7544 C   0  0  0  0  0  0  0  0  0  0  0  0
  150.2415  136.1362  155.3204 C   0  0  0  0  0  0  0  0  0  0  0  0
  150.3875  135.7498  156.4803 O   0  0  0  0  0  0  0  0  0  0  0  0
  149.3298  135.6229  154.4811 N   0  0  0  0  0  0  0  0  0  0  0  0
  148.4540  134.4919  154.7694 C   0  0  0  0  0  0  0  0  0  0  0  0
  147.0711  134.6600  154.1109 C   0  0  1  0  0  0  0  0  0  0  0  0
  146.1222  133.4586  154.3475 C   0  0  0  0  0  0  0  0  0  0  0  0
  144.7654  133.7067  153.7972 N   0  3  2  0  0  0  0  0  0  0  0  0
  144.6551  133.5284  152.3239 C   0  0  0  0  0  0  0  0  0  0  0  0
  145.6733  132.5076  151.7714 C   0  0  0  0  0  0  0  0  0  0  0  0
  147.0177  133.1881  151.4752 C   0  0  0  0  0  0  0  0  0  0  0  0
  145.1437  131.7899  150.5194 C   0  0  0  0  0  0  0  0  0  0  0  0
  144.2332  135.0005  154.2882 C   0  0  0  0  0  0  0  0  0  0  0  0
  145.2298  136.1443  154.0341 C   0  0  0  0  0  0  0  0  0  0  0  0
  146.4721  135.8322  154.6526 O   0  0  0  0  0  0  0  0  0  0  0  0
  151.1187  139.5852  155.5614 C   0  0  0  0  0  0  0  0  0  0  0  0
  152.2117  139.4168  156.1068 O   0  0  0  0  0  0  0  0  0  0  0  0
  150.4473  142.9285  156.3015 H   0  0  0  0  0  0  0  0  0  0  0  0
  152.0379  142.2080  156.0541 H   0  0  0  0  0  0  0  0  0  0  0  0
  151.0694  141.7591  157.4654 H   0  0  0  0  0  0  0  0  0  0  0  0
  148.6801  141.9568  155.0564 H   0  0  0  0  0  0  0  0  0  0  0  0
  147.6517  140.0412  153.7818 H   0  0  0  0  0  0  0  0  0  0  0  0
  148.8789  137.8867  153.7118 H   0  0  0  0  0  0  0  0  0  0  0  0
  151.3603  137.0053  153.7160 H   0  0  0  0  0  0  0  0  0  0  0  0
  152.0974  137.2551  155.2662 H   0  0  0  0  0  0  0  0  0  0  0  0
  149.2711  136.0161  153.5527 H   0  0  0  0  0  0  0  0  0  0  0  0
  148.9133  133.5471  154.4735 H   0  0  0  0  0  0  0  0  0  0  0  0
  148.3352  134.4460  155.8522 H   0  0  0  0  0  0  0  0  0  0  0  0
  147.2255  134.8143  153.0420 H   0  0  0  0  0  0  0  0  0  0  0  0
  146.5355  132.5444  153.9261 H   0  0  0  0  0  0  0  0  0  0  0  0
  146.0254  133.2812  155.4193 H   0  0  0  0  0  0  0  0  0  0  0  0
  143.6528  133.1812  152.0687 H   0  0  0  0  0  0  0  0  0  0  0  0
  144.7713  134.4899  151.8240 H   0  0  0  0  0  0  0  0  0  0  0  0
  145.8663  131.7483  152.5273 H   0  0  0  0  0  0  0  0  0  0  0  0
  146.9096  133.9738  150.7267 H   0  0  0  0  0  0  0  0  0  0  0  0
  147.7489  132.4710  151.1009 H   0  0  0  0  0  0  0  0  0  0  0  0
  147.4359  133.6393  152.3757 H   0  0  0  0  0  0  0  0  0  0  0  0
  144.9377  132.4951  149.7136 H   0  0  0  0  0  0  0  0  0  0  0  0
  144.2225  131.2467  150.7306 H   0  0  0  0  0  0  0  0  0  0  0  0
  145.8690  131.0652  150.1482 H   0  0  0  0  0  0  0  0  0  0  0  0
  143.2649  135.2182  153.8360 H   0  0  0  0  0  0  0  0  0  0  0  0
  144.0555  134.9121  155.3606 H   0  0  0  0  0  0  0  0  0  0  0  0
  145.3692  136.3202  152.9663 H   0  0  0  0  0  0  0  0  0  0  0  0
  144.8493  137.0725  154.4606 H   0  0  0  0  0  0  0  0  0  0  0  0
  144.1611  132.9982  154.1888 H   0  0  0  0  0  0  0  0  0  0  0  0
  1  2  1  0  0  0  0
  1 24  1  0  0  0  0
  1 25  1  0  0  0  0
  1 26  1  0  0  0  0
  2 22  1  0  0  0  0
  2  3  2  0  0  0  0
  3  4  1  0  0  0  0
  3 27  1  0  0  0  0
  4  5  2  0  0  0  0
  4 28  1  0  0  0  0
  5  6  1  0  0  0  0
  5 29  1  0  0  0  0
  6  7  1  0  0  0  0
  6 22  1  0  0  0  0
  7  8  1  0  0  0  0
  7 30  1  0  0  0  0
  7 31  1  0  0  0  0
  8  9  2  0  0  0  0
  8 10  1  0  0  0  0
 10 11  1  0  0  0  0
 10 32  1  0  0  0  0
 11 12  1  0  0  0  0
 11 33  1  0  0  0  0
 11 34  1  0  0  0  0
 12 21  1  0  0  0  0
 12 13  1  0  0  0  0
 12 35  1  0  0  0  0
 13 14  1  0  0  0  0
 13 36  1  0  0  0  0
 13 37  1  0  0  0  0
 14 15  1  0  0  0  0
 14 19  1  0  0  0  0
 14 51  1  0  0  0  0
 15 16  1  0  0  0  0
 15 38  1  0  0  0  0
 15 39  1  0  0  0  0
 16 17  1  0  0  0  0
 16 18  1  0  0  0  0
 16 40  1  0  0  0  0
 17 41  1  0  0  0  0
 17 42  1  0  0  0  0
 17 43  1  0  0  0  0
 18 44  1  0  0  0  0
 18 45  1  0  0  0  0
 18 46  1  0  0  0  0
 19 20  1  0  0  0  0
 19 47  1  0  0  0  0
 19 48  1  0  0  0  0
 20 21  1  0  0  0  0
 20 49  1  0  0  0  0
 20 50  1  0  0  0  0
 22 23  2  0  0  0  0
M  CHG  1  14   1
M  END
> <s_m_source_file>
AV-unprocessed.smi

> <i_m_source_file_index>
678

> <i_lp_mmshare_version>
43012

> <i_f3d_flags>
0

> <s_epik_input>
W0NIM11jMVtjSF1bY0hdW2NIXW4oYzE9TylbQ0gyXUMoPU8pW05IXVtDSDJdW0NAQEhdMltDSDJdTihbQ0gyXVtDSDJdTzIpW0NIMl1bQ0hdKFtDSDNdKVtDSDNd

> <s_epik_cmdline>
J2VwaWtfcHl0aG9uJywgJy1waCcsICc3LjAnLCAnLXRuJywgJzgnLCAnLW1hJywgJzIwMCcsICctbWV0YWxfYmluZGluZycsICctaW1hZScsICc8aW5maWxlLm1hZT4nLCAnLW9tYWUnLCAnPG91dGZpbGUubWFlPic=

> <r_lp_tautomer_probability>
1

> <r_epik_Ionization_Penalty>
0.0975937

> <r_epik_Ionization_Penalty_Charging>
0.0975937

> <r_epik_Ionization_Penalty_Neutral>
6.27044e-08

> <r_epik_State_Penalty>
0.0877056

> <r_epik_Charging_Adjusted_Penalty>
0.185299

> <i_epik_Tot_Q>
1

> <i_epik_Tot_abs_Q>
1

> <r_epik_Metal_State_Penalty>
0.0877109

> <b_epik_Metal_Only>
0

> <s_lp_Force_Field>
OPLS_2005

> <r_lp_Energy>
27.4135

> <b_lp_Chiralities_Consistent>
1

> <s_lp_Variant>
AV-unprocessed.smi:678-2

> <Gold.Version>
5.8.1

> <Gold.Id.Protein>
6NUR|6NUR_protein|mol2

> <Gold.PLP.Fitness>
46.8693

> <Gold.PLP.PLP>
-35.4585

> <Gold.PLP.part.hbond>
-2.3778

> <Gold.PLP.part.metal>
0.0000

> <Gold.PLP.part.buried>
-4.4548

> <Gold.PLP.part.nonpolar>
-29.0956

> <Gold.PLP.part.repulsive>
0.1019

> <Gold.PLP.ligand.clash>
0.0000

> <Gold.PLP.ligand.torsion>
1.1886

> <Gold.PLP.Chemscore.Hbond>
3.5513

> <Gold.PLP.Chemscore.CHOScore>
1.0000

> <Gold.PLP.Chemscore.Metal>
0.0000

> <Gold.Chemscore.Hbonds>
donor molecule, donor type, donor heavy atom, donor atom, acceptor molecule, acceptor atom, score
      L1  H    10    32       P1  7948  1.00
      L1  H    14    51       P1 10957  2.00
      P1  H  7997  8010       L1    23  0.46
      L1  C     5    29       P1  7948  1.00

> <Gold.PLP.Chemscore.Internal.Correction>
0.1342

> <Gold.Rescore>
     Score         DG    S(hbond)    S(metal)    S(lipo)     H(rot)  DE(clash)    DE(int)     intcor
     17.33     -18.68       2.66        0.00      78.06       1.89       0.22       1.13       ----

> <Gold.Chemscore.Fitness>
17.3323

> <Gold.Chemscore.DG>
-18.6820

> <Gold.Chemscore.ZeroCoef>
-5.4800

> <Gold.Chemscore.Hbond>
2.6646

> <Gold.Chemscore.Metal>
0.0000

> <Gold.Chemscore.Lipo>
78.0616

> <Gold.Chemscore.Internal_Hbond>
0.0000

> <Gold.Chemscore.DEClash>
0.2154

> <Gold.Chemscore.DEInternal>
1.1343

> <Gold.Chemscore.Rot>
1.8871

> <Gold.Chemscore.Internal.Correction>
   9.000000E+99

> <Gold.Chemscore.Hbonds>
donor molecule, donor type, donor heavy atom, donor atom, acceptor molecule, acceptor atom, score
      L1  H    10    32       P1  7948  0.74
      L1  H    14    51       P1 10957  0.92
      P1  H  7997  8010       L1    23  0.46

> <Gold.Chemscore.Hbond.Weighted>
-8.8997

> <Gold.Chemscore.Metal.Weighted>
-0.0000

> <Gold.Chemscore.Lipo.Weighted>
-9.1332

> <Gold.Chemscore.Internal_Hbond.Weighted>
0.0000

> <Gold.Chemscore.DEClash.Weighted>
0.2154

> <Gold.Chemscore.DEInternal.Weighted>
1.1343

> <Gold.Chemscore.Rot.Weighted>
4.8309

> <Gold.Chemscore.Internal.Correction.Weighted>
   9.000000E+99

> <Gold.Protein.RotatedTorsions>
[ 6907 6896 6895 6894 ] final  -46.69 input  -60.11 | X-H torsion
[ 7974 7965 7964 7962 ] final  162.93 input  175.53 | X-H torsion
[ 8008 7997 7996 7995 ] final   81.59 input   59.86 | X-H torsion
[ 10167 10162 10161 10158 ] final   32.30 input  -65.29 | X-H torsion
[ 10718 10713 10712 10709 ] final -105.52 input   66.30 | X-H torsion
[ 10763 10752 10751 10750 ] final -140.24 input  -60.55 | X-H torsion
[ 11005 11000 10999 10996 ] final   55.37 input  -57.11 | X-H torsion

> <Gold.Protein.ActiveResidues>
 VAL166  LYS551  ARG553  GLY616  TRP617  ASP618  TYR619  PRO620  LYS621  CYS622 
 ASP623  PHE694  ASN695  SER759  ASP760  ASP761  ALA762  ILE779  LEU786  VAL792 
 PHE793  MET794  SER795  GLU796  ALA797  LYS798  CYS799  TRP800  GLU811  SER814 

> <Gold.Protein.RotatedAtoms>
  150.9086  134.8502  159.7409 H   0  0  0  0  0  0  0  0  0  0  0  0  # atno 6907 bound_to 6896
  152.4932  134.4393  159.9548 H   0  0  0  0  0  0  0  0  0  0  0  0  # atno 6908 bound_to 6896
  151.4438  133.3597  159.2820 H   0  0  0  0  0  0  0  0  0  0  0  0  # atno 6909 bound_to 6896
  144.7613  139.8110  143.6331 H   0  0  0  0  0  0  0  0  0  0  0  0  # atno 7974 bound_to 7965
  155.8992  140.3434  155.6013 H   0  0  0  0  0  0  0  0  0  0  0  0  # atno 8008 bound_to 7997
  155.7520  140.0821  157.2215 H   0  0  0  0  0  0  0  0  0  0  0  0  # atno 8009 bound_to 7997
  154.4042  140.1551  156.2722 H   0  0  0  0  0  0  0  0  0  0  0  0  # atno 8010 bound_to 7997
  140.4510  144.1047  150.6192 H   0  0  0  0  0  0  0  0  0  0  0  0  # atno 10167 bound_to 10162
  156.0349  130.5567  150.7550 H   0  0  0  0  0  0  0  0  0  0  0  0  # atno 10718 bound_to 10713
  154.8585  135.3559  154.5675 H   0  0  0  0  0  0  0  0  0  0  0  0  # atno 10763 bound_to 10752
  153.6289  135.7003  153.5287 H   0  0  0  0  0  0  0  0  0  0  0  0  # atno 10764 bound_to 10752
  153.3066  135.4190  155.1259 H   0  0  0  0  0  0  0  0  0  0  0  0  # atno 10765 bound_to 10752
  140.0612  134.5600  155.9150 H   0  0  0  0  0  0  0  0  0  0  0  0  # atno 11005 bound_to 11000
  146.1679  139.4818  142.9946 LP  0  0  0  0  0  0  0  0  0  0  0  0  # atno 17320 bound_to 7965
  145.6609  141.0240  143.1709 LP  0  0  0  0  0  0  0  0  0  0  0  0  # atno 17321 bound_to 7965
  140.4207  143.2613  151.9719 LP  0  0  0  0  0  0  0  0  0  0  0  0  # atno 17342 bound_to 10162
  139.4797  144.5834  151.7895 LP  0  0  0  0  0  0  0  0  0  0  0  0  # atno 17343 bound_to 10162
  157.5085  131.0924  151.0228 LP  0  0  0  0  0  0  0  0  0  0  0  0  # atno 17370 bound_to 10713
  157.0590  130.5817  149.5382 LP  0  0  0  0  0  0  0  0  0  0  0  0  # atno 17371 bound_to 10713
  141.1974  133.6596  156.5738 LP  0  0  0  0  0  0  0  0  0  0  0  0  # atno 17394 bound_to 11000
  140.3767  134.7558  157.4635 LP  0  0  0  0  0  0  0  0  0  0  0  0  # atno 17395 bound_to 11000

$$$$
