AV-unprocessed.smi:1410|AV-procd|sdf|5736|dock5
  -GOLD-   22720 5373D 1   1.00000     0.00000
 Structure written by MMmdl.
 39 40  0  0  0  0  0  0  0  0  3 V2000
  149.5055  135.0214  157.7723 N   0  5  0  0  0  0  0  0  0  0  0  0
  150.3594  135.1730  156.7420 C   0  0  0  0  0  0  0  0  0  0  0  0
  151.5823  135.2883  156.7839 O   0  0  0  0  0  0  0  0  0  0  0  0
  149.6413  135.2205  155.3896 C   0  0  0  0  0  0  0  0  0  0  0  0
  149.7891  136.5625  154.7719 N   0  3  2  0  0  0  0  0  0  0  0  0
  151.2086  136.9780  154.6055 C   0  0  0  0  0  0  0  0  0  0  0  0
  151.3128  138.3169  153.8550 C   0  0  0  0  0  0  0  0  0  0  0  0
  150.5037  139.4299  154.5488 C   0  0  2  0  0  0  0  0  0  0  0  0
  151.1057  139.8235  155.8224 N   0  0  0  0  0  0  0  0  0  0  0  0
  151.0484  141.0500  156.3617 C   0  0  0  0  0  0  0  0  0  0  0  0
  150.4600  141.9937  155.8347 O   0  0  0  0  0  0  0  0  0  0  0  0
  151.7293  141.1016  157.5197 N   0  0  0  0  0  0  0  0  0  0  0  0
  151.9382  142.2130  158.3810 C   0  0  0  0  0  0  0  0  0  0  0  0
  151.7557  143.5029  157.8409 C   0  0  0  0  0  0  0  0  0  0  0  0
  151.9689  144.6227  158.6693 C   0  0  0  0  0  0  0  0  0  0  0  0
  152.3502  144.5282  159.9603 N   0  0  0  0  0  0  0  0  0  0  0  0
  152.5384  143.2933  160.4717 C   0  0  0  0  0  0  0  0  0  0  0  0
  152.3525  142.1089  159.7308 C   0  0  0  0  0  0  0  0  0  0  0  0
  149.0567  138.9542  154.7617 C   0  0  0  0  0  0  0  0  0  0  0  0
  148.9946  137.5956  155.4847 C   0  0  0  0  0  0  0  0  0  0  0  0
  148.5053  134.9046  157.5695 H   0  0  0  0  0  0  0  0  0  0  0  0
  150.1125  134.4666  154.7575 H   0  0  0  0  0  0  0  0  0  0  0  0
  148.5864  134.9461  155.4618 H   0  0  0  0  0  0  0  0  0  0  0  0
  151.6854  137.0538  155.5839 H   0  0  0  0  0  0  0  0  0  0  0  0
  151.7609  136.2214  154.0480 H   0  0  0  0  0  0  0  0  0  0  0  0
  152.3589  138.6072  153.7524 H   0  0  0  0  0  0  0  0  0  0  0  0
  150.9389  138.1837  152.8390 H   0  0  0  0  0  0  0  0  0  0  0  0
  150.4807  140.3075  153.9001 H   0  0  0  0  0  0  0  0  0  0  0  0
  151.6109  139.1094  156.3262 H   0  0  0  0  0  0  0  0  0  0  0  0
  152.2157  140.2577  157.7839 H   0  0  0  0  0  0  0  0  0  0  0  0
  151.4518  143.6377  156.8130 H   0  0  0  0  0  0  0  0  0  0  0  0
  151.8305  145.6218  158.2830 H   0  0  0  0  0  0  0  0  0  0  0  0
  152.8528  143.2463  161.5039 H   0  0  0  0  0  0  0  0  0  0  0  0
  152.5406  141.1591  160.2062 H   0  0  0  0  0  0  0  0  0  0  0  0
  148.4903  139.7018  155.3185 H   0  0  0  0  0  0  0  0  0  0  0  0
  148.5648  138.8628  153.7924 H   0  0  0  0  0  0  0  0  0  0  0  0
  147.9538  137.2762  155.5500 H   0  0  0  0  0  0  0  0  0  0  0  0
  149.3594  137.6917  156.5084 H   0  0  0  0  0  0  0  0  0  0  0  0
  149.3945  136.4853  153.8453 H   0  0  0  0  0  0  0  0  0  0  0  0
  1  2  1  0  0  0  0
  1 21  1  0  0  0  0
  2  3  2  0  0  0  0
  2  4  1  0  0  0  0
  4  5  1  0  0  0  0
  4 22  1  0  0  0  0
  4 23  1  0  0  0  0
  5 20  1  0  0  0  0
  5  6  1  0  0  0  0
  5 39  1  0  0  0  0
  6  7  1  0  0  0  0
  6 24  1  0  0  0  0
  6 25  1  0  0  0  0
  7  8  1  0  0  0  0
  7 26  1  0  0  0  0
  7 27  1  0  0  0  0
  8  9  1  0  0  0  0
  8 19  1  0  0  0  0
  8 28  1  0  0  0  0
  9 10  1  0  0  0  0
  9 29  1  0  0  0  0
 10 11  2  0  0  0  0
 10 12  1  0  0  0  0
 12 13  1  0  0  0  0
 12 30  1  0  0  0  0
 13 18  1  0  0  0  0
 13 14  2  0  0  0  0
 14 15  1  0  0  0  0
 14 31  1  0  0  0  0
 15 16  2  0  0  0  0
 15 32  1  0  0  0  0
 16 17  1  0  0  0  0
 17 18  2  0  0  0  0
 17 33  1  0  0  0  0
 18 34  1  0  0  0  0
 19 20  1  0  0  0  0
 19 35  1  0  0  0  0
 19 36  1  0  0  0  0
 20 37  1  0  0  0  0
 20 38  1  0  0  0  0
M  CHG  1   1  -1
M  CHG  1   5   1
M  END
> <s_m_source_file>
AV-unprocessed.smi

> <i_m_source_file_index>
1410

> <i_lp_mmshare_version>
43012

> <i_f3d_flags>
0

> <s_epik_input>
W05IMl1DKD1PKVtDSDJdTjFbQ0gyXVtDSDJdW0NIXShbQ0gyXVtDSDJdMSlbTkhdQyg9TylbTkhdYzJbY0hdW2NIXW5bY0hdW2NIXTI=

> <s_epik_cmdline>
J2VwaWtfcHl0aG9uJywgJy1waCcsICc3LjAnLCAnLXRuJywgJzgnLCAnLW1hJywgJzIwMCcsICctbWV0YWxfYmluZGluZycsICctaW1hZScsICc8aW5maWxlLm1hZT4nLCAnLW9tYWUnLCAnPG91dGZpbGUubWFlPic=

> <r_epik_Ionization_Penalty>
5.8279

> <r_epik_Ionization_Penalty_Charging>
5.7288

> <r_epik_Ionization_Penalty_Neutral>
0.0990993

> <r_epik_State_Penalty>
6.63321

> <r_epik_Charging_Adjusted_Penalty>
12.362

> <i_epik_Tot_Q>
0

> <i_epik_Tot_abs_Q>
2

> <r_epik_Metal_State_Penalty>
2.69435

> <b_epik_Metal_Only>
1

> <s_lp_Force_Field>
OPLS_2005

> <r_lp_Energy>
12.1382

> <b_lp_Chiralities_Consistent>
1

> <s_lp_Variant>
AV-unprocessed.smi:1410-8

> <Gold.Version>
5.8.1

> <Gold.Id.Protein>
6NUR|6NUR_protein|mol2

> <Gold.PLP.Fitness>
47.0748

> <Gold.PLP.PLP>
-33.6065

> <Gold.PLP.part.hbond>
-3.0000

> <Gold.PLP.part.metal>
0.0000

> <Gold.PLP.part.buried>
-4.1332

> <Gold.PLP.part.nonpolar>
-27.3732

> <Gold.PLP.part.repulsive>
0.5946

> <Gold.PLP.ligand.clash>
0.0000

> <Gold.PLP.ligand.torsion>
0.5159

> <Gold.PLP.Chemscore.Hbond>
4.8240

> <Gold.PLP.Chemscore.CHOScore>
0.0000

> <Gold.PLP.Chemscore.Metal>
0.0000

> <Gold.Chemscore.Hbonds>
donor molecule, donor type, donor heavy atom, donor atom, acceptor molecule, acceptor atom, score
      L1  H     5    39       P1  7948  2.00
      P1  H  6896  6909       L1     1  1.53
      P1  H 10752 10764       L1     3  0.19

> <Gold.PLP.Chemscore.Internal.Correction>
0.0281

> <Gold.Rescore>
     Score         DG    S(hbond)    S(metal)    S(lipo)     H(rot)  DE(clash)    DE(int)     intcor
     15.79     -19.87       2.64        0.00      89.82       1.94       0.82       3.25       ----

> <Gold.Chemscore.Fitness>
15.7907

> <Gold.Chemscore.DG>
-19.8662

> <Gold.Chemscore.ZeroCoef>
-5.4800

> <Gold.Chemscore.Hbond>
2.6449

> <Gold.Chemscore.Metal>
0.0000

> <Gold.Chemscore.Lipo>
89.8168

> <Gold.Chemscore.Internal_Hbond>
0.0000

> <Gold.Chemscore.DEClash>
0.8213

> <Gold.Chemscore.DEInternal>
3.2542

> <Gold.Chemscore.Rot>
1.9361

> <Gold.Chemscore.Internal.Correction>
   9.000000E+99

> <Gold.Chemscore.Hbonds>
donor molecule, donor type, donor heavy atom, donor atom, acceptor molecule, acceptor atom, score
      L1  H     5    39       P1  7948  0.82
      P1  H  6896  6909       L1     1  0.40
      P1  H 10752 10764       L1     3  0.21

> <Gold.Chemscore.Hbond.Weighted>
-8.8339

> <Gold.Chemscore.Metal.Weighted>
-0.0000

> <Gold.Chemscore.Lipo.Weighted>
-10.5086

> <Gold.Chemscore.Internal_Hbond.Weighted>
0.0000

> <Gold.Chemscore.DEClash.Weighted>
0.8213

> <Gold.Chemscore.DEInternal.Weighted>
3.2542

> <Gold.Chemscore.Rot.Weighted>
4.9563

> <Gold.Chemscore.Internal.Correction.Weighted>
   9.000000E+99

> <Gold.Protein.RotatedTorsions>
[ 6907 6896 6895 6894 ] final   28.85 input  -60.11 | X-H torsion
[ 7974 7965 7964 7962 ] final -112.86 input  175.53 | X-H torsion
[ 8008 7997 7996 7995 ] final  -72.82 input   59.86 | X-H torsion
[ 10167 10162 10161 10158 ] final   46.56 input  -65.29 | X-H torsion
[ 10718 10713 10712 10709 ] final -102.56 input   66.30 | X-H torsion
[ 10763 10752 10751 10750 ] final  -10.85 input  -60.55 | X-H torsion
[ 11005 11000 10999 10996 ] final   14.08 input  -57.11 | X-H torsion

> <Gold.Protein.ActiveResidues>
 VAL166  LYS551  ARG553  GLY616  TRP617  ASP618  TYR619  PRO620  LYS621  CYS622 
 ASP623  PHE694  ASN695  SER759  ASP760  ASP761  ALA762  ILE779  LEU786  VAL792 
 PHE793  MET794  SER795  GLU796  ALA797  LYS798  CYS799  TRP800  GLU811  SER814 

> <Gold.Protein.RotatedAtoms>
  152.0230  134.9811  160.0570 H   0  0  0  0  0  0  0  0  0  0  0  0  # atno 6907 bound_to 6896
  152.1318  133.4407  159.4733 H   0  0  0  0  0  0  0  0  0  0  0  0  # atno 6908 bound_to 6896
  150.6857  134.2329  159.4485 H   0  0  0  0  0  0  0  0  0  0  0  0  # atno 6909 bound_to 6896
  145.1389  140.8767  143.3714 H   0  0  0  0  0  0  0  0  0  0  0  0  # atno 7974 bound_to 7965
  154.5197  140.0790  156.8149 H   0  0  0  0  0  0  0  0  0  0  0  0  # atno 8008 bound_to 7997
  155.3602  140.3417  155.4222 H   0  0  0  0  0  0  0  0  0  0  0  0  # atno 8009 bound_to 7997
  156.1668  140.1606  156.8505 H   0  0  0  0  0  0  0  0  0  0  0  0  # atno 8010 bound_to 7997
  140.3126  144.2802  150.6197 H   0  0  0  0  0  0  0  0  0  0  0  0  # atno 10167 bound_to 10162
  156.0233  130.5426  150.7126 H   0  0  0  0  0  0  0  0  0  0  0  0  # atno 10718 bound_to 10713
  153.4752  135.7017  153.5970 H   0  0  0  0  0  0  0  0  0  0  0  0  # atno 10763 bound_to 10752
  153.4207  135.3826  155.2109 H   0  0  0  0  0  0  0  0  0  0  0  0  # atno 10764 bound_to 10752
  154.8724  135.3927  154.4194 H   0  0  0  0  0  0  0  0  0  0  0  0  # atno 10765 bound_to 10752
  140.4735  134.1007  155.7737 H   0  0  0  0  0  0  0  0  0  0  0  0  # atno 11005 bound_to 11000
  145.0554  139.3148  143.5907 LP  0  0  0  0  0  0  0  0  0  0  0  0  # atno 17320 bound_to 7965
  146.3507  139.9977  142.8679 LP  0  0  0  0  0  0  0  0  0  0  0  0  # atno 17321 bound_to 7965
  140.5554  143.2200  151.7855 LP  0  0  0  0  0  0  0  0  0  0  0  0  # atno 17342 bound_to 10162
  139.4890  144.4420  151.9753 LP  0  0  0  0  0  0  0  0  0  0  0  0  # atno 17343 bound_to 10162
  157.4760  131.0898  151.0589 LP  0  0  0  0  0  0  0  0  0  0  0  0  # atno 17370 bound_to 10713
  157.1036  130.5992  149.5466 LP  0  0  0  0  0  0  0  0  0  0  0  0  # atno 17371 bound_to 10713
  141.1565  133.8872  157.1962 LP  0  0  0  0  0  0  0  0  0  0  0  0  # atno 17394 bound_to 11000
  139.9870  135.0078  156.9886 LP  0  0  0  0  0  0  0  0  0  0  0  0  # atno 17395 bound_to 11000

$$$$
