AV-unprocessed.smi:759|AV-procd|sdf|3623|dock3
  -GOLD-   22720 1 13D 1   1.00000     0.00000
 Structure written by MMmdl.
 24 25  0  0  0  0  0  0  0  0  2 V2000
  151.0312  142.3093  157.3505 C   0  0  0  0  0  0  0  0  0  0  0  0
  151.5262  141.0864  157.5467 N   0  0  0  0  0  0  0  0  0  0  0  0
  150.9674  140.3126  156.5424 N   0  0  0  0  0  0  0  0  0  0  0  0
  150.1909  141.1438  155.8349 C   0  0  0  0  0  0  0  0  0  0  0  0
  149.3808  140.7494  154.6379 C   0  0  2  0  0  0  0  0  0  0  0  0
  147.9163  141.2151  154.7512 C   0  0  0  0  0  0  0  0  0  0  0  0
  147.1134  140.7754  153.5170 C   0  0  0  0  0  0  0  0  0  0  0  0
  147.2362  139.2592  153.2923 C   0  0  0  0  0  0  0  0  0  0  0  0
  148.6564  138.8611  153.1807 N   0  3  0  0  0  0  0  0  0  0  0  0
  149.4564  139.2320  154.3689 C   0  0  0  0  0  0  0  0  0  0  0  0
  150.1998  142.4006  156.3059 N   0  0  0  0  0  0  0  0  0  0  0  0
  149.7053  143.2113  155.9627 H   0  0  0  0  0  0  0  0  0  0  0  0
  151.2802  143.1514  157.9794 H   0  0  0  0  0  0  0  0  0  0  0  0
  149.8171  141.2552  153.7745 H   0  0  0  0  0  0  0  0  0  0  0  0
  147.4592  140.7950  155.6484 H   0  0  0  0  0  0  0  0  0  0  0  0
  147.8712  142.2997  154.8577 H   0  0  0  0  0  0  0  0  0  0  0  0
  146.0652  141.0510  153.6365 H   0  0  0  0  0  0  0  0  0  0  0  0
  147.4744  141.3073  152.6356 H   0  0  0  0  0  0  0  0  0  0  0  0
  146.7732  138.7138  154.1159 H   0  0  0  0  0  0  0  0  0  0  0  0
  146.7123  138.9676  152.3816 H   0  0  0  0  0  0  0  0  0  0  0  0
  148.7069  137.8605  153.0518 H   0  0  0  0  0  0  0  0  0  0  0  0
  150.4903  138.9258  154.2057 H   0  0  0  0  0  0  0  0  0  0  0  0
  149.0900  138.6703  155.2296 H   0  0  0  0  0  0  0  0  0  0  0  0
  149.0539  139.3144  152.3704 H   0  0  0  0  0  0  0  0  0  0  0  0
  1 11  1  0  0  0  0
  1  2  2  0  0  0  0
  1 13  1  0  0  0  0
  2  3  1  0  0  0  0
  3  4  2  0  0  0  0
  4  5  1  0  0  0  0
  4 11  1  0  0  0  0
  5 10  1  0  0  0  0
  5  6  1  0  0  0  0
  5 14  1  0  0  0  0
  6  7  1  0  0  0  0
  6 15  1  0  0  0  0
  6 16  1  0  0  0  0
  7  8  1  0  0  0  0
  7 17  1  0  0  0  0
  7 18  1  0  0  0  0
  8  9  1  0  0  0  0
  8 19  1  0  0  0  0
  8 20  1  0  0  0  0
  9 10  1  0  0  0  0
  9 21  1  0  0  0  0
  9 24  1  0  0  0  0
 10 22  1  0  0  0  0
 10 23  1  0  0  0  0
 11 12  1  0  0  0  0
M  CHG  1   9   1
M  END
> <s_m_source_file>
AV-unprocessed.smi

> <i_m_source_file_index>
759

> <i_lp_mmshare_version>
43012

> <i_f3d_flags>
0

> <s_epik_input>
W25IXTFbY0hdbm5jMVtDQEBIXTJbQ0gyXVtDSDJdW0NIMl1bTkhdW0NIMl0y

> <s_epik_cmdline>
J2VwaWtfcHl0aG9uJywgJy1waCcsICc3LjAnLCAnLXRuJywgJzgnLCAnLW1hJywgJzIwMCcsICctbWV0YWxfYmluZGluZycsICctaW1hZScsICc8aW5maWxlLm1hZT4nLCAnLW9tYWUnLCAnPG91dGZpbGUubWFlPic=

> <r_lp_tautomer_probability>
0.0517155

> <r_epik_Ionization_Penalty>
0.0333069

> <r_epik_Ionization_Penalty_Charging>
0.000426856

> <r_epik_Ionization_Penalty_Neutral>
0.03288

> <r_epik_State_Penalty>
2.11054

> <r_epik_Charging_Adjusted_Penalty>
2.11097

> <i_epik_Tot_Q>
1

> <i_epik_Tot_abs_Q>
1

> <r_epik_Metal_State_Penalty>
2.37626

> <b_epik_Metal_Only>
0

> <s_lp_Force_Field>
OPLS_2005

> <r_lp_Energy>
13.742

> <b_lp_Chiralities_Consistent>
1

> <s_lp_Variant>
AV-unprocessed.smi:759-5

> <Gold.Version>
5.8.1

> <Gold.Id.Protein>
6NUR|6NUR_protein|mol2

> <Gold.PLP.Fitness>
33.4102

> <Gold.PLP.PLP>
-21.9145

> <Gold.PLP.part.hbond>
-2.9428

> <Gold.PLP.part.metal>
0.0000

> <Gold.PLP.part.buried>
-3.8794

> <Gold.PLP.part.nonpolar>
-16.5673

> <Gold.PLP.part.repulsive>
0.1884

> <Gold.PLP.ligand.clash>
0.0000

> <Gold.PLP.ligand.torsion>
0.1078

> <Gold.PLP.Chemscore.Hbond>
3.8945

> <Gold.PLP.Chemscore.CHOScore>
0.0000

> <Gold.PLP.Chemscore.Metal>
0.0000

> <Gold.Chemscore.Hbonds>
donor molecule, donor type, donor heavy atom, donor atom, acceptor molecule, acceptor atom, score
      L1  H     9    21       P1  7948  1.98
      L1  H     9    24       P1  7957  0.94
      L1  H    11    12       P1  8028  1.00

> <Gold.PLP.Chemscore.Internal.Correction>
0.0278

> <Gold.Rescore>
     Score         DG    S(hbond)    S(metal)    S(lipo)     H(rot)  DE(clash)    DE(int)     intcor
     16.54     -16.62       2.87        0.00      35.15       1.00       0.01       0.07       ----

> <Gold.Chemscore.Fitness>
16.5361

> <Gold.Chemscore.DG>
-16.6162

> <Gold.Chemscore.ZeroCoef>
-5.4800

> <Gold.Chemscore.Hbond>
2.8692

> <Gold.Chemscore.Metal>
0.0000

> <Gold.Chemscore.Lipo>
35.1543

> <Gold.Chemscore.Internal_Hbond>
0.0000

> <Gold.Chemscore.DEClash>
0.0110

> <Gold.Chemscore.DEInternal>
0.0690

> <Gold.Chemscore.Rot>
1.0000

> <Gold.Chemscore.Internal.Correction>
   9.000000E+99

> <Gold.Chemscore.Hbonds>
donor molecule, donor type, donor heavy atom, donor atom, acceptor molecule, acceptor atom, score
      L1  H     9    21       P1  7948  0.90
      L1  H     9    24       P1  7957  0.90
      L1  H    11    12       P1  8028  1.00

> <Gold.Chemscore.Hbond.Weighted>
-9.5831

> <Gold.Chemscore.Metal.Weighted>
-0.0000

> <Gold.Chemscore.Lipo.Weighted>
-4.1130

> <Gold.Chemscore.Internal_Hbond.Weighted>
0.0000

> <Gold.Chemscore.DEClash.Weighted>
0.0110

> <Gold.Chemscore.DEInternal.Weighted>
0.0690

> <Gold.Chemscore.Rot.Weighted>
2.5600

> <Gold.Chemscore.Internal.Correction.Weighted>
   9.000000E+99

> <Gold.Protein.RotatedTorsions>
[ 6907 6896 6895 6894 ] final -164.00 input  -60.11 | X-H torsion
[ 7974 7965 7964 7962 ] final  155.42 input  175.53 | X-H torsion
[ 8008 7997 7996 7995 ] final -138.78 input   59.86 | X-H torsion
[ 10167 10162 10161 10158 ] final   44.71 input  -65.29 | X-H torsion
[ 10718 10713 10712 10709 ] final    2.00 input   66.30 | X-H torsion
[ 10763 10752 10751 10750 ] final  -55.18 input  -60.55 | X-H torsion
[ 11005 11000 10999 10996 ] final  -21.52 input  -57.11 | X-H torsion

> <Gold.Protein.ActiveResidues>
 VAL166  LYS551  ARG553  GLY616  TRP617  ASP618  TYR619  PRO620  LYS621  CYS622 
 ASP623  PHE694  ASN695  SER759  ASP760  ASP761  ALA762  ILE779  LEU786  VAL792 
 PHE793  MET794  SER795  GLU796  ALA797  LYS798  CYS799  TRP800  GLU811  SER814 

> <Gold.Protein.RotatedAtoms>
  151.4050  133.3745  159.2736 H   0  0  0  0  0  0  0  0  0  0  0  0  # atno 6907 bound_to 6896
  150.9405  134.8816  159.7620 H   0  0  0  0  0  0  0  0  0  0  0  0  # atno 6908 bound_to 6896
  152.5069  134.4000  159.9465 H   0  0  0  0  0  0  0  0  0  0  0  0  # atno 6909 bound_to 6896
  144.8026  139.7066  143.6175 H   0  0  0  0  0  0  0  0  0  0  0  0  # atno 7974 bound_to 7965
  155.4340  140.0527  157.3016 H   0  0  0  0  0  0  0  0  0  0  0  0  # atno 8008 bound_to 7997
  154.4847  140.2096  155.9640 H   0  0  0  0  0  0  0  0  0  0  0  0  # atno 8009 bound_to 7997
  156.1257  140.3180  155.8279 H   0  0  0  0  0  0  0  0  0  0  0  0  # atno 8010 bound_to 7997
  140.3315  144.2583  150.6167 H   0  0  0  0  0  0  0  0  0  0  0  0  # atno 10167 bound_to 10162
  156.8565  130.5572  149.5666 H   0  0  0  0  0  0  0  0  0  0  0  0  # atno 10718 bound_to 10713
  154.1866  135.6434  153.5048 H   0  0  0  0  0  0  0  0  0  0  0  0  # atno 10763 bound_to 10752
  153.0045  135.5419  154.6458 H   0  0  0  0  0  0  0  0  0  0  0  0  # atno 10764 bound_to 10752
  154.5836  135.2927  155.0680 H   0  0  0  0  0  0  0  0  0  0  0  0  # atno 10765 bound_to 10752
  140.8569  133.7816  156.0030 H   0  0  0  0  0  0  0  0  0  0  0  0  # atno 11005 bound_to 11000
  146.2311  139.5815  142.9555 LP  0  0  0  0  0  0  0  0  0  0  0  0  # atno 17320 bound_to 7965
  145.5516  141.0413  143.2275 LP  0  0  0  0  0  0  0  0  0  0  0  0  # atno 17321 bound_to 7965
  140.5393  143.2227  151.8111 LP  0  0  0  0  0  0  0  0  0  0  0  0  # atno 17342 bound_to 10162
  139.4856  144.4621  151.9528 LP  0  0  0  0  0  0  0  0  0  0  0  0  # atno 17343 bound_to 10162
  156.0800  130.5813  150.9545 LP  0  0  0  0  0  0  0  0  0  0  0  0  # atno 17370 bound_to 10713
  157.6274  131.0924  150.8507 LP  0  0  0  0  0  0  0  0  0  0  0  0  # atno 17371 bound_to 10713
  140.8727  134.2707  157.5183 LP  0  0  0  0  0  0  0  0  0  0  0  0  # atno 17394 bound_to 11000
  139.8705  134.9575  156.4271 LP  0  0  0  0  0  0  0  0  0  0  0  0  # atno 17395 bound_to 11000

$$$$
