AV-unprocessed.smi:160|AV-procd|sdf|1358|dock2
  -GOLD-   2262019 63D 1   1.00000     0.00000
 Structure written by MMmdl.
 29 30  0  0  0  0  0  0  0  0  1 V2000
  142.1674  139.2739  154.1440 N   0  0  0  0  0  0  0  0  0  0  0  0
  141.8801  138.0746  154.6607 C   0  0  0  0  0  0  0  0  0  0  0  0
  141.1279  137.9358  155.6239 O   0  0  0  0  0  0  0  0  0  0  0  0
  142.5330  136.8926  153.9991 C   0  0  0  0  0  0  0  0  0  0  0  0
  142.1669  135.6152  154.3159 N   0  0  0  0  0  0  0  0  0  0  0  0
  142.9814  134.9566  153.5012 C   0  0  0  0  0  0  0  0  0  0  0  0
  143.7751  135.7434  152.7680 N   0  0  0  0  0  0  0  0  0  0  0  0
  144.7854  135.3853  151.7271 C   0  0  1  0  0  0  0  0  0  0  0  0
  144.8485  133.9904  151.6766 O   0  0  0  0  0  0  0  0  0  0  0  0
  144.6255  133.5188  150.3497 C   0  0  1  0  0  0  0  0  0  0  0  0
  143.9249  132.1522  150.4001 C   0  0  0  0  0  0  0  0  0  0  0  0
  143.0875  131.9932  149.2752 O   0  0  0  0  0  0  0  0  0  0  0  0
  143.7700  134.6199  149.7211 C   0  0  2  0  0  0  0  0  0  0  0  0
  143.8164  134.6301  148.3063 O   0  0  0  0  0  0  0  0  0  0  0  0
  144.3464  135.8859  150.3429 C   0  0  2  0  0  0  0  0  0  0  0  0
  145.4523  136.3952  149.6202 O   0  0  0  0  0  0  0  0  0  0  0  0
  143.4848  137.0326  153.0747 N   0  0  0  0  0  0  0  0  0  0  0  0
  145.7181  135.8236  152.0854 H   0  0  0  0  0  0  0  0  0  0  0  0
  145.5828  133.4583  149.8282 H   0  0  0  0  0  0  0  0  0  0  0  0
  142.7322  134.5028  150.0362 H   0  0  0  0  0  0  0  0  0  0  0  0
  143.6013  136.6787  150.4256 H   0  0  0  0  0  0  0  0  0  0  0  0
  141.7575  140.1054  154.5436 H   0  0  0  0  0  0  0  0  0  0  0  0
  142.7924  139.3389  153.3538 H   0  0  0  0  0  0  0  0  0  0  0  0
  142.9983  133.8785  153.4366 H   0  0  0  0  0  0  0  0  0  0  0  0
  144.6487  131.3382  150.4544 H   0  0  0  0  0  0  0  0  0  0  0  0
  143.2946  132.0848  151.2873 H   0  0  0  0  0  0  0  0  0  0  0  0
  142.4285  132.6705  149.2922 H   0  0  0  0  0  0  0  0  0  0  0  0
  144.6370  135.0123  148.0350 H   0  0  0  0  0  0  0  0  0  0  0  0
  145.5807  135.8537  148.8561 H   0  0  0  0  0  0  0  0  0  0  0  0
  1  2  1  0  0  0  0
  1 22  1  0  0  0  0
  1 23  1  0  0  0  0
  2  3  2  0  0  0  0
  2  4  1  0  0  0  0
  4 17  2  0  0  0  0
  4  5  1  0  0  0  0
  5  6  2  0  0  0  0
  6  7  1  0  0  0  0
  6 24  1  0  0  0  0
  7  8  1  0  0  0  0
  7 17  1  0  0  0  0
  8 18  1  0  0  0  0
  8 15  1  0  0  0  0
  8  9  1  0  0  0  0
  9 10  1  0  0  0  0
 10 19  1  0  0  0  0
 10 11  1  0  0  0  0
 10 13  1  0  0  0  0
 11 12  1  0  0  0  0
 11 25  1  0  0  0  0
 11 26  1  0  0  0  0
 12 27  1  0  0  0  0
 13 20  1  0  0  0  0
 13 14  1  0  0  0  0
 13 15  1  0  0  0  0
 14 28  1  0  0  0  0
 15 21  1  0  0  0  0
 15 16  1  0  0  0  0
 16 29  1  0  0  0  0
M  END
> <s_m_source_file>
AV-unprocessed.smi

> <i_m_source_file_index>
160

> <i_lp_mmshare_version>
43012

> <i_f3d_flags>
0

> <s_epik_input>
W05IMl1DKD1PKWMxbltjSF1uKG4xKVtDQEBIXTJPW0NASF0oW0NIMl1bT0hdKVtDQEBIXShbT0hdKVtDQEhdMltPSF0=

> <s_epik_cmdline>
J2VwaWtfcHl0aG9uJywgJy1waCcsICc3LjAnLCAnLXRuJywgJzgnLCAnLW1hJywgJzIwMCcsICctbWV0YWxfYmluZGluZycsICctaW1hZScsICc8aW5maWxlLm1hZT4nLCAnLW9tYWUnLCAnPG91dGZpbGUubWFlPic=

> <r_lp_tautomer_probability>
1

> <r_epik_Ionization_Penalty>
1.06932e-05

> <r_epik_Ionization_Penalty_Charging>
0

> <r_epik_Ionization_Penalty_Neutral>
1.06932e-05

> <r_epik_State_Penalty>
-0

> <r_epik_Charging_Adjusted_Penalty>
0

> <i_epik_Tot_Q>
0

> <i_epik_Tot_abs_Q>
0

> <r_epik_Metal_State_Penalty>
0.0142097

> <b_epik_Metal_Only>
0

> <s_epik_Chemistry_Notes>
This compound contains an acetal/aminal-like group ( X-CH(R)-Y where X, Y are N, S, or O) that may be acid/base labile, releasing an aldehyde.

> <s_lp_Force_Field>
OPLS_2005

> <r_lp_Energy>
39.0504

> <b_lp_Chiralities_Consistent>
1

> <s_lp_Variant>
AV-unprocessed.smi:160-16

> <Gold.Version>
5.8.1

> <Gold.Id.Protein>
6NUR|6NUR_protein|mol2

> <Gold.PLP.Fitness>
42.2839

> <Gold.PLP.PLP>
-24.1497

> <Gold.PLP.part.hbond>
-7.9591

> <Gold.PLP.part.metal>
0.0000

> <Gold.PLP.part.buried>
-0.3177

> <Gold.PLP.part.nonpolar>
-16.2345

> <Gold.PLP.part.repulsive>
0.3442

> <Gold.PLP.ligand.clash>
0.0000

> <Gold.PLP.ligand.torsion>
0.4235

> <Gold.PLP.Chemscore.Hbond>
5.3193

> <Gold.PLP.Chemscore.CHOScore>
1.0000

> <Gold.PLP.Chemscore.Metal>
0.0000

> <Gold.Chemscore.Hbonds>
donor molecule, donor type, donor heavy atom, donor atom, acceptor molecule, acceptor atom, score
      L1  H     1    23       P1 10175  0.80
      L1  H    12    27       P1 10186  0.42
      L1  H    14    28       P1  7921  0.99
      L1  H    16    29       P1  7921  1.00
      P1  H 10192 10197       L1    14  0.57
      P1  H 10785 10796       L1    12  1.00
      L1  C     6    24       P1 10957  1.00

> <Gold.PLP.Chemscore.Internal.Correction>
0.0236

> <Gold.Rescore>
     Score         DG    S(hbond)    S(metal)    S(lipo)     H(rot)  DE(clash)    DE(int)     intcor
     12.59     -16.16       5.18        0.00      32.10       4.06       3.17       0.39       ----

> <Gold.Chemscore.Fitness>
12.5930

> <Gold.Chemscore.DG>
-16.1557

> <Gold.Chemscore.ZeroCoef>
-5.4800

> <Gold.Chemscore.Hbond>
5.1837

> <Gold.Chemscore.Metal>
0.0000

> <Gold.Chemscore.Lipo>
32.1015

> <Gold.Chemscore.Internal_Hbond>
0.0000

> <Gold.Chemscore.DEClash>
3.1742

> <Gold.Chemscore.DEInternal>
0.3885

> <Gold.Chemscore.Rot>
4.0600

> <Gold.Chemscore.Internal.Correction>
   9.000000E+99

> <Gold.Chemscore.Hbonds>
donor molecule, donor type, donor heavy atom, donor atom, acceptor molecule, acceptor atom, score
      L1  H     1    23       P1 10175  0.79
      L1  H    12    27       P1 10186  0.44
      L1  H    14    28       P1  7921  0.88
      L1  H    16    29       P1  7921  1.00
      P1  H 10192 10197       L1    14  0.53
      P1  H 10785 10796       L1    12  0.60

> <Gold.Chemscore.Hbond.Weighted>
-17.3135

> <Gold.Chemscore.Metal.Weighted>
-0.0000

> <Gold.Chemscore.Lipo.Weighted>
-3.7559

> <Gold.Chemscore.Internal_Hbond.Weighted>
0.0000

> <Gold.Chemscore.DEClash.Weighted>
3.1742

> <Gold.Chemscore.DEInternal.Weighted>
0.3885

> <Gold.Chemscore.Rot.Weighted>
10.3936

> <Gold.Chemscore.Internal.Correction.Weighted>
   9.000000E+99

> <Gold.Protein.RotatedTorsions>
[ 6907 6896 6895 6894 ] final  -68.51 input  -60.11 | X-H torsion
[ 7974 7965 7964 7962 ] final -138.85 input  175.53 | X-H torsion
[ 8008 7997 7996 7995 ] final   91.66 input   59.86 | X-H torsion
[ 10167 10162 10161 10158 ] final  -86.34 input  -65.29 | X-H torsion
[ 10718 10713 10712 10709 ] final -143.33 input   66.30 | X-H torsion
[ 10763 10752 10751 10750 ] final   99.61 input  -60.55 | X-H torsion
[ 11005 11000 10999 10996 ] final   47.95 input  -57.11 | X-H torsion

> <Gold.Protein.ActiveResidues>
 VAL166  LYS551  ARG553  GLY616  TRP617  ASP618  TYR619  PRO620  LYS621  CYS622 
 ASP623  PHE694  ASN695  SER759  ASP760  ASP761  ALA762  ILE779  LEU786  VAL792 
 PHE793  MET794  SER795  GLU796  ALA797  LYS798  CYS799  TRP800  GLU811  SER814 

> <Gold.Protein.RotatedAtoms>
  150.7352  134.5728  159.5898 H   0  0  0  0  0  0  0  0  0  0  0  0  # atno 6907 bound_to 6896
  152.3163  134.7433  160.0333 H   0  0  0  0  0  0  0  0  0  0  0  0  # atno 6908 bound_to 6896
  151.7964  133.3329  159.3550 H   0  0  0  0  0  0  0  0  0  0  0  0  # atno 6909 bound_to 6896
  144.8724  140.6387  143.5258 H   0  0  0  0  0  0  0  0  0  0  0  0  # atno 7974 bound_to 7965
  156.0263  140.3335  155.7092 H   0  0  0  0  0  0  0  0  0  0  0  0  # atno 8008 bound_to 7997
  155.5949  140.0650  157.2766 H   0  0  0  0  0  0  0  0  0  0  0  0  # atno 8009 bound_to 7997
  154.4335  140.1820  156.1101 H   0  0  0  0  0  0  0  0  0  0  0  0  # atno 8010 bound_to 7997
  140.3951  143.2687  151.9215 H   0  0  0  0  0  0  0  0  0  0  0  0  # atno 10167 bound_to 10162
  156.3567  130.7716  151.1878 H   0  0  0  0  0  0  0  0  0  0  0  0  # atno 10718 bound_to 10713
  153.3036  135.4107  155.1274 H   0  0  0  0  0  0  0  0  0  0  0  0  # atno 10763 bound_to 10752
  154.8556  135.3547  154.5818 H   0  0  0  0  0  0  0  0  0  0  0  0  # atno 10764 bound_to 10752
  153.6244  135.7063  153.5357 H   0  0  0  0  0  0  0  0  0  0  0  0  # atno 10765 bound_to 10752
  140.1234  134.4800  155.8579 H   0  0  0  0  0  0  0  0  0  0  0  0  # atno 11005 bound_to 11000
  145.4105  139.1581  143.4128 LP  0  0  0  0  0  0  0  0  0  0  0  0  # atno 17320 bound_to 7965
  146.2940  140.4208  142.8729 LP  0  0  0  0  0  0  0  0  0  0  0  0  # atno 17321 bound_to 7965
  139.4787  144.5689  151.8120 LP  0  0  0  0  0  0  0  0  0  0  0  0  # atno 17342 bound_to 10162
  140.4799  144.1465  150.5931 LP  0  0  0  0  0  0  0  0  0  0  0  0  # atno 17343 bound_to 10162
  157.7468  131.0412  150.4634 LP  0  0  0  0  0  0  0  0  0  0  0  0  # atno 17370 bound_to 10713
  156.4838  130.4080  149.6446 LP  0  0  0  0  0  0  0  0  0  0  0  0  # atno 17371 bound_to 10713
  141.2156  133.6769  156.6932 LP  0  0  0  0  0  0  0  0  0  0  0  0  # atno 17394 bound_to 11000
  140.2935  134.8221  157.4037 LP  0  0  0  0  0  0  0  0  0  0  0  0  # atno 17395 bound_to 11000

$$$$
