AV-unprocessed.smi:651|AV-procd|sdf|3188|dock2
  -GOLD-   22720 0113D 1   1.00000     0.00000
 Structure written by MMmdl.
 39 40  0  0  0  0  0  0  0  0  2 V2000
  151.2074  143.2947  157.4292 C   0  0  0  0  0  0  0  0  0  0  0  0
  150.9990  142.0420  156.6048 C   0  0  0  0  0  0  0  0  0  0  0  0
  151.8814  140.9426  156.6708 C   0  0  0  0  0  0  0  0  0  0  0  0
  151.6217  139.8029  155.8821 C   0  0  0  0  0  0  0  0  0  0  0  0
  150.4833  139.7828  155.0457 C   0  0  0  0  0  0  0  0  0  0  0  0
  150.1625  138.5614  154.2018 C   0  0  0  0  0  0  0  0  0  0  0  0
  150.1050  137.3122  155.0817 C   0  0  0  0  0  0  0  0  0  0  0  0
  150.3505  137.3953  156.2844 O   0  0  0  0  0  0  0  0  0  0  0  0
  149.7950  136.1611  154.4655 N   0  0  0  0  0  0  0  0  0  0  0  0
  149.7411  134.8494  155.1050 C   0  0  2  0  0  0  0  0  0  0  0  0
  149.7570  133.7018  154.0791 C   0  0  0  0  0  0  0  0  0  0  0  0
  148.8396  132.6315  154.6617 C   0  0  0  0  0  0  0  0  0  0  0  0
  147.7407  133.4292  155.3582 C   0  0  0  0  0  0  0  0  0  0  0  0
  148.4292  134.6885  155.9194 C   0  0  1  0  0  0  0  0  0  0  0  0
  148.6939  134.5810  157.4305 C   0  0  0  0  0  0  0  0  0  0  0  0
  148.0882  135.4719  158.2198 N   0  0  0  0  0  0  0  0  0  0  0  0
  149.4307  133.7052  157.8803 O   0  0  0  0  0  0  0  0  0  0  0  0
  149.6389  140.9141  155.0177 C   0  0  0  0  0  0  0  0  0  0  0  0
  149.9227  141.9868  155.7884 N   0  3  0  0  0  0  0  0  0  0  0  0
  152.2297  143.3490  157.8046 H   0  0  0  0  0  0  0  0  0  0  0  0
  150.5290  143.3017  158.2827 H   0  0  0  0  0  0  0  0  0  0  0  0
  151.0185  144.1863  156.8308 H   0  0  0  0  0  0  0  0  0  0  0  0
  152.7450  140.9681  157.3194 H   0  0  0  0  0  0  0  0  0  0  0  0
  152.2859  138.9522  155.9268 H   0  0  0  0  0  0  0  0  0  0  0  0
  149.2057  138.7057  153.6976 H   0  0  0  0  0  0  0  0  0  0  0  0
  150.9142  138.4288  153.4223 H   0  0  0  0  0  0  0  0  0  0  0  0
  149.6022  136.1905  153.4751 H   0  0  0  0  0  0  0  0  0  0  0  0
  150.6118  134.7444  155.7564 H   0  0  0  0  0  0  0  0  0  0  0  0
  149.3468  134.0378  153.1253 H   0  0  0  0  0  0  0  0  0  0  0  0
  150.7634  133.3274  153.8886 H   0  0  0  0  0  0  0  0  0  0  0  0
  148.4503  131.9526  153.9024 H   0  0  0  0  0  0  0  0  0  0  0  0
  149.3862  132.0363  155.3945 H   0  0  0  0  0  0  0  0  0  0  0  0
  146.9880  133.7254  154.6267 H   0  0  0  0  0  0  0  0  0  0  0  0
  147.2294  132.8355  156.1175 H   0  0  0  0  0  0  0  0  0  0  0  0
  147.7644  135.5384  155.7513 H   0  0  0  0  0  0  0  0  0  0  0  0
  148.2328  135.4452  159.2187 H   0  0  0  0  0  0  0  0  0  0  0  0
  147.4879  136.1739  157.8115 H   0  0  0  0  0  0  0  0  0  0  0  0
  148.7460  140.9887  154.4136 H   0  0  0  0  0  0  0  0  0  0  0  0
  149.2946  142.7902  155.7549 H   0  0  0  0  0  0  0  0  0  0  0  0
  1  2  1  0  0  0  0
  1 20  1  0  0  0  0
  1 21  1  0  0  0  0
  1 22  1  0  0  0  0
  2 19  1  0  0  0  0
  2  3  2  0  0  0  0
  3  4  1  0  0  0  0
  3 23  1  0  0  0  0
  4  5  2  0  0  0  0
  4 24  1  0  0  0  0
  5  6  1  0  0  0  0
  5 18  1  0  0  0  0
  6  7  1  0  0  0  0
  6 25  1  0  0  0  0
  6 26  1  0  0  0  0
  7  8  2  0  0  0  0
  7  9  1  0  0  0  0
  9 10  1  0  0  0  0
  9 27  1  0  0  0  0
 10 14  1  0  0  0  0
 10 11  1  0  0  0  0
 10 28  1  0  0  0  0
 11 12  1  0  0  0  0
 11 29  1  0  0  0  0
 11 30  1  0  0  0  0
 12 13  1  0  0  0  0
 12 31  1  0  0  0  0
 12 32  1  0  0  0  0
 13 14  1  0  0  0  0
 13 33  1  0  0  0  0
 13 34  1  0  0  0  0
 14 15  1  0  0  0  0
 14 35  1  0  0  0  0
 15 16  1  0  0  0  0
 15 17  2  0  0  0  0
 16 36  1  0  0  0  0
 16 37  1  0  0  0  0
 18 19  2  0  0  0  0
 18 38  1  0  0  0  0
 19 39  1  0  0  0  0
M  CHG  1  19   1
M  END
> <s_m_source_file>
AV-unprocessed.smi

> <i_m_source_file_index>
651

> <i_lp_mmshare_version>
43012

> <i_f3d_flags>
0

> <s_epik_input>
W0NIM11jMVtjSF1bY0hdYyhbY0hdbjEpW0NIMl1DKD1PKVtOSF1bQ0BASF0yW0NIMl1bQ0gyXVtDSDJdW0NASF0yQyg9TylbTkgyXQ==

> <s_epik_cmdline>
J2VwaWtfcHl0aG9uJywgJy1waCcsICc3LjAnLCAnLXRuJywgJzgnLCAnLW1hJywgJzIwMCcsICctbWV0YWxfYmluZGluZycsICctaW1hZScsICc8aW5maWxlLm1hZT4nLCAnLW9tYWUnLCAnPG91dGZpbGUubWFlPic=

> <r_epik_Ionization_Penalty>
2.14971

> <r_epik_Ionization_Penalty_Charging>
2.14971

> <r_epik_Ionization_Penalty_Neutral>
1.65229e-07

> <r_epik_State_Penalty>
2.28946

> <r_epik_Charging_Adjusted_Penalty>
4.43917

> <i_epik_Tot_Q>
1

> <i_epik_Tot_abs_Q>
1

> <r_epik_Metal_State_Penalty>
2.30508

> <b_epik_Metal_Only>
0

> <s_lp_Force_Field>
OPLS_2005

> <r_lp_Energy>
20.422

> <b_lp_Chiralities_Consistent>
1

> <s_lp_Variant>
AV-unprocessed.smi:651-5

> <Gold.Version>
5.8.1

> <Gold.Id.Protein>
6NUR|6NUR_protein|mol2

> <Gold.PLP.Fitness>
40.1177

> <Gold.PLP.PLP>
-28.6903

> <Gold.PLP.part.hbond>
-3.2508

> <Gold.PLP.part.metal>
0.0000

> <Gold.PLP.part.buried>
-2.7290

> <Gold.PLP.part.nonpolar>
-21.9510

> <Gold.PLP.part.repulsive>
0.2443

> <Gold.PLP.ligand.clash>
0.0000

> <Gold.PLP.ligand.torsion>
0.2794

> <Gold.PLP.Chemscore.Hbond>
3.9920

> <Gold.PLP.Chemscore.CHOScore>
0.0000

> <Gold.PLP.Chemscore.Metal>
0.0000

> <Gold.Chemscore.Hbonds>
donor molecule, donor type, donor heavy atom, donor atom, acceptor molecule, acceptor atom, score
      L1  H     9    27       P1  7948  1.00
      L1  H    19    39       P1  8028  2.00
      P1  H  6896  6909       L1    17  0.99

> <Gold.PLP.Chemscore.Internal.Correction>
0.0103

> <Gold.Rescore>
     Score         DG    S(hbond)    S(metal)    S(lipo)     H(rot)  DE(clash)    DE(int)     intcor
     15.82     -17.70       2.77        0.00      69.84       2.04       0.19       1.69       ----

> <Gold.Chemscore.Fitness>
15.8165

> <Gold.Chemscore.DG>
-17.6994

> <Gold.Chemscore.ZeroCoef>
-5.4800

> <Gold.Chemscore.Hbond>
2.7746

> <Gold.Chemscore.Metal>
0.0000

> <Gold.Chemscore.Lipo>
69.8372

> <Gold.Chemscore.Internal_Hbond>
0.0000

> <Gold.Chemscore.DEClash>
0.1889

> <Gold.Chemscore.DEInternal>
1.6939

> <Gold.Chemscore.Rot>
2.0386

> <Gold.Chemscore.Internal.Correction>
   9.000000E+99

> <Gold.Chemscore.Hbonds>
donor molecule, donor type, donor heavy atom, donor atom, acceptor molecule, acceptor atom, score
      L1  H     9    27       P1  7948  0.40
      L1  H    19    39       P1  8028  0.95
      P1  H  6896  6909       L1    17  0.89

> <Gold.Chemscore.Hbond.Weighted>
-9.2672

> <Gold.Chemscore.Metal.Weighted>
-0.0000

> <Gold.Chemscore.Lipo.Weighted>
-8.1709

> <Gold.Chemscore.Internal_Hbond.Weighted>
0.0000

> <Gold.Chemscore.DEClash.Weighted>
0.1889

> <Gold.Chemscore.DEInternal.Weighted>
1.6939

> <Gold.Chemscore.Rot.Weighted>
5.2188

> <Gold.Chemscore.Internal.Correction.Weighted>
   9.000000E+99

> <Gold.Protein.RotatedTorsions>
[ 6907 6896 6895 6894 ] final  -13.57 input  -60.11 | X-H torsion
[ 7974 7965 7964 7962 ] final   21.90 input  175.53 | X-H torsion
[ 8008 7997 7996 7995 ] final   23.53 input   59.86 | X-H torsion
[ 10167 10162 10161 10158 ] final -151.24 input  -65.29 | X-H torsion
[ 10718 10713 10712 10709 ] final -122.00 input   66.30 | X-H torsion
[ 10763 10752 10751 10750 ] final  143.21 input  -60.55 | X-H torsion
[ 11005 11000 10999 10996 ] final  173.27 input  -57.11 | X-H torsion

> <Gold.Protein.ActiveResidues>
 VAL166  LYS551  ARG553  GLY616  TRP617  ASP618  TYR619  PRO620  LYS621  CYS622 
 ASP623  PHE694  ASN695  SER759  ASP760  ASP761  ALA762  ILE779  LEU786  VAL792 
 PHE793  MET794  SER795  GLU796  ALA797  LYS798  CYS799  TRP800  GLU811  SER814 

> <Gold.Protein.RotatedAtoms>
  151.3529  135.0888  159.9408 H   0  0  0  0  0  0  0  0  0  0  0  0  # atno 6907 bound_to 6896
  152.5182  133.9334  159.7602 H   0  0  0  0  0  0  0  0  0  0  0  0  # atno 6908 bound_to 6896
  150.9713  133.6287  159.2767 H   0  0  0  0  0  0  0  0  0  0  0  0  # atno 6909 bound_to 6896
  146.2052  139.7961  142.8731 H   0  0  0  0  0  0  0  0  0  0  0  0  # atno 7974 bound_to 7965
  154.9823  140.3103  155.4941 H   0  0  0  0  0  0  0  0  0  0  0  0  # atno 8008 bound_to 7997
  156.2951  140.2264  156.4863 H   0  0  0  0  0  0  0  0  0  0  0  0  # atno 8009 bound_to 7997
  154.7778  140.0448  157.1091 H   0  0  0  0  0  0  0  0  0  0  0  0  # atno 8010 bound_to 7997
  139.7284  143.8847  152.2527 H   0  0  0  0  0  0  0  0  0  0  0  0  # atno 10167 bound_to 10162
  156.1383  130.6446  150.9730 H   0  0  0  0  0  0  0  0  0  0  0  0  # atno 10718 bound_to 10713
  153.9686  135.2953  155.3429 H   0  0  0  0  0  0  0  0  0  0  0  0  # atno 10763 bound_to 10752
  154.7335  135.5057  153.9006 H   0  0  0  0  0  0  0  0  0  0  0  0  # atno 10764 bound_to 10752
  153.0911  135.6708  153.9964 H   0  0  0  0  0  0  0  0  0  0  0  0  # atno 10765 bound_to 10752
  140.3387  134.7295  157.4186 H   0  0  0  0  0  0  0  0  0  0  0  0  # atno 11005 bound_to 11000
  145.3345  141.0274  143.3427 LP  0  0  0  0  0  0  0  0  0  0  0  0  # atno 17320 bound_to 7965
  144.8775  139.4950  143.6738 LP  0  0  0  0  0  0  0  0  0  0  0  0  # atno 17321 bound_to 7965
  139.8763  144.7042  150.8929 LP  0  0  0  0  0  0  0  0  0  0  0  0  # atno 17342 bound_to 10162
  140.7767  143.3697  151.1672 LP  0  0  0  0  0  0  0  0  0  0  0  0  # atno 17343 bound_to 10162
  157.6552  131.0890  150.7963 LP  0  0  0  0  0  0  0  0  0  0  0  0  # atno 17370 bound_to 10713
  156.8041  130.4930  149.5365 LP  0  0  0  0  0  0  0  0  0  0  0  0  # atno 17371 bound_to 10713
  140.0799  134.5745  155.8551 LP  0  0  0  0  0  0  0  0  0  0  0  0  # atno 17394 bound_to 11000
  141.2044  133.6639  156.6121 LP  0  0  0  0  0  0  0  0  0  0  0  0  # atno 17395 bound_to 11000

$$$$
