#       Name:                AV-unprocessed.smi:2260
#       Creating user name   scv26
#       Creation time:       Fri Mar 27 12:33:57 2020


#       File generated by GOLD software.
#

@<TRIPOS>MOLECULE
AV-unprocessed.smi:2260
    45    46     1
SMALL
NO_CHARGES


@<TRIPOS>ATOM
      1 ****        -2.9387   2.2342  -2.6048 C.3            1 S1                 0.0000
      2 ****        -3.7635   2.2117  -1.3298 C.2            1 S1                 0.0000
      3 ****        -5.0976   2.2746  -1.2619 C.2            1 S1                 0.0000
      4 ****        -5.6957   2.1896   0.3784 S.3            1 S1                 0.0000
      5 ****        -4.0102   2.0529   0.9962 C.2            1 S1                 0.0000
      6 ****        -3.7412   1.9402   2.1910 O.2            1 S1                 0.0000
      7 ****        -3.1324   2.0948  -0.0851 N.am           1 S1                 0.0000
      8 ****        -1.6802   2.0164   0.0964 C.3            1 S1                 0.0000
      9 ****        -1.2054   0.5567   0.1594 C.3            1 S1                 0.0000
     10 ****         0.2601   0.4893   0.3340 N.4            1 S1                 1.0000
     11 ****         0.8538  -0.8669   0.2549 C.3            1 S1                 0.0000
     12 ****         0.5451  -1.6876   1.5292 C.3            1 S1                 0.0000
     13 ****         1.1476  -3.0972   1.4553 C.3            1 S1                 0.0000
     14 ****         2.6559  -3.0447   1.1858 C.3            1 S1                 0.0000
     15 ****         2.9630  -2.2306  -0.0821 C.3            1 S1                 0.0000
     16 ****         2.3824  -0.7927  -0.0512 C.3            1 S1                 0.0000
     17 ****         2.6059  -0.1674  -1.4455 C.3            1 S1                 0.0000
     18 ****         3.1463   0.0620   0.9891 C.3            1 S1                 0.0000
     19 ****        -3.5676   2.0054  -3.4658 H              1 S1                 0.0000
     20 ****        -2.1363   1.4973  -2.5816 H              1 S1                 0.0000
     21 ****        -2.5045   3.2226  -2.7570 H              1 S1                 0.0000
     22 ****        -5.7784   2.3588  -2.0964 H              1 S1                 0.0000
     23 ****        -1.1630   2.5539  -0.6985 H              1 S1                 0.0000
     24 ****        -1.4013   2.5329   1.0166 H              1 S1                 0.0000
     25 ****        -1.6977   0.0430   0.9852 H              1 S1                 0.0000
     26 ****        -1.4851   0.0353  -0.7567 H              1 S1                 0.0000
     27 ****         0.6735   1.0387  -0.4059 H              1 S1                 0.0000
     28 ****         0.3817  -1.3783  -0.5860 H              1 S1                 0.0000
     29 ****         0.9207  -1.1734   2.4140 H              1 S1                 0.0000
     30 ****        -0.5312  -1.7821   1.6712 H              1 S1                 0.0000
     31 ****         0.9540  -3.6348   2.3838 H              1 S1                 0.0000
     32 ****         0.6555  -3.6626   0.6630 H              1 S1                 0.0000
     33 ****         3.1726  -2.6174   2.0453 H              1 S1                 0.0000
     34 ****         3.0438  -4.0576   1.0741 H              1 S1                 0.0000
     35 ****         4.0421  -2.1988  -0.2393 H              1 S1                 0.0000
     36 ****         2.5549  -2.7682  -0.9394 H              1 S1                 0.0000
     37 ****         3.6636  -0.1648  -1.7120 H              1 S1                 0.0000
     38 ****         2.2621   0.8664  -1.4885 H              1 S1                 0.0000
     39 ****         2.0769  -0.7204  -2.2226 H              1 S1                 0.0000
     40 ****         4.2172   0.0636   0.7834 H              1 S1                 0.0000
     41 ****         3.0171  -0.3027   2.0071 H              1 S1                 0.0000
     42 ****         2.8204   1.1023   0.9760 H              1 S1                 0.0000
     43 ****         0.5129   0.9061   1.2186 H              1 S1                 0.0000
     44 ****        -4.4757   1.9212   2.8693 LP             1 S1                 0.0000
     45 ****        -2.7879   1.8675   2.4843 LP             1 S1                 0.0000
@<TRIPOS>BOND
    1    1    2 1     
    2    1   19 1     
    3    1   20 1     
    4    1   21 1     
    5    2    7 1     
    6    2    3 2     
    7    3    4 1     
    8    3   22 1     
    9    4    5 1     
   10    5    6 2     
   11    5    7 am    
   12    7    8 1     
   13    8    9 1     
   14    8   23 1     
   15    8   24 1     
   16    9   10 1     
   17    9   25 1     
   18    9   26 1     
   19   10   11 1     
   20   10   27 1     
   21   10   43 1     
   22   11   16 1     
   23   11   12 1     
   24   11   28 1     
   25   12   13 1     
   26   12   29 1     
   27   12   30 1     
   28   13   14 1     
   29   13   31 1     
   30   13   32 1     
   31   14   15 1     
   32   14   33 1     
   33   14   34 1     
   34   15   16 1     
   35   15   35 1     
   36   15   36 1     
   37   16   17 1     
   38   16   18 1     
   39   17   37 1     
   40   17   38 1     
   41   17   39 1     
   42   18   40 1     
   43   18   41 1     
   44   18   42 1     
   45    6   44 1     
   46    6   45 1     
@<TRIPOS>SUBSTRUCTURE
      1 S1             1
@<TRIPOS>SET
LONE_PAIRS      STATIC     ATOMS    <user>   **** ""
2 44 45
DONOR_HYDROGENS      STATIC     ATOMS    <user>   **** ""
2 27 43
ATOM$BLUE        STATIC     ATOMS    COLORGROUP SYSTEM
2 44 45
ATOM$RED        STATIC     ATOMS    COLORGROUP SYSTEM
2 27 43
