AV-unprocessed.smi:1692|AV-procd|sdf|6784|dock8
  -GOLD-   22720 7543D 1   1.00000     0.00000
 Structure written by MMmdl.
 45 46  0  0  0  0  0  0  0  0  1 V2000
  155.3699  138.1302  164.8712 C   0  0  0  0  0  0  0  0  0  0  0  0
  154.1706  137.2277  164.5347 C   0  0  1  0  0  0  0  0  0  0  0  0
  153.8521  137.1717  163.0267 C   0  0  0  0  0  0  0  0  0  0  0  0
  154.8146  136.3698  162.2735 N   0  0  0  0  0  0  0  0  0  0  0  0
  154.4866  136.2888  160.8508 C   0  0  0  0  0  0  0  0  0  0  0  0
  154.0240  137.6092  160.2114 C   0  0  0  0  0  0  0  0  0  0  0  0
  155.1636  138.6368  160.1171 C   0  0  0  0  0  0  0  0  0  0  0  0
  154.6936  139.9911  160.3865 N   0  0  0  0  0  0  0  0  0  0  0  0
  153.7890  140.6517  159.6489 C   0  0  0  0  0  0  0  0  0  0  0  0
  153.2489  140.1737  158.6508 O   0  0  0  0  0  0  0  0  0  0  0  0
  153.5616  141.8815  160.1433 N   0  0  0  0  0  0  0  0  0  0  0  0
  152.6707  142.8739  159.6535 C   0  0  0  0  0  0  0  0  0  0  0  0
  152.3832  143.9203  160.5590 C   0  0  0  0  0  0  0  0  0  0  0  0
  151.5081  144.9529  160.1697 C   0  0  0  0  0  0  0  0  0  0  0  0
  150.9422  144.9130  158.8832 C   0  0  0  0  0  0  0  0  0  0  0  0
  151.2813  143.8365  158.0430 C   0  0  0  0  0  0  0  0  0  0  0  0
  152.1195  142.8456  158.4141 N   0  0  0  0  0  0  0  0  0  0  0  0
  154.8890  135.0403  162.8662 C   0  0  0  0  0  0  0  0  0  0  0  0
  155.2749  135.0930  164.3553 C   0  0  2  0  0  0  0  0  0  0  0  0
  155.2742  133.7036  165.0009 C   0  0  0  0  0  0  0  0  0  0  0  0
  154.3382  135.9087  165.0566 O   0  0  0  0  0  0  0  0  0  0  0  0
  155.1786  139.1588  164.5655 H   0  0  0  0  0  0  0  0  0  0  0  0
  156.2809  137.8063  164.3688 H   0  0  0  0  0  0  0  0  0  0  0  0
  155.5632  138.1352  165.9439 H   0  0  0  0  0  0  0  0  0  0  0  0
  153.3038  137.6504  165.0434 H   0  0  0  0  0  0  0  0  0  0  0  0
  152.8527  136.7544  162.8937 H   0  0  0  0  0  0  0  0  0  0  0  0
  153.8141  138.1892  162.6393 H   0  0  0  0  0  0  0  0  0  0  0  0
  155.3724  135.9546  160.3088 H   0  0  0  0  0  0  0  0  0  0  0  0
  153.7293  135.5203  160.6888 H   0  0  0  0  0  0  0  0  0  0  0  0
  153.6300  137.4215  159.2128 H   0  0  0  0  0  0  0  0  0  0  0  0
  153.2043  138.0290  160.7964 H   0  0  0  0  0  0  0  0  0  0  0  0
  155.9394  138.3990  160.8455 H   0  0  0  0  0  0  0  0  0  0  0  0
  155.6369  138.5941  159.1347 H   0  0  0  0  0  0  0  0  0  0  0  0
  155.0883  140.4583  161.1895 H   0  0  0  0  0  0  0  0  0  0  0  0
  154.0840  142.1370  160.9679 H   0  0  0  0  0  0  0  0  0  0  0  0
  152.8266  143.9357  161.5442 H   0  0  0  0  0  0  0  0  0  0  0  0
  151.2756  145.7612  160.8474 H   0  0  0  0  0  0  0  0  0  0  0  0
  150.2668  145.6865  158.5488 H   0  0  0  0  0  0  0  0  0  0  0  0
  150.8694  143.7686  157.0470 H   0  0  0  0  0  0  0  0  0  0  0  0
  153.9288  134.5333  162.7557 H   0  0  0  0  0  0  0  0  0  0  0  0
  155.6217  134.4379  162.3281 H   0  0  0  0  0  0  0  0  0  0  0  0
  156.2741  135.5174  164.4581 H   0  0  0  0  0  0  0  0  0  0  0  0
  155.9932  133.0444  164.5140 H   0  0  0  0  0  0  0  0  0  0  0  0
  154.2911  133.2370  164.9325 H   0  0  0  0  0  0  0  0  0  0  0  0
  155.5414  133.7647  166.0560 H   0  0  0  0  0  0  0  0  0  0  0  0
  1  2  1  0  0  0  0
  1 22  1  0  0  0  0
  1 23  1  0  0  0  0
  1 24  1  0  0  0  0
  2 21  1  0  0  0  0
  2  3  1  0  0  0  0
  2 25  1  0  0  0  0
  3  4  1  0  0  0  0
  3 26  1  0  0  0  0
  3 27  1  0  0  0  0
  4  5  1  0  0  0  0
  4 18  1  0  0  0  0
  5  6  1  0  0  0  0
  5 28  1  0  0  0  0
  5 29  1  0  0  0  0
  6  7  1  0  0  0  0
  6 30  1  0  0  0  0
  6 31  1  0  0  0  0
  7  8  1  0  0  0  0
  7 32  1  0  0  0  0
  7 33  1  0  0  0  0
  8  9  1  0  0  0  0
  8 34  1  0  0  0  0
  9 10  2  0  0  0  0
  9 11  1  0  0  0  0
 11 12  1  0  0  0  0
 11 35  1  0  0  0  0
 12 17  1  0  0  0  0
 12 13  2  0  0  0  0
 13 14  1  0  0  0  0
 13 36  1  0  0  0  0
 14 15  2  0  0  0  0
 14 37  1  0  0  0  0
 15 16  1  0  0  0  0
 15 38  1  0  0  0  0
 16 17  2  0  0  0  0
 16 39  1  0  0  0  0
 18 19  1  0  0  0  0
 18 40  1  0  0  0  0
 18 41  1  0  0  0  0
 19 20  1  0  0  0  0
 19 21  1  0  0  0  0
 19 42  1  0  0  0  0
 20 43  1  0  0  0  0
 20 44  1  0  0  0  0
 20 45  1  0  0  0  0
M  END
> <s_m_source_file>
AV-unprocessed.smi

> <i_m_source_file_index>
1692

> <i_lp_mmshare_version>
43012

> <i_f3d_flags>
0

> <s_epik_input>
W0NIM11bQ0BASF0xW0NIMl1OKFtDSDJdW0NASF0oTzEpW0NIM10pW0NIMl1bQ0gyXVtDSDJdW05IXUMoPU8pW05IXWMyW2NIXVtjSF1bY0hdW2NIXW4y

> <s_epik_cmdline>
J2VwaWtfcHl0aG9uJywgJy1waCcsICc3LjAnLCAnLXRuJywgJzgnLCAnLW1hJywgJzIwMCcsICctbWV0YWxfYmluZGluZycsICctaW1hZScsICc8aW5maWxlLm1hZT4nLCAnLW9tYWUnLCAnPG91dGZpbGUubWFlPic=

> <r_epik_Ionization_Penalty>
0.594711

> <r_epik_Ionization_Penalty_Charging>
0

> <r_epik_Ionization_Penalty_Neutral>
0.594711

> <r_epik_State_Penalty>
0.608529

> <r_epik_Charging_Adjusted_Penalty>
0.608529

> <i_epik_Tot_Q>
0

> <i_epik_Tot_abs_Q>
0

> <r_epik_Metal_State_Penalty>
0.608528

> <b_epik_Metal_Only>
0

> <s_lp_Force_Field>
OPLS_2005

> <r_lp_Energy>
25.6838

> <b_lp_Chiralities_Consistent>
1

> <s_lp_Variant>
AV-unprocessed.smi:1692-7

> <Gold.Version>
5.8.1

> <Gold.Id.Protein>
6NUR|6NUR_protein|mol2

> <Gold.PLP.Fitness>
46.0266

> <Gold.PLP.PLP>
-41.3398

> <Gold.PLP.part.hbond>
-1.0000

> <Gold.PLP.part.metal>
0.0000

> <Gold.PLP.part.buried>
-6.0065

> <Gold.PLP.part.nonpolar>
-34.5077

> <Gold.PLP.part.repulsive>
0.3401

> <Gold.PLP.ligand.clash>
0.0000

> <Gold.PLP.ligand.torsion>
0.4730

> <Gold.PLP.Chemscore.Hbond>
0.9440

> <Gold.PLP.Chemscore.CHOScore>
0.9247

> <Gold.PLP.Chemscore.Metal>
0.0000

> <Gold.Chemscore.Hbonds>
donor molecule, donor type, donor heavy atom, donor atom, acceptor molecule, acceptor atom, score
      P1  H  7997  8009       L1    10  0.80
      L1  C    16    39       P1  8028  0.87

> <Gold.PLP.Chemscore.Internal.Correction>
0.0268

> <Gold.Rescore>
     Score         DG    S(hbond)    S(metal)    S(lipo)     H(rot)  DE(clash)    DE(int)     intcor
     14.66     -16.45       0.85        0.00     107.21       1.73       0.05       1.74       ----

> <Gold.Chemscore.Fitness>
14.6585

> <Gold.Chemscore.DG>
-16.4490

> <Gold.Chemscore.ZeroCoef>
-5.4800

> <Gold.Chemscore.Hbond>
0.8521

> <Gold.Chemscore.Metal>
0.0000

> <Gold.Chemscore.Lipo>
107.2053

> <Gold.Chemscore.Internal_Hbond>
0.0000

> <Gold.Chemscore.DEClash>
0.0545

> <Gold.Chemscore.DEInternal>
1.7360

> <Gold.Chemscore.Rot>
1.7266

> <Gold.Chemscore.Internal.Correction>
   9.000000E+99

> <Gold.Chemscore.Hbonds>
donor molecule, donor type, donor heavy atom, donor atom, acceptor molecule, acceptor atom, score
      P1  H  7997  8009       L1    10  0.58

> <Gold.Chemscore.Hbond.Weighted>
-2.8460

> <Gold.Chemscore.Metal.Weighted>
-0.0000

> <Gold.Chemscore.Lipo.Weighted>
-12.5430

> <Gold.Chemscore.Internal_Hbond.Weighted>
0.0000

> <Gold.Chemscore.DEClash.Weighted>
0.0545

> <Gold.Chemscore.DEInternal.Weighted>
1.7360

> <Gold.Chemscore.Rot.Weighted>
4.4200

> <Gold.Chemscore.Internal.Correction.Weighted>
   9.000000E+99

> <Gold.Protein.RotatedTorsions>
[ 6907 6896 6895 6894 ] final   70.79 input  -60.11 | X-H torsion
[ 7974 7965 7964 7962 ] final  -42.57 input  175.53 | X-H torsion
[ 8008 7997 7996 7995 ] final  154.30 input   59.86 | X-H torsion
[ 10167 10162 10161 10158 ] final -153.84 input  -65.29 | X-H torsion
[ 10718 10713 10712 10709 ] final   17.99 input   66.30 | X-H torsion
[ 10763 10752 10751 10750 ] final  128.15 input  -60.55 | X-H torsion
[ 11005 11000 10999 10996 ] final  145.90 input  -57.11 | X-H torsion

> <Gold.Protein.ActiveResidues>
 VAL166  LYS551  ARG553  GLY616  TRP617  ASP618  TYR619  PRO620  LYS621  CYS622 
 ASP623  PHE694  ASN695  SER759  ASP760  ASP761  ALA762  ILE779  LEU786  VAL792 
 PHE793  MET794  SER795  GLU796  ALA797  LYS798  CYS799  TRP800  GLU811  SER814 

> <Gold.Protein.RotatedAtoms>
  152.4771  134.4817  159.9667 H   0  0  0  0  0  0  0  0  0  0  0  0  # atno 6907 bound_to 6896
  151.4831  133.3536  159.2849 H   0  0  0  0  0  0  0  0  0  0  0  0  # atno 6908 bound_to 6896
  150.8816  134.8235  159.7290 H   0  0  0  0  0  0  0  0  0  0  0  0  # atno 6909 bound_to 6896
  146.0102  140.6972  142.9228 H   0  0  0  0  0  0  0  0  0  0  0  0  # atno 7974 bound_to 7965
  156.2538  140.1970  156.6624 H   0  0  0  0  0  0  0  0  0  0  0  0  # atno 8008 bound_to 7997
  154.6454  140.0578  156.9920 H   0  0  0  0  0  0  0  0  0  0  0  0  # atno 8009 bound_to 7997
  155.1498  140.3250  155.4436 H   0  0  0  0  0  0  0  0  0  0  0  0  # atno 8010 bound_to 7997
  139.7063  143.9181  152.2450 H   0  0  0  0  0  0  0  0  0  0  0  0  # atno 10167 bound_to 10162
  157.0899  130.6423  149.5846 H   0  0  0  0  0  0  0  0  0  0  0  0  # atno 10718 bound_to 10713
  153.7210  135.3253  155.3266 H   0  0  0  0  0  0  0  0  0  0  0  0  # atno 10763 bound_to 10752
  154.8356  135.4499  154.1218 H   0  0  0  0  0  0  0  0  0  0  0  0  # atno 10764 bound_to 10752
  153.2338  135.6963  153.7940 H   0  0  0  0  0  0  0  0  0  0  0  0  # atno 10765 bound_to 10752
  140.0749  134.9130  157.1406 H   0  0  0  0  0  0  0  0  0  0  0  0  # atno 11005 bound_to 11000
  144.6950  140.3386  143.7203 LP  0  0  0  0  0  0  0  0  0  0  0  0  # atno 17320 bound_to 7965
  145.7353  139.1748  143.2407 LP  0  0  0  0  0  0  0  0  0  0  0  0  # atno 17321 bound_to 7965
  139.9037  144.6897  150.8637 LP  0  0  0  0  0  0  0  0  0  0  0  0  # atno 17342 bound_to 10162
  140.7722  143.3494  151.2044 LP  0  0  0  0  0  0  0  0  0  0  0  0  # atno 17343 bound_to 10162
  155.9901  130.4950  150.7241 LP  0  0  0  0  0  0  0  0  0  0  0  0  # atno 17370 bound_to 10713
  157.4730  131.0895  151.0622 LP  0  0  0  0  0  0  0  0  0  0  0  0  # atno 17371 bound_to 10713
  140.3572  134.2534  155.7191 LP  0  0  0  0  0  0  0  0  0  0  0  0  # atno 17394 bound_to 11000
  141.2026  133.7934  157.0384 LP  0  0  0  0  0  0  0  0  0  0  0  0  # atno 17395 bound_to 11000

$$$$
