AV-unprocessed.smi:104|AV-procd|sdf|1006|dock2
  -GOLD-   2262018 03D 1   1.00000     0.00000
 Structure written by MMmdl.
 47 49  0  0  0  0  0  0  0  0  1 V2000
  149.9564  132.0273  155.0745 C   0  0  0  0  0  0  0  0  0  0  0  0
  150.1015  133.2567  155.9615 C   0  0  0  0  0  0  0  0  0  0  0  0
  150.5809  133.1811  157.0928 O   0  0  0  0  0  0  0  0  0  0  0  0
  149.6569  134.3718  155.3670 O   0  0  0  0  0  0  0  0  0  0  0  0
  149.7176  135.6113  156.0554 C   0  0  0  0  0  0  0  0  0  0  0  0
  149.1138  135.4846  157.4625 C   0  0  1  0  0  0  0  0  0  0  0  0
  150.0247  135.9478  158.4598 O   0  0  0  0  0  0  0  0  0  0  0  0
  149.4659  137.0057  159.1795 C   0  0  1  0  0  0  0  0  0  0  0  0
  149.9510  138.2793  158.5275 N   0  0  0  0  0  0  0  0  0  0  0  0
  151.2679  138.6279  158.3204 C   0  0  0  0  0  0  0  0  0  0  0  0
  152.7092  137.4993  158.8460 Br  0  0  0  0  0  0  0  0  0  0  0  0
  151.5105  139.7670  157.7400 N   0  0  0  0  0  0  0  0  0  0  0  0
  150.2382  140.2748  157.5286 C   0  0  0  0  0  0  0  0  0  0  0  0
  149.7530  141.4679  156.9365 C   0  0  0  0  0  0  0  0  0  0  0  0
  150.5580  142.4077  156.4228 N   0  0  0  0  0  0  0  0  0  0  0  0
  148.4172  141.6691  156.8819 N   0  0  0  0  0  0  0  0  0  0  0  0
  147.5949  140.7465  157.3867 C   0  0  0  0  0  0  0  0  0  0  0  0
  147.9027  139.5859  157.9689 N   0  0  0  0  0  0  0  0  0  0  0  0
  149.2506  139.3690  158.0227 C   0  0  0  0  0  0  0  0  0  0  0  0
  147.9521  136.7718  159.1050 C   0  0  2  0  0  0  0  0  0  0  0  0
  147.5843  135.7833  160.0633 O   0  0  0  0  0  0  0  0  0  0  0  0
  147.4985  136.0974  161.3673 C   0  0  0  0  0  0  0  0  0  0  0  0
  147.2726  134.8730  162.2440 C   0  0  0  0  0  0  0  0  0  0  0  0
  147.5904  137.2264  161.8489 O   0  0  0  0  0  0  0  0  0  0  0  0
  147.7971  136.2419  157.6818 C   0  0  2  0  0  0  0  0  0  0  0  0
  146.6558  135.4067  157.5275 O   0  0  0  0  0  0  0  0  0  0  0  0
  146.4242  134.7951  156.3526 C   0  0  0  0  0  0  0  0  0  0  0  0
  145.1688  133.9337  156.3841 C   0  0  0  0  0  0  0  0  0  0  0  0
  147.1126  134.8927  155.3366 O   0  0  0  0  0  0  0  0  0  0  0  0
  148.9960  132.0402  154.5586 H   0  0  0  0  0  0  0  0  0  0  0  0
  150.0151  131.1161  155.6700 H   0  0  0  0  0  0  0  0  0  0  0  0
  150.7507  132.0047  154.3285 H   0  0  0  0  0  0  0  0  0  0  0  0
  150.7591  135.9264  156.1306 H   0  0  0  0  0  0  0  0  0  0  0  0
  149.1851  136.3784  155.4915 H   0  0  0  0  0  0  0  0  0  0  0  0
  148.9578  134.4268  157.6771 H   0  0  0  0  0  0  0  0  0  0  0  0
  149.8620  137.0659  160.1938 H   0  0  0  0  0  0  0  0  0  0  0  0
  151.5596  142.2811  156.4476 H   0  0  0  0  0  0  0  0  0  0  0  0
  150.1617  143.2421  156.0153 H   0  0  0  0  0  0  0  0  0  0  0  0
  146.5401  140.9678  157.3134 H   0  0  0  0  0  0  0  0  0  0  0  0
  147.3827  137.6806  159.2881 H   0  0  0  0  0  0  0  0  0  0  0  0
  146.3111  134.4147  162.0123 H   0  0  0  0  0  0  0  0  0  0  0  0
  147.2787  135.1496  163.2986 H   0  0  0  0  0  0  0  0  0  0  0  0
  148.0577  134.1358  162.0758 H   0  0  0  0  0  0  0  0  0  0  0  0
  147.7456  137.0746  156.9812 H   0  0  0  0  0  0  0  0  0  0  0  0
  145.2716  133.1410  157.1252 H   0  0  0  0  0  0  0  0  0  0  0  0
  144.9932  133.4763  155.4103 H   0  0  0  0  0  0  0  0  0  0  0  0
  144.3004  134.5401  156.6421 H   0  0  0  0  0  0  0  0  0  0  0  0
  1  2  1  0  0  0  0
  1 30  1  0  0  0  0
  1 31  1  0  0  0  0
  1 32  1  0  0  0  0
  2  3  2  0  0  0  0
  2  4  1  0  0  0  0
  4  5  1  0  0  0  0
  5  6  1  0  0  0  0
  5 33  1  0  0  0  0
  5 34  1  0  0  0  0
  6 25  1  0  0  0  0
  6  7  1  0  0  0  0
  6 35  1  0  0  0  0
  7  8  1  0  0  0  0
  8  9  1  0  0  0  0
  8 20  1  0  0  0  0
  8 36  1  0  0  0  0
  9 19  1  0  0  0  0
  9 10  1  0  0  0  0
 10 11  1  0  0  0  0
 10 12  2  0  0  0  0
 12 13  1  0  0  0  0
 13 19  2  0  0  0  0
 13 14  1  0  0  0  0
 14 15  1  0  0  0  0
 14 16  2  0  0  0  0
 15 37  1  0  0  0  0
 15 38  1  0  0  0  0
 16 17  1  0  0  0  0
 17 18  2  0  0  0  0
 17 39  1  0  0  0  0
 18 19  1  0  0  0  0
 20 21  1  0  0  0  0
 20 25  1  0  0  0  0
 20 40  1  0  0  0  0
 21 22  1  0  0  0  0
 22 23  1  0  0  0  0
 22 24  2  0  0  0  0
 23 41  1  0  0  0  0
 23 42  1  0  0  0  0
 23 43  1  0  0  0  0
 25 26  1  0  0  0  0
 25 44  1  0  0  0  0
 26 27  1  0  0  0  0
 27 28  1  0  0  0  0
 27 29  2  0  0  0  0
 28 45  1  0  0  0  0
 28 46  1  0  0  0  0
 28 47  1  0  0  0  0
M  END
> <s_m_source_file>
AV-unprocessed.smi

> <i_m_source_file_index>
104

> <i_lp_mmshare_version>
43012

> <i_f3d_flags>
0

> <s_epik_input>
W0NIM11DKD1PKU9bQ0gyXVtDQEBIXTFPW0NASF0oW0NAQEhdKE9DKD1PKVtDSDNdKVtDQEhdMU9DKD1PKVtDSDNdKW4oYyhCciluMiljKGMyMyluW2NIXW5jM1tOSDJd

> <s_epik_cmdline>
J2VwaWtfcHl0aG9uJywgJy1waCcsICc3LjAnLCAnLXRuJywgJzgnLCAnLW1hJywgJzIwMCcsICctbWV0YWxfYmluZGluZycsICctaW1hZScsICc8aW5maWxlLm1hZT4nLCAnLW9tYWUnLCAnPG91dGZpbGUubWFlPic=

> <r_lp_tautomer_probability>
1

> <r_epik_Ionization_Penalty>
7.36622e-05

> <r_epik_Ionization_Penalty_Charging>
0

> <r_epik_Ionization_Penalty_Neutral>
7.36622e-05

> <r_epik_State_Penalty>
-0

> <r_epik_Charging_Adjusted_Penalty>
0

> <i_epik_Tot_Q>
0

> <i_epik_Tot_abs_Q>
0

> <r_epik_Metal_State_Penalty>
-0

> <b_epik_Metal_Only>
0

> <s_epik_Chemistry_Notes>
This compound has an ester and may undergo hydrolysis at high or low pH. This compound contains an acetal/aminal-like group ( X-CH(R)-Y where X, Y are N, S, or O) that may be acid/base labile, releasing an aldehyde.

> <s_lp_Force_Field>
OPLS_2005

> <r_lp_Energy>
17.7308

> <b_lp_Chiralities_Consistent>
1

> <s_lp_Variant>
AV-unprocessed.smi:104-14

> <Gold.Version>
5.8.1

> <Gold.Id.Protein>
6NUR|6NUR_protein|mol2

> <Gold.PLP.Fitness>
43.7009

> <Gold.PLP.PLP>
-32.3947

> <Gold.PLP.part.hbond>
-5.7083

> <Gold.PLP.part.metal>
0.0000

> <Gold.PLP.part.buried>
-7.1401

> <Gold.PLP.part.nonpolar>
-19.7073

> <Gold.PLP.part.repulsive>
0.3284

> <Gold.PLP.ligand.clash>
0.0000

> <Gold.PLP.ligand.torsion>
0.9864

> <Gold.PLP.Chemscore.Hbond>
4.3588

> <Gold.PLP.Chemscore.CHOScore>
0.0000

> <Gold.PLP.Chemscore.Metal>
0.0000

> <Gold.Chemscore.Hbonds>
donor molecule, donor type, donor heavy atom, donor atom, acceptor molecule, acceptor atom, score
      L1  H    15    38       P1  8028  1.00
      P1  H  6896  6907       L1     7  0.82
      P1  H  6896  6909       L1     3  0.48
      P1  H  6931  6943       L1    24  0.96
      P1  H  6934  6947       L1    24  0.66

> <Gold.PLP.Chemscore.Internal.Correction>
0.2025

> <Gold.Rescore>
     Score         DG    S(hbond)    S(metal)    S(lipo)     H(rot)  DE(clash)    DE(int)     intcor
      9.76     -12.96       4.32        0.00      34.93       4.31       0.00       3.20       ----

> <Gold.Chemscore.Fitness>
9.7594

> <Gold.Chemscore.DG>
-12.9570

> <Gold.Chemscore.ZeroCoef>
-5.4800

> <Gold.Chemscore.Hbond>
4.3164

> <Gold.Chemscore.Metal>
0.0000

> <Gold.Chemscore.Lipo>
34.9252

> <Gold.Chemscore.Internal_Hbond>
0.0000

> <Gold.Chemscore.DEClash>
0.0000

> <Gold.Chemscore.DEInternal>
3.1976

> <Gold.Chemscore.Rot>
4.3070

> <Gold.Chemscore.Internal.Correction>
   9.000000E+99

> <Gold.Chemscore.Hbonds>
donor molecule, donor type, donor heavy atom, donor atom, acceptor molecule, acceptor atom, score
      L1  H    15    38       P1  8028  0.97
      P1  H  6896  6907       L1     7  0.32
      P1  H  6896  6909       L1     3  0.48
      P1  H  6931  6943       L1    24  0.92
      P1  H  6934  6947       L1    24  0.64

> <Gold.Chemscore.Hbond.Weighted>
-14.4167

> <Gold.Chemscore.Metal.Weighted>
-0.0000

> <Gold.Chemscore.Lipo.Weighted>
-4.0862

> <Gold.Chemscore.Internal_Hbond.Weighted>
0.0000

> <Gold.Chemscore.DEClash.Weighted>
0.0000

> <Gold.Chemscore.DEInternal.Weighted>
3.1976

> <Gold.Chemscore.Rot.Weighted>
11.0259

> <Gold.Chemscore.Internal.Correction.Weighted>
   9.000000E+99

> <Gold.Protein.RotatedTorsions>
[ 6907 6896 6895 6894 ] final  -33.81 input  -60.11 | X-H torsion
[ 7974 7965 7964 7962 ] final  -80.93 input  175.53 | X-H torsion
[ 8008 7997 7996 7995 ] final -170.61 input   59.86 | X-H torsion
[ 10167 10162 10161 10158 ] final  -49.18 input  -65.29 | X-H torsion
[ 10718 10713 10712 10709 ] final -132.45 input   66.30 | X-H torsion
[ 10763 10752 10751 10750 ] final  128.83 input  -60.55 | X-H torsion
[ 11005 11000 10999 10996 ] final  106.77 input  -57.11 | X-H torsion

> <Gold.Protein.ActiveResidues>
 VAL166  LYS551  ARG553  GLY616  TRP617  ASP618  TYR619  PRO620  LYS621  CYS622 
 ASP623  PHE694  ASN695  SER759  ASP760  ASP761  ALA762  ILE779  LEU786  VAL792 
 PHE793  MET794  SER795  GLU796  ALA797  LYS798  CYS799  TRP800  GLU811  SER814 

> <Gold.Protein.RotatedAtoms>
  151.0607  134.9735  159.8258 H   0  0  0  0  0  0  0  0  0  0  0  0  # atno 6907 bound_to 6896
  152.5395  134.2421  159.8876 H   0  0  0  0  0  0  0  0  0  0  0  0  # atno 6908 bound_to 6896
  151.2441  133.4341  159.2642 H   0  0  0  0  0  0  0  0  0  0  0  0  # atno 6909 bound_to 6896
  145.5534  140.9493  143.1486 H   0  0  0  0  0  0  0  0  0  0  0  0  # atno 7974 bound_to 7965
  155.9206  140.1073  157.1209 H   0  0  0  0  0  0  0  0  0  0  0  0  # atno 8008 bound_to 7997
  154.4053  140.1256  156.4740 H   0  0  0  0  0  0  0  0  0  0  0  0  # atno 8009 bound_to 7997
  155.7200  140.3470  155.5014 H   0  0  0  0  0  0  0  0  0  0  0  0  # atno 8010 bound_to 7997
  140.6697  143.2708  151.4178 H   0  0  0  0  0  0  0  0  0  0  0  0  # atno 10167 bound_to 10162
  156.2347  130.7059  151.0895 H   0  0  0  0  0  0  0  0  0  0  0  0  # atno 10718 bound_to 10713
  153.7320  135.3237  155.3287 H   0  0  0  0  0  0  0  0  0  0  0  0  # atno 10763 bound_to 10752
  154.8323  135.4524  154.1112 H   0  0  0  0  0  0  0  0  0  0  0  0  # atno 10764 bound_to 10752
  153.2262  135.6954  153.8023 H   0  0  0  0  0  0  0  0  0  0  0  0  # atno 10765 bound_to 10752
  139.8818  134.9380  156.5717 H   0  0  0  0  0  0  0  0  0  0  0  0  # atno 11005 bound_to 11000
  144.7518  139.7175  143.7270 LP  0  0  0  0  0  0  0  0  0  0  0  0  # atno 17320 bound_to 7965
  146.1901  139.5136  142.9811 LP  0  0  0  0  0  0  0  0  0  0  0  0  # atno 17321 bound_to 7965
  139.5960  144.1397  152.2144 LP  0  0  0  0  0  0  0  0  0  0  0  0  # atno 17342 bound_to 10162
  140.0766  144.5735  150.7152 LP  0  0  0  0  0  0  0  0  0  0  0  0  # atno 17343 bound_to 10162
  157.7149  131.0715  150.6365 LP  0  0  0  0  0  0  0  0  0  0  0  0  # atno 17370 bound_to 10713
  156.6434  130.4465  149.5744 LP  0  0  0  0  0  0  0  0  0  0  0  0  # atno 17371 bound_to 10713
  140.8093  133.8442  155.8796 LP  0  0  0  0  0  0  0  0  0  0  0  0  # atno 17394 bound_to 11000
  140.9521  134.1766  157.4720 LP  0  0  0  0  0  0  0  0  0  0  0  0  # atno 17395 bound_to 11000

$$$$
