AV-unprocessed.smi:1824|AV-procd|sdf|7395|dock1
  -GOLD-   22720 9 63D 1   1.00000     0.00000
 Structure written by MMmdl.
 44 46  0  0  0  0  0  0  0  0  1 V2000
  145.1107  144.2169  153.3962 C   0  0  0  0  0  0  0  0  0  0  0  0
  145.9644  143.5183  154.4595 C   0  0  2  0  0  0  0  0  0  0  0  0
  147.0880  142.6694  153.8374 C   0  0  0  0  0  0  0  0  0  0  0  0
  147.8459  141.9502  154.8522 N   0  0  0  0  0  0  0  0  0  0  0  0
  148.9531  141.1990  154.2580 C   0  0  0  0  0  0  0  0  0  0  0  0
  149.9658  140.6268  155.2689 C   0  0  1  0  0  0  0  0  0  0  0  0
  150.8586  139.7791  154.5755 O   0  0  0  0  0  0  0  0  0  0  0  0
  150.7728  141.7275  155.9856 C   0  0  0  0  0  0  0  0  0  0  0  0
  151.4134  141.2359  157.1899 N   0  0  0  0  0  0  0  0  0  0  0  0
  151.8275  139.9806  157.4482 C   0  0  0  0  0  0  0  0  0  0  0  0
  152.3932  139.7596  158.6319 N   0  0  0  0  0  0  0  0  0  0  0  0
  152.3442  141.0187  159.2062 C   0  0  0  0  0  0  0  0  0  0  0  0
  152.7867  141.4710  160.4699 C   0  0  0  0  0  0  0  0  0  0  0  0
  152.6275  142.8226  160.8417 C   0  0  0  0  0  0  0  0  0  0  0  0
  153.0582  143.2393  162.0560 F   0  0  0  0  0  0  0  0  0  0  0  0
  152.0235  143.7413  159.9571 C   0  0  0  0  0  0  0  0  0  0  0  0
  151.8745  145.0370  160.3212 F   0  0  0  0  0  0  0  0  0  0  0  0
  151.5745  143.3136  158.6934 C   0  0  0  0  0  0  0  0  0  0  0  0
  151.7363  141.9648  158.3279 C   0  0  0  0  0  0  0  0  0  0  0  0
  146.9312  141.1032  155.6160 C   0  0  0  0  0  0  0  0  0  0  0  0
  145.7639  141.8973  156.2340 C   0  0  1  0  0  0  0  0  0  0  0  0
  146.1850  142.7517  157.4418 C   0  0  0  0  0  0  0  0  0  0  0  0
  145.1095  142.6783  155.2327 O   0  0  0  0  0  0  0  0  0  0  0  0
  145.7162  144.8863  152.7850 H   0  0  0  0  0  0  0  0  0  0  0  0
  144.3227  144.8116  153.8592 H   0  0  0  0  0  0  0  0  0  0  0  0
  144.6358  143.4937  152.7326 H   0  0  0  0  0  0  0  0  0  0  0  0
  146.4003  144.2818  155.1048 H   0  0  0  0  0  0  0  0  0  0  0  0
  146.6619  141.9622  153.1240 H   0  0  0  0  0  0  0  0  0  0  0  0
  147.7556  143.3198  153.2710 H   0  0  0  0  0  0  0  0  0  0  0  0
  148.5513  140.3890  153.6471 H   0  0  0  0  0  0  0  0  0  0  0  0
  149.4970  141.8485  153.5703 H   0  0  0  0  0  0  0  0  0  0  0  0
  149.4522  140.0054  156.0016 H   0  0  0  0  0  0  0  0  0  0  0  0
  151.4978  139.4509  155.1892 H   0  0  0  0  0  0  0  0  0  0  0  0
  151.5294  142.1510  155.3233 H   0  0  0  0  0  0  0  0  0  0  0  0
  150.1200  142.5515  156.2756 H   0  0  0  0  0  0  0  0  0  0  0  0
  151.7040  139.1843  156.7284 H   0  0  0  0  0  0  0  0  0  0  0  0
  153.2506  140.7772  161.1551 H   0  0  0  0  0  0  0  0  0  0  0  0
  151.1117  144.0127  158.0131 H   0  0  0  0  0  0  0  0  0  0  0  0
  146.5256  140.3292  154.9626 H   0  0  0  0  0  0  0  0  0  0  0  0
  147.4588  140.5845  156.4152 H   0  0  0  0  0  0  0  0  0  0  0  0
  145.0250  141.1812  156.5945 H   0  0  0  0  0  0  0  0  0  0  0  0
  146.5680  142.1233  158.2461 H   0  0  0  0  0  0  0  0  0  0  0  0
  145.3365  143.3108  157.8365 H   0  0  0  0  0  0  0  0  0  0  0  0
  146.9675  143.4660  157.1865 H   0  0  0  0  0  0  0  0  0  0  0  0
  1  2  1  0  0  0  0
  1 24  1  0  0  0  0
  1 25  1  0  0  0  0
  1 26  1  0  0  0  0
  2 23  1  0  0  0  0
  2  3  1  0  0  0  0
  2 27  1  0  0  0  0
  3  4  1  0  0  0  0
  3 28  1  0  0  0  0
  3 29  1  0  0  0  0
  4  5  1  0  0  0  0
  4 20  1  0  0  0  0
  5  6  1  0  0  0  0
  5 30  1  0  0  0  0
  5 31  1  0  0  0  0
  6  7  1  0  0  0  0
  6  8  1  0  0  0  0
  6 32  1  0  0  0  0
  7 33  1  0  0  0  0
  8  9  1  0  0  0  0
  8 34  1  0  0  0  0
  8 35  1  0  0  0  0
  9 19  1  0  0  0  0
  9 10  1  0  0  0  0
 10 11  2  0  0  0  0
 10 36  1  0  0  0  0
 11 12  1  0  0  0  0
 12 19  2  0  0  0  0
 12 13  1  0  0  0  0
 13 14  2  0  0  0  0
 13 37  1  0  0  0  0
 14 15  1  0  0  0  0
 14 16  1  0  0  0  0
 16 17  1  0  0  0  0
 16 18  2  0  0  0  0
 18 19  1  0  0  0  0
 18 38  1  0  0  0  0
 20 21  1  0  0  0  0
 20 39  1  0  0  0  0
 20 40  1  0  0  0  0
 21 22  1  0  0  0  0
 21 23  1  0  0  0  0
 21 41  1  0  0  0  0
 22 42  1  0  0  0  0
 22 43  1  0  0  0  0
 22 44  1  0  0  0  0
M  END
> <s_m_source_file>
AV-unprocessed.smi

> <i_m_source_file_index>
1824

> <i_lp_mmshare_version>
43012

> <i_f3d_flags>
0

> <s_epik_input>
W0NIM11bQ0BASF0xW0NIMl1OKFtDSDJdW0NASF0oTzEpW0NIM10pW0NIMl1bQ0BIXShbT0hdKVtDSDJdbihbY0hdbjIpYyhjMjMpW2NIXWMoRiljKEYpW2NIXTM=

> <s_epik_cmdline>
J2VwaWtfcHl0aG9uJywgJy1waCcsICc3LjAnLCAnLXRuJywgJzgnLCAnLW1hJywgJzIwMCcsICctbWV0YWxfYmluZGluZycsICctaW1hZScsICc8aW5maWxlLm1hZT4nLCAnLW9tYWUnLCAnPG91dGZpbGUubWFlPic=

> <r_epik_Ionization_Penalty>
0.273778

> <r_epik_Ionization_Penalty_Charging>
0

> <r_epik_Ionization_Penalty_Neutral>
0.273778

> <r_epik_State_Penalty>
0.246794

> <r_epik_Charging_Adjusted_Penalty>
0.246794

> <i_epik_Tot_Q>
0

> <i_epik_Tot_abs_Q>
0

> <r_epik_Metal_State_Penalty>
0.238234

> <b_epik_Metal_Only>
0

> <s_lp_Force_Field>
OPLS_2005

> <r_lp_Energy>
25.978

> <b_lp_Chiralities_Consistent>
1

> <s_lp_Variant>
AV-unprocessed.smi:1824-3

> <Gold.Version>
5.8.1

> <Gold.Id.Protein>
6NUR|6NUR_protein|mol2

> <Gold.PLP.Fitness>
51.2561

> <Gold.PLP.PLP>
-49.3538

> <Gold.PLP.part.hbond>
-1.0000

> <Gold.PLP.part.metal>
0.0000

> <Gold.PLP.part.buried>
-7.8315

> <Gold.PLP.part.nonpolar>
-41.1378

> <Gold.PLP.part.repulsive>
0.4433

> <Gold.PLP.ligand.clash>
0.0000

> <Gold.PLP.ligand.torsion>
0.5926

> <Gold.PLP.Chemscore.Hbond>
1.0000

> <Gold.PLP.Chemscore.CHOScore>
0.0000

> <Gold.PLP.Chemscore.Metal>
0.0000

> <Gold.Chemscore.Hbonds>
donor molecule, donor type, donor heavy atom, donor atom, acceptor molecule, acceptor atom, score
      P1  H  7989  7998       L1     7  1.00

> <Gold.PLP.Chemscore.Internal.Correction>
0.0875

> <Gold.Rescore>
     Score         DG    S(hbond)    S(metal)    S(lipo)     H(rot)  DE(clash)    DE(int)     intcor
     13.60     -14.37       0.62        0.00     107.92       2.26       0.06       0.72       ----

> <Gold.Chemscore.Fitness>
13.5999

> <Gold.Chemscore.DG>
-14.3749

> <Gold.Chemscore.ZeroCoef>
-5.4800

> <Gold.Chemscore.Hbond>
0.6163

> <Gold.Chemscore.Metal>
0.0000

> <Gold.Chemscore.Lipo>
107.9215

> <Gold.Chemscore.Internal_Hbond>
0.0000

> <Gold.Chemscore.DEClash>
0.0586

> <Gold.Chemscore.DEInternal>
0.7164

> <Gold.Chemscore.Rot>
2.2619

> <Gold.Chemscore.Internal.Correction>
   9.000000E+99

> <Gold.Chemscore.Hbonds>
donor molecule, donor type, donor heavy atom, donor atom, acceptor molecule, acceptor atom, score
      P1  H  7989  7998       L1     7  0.28

> <Gold.Chemscore.Hbond.Weighted>
-2.0585

> <Gold.Chemscore.Metal.Weighted>
-0.0000

> <Gold.Chemscore.Lipo.Weighted>
-12.6268

> <Gold.Chemscore.Internal_Hbond.Weighted>
0.0000

> <Gold.Chemscore.DEClash.Weighted>
0.0586

> <Gold.Chemscore.DEInternal.Weighted>
0.7164

> <Gold.Chemscore.Rot.Weighted>
5.7904

> <Gold.Chemscore.Internal.Correction.Weighted>
   9.000000E+99

> <Gold.Protein.RotatedTorsions>
[ 6907 6896 6895 6894 ] final   12.66 input  -60.11 | X-H torsion
[ 7974 7965 7964 7962 ] final   13.06 input  175.53 | X-H torsion
[ 8008 7997 7996 7995 ] final -112.08 input   59.86 | X-H torsion
[ 10167 10162 10161 10158 ] final  -52.66 input  -65.29 | X-H torsion
[ 10718 10713 10712 10709 ] final  164.55 input   66.30 | X-H torsion
[ 10763 10752 10751 10750 ] final   -7.45 input  -60.55 | X-H torsion
[ 11005 11000 10999 10996 ] final  -40.51 input  -57.11 | X-H torsion

> <Gold.Protein.ActiveResidues>
 VAL166  LYS551  ARG553  GLY616  TRP617  ASP618  TYR619  PRO620  LYS621  CYS622 
 ASP623  PHE694  ASN695  SER759  ASP760  ASP761  ALA762  ILE779  LEU786  VAL792 
 PHE793  MET794  SER795  GLU796  ALA797  LYS798  CYS799  TRP800  GLU811  SER814 

> <Gold.Protein.RotatedAtoms>
  151.7738  135.0779  160.0363 H   0  0  0  0  0  0  0  0  0  0  0  0  # atno 6907 bound_to 6896
  152.3270  133.5911  159.5792 H   0  0  0  0  0  0  0  0  0  0  0  0  # atno 6908 bound_to 6896
  150.7401  133.9842  159.3628 H   0  0  0  0  0  0  0  0  0  0  0  0  # atno 6909 bound_to 6896
  146.2338  139.9245  142.8505 H   0  0  0  0  0  0  0  0  0  0  0  0  # atno 7974 bound_to 7965
  154.9997  140.0394  157.2355 H   0  0  0  0  0  0  0  0  0  0  0  0  # atno 8008 bound_to 7997
  154.7554  140.2775  155.6234 H   0  0  0  0  0  0  0  0  0  0  0  0  # atno 8009 bound_to 7997
  156.2893  140.2638  156.2319 H   0  0  0  0  0  0  0  0  0  0  0  0  # atno 8010 bound_to 7997
  140.6526  143.2576  151.4680 H   0  0  0  0  0  0  0  0  0  0  0  0  # atno 10167 bound_to 10162
  157.0928  131.0422  151.2530 H   0  0  0  0  0  0  0  0  0  0  0  0  # atno 10718 bound_to 10713
  153.4266  135.7011  153.6258 H   0  0  0  0  0  0  0  0  0  0  0  0  # atno 10763 bound_to 10752
  153.4691  135.3719  155.2381 H   0  0  0  0  0  0  0  0  0  0  0  0  # atno 10764 bound_to 10752
  154.8724  135.4038  154.3643 H   0  0  0  0  0  0  0  0  0  0  0  0  # atno 10765 bound_to 10752
  141.0180  133.6876  156.2331 H   0  0  0  0  0  0  0  0  0  0  0  0  # atno 11005 bound_to 11000
  145.2105  140.9893  143.4103 LP  0  0  0  0  0  0  0  0  0  0  0  0  # atno 17320 bound_to 7965
  144.9696  139.3894  143.6316 LP  0  0  0  0  0  0  0  0  0  0  0  0  # atno 17321 bound_to 7965
  139.5743  144.1856  152.1881 LP  0  0  0  0  0  0  0  0  0  0  0  0  # atno 17342 bound_to 10162
  140.1162  144.5414  150.6893 LP  0  0  0  0  0  0  0  0  0  0  0  0  # atno 17343 bound_to 10162
  157.4707  130.7707  149.7320 LP  0  0  0  0  0  0  0  0  0  0  0  0  # atno 17370 bound_to 10713
  155.9893  130.3952  150.3077 LP  0  0  0  0  0  0  0  0  0  0  0  0  # atno 17371 bound_to 10713
  140.6622  134.4956  157.5584 LP  0  0  0  0  0  0  0  0  0  0  0  0  # atno 17394 bound_to 11000
  139.9128  134.8308  156.1467 LP  0  0  0  0  0  0  0  0  0  0  0  0  # atno 17395 bound_to 11000

$$$$
