AV-unprocessed.smi:2881|AV-procd|sdf|11064|dock3
  -GOLD-   2272015533D 1   1.00000     0.00000
 Structure written by MMmdl.
 40 42  0  0  0  0  0  0  0  0  1 V2000
  154.0468  142.7634  163.8828 C   0  0  0  0  0  0  0  0  0  0  0  0
  153.7452  142.3250  162.4802 C   0  0  0  0  0  0  0  0  0  0  0  0
  152.7061  142.7844  161.6189 C   0  0  0  0  0  0  0  0  0  0  0  0
  152.8813  142.0702  160.4665 C   0  0  0  0  0  0  0  0  0  0  0  0
  152.1228  142.0755  159.1755 C   0  0  0  0  0  0  0  0  0  0  0  0
  152.4424  140.8671  158.2876 C   0  0  0  0  0  0  0  0  0  0  0  0
  153.3552  140.0903  158.5726 O   0  0  0  0  0  0  0  0  0  0  0  0
  151.6755  140.7334  157.1949 N   0  0  0  0  0  0  0  0  0  0  0  0
  151.7921  139.6753  156.1893 C   0  0  1  0  0  0  0  0  0  0  0  0
  151.5223  138.2704  156.7852 C   0  0  1  0  0  0  0  0  0  0  0  0
  150.2083  138.2447  157.5951 C   0  0  0  0  0  0  0  0  0  0  0  0
  149.1376  138.3897  156.4989 C   0  0  0  0  0  0  0  0  0  0  0  0
  149.9732  138.4233  155.2014 C   0  0  2  0  0  0  0  0  0  0  0  0
  151.1111  137.4720  155.5523 C   0  0  0  0  0  0  0  0  0  0  0  0
  150.7396  139.7572  155.0432 C   0  0  1  0  0  0  0  0  0  0  0  0
  149.8408  141.0117  154.9536 C   0  0  0  0  0  0  0  0  0  0  0  0
  149.2789  141.1279  153.6632 O   0  0  0  0  0  0  0  0  0  0  0  0
  153.9655  141.2500  160.6861 N   0  0  0  0  0  0  0  0  0  0  0  0
  154.5019  141.3983  161.9115 N   0  0  0  0  0  0  0  0  0  0  0  0
  154.3485  140.5987  160.0158 H   0  0  0  0  0  0  0  0  0  0  0  0
  153.2760  143.4361  164.2592 H   0  0  0  0  0  0  0  0  0  0  0  0
  155.0000  143.2906  163.9318 H   0  0  0  0  0  0  0  0  0  0  0  0
  154.1010  141.9102  164.5593 H   0  0  0  0  0  0  0  0  0  0  0  0
  151.9483  143.5280  161.8172 H   0  0  0  0  0  0  0  0  0  0  0  0
  152.3524  142.9835  158.6168 H   0  0  0  0  0  0  0  0  0  0  0  0
  151.0514  142.0979  159.3794 H   0  0  0  0  0  0  0  0  0  0  0  0
  150.9510  141.4200  157.0425 H   0  0  0  0  0  0  0  0  0  0  0  0
  152.7925  139.6801  155.7518 H   0  0  0  0  0  0  0  0  0  0  0  0
  152.3729  137.8600  157.3300 H   0  0  0  0  0  0  0  0  0  0  0  0
  150.0974  137.2870  158.1052 H   0  0  0  0  0  0  0  0  0  0  0  0
  150.1415  139.0211  158.3567 H   0  0  0  0  0  0  0  0  0  0  0  0
  148.4730  137.5249  156.5049 H   0  0  0  0  0  0  0  0  0  0  0  0
  148.5177  139.2753  156.6330 H   0  0  0  0  0  0  0  0  0  0  0  0
  149.4071  138.1424  154.3127 H   0  0  0  0  0  0  0  0  0  0  0  0
  151.8895  137.4220  154.7887 H   0  0  0  0  0  0  0  0  0  0  0  0
  150.7753  136.4592  155.7828 H   0  0  0  0  0  0  0  0  0  0  0  0
  151.2801  139.6915  154.0965 H   0  0  0  0  0  0  0  0  0  0  0  0
  149.0206  140.9315  155.6673 H   0  0  0  0  0  0  0  0  0  0  0  0
  150.3820  141.9264  155.1939 H   0  0  0  0  0  0  0  0  0  0  0  0
  148.3641  140.8956  153.7099 H   0  0  0  0  0  0  0  0  0  0  0  0
  1 21  1  0  0  0  0
  1 22  1  0  0  0  0
  1 23  1  0  0  0  0
  1  2  1  0  0  0  0
  2 19  2  0  0  0  0
  2  3  1  0  0  0  0
  3  4  2  0  0  0  0
  3 24  1  0  0  0  0
  4 18  1  0  0  0  0
  4  5  1  0  0  0  0
  5  6  1  0  0  0  0
  5 25  1  0  0  0  0
  5 26  1  0  0  0  0
  6  7  2  0  0  0  0
  6  8  1  0  0  0  0
  8  9  1  0  0  0  0
  8 27  1  0  0  0  0
  9 15  1  0  0  0  0
  9 10  1  0  0  0  0
  9 28  1  0  0  0  0
 10 14  1  0  0  0  0
 10 11  1  0  0  0  0
 10 29  1  0  0  0  0
 11 12  1  0  0  0  0
 11 30  1  0  0  0  0
 11 31  1  0  0  0  0
 12 13  1  0  0  0  0
 12 32  1  0  0  0  0
 12 33  1  0  0  0  0
 13 14  1  0  0  0  0
 13 15  1  0  0  0  0
 13 34  1  0  0  0  0
 14 35  1  0  0  0  0
 14 36  1  0  0  0  0
 15 16  1  0  0  0  0
 15 37  1  0  0  0  0
 16 17  1  0  0  0  0
 16 38  1  0  0  0  0
 16 39  1  0  0  0  0
 17 40  1  0  0  0  0
 18 19  1  0  0  0  0
 18 20  1  0  0  0  0
M  END
> <s_m_source_file>
AV-unprocessed.smi

> <i_m_source_file_index>
2881

> <i_lp_mmshare_version>
43012

> <i_f3d_flags>
0

> <s_epik_input>
W0NIM11jMVtjSF1jKG5bbkhdMSlbQ0gyXUMoPU8pW05IXVtDQEhdKFtDQEBIXTIzKVtDQEhdKFtDSDJdW09IXSlbQ0BASF0oW0NIMl0zKVtDSDJdW0NIMl0y

> <s_epik_cmdline>
J2VwaWtfcHl0aG9uJywgJy1waCcsICc3LjAnLCAnLXRuJywgJzgnLCAnLW1hJywgJzIwMCcsICctbWV0YWxfYmluZGluZycsICctaW1hZScsICc8aW5maWxlLm1hZT4nLCAnLW9tYWUnLCAnPG91dGZpbGUubWFlPic=

> <r_lp_tautomer_probability>
0.5

> <r_epik_Ionization_Penalty>
0.00013396

> <r_epik_Ionization_Penalty_Charging>
0

> <r_epik_Ionization_Penalty_Neutral>
0.00013396

> <r_epik_State_Penalty>
0.41068

> <r_epik_Charging_Adjusted_Penalty>
0.41068

> <i_epik_Tot_Q>
0

> <i_epik_Tot_abs_Q>
0

> <r_epik_Metal_State_Penalty>
0.41066

> <b_epik_Metal_Only>
0

> <s_lp_Force_Field>
OPLS_2005

> <r_lp_Energy>
49.8973

> <b_lp_Chiralities_Consistent>
1

> <s_lp_Variant>
AV-unprocessed.smi:2881-10

> <Gold.Version>
5.8.1

> <Gold.Id.Protein>
6NUR|6NUR_protein|mol2

> <Gold.PLP.Fitness>
42.9435

> <Gold.PLP.PLP>
-38.3420

> <Gold.PLP.part.hbond>
-5.0000

> <Gold.PLP.part.metal>
0.0000

> <Gold.PLP.part.buried>
-2.8575

> <Gold.PLP.part.nonpolar>
-29.0900

> <Gold.PLP.part.repulsive>
0.1234

> <Gold.PLP.ligand.clash>
0.5266

> <Gold.PLP.ligand.torsion>
0.4075

> <Gold.PLP.Chemscore.Hbond>
1.9760

> <Gold.PLP.Chemscore.CHOScore>
0.0000

> <Gold.PLP.Chemscore.Metal>
0.0000

> <Gold.Chemscore.Hbonds>
donor molecule, donor type, donor heavy atom, donor atom, acceptor molecule, acceptor atom, score
      P1  H  7997  8008       L1     7  1.00
      P1  H  8011  8017       L1    17  0.98

> <Gold.PLP.Chemscore.Internal.Correction>
0.0149

> <Gold.Rescore>
     Score         DG    S(hbond)    S(metal)    S(lipo)     H(rot)  DE(clash)    DE(int)     intcor
     16.30     -16.73       1.79        0.00      94.78       2.28       0.18       0.24       ----

> <Gold.Chemscore.Fitness>
16.3035

> <Gold.Chemscore.DG>
-16.7315

> <Gold.Chemscore.ZeroCoef>
-5.4800

> <Gold.Chemscore.Hbond>
1.7926

> <Gold.Chemscore.Metal>
0.0000

> <Gold.Chemscore.Lipo>
94.7822

> <Gold.Chemscore.Internal_Hbond>
0.0000

> <Gold.Chemscore.DEClash>
0.1847

> <Gold.Chemscore.DEInternal>
0.2432

> <Gold.Chemscore.Rot>
2.2755

> <Gold.Chemscore.Internal.Correction>
   9.000000E+99

> <Gold.Chemscore.Hbonds>
donor molecule, donor type, donor heavy atom, donor atom, acceptor molecule, acceptor atom, score
      P1  H  7997  8008       L1     7  0.73
      P1  H  8011  8017       L1    17  0.87

> <Gold.Chemscore.Hbond.Weighted>
-5.9872

> <Gold.Chemscore.Metal.Weighted>
-0.0000

> <Gold.Chemscore.Lipo.Weighted>
-11.0895

> <Gold.Chemscore.Internal_Hbond.Weighted>
0.0000

> <Gold.Chemscore.DEClash.Weighted>
0.1847

> <Gold.Chemscore.DEInternal.Weighted>
0.2432

> <Gold.Chemscore.Rot.Weighted>
5.8252

> <Gold.Chemscore.Internal.Correction.Weighted>
   9.000000E+99

> <Gold.Protein.RotatedTorsions>
[ 6907 6896 6895 6894 ] final  116.48 input  -60.11 | X-H torsion
[ 7974 7965 7964 7962 ] final -105.82 input  175.53 | X-H torsion
[ 8008 7997 7996 7995 ] final  -94.80 input   59.86 | X-H torsion
[ 10167 10162 10161 10158 ] final  -84.13 input  -65.29 | X-H torsion
[ 10718 10713 10712 10709 ] final -157.56 input   66.30 | X-H torsion
[ 10763 10752 10751 10750 ] final  157.71 input  -60.55 | X-H torsion
[ 11005 11000 10999 10996 ] final  -74.18 input  -57.11 | X-H torsion

> <Gold.Protein.ActiveResidues>
 VAL166  LYS551  ARG553  GLY616  TRP617  ASP618  TYR619  PRO620  LYS621  CYS622 
 ASP623  PHE694  ASN695  SER759  ASP760  ASP761  ALA762  ILE779  LEU786  VAL792 
 PHE793  MET794  SER795  GLU796  ALA797  LYS798  CYS799  TRP800  GLU811  SER814 

> <Gold.Protein.RotatedAtoms>
  152.4675  133.7955  159.6924 H   0  0  0  0  0  0  0  0  0  0  0  0  # atno 6907 bound_to 6896
  150.8646  133.7583  159.2987 H   0  0  0  0  0  0  0  0  0  0  0  0  # atno 6908 bound_to 6896
  151.5137  135.1069  159.9912 H   0  0  0  0  0  0  0  0  0  0  0  0  # atno 6909 bound_to 6896
  145.2256  140.9151  143.3234 H   0  0  0  0  0  0  0  0  0  0  0  0  # atno 7974 bound_to 7965
  154.7530  140.0486  157.0910 H   0  0  0  0  0  0  0  0  0  0  0  0  # atno 8008 bound_to 7997
  155.0033  140.3127  155.4839 H   0  0  0  0  0  0  0  0  0  0  0  0  # atno 8009 bound_to 7997
  156.2889  140.2197  156.5143 H   0  0  0  0  0  0  0  0  0  0  0  0  # atno 8010 bound_to 7997
  140.4161  143.2603  151.8953 H   0  0  0  0  0  0  0  0  0  0  0  0  # atno 10167 bound_to 10162
  156.5419  130.8567  151.2752 H   0  0  0  0  0  0  0  0  0  0  0  0  # atno 10718 bound_to 10713
  154.2046  135.2789  155.2979 H   0  0  0  0  0  0  0  0  0  0  0  0  # atno 10763 bound_to 10752
  154.5827  135.5584  153.7204 H   0  0  0  0  0  0  0  0  0  0  0  0  # atno 10764 bound_to 10752
  153.0079  135.6349  154.2184 H   0  0  0  0  0  0  0  0  0  0  0  0  # atno 10765 bound_to 10752
  141.1632  133.6903  156.7326 H   0  0  0  0  0  0  0  0  0  0  0  0  # atno 11005 bound_to 11000
  144.9725  139.3866  143.6302 LP  0  0  0  0  0  0  0  0  0  0  0  0  # atno 17320 bound_to 7965
  146.3365  139.8829  142.8821 LP  0  0  0  0  0  0  0  0  0  0  0  0  # atno 17321 bound_to 7965
  139.4782  144.5486  151.8420 LP  0  0  0  0  0  0  0  0  0  0  0  0  # atno 17342 bound_to 10162
  140.4585  144.1755  150.5904 LP  0  0  0  0  0  0  0  0  0  0  0  0  # atno 17343 bound_to 10162
  157.7403  130.9849  150.2372 LP  0  0  0  0  0  0  0  0  0  0  0  0  # atno 17370 bound_to 10713
  156.2963  130.3752  149.7793 LP  0  0  0  0  0  0  0  0  0  0  0  0  # atno 17371 bound_to 10713
  140.2734  134.8374  157.3868 LP  0  0  0  0  0  0  0  0  0  0  0  0  # atno 17394 bound_to 11000
  140.1500  134.4862  155.7968 LP  0  0  0  0  0  0  0  0  0  0  0  0  # atno 17395 bound_to 11000

$$$$
