#       Name:                AV-unprocessed.smi:2456
#       Creating user name   scv26
#       Creation time:       Fri Mar 27 13:34:17 2020


#       File generated by GOLD software.
#

@<TRIPOS>MOLECULE
AV-unprocessed.smi:2456
    39    40     1
SMALL
NO_CHARGES


@<TRIPOS>ATOM
      1 ****        -1.1626  -1.1873  -2.5099 C.3            1 S1                 0.0000
      2 ****        -0.5082  -0.7271  -1.1964 C.3            1 S1                 0.0000
      3 ****         0.9283  -0.9890  -1.2945 N.am           1 S1                 0.0000
      4 ****         1.7865  -1.0642  -0.2656 C.2            1 S1                 0.0000
      5 ****         1.3779  -0.9086   0.8878 O.2            1 S1                 0.0000
      6 ****         3.0629  -1.3132  -0.6371 N.pl3          1 S1                -1.0000
      7 ****         4.0272  -1.4030   0.2931 C.2            1 S1                 0.0000
      8 ****         4.4954  -2.5708   0.7484 N.2            1 S1                 0.0000
      9 ****         5.5000  -2.4305   1.7074 C.2            1 S1                 0.0000
     10 ****         5.8107  -1.1253   1.9821 C.2            1 S1                 0.0000
     11 ****         4.8445  -0.0269   1.0390 S.3            1 S1                 0.0000
     12 ****        -0.7795   0.7851  -1.0307 C.2            1 S1                 0.0000
     13 ****        -0.0711   1.5943  -1.6334 O.2            1 S1                 0.0000
     14 ****        -1.8020   1.1862  -0.2446 N.am           1 S1                 0.0000
     15 ****        -2.7247   0.3178   0.4861 C.3            1 S1                 0.0000
     16 ****        -3.8278   1.2342   1.0162 C.3            1 S1                 0.0000
     17 ****        -3.1616   2.5988   1.1150 C.3            1 S1                 0.0000
     18 ****        -2.1310   2.5920  -0.0141 C.3            1 S1                 0.0000
     19 ****        -2.2414  -1.0281  -2.4935 H              1 S1                 0.0000
     20 ****        -0.9954  -2.2523  -2.6744 H              1 S1                 0.0000
     21 ****        -0.7601  -0.6542  -3.3728 H              1 S1                 0.0000
     22 ****        -0.9108  -1.3088  -0.3670 H              1 S1                 0.0000
     23 ****         1.3062  -1.1141  -2.2220 H              1 S1                 0.0000
     24 ****         5.9403  -3.3156   2.1416 H              1 S1                 0.0000
     25 ****         6.5448  -0.7445   2.6759 H              1 S1                 0.0000
     26 ****        -3.1405  -0.4688  -0.1448 H              1 S1                 0.0000
     27 ****        -2.1906  -0.1514   1.3139 H              1 S1                 0.0000
     28 ****        -4.6443   1.2790   0.2942 H              1 S1                 0.0000
     29 ****        -4.2398   0.8942   1.9668 H              1 S1                 0.0000
     30 ****        -3.8704   3.4236   1.0366 H              1 S1                 0.0000
     31 ****        -2.6509   2.6859   2.0750 H              1 S1                 0.0000
     32 ****        -1.2517   3.1818   0.2498 H              1 S1                 0.0000
     33 ****        -2.5590   3.0101  -0.9265 H              1 S1                 0.0000
     34 ****         0.4088  -0.7268   1.0546 LP             1 S1                 0.0000
     35 ****         2.0157  -0.9642   1.6559 LP             1 S1                 0.0000
     36 ****         3.2884  -1.4304  -1.6043 LP             1 S1                 0.0000
     37 ****         4.1584  -3.4577   0.4324 LP             1 S1                 0.0000
     38 ****         0.6695   1.2696  -2.2217 LP             1 S1                 0.0000
     39 ****        -0.2371   2.5754  -1.5341 LP             1 S1                 0.0000
@<TRIPOS>BOND
    1    1    2 1     
    2    1   19 1     
    3    1   20 1     
    4    1   21 1     
    5    2    3 1     
    6    2   12 1     
    7    2   22 1     
    8    3    4 am    
    9    3   23 1     
   10    4    5 2     
   11    4    6 1     
   12    6    7 1     
   13    7   11 1     
   14    7    8 2     
   15    8    9 1     
   16    9   10 2     
   17    9   24 1     
   18   10   11 1     
   19   10   25 1     
   20   12   13 2     
   21   12   14 am    
   22   14   18 1     
   23   14   15 1     
   24   15   16 1     
   25   15   26 1     
   26   15   27 1     
   27   16   17 1     
   28   16   28 1     
   29   16   29 1     
   30   17   18 1     
   31   17   30 1     
   32   17   31 1     
   33   18   32 1     
   34   18   33 1     
   35    5   34 1     
   36    5   35 1     
   37    6   36 1     
   38    8   37 1     
   39   13   38 1     
   40   13   39 1     
@<TRIPOS>SUBSTRUCTURE
      1 S1             1
@<TRIPOS>SET
LONE_PAIRS      STATIC     ATOMS    <user>   **** ""
6 34 35 36 37 38 39
DONOR_HYDROGENS      STATIC     ATOMS    <user>   **** ""
1 23
ATOM$BLUE        STATIC     ATOMS    COLORGROUP SYSTEM
6 34 35 36 37 38 39
ATOM$RED        STATIC     ATOMS    COLORGROUP SYSTEM
1 23
