AV-unprocessed.smi:1978|AV-procd|sdf|8004|dock2
  -GOLD-   2272010193D 1   1.00000     0.00000
 Structure written by MMmdl.
 44 45  0  0  0  0  0  0  0  0  3 V2000
  151.4158  141.0222  156.0189 C   0  0  0  0  0  0  0  0  0  0  0  0
  151.6642  139.6401  155.5195 C   0  0  0  0  0  0  0  0  0  0  0  0
  150.8795  138.5241  155.4499 C   0  0  0  0  0  0  0  0  0  0  0  0
  151.7390  137.5600  154.8557 C   0  0  0  0  0  0  0  0  0  0  0  0
  151.4262  136.2844  154.5798 N   0  5  0  0  0  0  0  0  0  0  0  0
  150.4230  135.6709  155.2474 C   0  0  0  0  0  0  0  0  0  0  0  0
  150.4407  135.3129  156.4274 O   0  0  0  0  0  0  0  0  0  0  0  0
  149.3308  135.4638  154.4987 N   0  0  0  0  0  0  0  0  0  0  0  0
  148.0810  134.8567  154.9463 C   0  0  0  0  0  0  0  0  0  0  0  0
  146.8598  135.6619  154.4478 C   0  0  2  0  0  0  0  0  0  0  0  0
  145.6342  135.5177  155.3774 C   0  0  0  0  0  0  0  0  0  0  0  0
  146.5420  135.3484  153.0160 N   0  3  1  0  0  0  0  0  0  0  0  0
  146.0334  133.9606  152.8014 C   0  0  0  0  0  0  0  0  0  0  0  0
  145.9896  133.6023  151.3096 C   0  0  0  0  0  0  0  0  0  0  0  0
  145.1114  134.5948  150.5462 C   0  0  0  0  0  0  0  0  0  0  0  0
  145.6147  136.0201  150.7933 C   0  0  0  0  0  0  0  0  0  0  0  0
  145.6894  136.3565  152.2997 C   0  0  2  0  0  0  0  0  0  0  0  0
  146.1767  137.8115  152.4583 C   0  0  0  0  0  0  0  0  0  0  0  0
  152.9447  138.0424  154.6064 N   0  0  0  0  0  0  0  0  0  0  0  0
  152.9033  139.3780  155.0232 O   0  0  0  0  0  0  0  0  0  0  0  0
  151.2518  141.0183  157.0964 H   0  0  0  0  0  0  0  0  0  0  0  0
  150.5336  141.4506  155.5433 H   0  0  0  0  0  0  0  0  0  0  0  0
  152.2628  141.6755  155.8079 H   0  0  0  0  0  0  0  0  0  0  0  0
  149.8529  138.4157  155.7660 H   0  0  0  0  0  0  0  0  0  0  0  0
  149.3704  135.7709  153.5377 H   0  0  0  0  0  0  0  0  0  0  0  0
  148.0418  133.8358  154.5643 H   0  0  0  0  0  0  0  0  0  0  0  0
  148.0787  134.7889  156.0335 H   0  0  0  0  0  0  0  0  0  0  0  0
  147.1874  136.6971  154.5068 H   0  0  0  0  0  0  0  0  0  0  0  0
  145.8551  135.8834  156.3804 H   0  0  0  0  0  0  0  0  0  0  0  0
  145.3224  134.4783  155.4788 H   0  0  0  0  0  0  0  0  0  0  0  0
  144.7819  136.0920  155.0159 H   0  0  0  0  0  0  0  0  0  0  0  0
  146.6600  133.2258  153.3020 H   0  0  0  0  0  0  0  0  0  0  0  0
  145.0341  133.8612  153.2271 H   0  0  0  0  0  0  0  0  0  0  0  0
  147.0001  133.6064  150.8986 H   0  0  0  0  0  0  0  0  0  0  0  0
  145.6051  132.5901  151.1803 H   0  0  0  0  0  0  0  0  0  0  0  0
  145.1242  134.3689  149.4795 H   0  0  0  0  0  0  0  0  0  0  0  0
  144.0752  134.5039  150.8744 H   0  0  0  0  0  0  0  0  0  0  0  0
  146.6003  136.1393  150.3409 H   0  0  0  0  0  0  0  0  0  0  0  0
  144.9567  136.7247  150.2830 H   0  0  0  0  0  0  0  0  0  0  0  0
  144.6784  136.2980  152.7053 H   0  0  0  0  0  0  0  0  0  0  0  0
  145.6291  138.4798  151.7929 H   0  0  0  0  0  0  0  0  0  0  0  0
  147.2362  137.9071  152.2183 H   0  0  0  0  0  0  0  0  0  0  0  0
  146.0147  138.1930  153.4660 H   0  0  0  0  0  0  0  0  0  0  0  0
  147.4354  135.3854  152.5466 H   0  0  0  0  0  0  0  0  0  0  0  0
  1  2  1  0  0  0  0
  1 21  1  0  0  0  0
  1 22  1  0  0  0  0
  1 23  1  0  0  0  0
  2 20  1  0  0  0  0
  2  3  2  0  0  0  0
  3  4  1  0  0  0  0
  3 24  1  0  0  0  0
  4  5  1  0  0  0  0
  4 19  2  0  0  0  0
  5  6  1  0  0  0  0
  6  7  2  0  0  0  0
  6  8  1  0  0  0  0
  8  9  1  0  0  0  0
  8 25  1  0  0  0  0
  9 10  1  0  0  0  0
  9 26  1  0  0  0  0
  9 27  1  0  0  0  0
 10 11  1  0  0  0  0
 10 12  1  0  0  0  0
 10 28  1  0  0  0  0
 11 29  1  0  0  0  0
 11 30  1  0  0  0  0
 11 31  1  0  0  0  0
 12 17  1  0  0  0  0
 12 13  1  0  0  0  0
 12 44  1  0  0  0  0
 13 14  1  0  0  0  0
 13 32  1  0  0  0  0
 13 33  1  0  0  0  0
 14 15  1  0  0  0  0
 14 34  1  0  0  0  0
 14 35  1  0  0  0  0
 15 16  1  0  0  0  0
 15 36  1  0  0  0  0
 15 37  1  0  0  0  0
 16 17  1  0  0  0  0
 16 38  1  0  0  0  0
 16 39  1  0  0  0  0
 17 18  1  0  0  0  0
 17 40  1  0  0  0  0
 18 41  1  0  0  0  0
 18 42  1  0  0  0  0
 18 43  1  0  0  0  0
 19 20  1  0  0  0  0
M  CHG  1   5  -1
M  CHG  1  12   1
M  END
> <s_m_source_file>
AV-unprocessed.smi

> <i_m_source_file_index>
1978

> <i_lp_mmshare_version>
43012

> <i_f3d_flags>
0

> <s_epik_input>
W0NIM11jMVtjSF1jKG5vMSlbTkhdQyg9TylbTkhdW0NIMl1bQ0BIXShbQ0gzXSlOMltDSDJdW0NIMl1bQ0gyXVtDSDJdW0NASF0yW0NIM10=

> <s_epik_cmdline>
J2VwaWtfcHl0aG9uJywgJy1waCcsICc3LjAnLCAnLXRuJywgJzgnLCAnLW1hJywgJzIwMCcsICctbWV0YWxfYmluZGluZycsICctaW1hZScsICc8aW5maWxlLm1hZT4nLCAnLW9tYWUnLCAnPG91dGZpbGUubWFlPic=

> <r_epik_Ionization_Penalty>
6.22372

> <r_epik_Ionization_Penalty_Charging>
6.22362

> <r_epik_Ionization_Penalty_Neutral>
9.65074e-05

> <r_epik_State_Penalty>
6.22363

> <r_epik_Charging_Adjusted_Penalty>
12.4472

> <i_epik_Tot_Q>
0

> <i_epik_Tot_abs_Q>
2

> <r_epik_Metal_State_Penalty>
2.16675

> <b_epik_Metal_Only>
1

> <s_lp_Force_Field>
OPLS_2005

> <r_lp_Energy>
13.293

> <b_lp_Chiralities_Consistent>
1

> <s_lp_Variant>
AV-unprocessed.smi:1978-13

> <Gold.Version>
5.8.1

> <Gold.Id.Protein>
6NUR|6NUR_protein|mol2

> <Gold.PLP.Fitness>
47.4488

> <Gold.PLP.PLP>
-31.8181

> <Gold.PLP.part.hbond>
-5.3929

> <Gold.PLP.part.metal>
0.0000

> <Gold.PLP.part.buried>
-4.1409

> <Gold.PLP.part.nonpolar>
-23.1097

> <Gold.PLP.part.repulsive>
0.4866

> <Gold.PLP.ligand.clash>
0.0000

> <Gold.PLP.ligand.torsion>
1.2701

> <Gold.PLP.Chemscore.Hbond>
6.0000

> <Gold.PLP.Chemscore.CHOScore>
0.0000

> <Gold.PLP.Chemscore.Metal>
0.0000

> <Gold.Chemscore.Hbonds>
donor molecule, donor type, donor heavy atom, donor atom, acceptor molecule, acceptor atom, score
      L1  H     8    25       P1  7948  1.00
      L1  H    12    44       P1  7948  2.00
      P1  H  7997  8008       L1    20  1.00
      P1  H 10752 10763       L1     5  2.00

> <Gold.PLP.Chemscore.Internal.Correction>
0.1710

> <Gold.Rescore>
     Score         DG    S(hbond)    S(metal)    S(lipo)     H(rot)  DE(clash)    DE(int)     intcor
     18.07     -19.67       3.47        0.00      55.42       1.52       0.35       1.24       ----

> <Gold.Chemscore.Fitness>
18.0731

> <Gold.Chemscore.DG>
-19.6661

> <Gold.Chemscore.ZeroCoef>
-5.4800

> <Gold.Chemscore.Hbond>
3.4703

> <Gold.Chemscore.Metal>
0.0000

> <Gold.Chemscore.Lipo>
55.4188

> <Gold.Chemscore.Internal_Hbond>
0.0000

> <Gold.Chemscore.DEClash>
0.3480

> <Gold.Chemscore.DEInternal>
1.2450

> <Gold.Chemscore.Rot>
1.5190

> <Gold.Chemscore.Internal.Correction>
   9.000000E+99

> <Gold.Chemscore.Hbonds>
donor molecule, donor type, donor heavy atom, donor atom, acceptor molecule, acceptor atom, score
      L1  H     8    25       P1  7948  0.45
      L1  H    12    44       P1  7948  0.98
      P1  H  7997  8008       L1    20  0.85
      P1  H 10752 10763       L1     5  0.27

> <Gold.Chemscore.Hbond.Weighted>
-11.5907

> <Gold.Chemscore.Metal.Weighted>
-0.0000

> <Gold.Chemscore.Lipo.Weighted>
-6.4840

> <Gold.Chemscore.Internal_Hbond.Weighted>
0.0000

> <Gold.Chemscore.DEClash.Weighted>
0.3480

> <Gold.Chemscore.DEInternal.Weighted>
1.2450

> <Gold.Chemscore.Rot.Weighted>
3.8886

> <Gold.Chemscore.Internal.Correction.Weighted>
   9.000000E+99

> <Gold.Protein.RotatedTorsions>
[ 6907 6896 6895 6894 ] final -144.07 input  -60.11 | X-H torsion
[ 7974 7965 7964 7962 ] final -142.58 input  175.53 | X-H torsion
[ 8008 7997 7996 7995 ] final  -28.37 input   59.86 | X-H torsion
[ 10167 10162 10161 10158 ] final  175.03 input  -65.29 | X-H torsion
[ 10718 10713 10712 10709 ] final   27.00 input   66.30 | X-H torsion
[ 10763 10752 10751 10750 ] final   66.70 input  -60.55 | X-H torsion
[ 11005 11000 10999 10996 ] final -176.39 input  -57.11 | X-H torsion

> <Gold.Protein.ActiveResidues>
 VAL166  LYS551  ARG553  GLY616  TRP617  ASP618  TYR619  PRO620  LYS621  CYS622 
 ASP623  PHE694  ASN695  SER759  ASP760  ASP761  ALA762  ILE779  LEU786  VAL792 
 PHE793  MET794  SER795  GLU796  ALA797  LYS798  CYS799  TRP800  GLU811  SER814 

> <Gold.Protein.RotatedAtoms>
  151.1090  133.5187  159.2606 H   0  0  0  0  0  0  0  0  0  0  0  0  # atno 6907 bound_to 6896
  151.1988  135.0433  159.8873 H   0  0  0  0  0  0  0  0  0  0  0  0  # atno 6908 bound_to 6896
  152.5449  134.0921  159.8335 H   0  0  0  0  0  0  0  0  0  0  0  0  # atno 6909 bound_to 6896
  144.8433  140.5940  143.5438 H   0  0  0  0  0  0  0  0  0  0  0  0  # atno 7974 bound_to 7965
  154.4335  140.1847  156.1079 H   0  0  0  0  0  0  0  0  0  0  0  0  # atno 8008 bound_to 7997
  156.0241  140.3337  155.7044 H   0  0  0  0  0  0  0  0  0  0  0  0  # atno 8009 bound_to 7997
  155.5934  140.0633  157.2743 H   0  0  0  0  0  0  0  0  0  0  0  0  # atno 8010 bound_to 7997
  139.5162  144.3079  152.0319 H   0  0  0  0  0  0  0  0  0  0  0  0  # atno 10167 bound_to 10162
  157.2143  130.6949  149.6242 H   0  0  0  0  0  0  0  0  0  0  0  0  # atno 10718 bound_to 10713
  153.0152  135.5311  154.6865 H   0  0  0  0  0  0  0  0  0  0  0  0  # atno 10763 bound_to 10752
  154.6011  135.2868  155.0536 H   0  0  0  0  0  0  0  0  0  0  0  0  # atno 10764 bound_to 10752
  154.1593  135.6550  153.5034 H   0  0  0  0  0  0  0  0  0  0  0  0  # atno 10765 bound_to 10752
  140.4526  134.6329  157.4808 H   0  0  0  0  0  0  0  0  0  0  0  0  # atno 11005 bound_to 11000
  145.4649  139.1509  143.3846 LP  0  0  0  0  0  0  0  0  0  0  0  0  # atno 17320 bound_to 7965
  146.2722  140.4780  142.8810 LP  0  0  0  0  0  0  0  0  0  0  0  0  # atno 17321 bound_to 7965
  140.2524  144.4154  150.6216 LP  0  0  0  0  0  0  0  0  0  0  0  0  # atno 17342 bound_to 10162
  140.6215  143.2177  151.6684 LP  0  0  0  0  0  0  0  0  0  0  0  0  # atno 17343 bound_to 10162
  155.9688  130.4541  150.5836 LP  0  0  0  0  0  0  0  0  0  0  0  0  # atno 17370 bound_to 10713
  157.3640  131.0754  151.1613 LP  0  0  0  0  0  0  0  0  0  0  0  0  # atno 17371 bound_to 10713
  139.9997  134.6856  155.9551 LP  0  0  0  0  0  0  0  0  0  0  0  0  # atno 17394 bound_to 11000
  141.1657  133.6537  156.4472 LP  0  0  0  0  0  0  0  0  0  0  0  0  # atno 17395 bound_to 11000

$$$$
