AV-unprocessed.smi:1546|AV-procd|sdf|6218|dock1
  -GOLD-   22720 6393D 1   1.00000     0.00000
 Structure written by MMmdl.
 30 31  0  0  0  0  0  0  0  0  1 V2000
  151.4474  140.6953  155.6198 O   0  0  0  0  0  0  0  0  0  0  0  0
  150.6861  141.6378  155.8374 C   0  0  0  0  0  0  0  0  0  0  0  0
  151.1131  142.7619  156.7833 C   0  0  0  0  0  0  0  0  0  0  0  0
  151.0285  142.3161  158.1282 O   0  0  0  0  0  0  0  0  0  0  0  0
  151.1815  143.3709  159.0617 C   0  0  0  0  0  0  0  0  0  0  0  0
  152.5604  143.2858  159.6799 C   0  0  0  0  0  0  0  0  0  0  0  0
  153.0459  141.9881  160.2849 C   0  0  0  0  0  0  0  0  0  0  0  0
  152.7303  143.1613  161.1771 C   0  0  0  0  0  0  0  0  0  0  0  0
  149.4589  141.7875  155.3016 N   0  0  0  0  0  0  0  0  0  0  0  0
  148.7618  140.9556  154.4094 C   0  0  0  0  0  0  0  0  0  0  0  0
  149.1234  139.6990  154.0426 C   0  0  0  0  0  0  0  0  0  0  0  0
  148.3986  138.9139  153.1567 N   0  0  0  0  0  0  0  0  0  0  0  0
  147.2374  139.4264  152.6014 C   0  0  0  0  0  0  0  0  0  0  0  0
  146.7667  140.6574  152.8818 C   0  0  0  0  0  0  0  0  0  0  0  0
  147.5113  141.5199  153.8267 C   0  0  0  0  0  0  0  0  0  0  0  0
  147.1059  142.6474  154.1092 O   0  0  0  0  0  0  0  0  0  0  0  0
  152.1365  143.0625  156.5516 H   0  0  0  0  0  0  0  0  0  0  0  0
  150.4641  143.6249  156.6277 H   0  0  0  0  0  0  0  0  0  0  0  0
  151.0526  144.3390  158.5747 H   0  0  0  0  0  0  0  0  0  0  0  0
  150.4337  143.2891  159.8518 H   0  0  0  0  0  0  0  0  0  0  0  0
  153.3135  143.8716  159.1560 H   0  0  0  0  0  0  0  0  0  0  0  0
  152.3566  141.1460  160.3019 H   0  0  0  0  0  0  0  0  0  0  0  0
  154.0938  141.7301  160.1453 H   0  0  0  0  0  0  0  0  0  0  0  0
  153.5669  143.6878  161.6322 H   0  0  0  0  0  0  0  0  0  0  0  0
  151.8311  143.1000  161.7871 H   0  0  0  0  0  0  0  0  0  0  0  0
  148.9584  142.6232  155.5684 H   0  0  0  0  0  0  0  0  0  0  0  0
  150.0023  139.1915  154.4052 H   0  0  0  0  0  0  0  0  0  0  0  0
  146.7383  138.7532  151.9200 H   0  0  0  0  0  0  0  0  0  0  0  0
  145.8582  141.0303  152.4322 H   0  0  0  0  0  0  0  0  0  0  0  0
  148.7137  137.9833  152.9212 H   0  0  0  0  0  0  0  0  0  0  0  0
  1  2  2  0  0  0  0
  2  3  1  0  0  0  0
  2  9  1  0  0  0  0
  3  4  1  0  0  0  0
  3 17  1  0  0  0  0
  3 18  1  0  0  0  0
  4  5  1  0  0  0  0
  5  6  1  0  0  0  0
  5 19  1  0  0  0  0
  5 20  1  0  0  0  0
  6  8  1  0  0  0  0
  6  7  1  0  0  0  0
  6 21  1  0  0  0  0
  7  8  1  0  0  0  0
  7 22  1  0  0  0  0
  7 23  1  0  0  0  0
  8 24  1  0  0  0  0
  8 25  1  0  0  0  0
  9 26  1  0  0  0  0
  9 10  1  0  0  0  0
 10 15  1  0  0  0  0
 10 11  2  0  0  0  0
 11 27  1  0  0  0  0
 11 12  1  0  0  0  0
 12 30  1  0  0  0  0
 12 13  1  0  0  0  0
 13 28  1  0  0  0  0
 13 14  2  0  0  0  0
 14 15  1  0  0  0  0
 14 29  1  0  0  0  0
 15 16  2  0  0  0  0
M  END
> <s_m_source_file>
AV-unprocessed.smi

> <i_m_source_file_index>
1546

> <i_lp_mmshare_version>
43012

> <i_f3d_flags>
0

> <s_epik_input>
W0NIMl0xW0NIMl1bQ0hdMVtDSDJdT1tDSDJdQyg9TylbTkhdYzJbY0hdbltjSF1bY0hdYzJbT0hd

> <s_epik_cmdline>
J2VwaWtfcHl0aG9uJywgJy1waCcsICc3LjAnLCAnLXRuJywgJzgnLCAnLW1hJywgJzIwMCcsICctbWV0YWxfYmluZGluZycsICctaW1hZScsICc8aW5maWxlLm1hZT4nLCAnLW9tYWUnLCAnPG91dGZpbGUubWFlPic=

> <r_lp_tautomer_probability>
1

> <r_epik_Ionization_Penalty>
0.000226134

> <r_epik_Ionization_Penalty_Charging>
0.000226086

> <r_epik_Ionization_Penalty_Neutral>
4.85517e-08

> <r_epik_State_Penalty>
-0

> <r_epik_Charging_Adjusted_Penalty>
0.000226086

> <i_epik_Tot_Q>
0

> <i_epik_Tot_abs_Q>
0

> <r_epik_Metal_State_Penalty>
0.0890487

> <b_epik_Metal_Only>
0

> <s_lp_Force_Field>
OPLS_2005

> <r_lp_Energy>
13.4663

> <b_lp_Chiralities_Consistent>
1

> <s_lp_Variant>
AV-unprocessed.smi:1546-1

> <Gold.Version>
5.8.1

> <Gold.Id.Protein>
6NUR|6NUR_protein|mol2

> <Gold.PLP.Fitness>
40.3253

> <Gold.PLP.PLP>
-34.3385

> <Gold.PLP.part.hbond>
-4.0000

> <Gold.PLP.part.metal>
0.0000

> <Gold.PLP.part.buried>
1.3730

> <Gold.PLP.part.nonpolar>
-30.3225

> <Gold.PLP.part.repulsive>
0.6886

> <Gold.PLP.ligand.clash>
0.0000

> <Gold.PLP.ligand.torsion>
0.9561

> <Gold.PLP.Chemscore.Hbond>
2.4020

> <Gold.PLP.Chemscore.CHOScore>
0.0000

> <Gold.PLP.Chemscore.Metal>
0.0000

> <Gold.Chemscore.Hbonds>
donor molecule, donor type, donor heavy atom, donor atom, acceptor molecule, acceptor atom, score
      L1  H     9    26       P1  8028  0.82
      L1  H    12    30       P1  7948  0.98
      P1  H  7989  7998       L1     1  0.53

> <Gold.PLP.Chemscore.Internal.Correction>
0.6929

> <Gold.Rescore>
     Score         DG    S(hbond)    S(metal)    S(lipo)     H(rot)  DE(clash)    DE(int)     intcor
     13.88     -16.81       1.73        0.00      85.83       1.75       0.90       2.04       ----

> <Gold.Chemscore.Fitness>
13.8761

> <Gold.Chemscore.DG>
-16.8074

> <Gold.Chemscore.ZeroCoef>
-5.4800

> <Gold.Chemscore.Hbond>
1.7293

> <Gold.Chemscore.Metal>
0.0000

> <Gold.Chemscore.Lipo>
85.8272

> <Gold.Chemscore.Internal_Hbond>
0.0000

> <Gold.Chemscore.DEClash>
0.8962

> <Gold.Chemscore.DEInternal>
2.0351

> <Gold.Chemscore.Rot>
1.7540

> <Gold.Chemscore.Internal.Correction>
   9.000000E+99

> <Gold.Chemscore.Hbonds>
donor molecule, donor type, donor heavy atom, donor atom, acceptor molecule, acceptor atom, score
      L1  H     9    26       P1  8028  0.77
      L1  H    12    30       P1  7948  0.92
      P1  H  7989  7998       L1     1  0.12

> <Gold.Chemscore.Hbond.Weighted>
-5.7758

> <Gold.Chemscore.Metal.Weighted>
-0.0000

> <Gold.Chemscore.Lipo.Weighted>
-10.0418

> <Gold.Chemscore.Internal_Hbond.Weighted>
0.0000

> <Gold.Chemscore.DEClash.Weighted>
0.8962

> <Gold.Chemscore.DEInternal.Weighted>
2.0351

> <Gold.Chemscore.Rot.Weighted>
4.4901

> <Gold.Chemscore.Internal.Correction.Weighted>
   9.000000E+99

> <Gold.Protein.RotatedTorsions>
[ 6907 6896 6895 6894 ] final   23.15 input  -60.11 | X-H torsion
[ 7974 7965 7964 7962 ] final -136.85 input  175.53 | X-H torsion
[ 8008 7997 7996 7995 ] final   73.05 input   59.86 | X-H torsion
[ 10167 10162 10161 10158 ] final  160.89 input  -65.29 | X-H torsion
[ 10718 10713 10712 10709 ] final -154.59 input   66.30 | X-H torsion
[ 10763 10752 10751 10750 ] final  -53.03 input  -60.55 | X-H torsion
[ 11005 11000 10999 10996 ] final  157.09 input  -57.11 | X-H torsion

> <Gold.Protein.ActiveResidues>
 VAL166  LYS551  ARG553  GLY616  TRP617  ASP618  TYR619  PRO620  LYS621  CYS622 
 ASP623  PHE694  ASN695  SER759  ASP760  ASP761  ALA762  ILE779  LEU786  VAL792 
 PHE793  MET794  SER795  GLU796  ALA797  LYS798  CYS799  TRP800  GLU811  SER814 

> <Gold.Protein.RotatedAtoms>
  151.9379  135.0226  160.0533 H   0  0  0  0  0  0  0  0  0  0  0  0  # atno 6907 bound_to 6896
  152.2061  133.4872  159.5093 H   0  0  0  0  0  0  0  0  0  0  0  0  # atno 6908 bound_to 6896
  150.6965  134.1444  159.4160 H   0  0  0  0  0  0  0  0  0  0  0  0  # atno 6909 bound_to 6896
  144.8891  140.6617  143.5156 H   0  0  0  0  0  0  0  0  0  0  0  0  # atno 7974 bound_to 7965
  155.7779  140.3482  155.5282 H   0  0  0  0  0  0  0  0  0  0  0  0  # atno 8008 bound_to 7997
  155.8757  140.0994  157.1540 H   0  0  0  0  0  0  0  0  0  0  0  0  # atno 8009 bound_to 7997
  154.4021  140.1332  156.4121 H   0  0  0  0  0  0  0  0  0  0  0  0  # atno 8010 bound_to 7997
  139.4844  144.4590  151.8730 H   0  0  0  0  0  0  0  0  0  0  0  0  # atno 10167 bound_to 10162
  156.5013  130.8393  151.2610 H   0  0  0  0  0  0  0  0  0  0  0  0  # atno 10718 bound_to 10713
  154.1523  135.6488  153.4966 H   0  0  0  0  0  0  0  0  0  0  0  0  # atno 10763 bound_to 10752
  153.0134  135.5341  154.6795 H   0  0  0  0  0  0  0  0  0  0  0  0  # atno 10764 bound_to 10752
  154.6086  135.2951  155.0428 H   0  0  0  0  0  0  0  0  0  0  0  0  # atno 10765 bound_to 10752
  140.1736  134.8525  157.2720 H   0  0  0  0  0  0  0  0  0  0  0  0  # atno 11005 bound_to 11000
  145.3815  139.1636  143.4278 LP  0  0  0  0  0  0  0  0  0  0  0  0  # atno 17320 bound_to 7965
  146.3043  140.3896  142.8693 LP  0  0  0  0  0  0  0  0  0  0  0  0  # atno 17321 bound_to 7965
  140.4051  144.2442  150.5891 LP  0  0  0  0  0  0  0  0  0  0  0  0  # atno 17342 bound_to 10162
  140.5020  143.2315  151.8664 LP  0  0  0  0  0  0  0  0  0  0  0  0  # atno 17343 bound_to 10162
  157.7462  130.9980  150.2839 LP  0  0  0  0  0  0  0  0  0  0  0  0  # atno 17370 bound_to 10713
  156.3330  130.3803  149.7475 LP  0  0  0  0  0  0  0  0  0  0  0  0  # atno 17371 bound_to 10713
  140.2348  134.3866  155.7506 LP  0  0  0  0  0  0  0  0  0  0  0  0  # atno 17394 bound_to 11000
  141.2219  133.7234  156.8697 LP  0  0  0  0  0  0  0  0  0  0  0  0  # atno 17395 bound_to 11000

$$$$
