AV-unprocessed.smi:2038|AV-procd|sdf|8281|dock8
  -GOLD-   2272010553D 1   1.00000     0.00000
 Structure written by MMmdl.
 33 34  0  0  0  0  0  0  0  0  1 V2000
  147.3230  131.5852  152.8968 O   0  0  0  0  0  0  0  0  0  0  0  0
  147.4810  132.7633  152.5756 C   0  0  0  0  0  0  0  0  0  0  0  0
  148.3460  133.6062  153.1691 N   0  0  0  0  0  0  0  0  0  0  0  0
  149.2165  133.3510  154.2628 C   0  0  0  0  0  0  0  0  0  0  0  0
  149.5860  132.0156  154.5201 C   0  0  0  0  0  0  0  0  0  0  0  0
  150.4636  131.7389  155.5853 C   0  0  0  0  0  0  0  0  0  0  0  0
  150.9554  132.8112  156.3556 C   0  0  0  0  0  0  0  0  0  0  0  0
  151.8145  132.5344  157.3989 O   0  0  0  0  0  0  0  0  0  0  0  0
  152.4050  131.2390  157.4680 C   0  0  0  0  0  0  0  0  0  0  0  0
  153.8708  131.3735  157.8969 C   0  0  0  0  0  0  0  0  0  0  0  0
  153.9234  131.7966  159.1594 F   0  0  0  0  0  0  0  0  0  0  0  0
  154.4847  130.1933  157.8160 F   0  0  0  0  0  0  0  0  0  0  0  0
  154.4982  132.2585  157.1229 F   0  0  0  0  0  0  0  0  0  0  0  0
  150.6197  134.1010  156.1063 N   0  0  0  0  0  0  0  0  0  0  0  0
  149.7756  134.3596  155.0846 C   0  0  0  0  0  0  0  0  0  0  0  0
  146.6658  133.3521  151.4181 C   0  0  1  0  0  0  0  0  0  0  0  0
  145.7103  132.3436  150.7530 C   0  0  0  0  0  0  0  0  0  0  0  0
  144.3352  132.8129  151.1853 C   0  0  0  0  0  0  0  0  0  0  0  0
  144.5534  134.3106  151.3409 C   0  0  0  0  0  0  0  0  0  0  0  0
  145.8363  134.3877  151.9427 O   0  0  0  0  0  0  0  0  0  0  0  0
  148.4326  134.5195  152.7472 H   0  0  0  0  0  0  0  0  0  0  0  0
  149.1992  131.2095  153.9137 H   0  0  0  0  0  0  0  0  0  0  0  0
  150.7553  130.7229  155.8068 H   0  0  0  0  0  0  0  0  0  0  0  0
  151.8682  130.6175  158.1869 H   0  0  0  0  0  0  0  0  0  0  0  0
  152.3520  130.7466  156.4955 H   0  0  0  0  0  0  0  0  0  0  0  0
  149.5718  135.4065  154.9219 H   0  0  0  0  0  0  0  0  0  0  0  0
  147.3312  133.7778  150.6648 H   0  0  0  0  0  0  0  0  0  0  0  0
  145.8033  132.4115  149.6683 H   0  0  0  0  0  0  0  0  0  0  0  0
  145.8935  131.3044  151.0301 H   0  0  0  0  0  0  0  0  0  0  0  0
  143.5520  132.5658  150.4682 H   0  0  0  0  0  0  0  0  0  0  0  0
  144.0733  132.3715  152.1479 H   0  0  0  0  0  0  0  0  0  0  0  0
  144.5750  134.8050  150.3686 H   0  0  0  0  0  0  0  0  0  0  0  0
  143.7906  134.7877  151.9565 H   0  0  0  0  0  0  0  0  0  0  0  0
  1  2  2  0  0  0  0
  2  3  1  0  0  0  0
  2 16  1  0  0  0  0
  3  4  1  0  0  0  0
  3 21  1  0  0  0  0
  4 15  1  0  0  0  0
  4  5  2  0  0  0  0
  5  6  1  0  0  0  0
  5 22  1  0  0  0  0
  6  7  2  0  0  0  0
  6 23  1  0  0  0  0
  7  8  1  0  0  0  0
  7 14  1  0  0  0  0
  8  9  1  0  0  0  0
  9 10  1  0  0  0  0
  9 24  1  0  0  0  0
  9 25  1  0  0  0  0
 10 11  1  0  0  0  0
 10 12  1  0  0  0  0
 10 13  1  0  0  0  0
 14 15  2  0  0  0  0
 15 26  1  0  0  0  0
 16 20  1  0  0  0  0
 16 17  1  0  0  0  0
 16 27  1  0  0  0  0
 17 18  1  0  0  0  0
 17 28  1  0  0  0  0
 17 29  1  0  0  0  0
 18 19  1  0  0  0  0
 18 30  1  0  0  0  0
 18 31  1  0  0  0  0
 19 20  1  0  0  0  0
 19 32  1  0  0  0  0
 19 33  1  0  0  0  0
M  END
> <s_m_source_file>
AV-unprocessed.smi

> <i_m_source_file_index>
2038

> <i_lp_mmshare_version>
43012

> <i_f3d_flags>
0

> <s_epik_input>
TzFbQ0gyXVtDSDJdW0NIMl1bQ0BIXTFDKD1PKVtOSF1jMltjSF1bY0hdYyhuW2NIXTIpT1tDSDJdQyhGKShGKUY=

> <s_epik_cmdline>
J2VwaWtfcHl0aG9uJywgJy1waCcsICc3LjAnLCAnLXRuJywgJzgnLCAnLW1hJywgJzIwMCcsICctbWV0YWxfYmluZGluZycsICctaW1hZScsICc8aW5maWxlLm1hZT4nLCAnLW9tYWUnLCAnPG91dGZpbGUubWFlPic=

> <r_lp_tautomer_probability>
1

> <r_epik_Ionization_Penalty>
2.73305e-06

> <r_epik_Ionization_Penalty_Charging>
0

> <r_epik_Ionization_Penalty_Neutral>
2.73305e-06

> <r_epik_State_Penalty>
-0

> <r_epik_Charging_Adjusted_Penalty>
0

> <i_epik_Tot_Q>
0

> <i_epik_Tot_abs_Q>
0

> <r_epik_Metal_State_Penalty>
-0

> <b_epik_Metal_Only>
0

> <s_lp_Force_Field>
OPLS_2005

> <r_lp_Energy>
22.8429

> <b_lp_Chiralities_Consistent>
1

> <s_lp_Variant>
AV-unprocessed.smi:2038-2

> <Gold.Version>
5.8.1

> <Gold.Id.Protein>
6NUR|6NUR_protein|mol2

> <Gold.PLP.Fitness>
34.7924

> <Gold.PLP.PLP>
-30.1566

> <Gold.PLP.part.hbond>
-2.0000

> <Gold.PLP.part.metal>
0.0000

> <Gold.PLP.part.buried>
-5.6423

> <Gold.PLP.part.nonpolar>
-24.1723

> <Gold.PLP.part.repulsive>
0.2080

> <Gold.PLP.ligand.clash>
0.0000

> <Gold.PLP.ligand.torsion>
0.6191

> <Gold.PLP.Chemscore.Hbond>
1.9500

> <Gold.PLP.Chemscore.CHOScore>
0.0000

> <Gold.PLP.Chemscore.Metal>
0.0000

> <Gold.Chemscore.Hbonds>
donor molecule, donor type, donor heavy atom, donor atom, acceptor molecule, acceptor atom, score
      L1  H     3    21       P1  7948  0.95
      P1  H  6896  6909       L1     8  1.00

> <Gold.PLP.Chemscore.Internal.Correction>
0.0239

> <Gold.Rescore>
     Score         DG    S(hbond)    S(metal)    S(lipo)     H(rot)  DE(clash)    DE(int)     intcor
     10.86     -12.85       1.66        0.00      52.71       1.69       0.00       1.99       ----

> <Gold.Chemscore.Fitness>
10.8585

> <Gold.Chemscore.DG>
-12.8478

> <Gold.Chemscore.ZeroCoef>
-5.4800

> <Gold.Chemscore.Hbond>
1.6563

> <Gold.Chemscore.Metal>
0.0000

> <Gold.Chemscore.Lipo>
52.7115

> <Gold.Chemscore.Internal_Hbond>
0.0000

> <Gold.Chemscore.DEClash>
0.0030

> <Gold.Chemscore.DEInternal>
1.9863

> <Gold.Chemscore.Rot>
1.6919

> <Gold.Chemscore.Internal.Correction>
   9.000000E+99

> <Gold.Chemscore.Hbonds>
donor molecule, donor type, donor heavy atom, donor atom, acceptor molecule, acceptor atom, score
      L1  H     3    21       P1  7948  0.21
      P1  H  6896  6909       L1     8  0.68

> <Gold.Chemscore.Hbond.Weighted>
-5.5319

> <Gold.Chemscore.Metal.Weighted>
-0.0000

> <Gold.Chemscore.Lipo.Weighted>
-6.1672

> <Gold.Chemscore.Internal_Hbond.Weighted>
0.0000

> <Gold.Chemscore.DEClash.Weighted>
0.0030

> <Gold.Chemscore.DEInternal.Weighted>
1.9863

> <Gold.Chemscore.Rot.Weighted>
4.3313

> <Gold.Chemscore.Internal.Correction.Weighted>
   9.000000E+99

> <Gold.Protein.RotatedTorsions>
[ 6907 6896 6895 6894 ] final  -56.48 input  -60.11 | X-H torsion
[ 7974 7965 7964 7962 ] final  -21.97 input  175.53 | X-H torsion
[ 8008 7997 7996 7995 ] final  -67.92 input   59.86 | X-H torsion
[ 10167 10162 10161 10158 ] final   80.60 input  -65.29 | X-H torsion
[ 10718 10713 10712 10709 ] final  -78.13 input   66.30 | X-H torsion
[ 10763 10752 10751 10750 ] final   -3.16 input  -60.55 | X-H torsion
[ 11005 11000 10999 10996 ] final  -99.82 input  -57.11 | X-H torsion

> <Gold.Protein.ActiveResidues>
 VAL166  LYS551  ARG553  GLY616  TRP617  ASP618  TYR619  PRO620  LYS621  CYS622 
 ASP623  PHE694  ASN695  SER759  ASP760  ASP761  ALA762  ILE779  LEU786  VAL792 
 PHE793  MET794  SER795  GLU796  ALA797  LYS798  CYS799  TRP800  GLU811  SER814 

> <Gold.Protein.RotatedAtoms>
  150.8164  134.7348  159.6733 H   0  0  0  0  0  0  0  0  0  0  0  0  # atno 6907 bound_to 6896
  152.4282  134.5824  159.9961 H   0  0  0  0  0  0  0  0  0  0  0  0  # atno 6908 bound_to 6896
  151.6020  133.3318  159.3085 H   0  0  0  0  0  0  0  0  0  0  0  0  # atno 6909 bound_to 6896
  146.1702  140.4415  142.8535 H   0  0  0  0  0  0  0  0  0  0  0  0  # atno 7974 bound_to 7965
  154.4833  140.0883  156.7427 H   0  0  0  0  0  0  0  0  0  0  0  0  # atno 8008 bound_to 7997
  155.4415  140.3454  155.4272 H   0  0  0  0  0  0  0  0  0  0  0  0  # atno 8009 bound_to 7997
  156.1223  140.1478  156.9174 H   0  0  0  0  0  0  0  0  0  0  0  0  # atno 8010 bound_to 7997
  139.9480  144.6045  150.8188 H   0  0  0  0  0  0  0  0  0  0  0  0  # atno 10167 bound_to 10162
  156.0126  130.4510  150.3450 H   0  0  0  0  0  0  0  0  0  0  0  0  # atno 10718 bound_to 10713
  153.3677  135.6993  153.6662 H   0  0  0  0  0  0  0  0  0  0  0  0  # atno 10763 bound_to 10752
  153.5325  135.3589  155.2683 H   0  0  0  0  0  0  0  0  0  0  0  0  # atno 10764 bound_to 10752
  154.8677  135.4184  154.2948 H   0  0  0  0  0  0  0  0  0  0  0  0  # atno 10765 bound_to 10752
  141.1294  133.8351  157.1021 H   0  0  0  0  0  0  0  0  0  0  0  0  # atno 11005 bound_to 11000
  144.8152  140.6456  143.6389 LP  0  0  0  0  0  0  0  0  0  0  0  0  # atno 17320 bound_to 7965
  145.4359  139.1542  143.3997 LP  0  0  0  0  0  0  0  0  0  0  0  0  # atno 17321 bound_to 7965
  140.7591  143.3122  151.2818 LP  0  0  0  0  0  0  0  0  0  0  0  0  # atno 17342 bound_to 10162
  139.6651  144.0120  152.2717 LP  0  0  0  0  0  0  0  0  0  0  0  0  # atno 17343 bound_to 10162
  157.1544  131.0329  151.2870 LP  0  0  0  0  0  0  0  0  0  0  0  0  # atno 17370 bound_to 10713
  157.4365  130.7520  149.7033 LP  0  0  0  0  0  0  0  0  0  0  0  0  # atno 17371 bound_to 10713
  140.0327  134.9893  157.0811 LP  0  0  0  0  0  0  0  0  0  0  0  0  # atno 17394 bound_to 11000
  140.4260  134.1831  155.7166 LP  0  0  0  0  0  0  0  0  0  0  0  0  # atno 17395 bound_to 11000

$$$$
