AV-unprocessed.smi:206|AV-procd|sdf|1601|dock7
  -GOLD-   2262019513D 1   1.00000     0.00000
 Structure written by MMmdl.
 47 50  0  0  0  0  0  0  0  0  1 V2000
  155.8093  139.9708  163.4359 O   0  0  0  0  0  0  0  0  0  0  0  0
  155.1133  139.8769  162.4261 C   0  0  0  0  0  0  0  0  0  0  0  0
  154.4652  141.0725  161.7524 C   0  0  0  0  0  0  0  0  0  0  0  0
  153.8070  140.4404  160.6155 N   0  0  0  0  0  0  0  0  0  0  0  0
  153.0098  141.1173  159.7489 C   0  0  0  0  0  0  0  0  0  0  0  0
  153.0057  142.4749  159.8098 N   0  0  0  0  0  0  0  0  0  0  0  0
  152.2409  143.1904  158.9812 C   0  0  0  0  0  0  0  0  0  0  0  0
  151.4145  142.7584  158.0283 N   0  0  0  0  0  0  0  0  0  0  0  0
  151.4106  141.3967  157.9562 C   0  0  0  0  0  0  0  0  0  0  0  0
  152.1731  140.5062  158.7674 C   0  0  0  0  0  0  0  0  0  0  0  0
  151.9120  139.1947  158.3860 N   0  0  0  0  0  0  0  0  0  0  0  0
  151.0530  139.3036  157.4105 C   0  0  0  0  0  0  0  0  0  0  0  0
  150.6816  140.5915  157.0967 N   0  0  0  0  0  0  0  0  0  0  0  0
  149.7781  141.0061  156.0597 C   0  0  0  0  0  0  0  0  0  0  0  0
  148.3242  140.5240  156.0072 C   0  0  0  0  0  0  0  0  0  0  0  0
  148.3983  140.4379  154.4654 C   0  0  0  0  0  0  0  0  0  0  0  0
  147.8557  139.1357  153.8562 C   0  0  0  0  0  0  0  0  0  0  0  0
  148.6179  138.0172  154.2626 O   0  0  0  0  0  0  0  0  0  0  0  0
  147.7823  141.6059  153.6632 C   0  0  0  0  0  0  0  0  0  0  0  0
  148.2166  142.8762  154.1054 O   0  0  0  0  0  0  0  0  0  0  0  0
  149.9342  140.4657  154.6376 C   0  0  0  0  0  0  0  0  0  0  0  0
  153.9974  138.9967  160.5920 C   0  0  0  0  0  0  0  0  0  0  0  0
  154.8206  138.7516  161.7647 N   0  0  0  0  0  0  0  0  0  0  0  0
  155.2675  137.4007  162.0967 C   0  0  0  0  0  0  0  0  0  0  0  0
  154.6319  136.8758  163.3965 C   0  0  0  0  0  0  0  0  0  0  0  0
  155.0448  137.6284  164.4153 F   0  0  0  0  0  0  0  0  0  0  0  0
  153.3016  136.9338  163.3407 F   0  0  0  0  0  0  0  0  0  0  0  0
  155.0067  135.6162  163.6201 F   0  0  0  0  0  0  0  0  0  0  0  0
  153.7493  141.5510  162.4217 H   0  0  0  0  0  0  0  0  0  0  0  0
  155.2157  141.7955  161.4311 H   0  0  0  0  0  0  0  0  0  0  0  0
  152.2975  144.2625  159.1005 H   0  0  0  0  0  0  0  0  0  0  0  0
  150.6700  138.4372  156.8921 H   0  0  0  0  0  0  0  0  0  0  0  0
  149.7983  142.0966  156.0532 H   0  0  0  0  0  0  0  0  0  0  0  0
  148.1747  139.5500  156.4739 H   0  0  0  0  0  0  0  0  0  0  0  0
  147.6012  141.2469  156.3866 H   0  0  0  0  0  0  0  0  0  0  0  0
  146.8137  138.9739  154.1342 H   0  0  0  0  0  0  0  0  0  0  0  0
  147.8800  139.1751  152.7666 H   0  0  0  0  0  0  0  0  0  0  0  0
  148.7922  137.4800  153.5047 H   0  0  0  0  0  0  0  0  0  0  0  0
  148.0326  141.5208  152.6053 H   0  0  0  0  0  0  0  0  0  0  0  0
  146.6939  141.5950  153.7275 H   0  0  0  0  0  0  0  0  0  0  0  0
  148.3230  142.8475  155.0441 H   0  0  0  0  0  0  0  0  0  0  0  0
  150.4608  141.1387  153.9601 H   0  0  0  0  0  0  0  0  0  0  0  0
  150.3845  139.4717  154.6216 H   0  0  0  0  0  0  0  0  0  0  0  0
  153.0463  138.4690  160.6753 H   0  0  0  0  0  0  0  0  0  0  0  0
  154.5145  138.6812  159.6848 H   0  0  0  0  0  0  0  0  0  0  0  0
  155.0183  136.7326  161.2712 H   0  0  0  0  0  0  0  0  0  0  0  0
  156.3555  137.3868  162.1808 H   0  0  0  0  0  0  0  0  0  0  0  0
  1  2  2  0  0  0  0
  2 23  1  0  0  0  0
  2  3  1  0  0  0  0
  3  4  1  0  0  0  0
  3 29  1  0  0  0  0
  3 30  1  0  0  0  0
  4  5  1  0  0  0  0
  4 22  1  0  0  0  0
  5 10  1  0  0  0  0
  5  6  2  0  0  0  0
  6  7  1  0  0  0  0
  7  8  2  0  0  0  0
  7 31  1  0  0  0  0
  8  9  1  0  0  0  0
  9 13  1  0  0  0  0
  9 10  2  0  0  0  0
 10 11  1  0  0  0  0
 11 12  2  0  0  0  0
 12 13  1  0  0  0  0
 12 32  1  0  0  0  0
 13 14  1  0  0  0  0
 14 21  1  0  0  0  0
 14 15  1  0  0  0  0
 14 33  1  0  0  0  0
 15 16  1  0  0  0  0
 15 34  1  0  0  0  0
 15 35  1  0  0  0  0
 16 17  1  0  0  0  0
 16 19  1  0  0  0  0
 16 21  1  0  0  0  0
 17 18  1  0  0  0  0
 17 36  1  0  0  0  0
 17 37  1  0  0  0  0
 18 38  1  0  0  0  0
 19 20  1  0  0  0  0
 19 39  1  0  0  0  0
 19 40  1  0  0  0  0
 20 41  1  0  0  0  0
 21 42  1  0  0  0  0
 21 43  1  0  0  0  0
 22 23  1  0  0  0  0
 22 44  1  0  0  0  0
 22 45  1  0  0  0  0
 23 24  1  0  0  0  0
 24 25  1  0  0  0  0
 24 46  1  0  0  0  0
 24 47  1  0  0  0  0
 25 26  1  0  0  0  0
 25 27  1  0  0  0  0
 25 28  1  0  0  0  0
M  END
> <s_m_source_file>
AV-unprocessed.smi

> <i_m_source_file_index>
206

> <i_lp_mmshare_version>
43012

> <i_f3d_flags>
0

> <s_epik_input>
RkMoRikoRilbQ0gyXU4xW0NIMl1OKFtDSDJdQzE9TyljKG5bY0hdbjIpYyhjMjMpbltjSF1uM1tDSF0oW0NIMl00KVtDSDJdQzQoW0NIMl1bT0hdKVtDSDJdW09IXQ==

> <s_epik_cmdline>
J2VwaWtfcHl0aG9uJywgJy1waCcsICc3LjAnLCAnLXRuJywgJzgnLCAnLW1hJywgJzIwMCcsICctbWV0YWxfYmluZGluZycsICctaW1hZScsICc8aW5maWxlLm1hZT4nLCAnLW9tYWUnLCAnPG91dGZpbGUubWFlPic=

> <r_lp_tautomer_probability>
1

> <r_epik_Ionization_Penalty>
0.000251167

> <r_epik_Ionization_Penalty_Charging>
0

> <r_epik_Ionization_Penalty_Neutral>
0.000251167

> <r_epik_State_Penalty>
-0

> <r_epik_Charging_Adjusted_Penalty>
0

> <i_epik_Tot_Q>
0

> <i_epik_Tot_abs_Q>
0

> <r_epik_Metal_State_Penalty>
-0

> <b_epik_Metal_Only>
0

> <s_epik_Chemistry_Notes>
This compound contains an acetal/aminal-like group ( X-CH(R)-Y where X, Y are N, S, or O) that may be acid/base labile, releasing an aldehyde.

> <s_lp_Force_Field>
OPLS_2005

> <r_lp_Energy>
40.1188

> <b_lp_Chiralities_Consistent>
1

> <s_lp_Variant>
AV-unprocessed.smi:206-1

> <Gold.Version>
5.8.1

> <Gold.Id.Protein>
6NUR|6NUR_protein|mol2

> <Gold.PLP.Fitness>
54.0687

> <Gold.PLP.PLP>
-48.1645

> <Gold.PLP.part.hbond>
-3.7773

> <Gold.PLP.part.metal>
0.0000

> <Gold.PLP.part.buried>
-2.2649

> <Gold.PLP.part.nonpolar>
-40.5304

> <Gold.PLP.part.repulsive>
0.0616

> <Gold.PLP.ligand.clash>
0.0000

> <Gold.PLP.ligand.torsion>
0.4738

> <Gold.PLP.Chemscore.Hbond>
2.1189

> <Gold.PLP.Chemscore.CHOScore>
0.0000

> <Gold.PLP.Chemscore.Metal>
0.0000

> <Gold.Chemscore.Hbonds>
donor molecule, donor type, donor heavy atom, donor atom, acceptor molecule, acceptor atom, score
      L1  H    18    38       P1  7948  0.94
      L1  H    20    41       P1  8028  0.13
      P1  H  8022  8030       L1    20  0.99

> <Gold.PLP.Chemscore.Internal.Correction>
0.4953

> <Gold.Rescore>
     Score         DG    S(hbond)    S(metal)    S(lipo)     H(rot)  DE(clash)    DE(int)     intcor
      5.44      -8.68       1.70        0.00      61.79       3.79       0.38       2.86       ----

> <Gold.Chemscore.Fitness>
5.4375

> <Gold.Chemscore.DG>
-8.6751

> <Gold.Chemscore.ZeroCoef>
-5.4800

> <Gold.Chemscore.Hbond>
1.6995

> <Gold.Chemscore.Metal>
0.0000

> <Gold.Chemscore.Lipo>
61.7896

> <Gold.Chemscore.Internal_Hbond>
0.0000

> <Gold.Chemscore.DEClash>
0.3772

> <Gold.Chemscore.DEInternal>
2.8604

> <Gold.Chemscore.Rot>
3.7932

> <Gold.Chemscore.Internal.Correction>
   9.000000E+99

> <Gold.Chemscore.Hbonds>
donor molecule, donor type, donor heavy atom, donor atom, acceptor molecule, acceptor atom, score
      L1  H    18    38       P1  7948  0.90
      L1  H    20    41       P1  8028  0.14
      P1  H  8022  8030       L1    20  0.46

> <Gold.Chemscore.Hbond.Weighted>
-5.6764

> <Gold.Chemscore.Metal.Weighted>
-0.0000

> <Gold.Chemscore.Lipo.Weighted>
-7.2294

> <Gold.Chemscore.Internal_Hbond.Weighted>
0.0000

> <Gold.Chemscore.DEClash.Weighted>
0.3772

> <Gold.Chemscore.DEInternal.Weighted>
2.8604

> <Gold.Chemscore.Rot.Weighted>
9.7107

> <Gold.Chemscore.Internal.Correction.Weighted>
   9.000000E+99

> <Gold.Protein.RotatedTorsions>
[ 6907 6896 6895 6894 ] final -121.63 input  -60.11 | X-H torsion
[ 7974 7965 7964 7962 ] final   49.69 input  175.53 | X-H torsion
[ 8008 7997 7996 7995 ] final   87.86 input   59.86 | X-H torsion
[ 10167 10162 10161 10158 ] final  -26.51 input  -65.29 | X-H torsion
[ 10718 10713 10712 10709 ] final -110.55 input   66.30 | X-H torsion
[ 10763 10752 10751 10750 ] final  -23.93 input  -60.55 | X-H torsion
[ 11005 11000 10999 10996 ] final   92.98 input  -57.11 | X-H torsion

> <Gold.Protein.ActiveResidues>
 VAL166  LYS551  ARG553  GLY616  TRP617  ASP618  TYR619  PRO620  LYS621  CYS622 
 ASP623  PHE694  ASN695  SER759  ASP760  ASP761  ALA762  ILE779  LEU786  VAL792 
 PHE793  MET794  SER795  GLU796  ALA797  LYS798  CYS799  TRP800  GLU811  SER814 

> <Gold.Protein.RotatedAtoms>
  150.8501  133.7800  159.3028 H   0  0  0  0  0  0  0  0  0  0  0  0  # atno 6907 bound_to 6896
  151.5475  135.1066  159.9951 H   0  0  0  0  0  0  0  0  0  0  0  0  # atno 6908 bound_to 6896
  152.4546  133.7653  159.6825 H   0  0  0  0  0  0  0  0  0  0  0  0  # atno 6909 bound_to 6896
  146.0085  139.4516  142.9971 H   0  0  0  0  0  0  0  0  0  0  0  0  # atno 7974 bound_to 7965
  155.9807  140.3377  155.6660 H   0  0  0  0  0  0  0  0  0  0  0  0  # atno 8008 bound_to 7997
  155.6553  140.0710  157.2591 H   0  0  0  0  0  0  0  0  0  0  0  0  # atno 8009 bound_to 7997
  154.4191  140.1718  156.1705 H   0  0  0  0  0  0  0  0  0  0  0  0  # atno 8010 bound_to 7997
  140.7282  143.4172  151.1009 H   0  0  0  0  0  0  0  0  0  0  0  0  # atno 10167 bound_to 10162
  156.0597  130.5821  150.8252 H   0  0  0  0  0  0  0  0  0  0  0  0  # atno 10718 bound_to 10713
  153.6757  135.6969  153.5133 H   0  0  0  0  0  0  0  0  0  0  0  0  # atno 10763 bound_to 10752
  153.2523  135.4271  155.0810 H   0  0  0  0  0  0  0  0  0  0  0  0  # atno 10764 bound_to 10752
  154.8414  135.3534  154.6301 H   0  0  0  0  0  0  0  0  0  0  0  0  # atno 10765 bound_to 10752
  139.8816  134.8764  156.3651 H   0  0  0  0  0  0  0  0  0  0  0  0  # atno 11005 bound_to 11000
  145.7379  141.0019  143.1316 LP  0  0  0  0  0  0  0  0  0  0  0  0  # atno 17320 bound_to 7965
  144.6944  139.9064  143.7461 LP  0  0  0  0  0  0  0  0  0  0  0  0  # atno 17321 bound_to 7965
  139.7813  143.8351  152.3138 LP  0  0  0  0  0  0  0  0  0  0  0  0  # atno 17342 bound_to 10162
  139.8303  144.7257  150.9459 LP  0  0  0  0  0  0  0  0  0  0  0  0  # atno 17343 bound_to 10162
  157.5595  131.0945  150.9579 LP  0  0  0  0  0  0  0  0  0  0  0  0  # atno 17370 bound_to 10713
  156.9820  130.5530  149.5297 LP  0  0  0  0  0  0  0  0  0  0  0  0  # atno 17371 bound_to 10713
  140.9503  133.7455  156.0263 LP  0  0  0  0  0  0  0  0  0  0  0  0  # atno 17394 bound_to 11000
  140.8114  134.3395  157.5410 LP  0  0  0  0  0  0  0  0  0  0  0  0  # atno 17395 bound_to 11000

$$$$
