AV-unprocessed.smi:1776|AV-procd|sdf|7174|dock9
  -GOLD-   22720 8413D 1   1.00000     0.00000
 Structure written by MMmdl.
 31 32  0  0  0  0  0  0  0  0  1 V2000
  145.9581  134.6365  155.1486 O   0  0  0  0  0  0  0  0  0  0  0  0
  146.9580  135.0816  154.5854 C   0  0  0  0  0  0  0  0  0  0  0  0
  147.0634  135.3138  153.2611 N   0  0  0  0  0  0  0  0  0  0  0  0
  146.1262  135.1328  152.2287 C   0  0  0  0  0  0  0  0  0  0  0  0
  145.8422  133.9504  151.6211 C   0  0  0  0  0  0  0  0  0  0  0  0
  144.8514  133.8441  150.5630 C   0  0  0  0  0  0  0  0  0  0  0  0
  144.5971  132.5286  149.8433 C   0  0  0  0  0  0  0  0  0  0  0  0
  143.7545  132.6879  148.8217 F   0  0  0  0  0  0  0  0  0  0  0  0
  145.7339  132.0158  149.3720 F   0  0  0  0  0  0  0  0  0  0  0  0
  144.0642  131.6468  150.6879 F   0  0  0  0  0  0  0  0  0  0  0  0
  144.2330  134.9837  150.2024 C   0  0  0  0  0  0  0  0  0  0  0  0
  144.5068  136.1997  150.8315 N   0  0  0  0  0  0  0  0  0  0  0  0
  145.4121  136.3555  151.8231 C   0  0  0  0  0  0  0  0  0  0  0  0
  145.5960  137.4635  152.3259 O   0  0  0  0  0  0  0  0  0  0  0  0
  148.2092  135.4271  155.4070 C   0  0  1  0  0  0  0  0  0  0  0  0
  149.4814  134.6937  154.9211 C   0  0  0  0  0  0  0  0  0  0  0  0
  150.5910  135.1033  155.7103 O   0  0  0  0  0  0  0  0  0  0  0  0
  150.8069  136.5042  155.6123 C   0  0  0  0  0  0  0  0  0  0  0  0
  149.5491  137.2370  156.1062 C   0  0  0  0  0  0  0  0  0  0  0  0
  148.4375  136.8315  155.3189 O   0  0  0  0  0  0  0  0  0  0  0  0
  143.9910  137.0074  150.5129 H   0  0  0  0  0  0  0  0  0  0  0  0
  147.9624  135.6535  152.9491 H   0  0  0  0  0  0  0  0  0  0  0  0
  146.3338  133.0374  151.9108 H   0  0  0  0  0  0  0  0  0  0  0  0
  143.4968  135.0549  149.4153 H   0  0  0  0  0  0  0  0  0  0  0  0
  148.0058  135.1598  156.4455 H   0  0  0  0  0  0  0  0  0  0  0  0
  149.3673  133.6139  155.0244 H   0  0  0  0  0  0  0  0  0  0  0  0
  149.6792  134.8977  153.8670 H   0  0  0  0  0  0  0  0  0  0  0  0
  151.6689  136.7764  156.2216 H   0  0  0  0  0  0  0  0  0  0  0  0
  151.0402  136.7802  154.5826 H   0  0  0  0  0  0  0  0  0  0  0  0
  149.3627  137.0254  157.1603 H   0  0  0  0  0  0  0  0  0  0  0  0
  149.6771  138.3154  156.0116 H   0  0  0  0  0  0  0  0  0  0  0  0
  1  2  2  0  0  0  0
  2  3  1  0  0  0  0
  2 15  1  0  0  0  0
  3  4  1  0  0  0  0
  3 22  1  0  0  0  0
  4 13  1  0  0  0  0
  4  5  2  0  0  0  0
  5  6  1  0  0  0  0
  5 23  1  0  0  0  0
  6  7  1  0  0  0  0
  6 11  2  0  0  0  0
  7  8  1  0  0  0  0
  7  9  1  0  0  0  0
  7 10  1  0  0  0  0
 11 12  1  0  0  0  0
 11 24  1  0  0  0  0
 12 21  1  0  0  0  0
 12 13  1  0  0  0  0
 13 14  2  0  0  0  0
 15 20  1  0  0  0  0
 15 16  1  0  0  0  0
 15 25  1  0  0  0  0
 16 17  1  0  0  0  0
 16 26  1  0  0  0  0
 16 27  1  0  0  0  0
 17 18  1  0  0  0  0
 18 19  1  0  0  0  0
 18 28  1  0  0  0  0
 18 29  1  0  0  0  0
 19 20  1  0  0  0  0
 19 30  1  0  0  0  0
 19 31  1  0  0  0  0
M  END
> <s_m_source_file>
AV-unprocessed.smi

> <i_m_source_file_index>
1776

> <i_lp_mmshare_version>
43012

> <i_f3d_flags>
0

> <s_epik_input>
TzFbQ0gyXVtDSDJdT1tDSDJdW0NASF0xQyg9TylbTkhdYzJbY0hdYyhDKEYpKEYpRilbY0hdW25IXWMyPU8=

> <s_epik_cmdline>
J2VwaWtfcHl0aG9uJywgJy1waCcsICc3LjAnLCAnLXRuJywgJzgnLCAnLW1hJywgJzIwMCcsICctbWV0YWxfYmluZGluZycsICctaW1hZScsICc8aW5maWxlLm1hZT4nLCAnLW9tYWUnLCAnPG91dGZpbGUubWFlPic=

> <r_lp_tautomer_probability>
0.999

> <r_epik_Ionization_Penalty>
0.0100875

> <r_epik_Ionization_Penalty_Charging>
0.0100873

> <r_epik_Ionization_Penalty_Neutral>
1.79075e-07

> <r_epik_State_Penalty>
0.00769562

> <r_epik_Charging_Adjusted_Penalty>
0.017783

> <i_epik_Tot_Q>
0

> <i_epik_Tot_abs_Q>
0

> <r_epik_Metal_State_Penalty>
0.325451

> <b_epik_Metal_Only>
0

> <s_lp_Force_Field>
OPLS_2005

> <r_lp_Energy>
23.697

> <b_lp_Chiralities_Consistent>
1

> <s_lp_Variant>
AV-unprocessed.smi:1776-2

> <Gold.Version>
5.8.1

> <Gold.Id.Protein>
6NUR|6NUR_protein|mol2

> <Gold.PLP.Fitness>
38.0646

> <Gold.PLP.PLP>
-31.8598

> <Gold.PLP.part.hbond>
-1.9670

> <Gold.PLP.part.metal>
0.0000

> <Gold.PLP.part.buried>
-4.0887

> <Gold.PLP.part.nonpolar>
-26.7450

> <Gold.PLP.part.repulsive>
0.4869

> <Gold.PLP.ligand.clash>
1.0356

> <Gold.PLP.ligand.torsion>
0.8394

> <Gold.PLP.Chemscore.Hbond>
2.0000

> <Gold.PLP.Chemscore.CHOScore>
0.9640

> <Gold.PLP.Chemscore.Metal>
0.0000

> <Gold.Chemscore.Hbonds>
donor molecule, donor type, donor heavy atom, donor atom, acceptor molecule, acceptor atom, score
      L1  H     3    22       P1  7948  1.00
      L1  H    12    21       P1 10171  1.00
      L1  C    11    24       P1 10186  0.90

> <Gold.PLP.Chemscore.Internal.Correction>
0.0272

> <Gold.Rescore>
     Score         DG    S(hbond)    S(metal)    S(lipo)     H(rot)  DE(clash)    DE(int)     intcor
     14.17     -15.11       1.97        0.00      47.94       1.00       0.01       0.92       ----

> <Gold.Chemscore.Fitness>
14.1727

> <Gold.Chemscore.DG>
-15.1093

> <Gold.Chemscore.ZeroCoef>
-5.4800

> <Gold.Chemscore.Hbond>
1.9703

> <Gold.Chemscore.Metal>
0.0000

> <Gold.Chemscore.Lipo>
47.9371

> <Gold.Chemscore.Internal_Hbond>
0.0000

> <Gold.Chemscore.DEClash>
0.0135

> <Gold.Chemscore.DEInternal>
0.9231

> <Gold.Chemscore.Rot>
1.0000

> <Gold.Chemscore.Internal.Correction>
   9.000000E+99

> <Gold.Chemscore.Hbonds>
donor molecule, donor type, donor heavy atom, donor atom, acceptor molecule, acceptor atom, score
      L1  H     3    22       P1  7948  0.94
      L1  H    12    21       P1 10171  0.98

> <Gold.Chemscore.Hbond.Weighted>
-6.5806

> <Gold.Chemscore.Metal.Weighted>
-0.0000

> <Gold.Chemscore.Lipo.Weighted>
-5.6086

> <Gold.Chemscore.Internal_Hbond.Weighted>
0.0000

> <Gold.Chemscore.DEClash.Weighted>
0.0135

> <Gold.Chemscore.DEInternal.Weighted>
0.9231

> <Gold.Chemscore.Rot.Weighted>
2.5600

> <Gold.Chemscore.Internal.Correction.Weighted>
   9.000000E+99

> <Gold.Protein.RotatedTorsions>
[ 6907 6896 6895 6894 ] final  173.89 input  -60.11 | X-H torsion
[ 7974 7965 7964 7962 ] final -173.30 input  175.53 | X-H torsion
[ 8008 7997 7996 7995 ] final  -86.45 input   59.86 | X-H torsion
[ 10167 10162 10161 10158 ] final -116.63 input  -65.29 | X-H torsion
[ 10718 10713 10712 10709 ] final -173.66 input   66.30 | X-H torsion
[ 10763 10752 10751 10750 ] final  144.75 input  -60.55 | X-H torsion
[ 11005 11000 10999 10996 ] final   -4.08 input  -57.11 | X-H torsion

> <Gold.Protein.ActiveResidues>
 VAL166  LYS551  ARG553  GLY616  TRP617  ASP618  TYR619  PRO620  LYS621  CYS622 
 ASP623  PHE694  ASN695  SER759  ASP760  ASP761  ALA762  ILE779  LEU786  VAL792 
 PHE793  MET794  SER795  GLU796  ALA797  LYS798  CYS799  TRP800  GLU811  SER814 

> <Gold.Protein.RotatedAtoms>
  151.7611  133.3334  159.3417 H   0  0  0  0  0  0  0  0  0  0  0  0  # atno 6907 bound_to 6896
  150.7497  134.6105  159.6093 H   0  0  0  0  0  0  0  0  0  0  0  0  # atno 6908 bound_to 6896
  152.3405  134.7143  160.0316 H   0  0  0  0  0  0  0  0  0  0  0  0  # atno 6909 bound_to 6896
  144.7139  140.1642  143.6373 H   0  0  0  0  0  0  0  0  0  0  0  0  # atno 7974 bound_to 7965
  154.6521  140.0578  156.9967 H   0  0  0  0  0  0  0  0  0  0  0  0  # atno 8008 bound_to 7997
  155.1356  140.3260  155.4445 H   0  0  0  0  0  0  0  0  0  0  0  0  # atno 8009 bound_to 7997
  156.2580  140.1973  156.6474 H   0  0  0  0  0  0  0  0  0  0  0  0  # atno 8010 bound_to 7997
  140.0771  143.4823  152.1947 H   0  0  0  0  0  0  0  0  0  0  0  0  # atno 10167 bound_to 10162
  156.7736  130.9457  151.3120 H   0  0  0  0  0  0  0  0  0  0  0  0  # atno 10718 bound_to 10713
  153.9941  135.2929  155.3409 H   0  0  0  0  0  0  0  0  0  0  0  0  # atno 10763 bound_to 10752
  154.7198  135.5114  153.8797 H   0  0  0  0  0  0  0  0  0  0  0  0  # atno 10764 bound_to 10752
  153.0796  135.6674  154.0190 H   0  0  0  0  0  0  0  0  0  0  0  0  # atno 10765 bound_to 10752
  140.6764  133.9192  155.8527 H   0  0  0  0  0  0  0  0  0  0  0  0  # atno 11005 bound_to 11000
  145.9002  139.2426  143.1498 LP  0  0  0  0  0  0  0  0  0  0  0  0  # atno 17320 bound_to 7965
  145.9818  140.8676  143.0111 LP  0  0  0  0  0  0  0  0  0  0  0  0  # atno 17321 bound_to 7965
  139.5801  144.7506  151.3661 LP  0  0  0  0  0  0  0  0  0  0  0  0  # atno 17342 bound_to 10162
  140.7096  143.7424  150.7544 LP  0  0  0  0  0  0  0  0  0  0  0  0  # atno 17343 bound_to 10162
  157.6680  130.9025  149.9975 LP  0  0  0  0  0  0  0  0  0  0  0  0  # atno 17370 bound_to 10713
  156.1262  130.3644  149.9805 LP  0  0  0  0  0  0  0  0  0  0  0  0  # atno 17371 bound_to 10713
  141.0352  134.0699  157.3967 LP  0  0  0  0  0  0  0  0  0  0  0  0  # atno 17394 bound_to 11000
  139.8965  135.0146  156.7056 LP  0  0  0  0  0  0  0  0  0  0  0  0  # atno 17395 bound_to 11000

$$$$
