AV-unprocessed.smi:9|AV-procd|sdf|49|dock5
  -GOLD-   2262015163D 1   1.00000     0.00000
 Structure written by MMmdl.
 34 36  0  0  0  0  0  0  0  0  2 V2000
  153.2832  138.3857  155.1768 O   0  0  0  0  0  0  0  0  0  0  0  0
  152.9447  139.0180  156.1755 C   0  0  0  0  0  0  0  0  0  0  0  0
  153.5640  138.9593  157.3963 N   0  5  0  0  0  0  0  0  0  0  0  0
  153.0995  139.7237  158.4726 C   0  0  0  0  0  0  0  0  0  0  0  0
  153.8747  139.5760  159.7776 C   0  0  0  0  0  0  0  0  0  0  0  0
  153.5213  140.5048  160.6694 F   0  0  0  0  0  0  0  0  0  0  0  0
  153.6495  138.3798  160.3230 F   0  0  0  0  0  0  0  0  0  0  0  0
  155.1845  139.6967  159.5576 F   0  0  0  0  0  0  0  0  0  0  0  0
  152.0858  140.5281  158.4395 N   0  0  0  0  0  0  0  0  0  0  0  0
  151.4408  140.6108  157.2250 C   0  0  0  0  0  0  0  0  0  0  0  0
  151.7733  139.9293  156.0885 C   0  0  0  0  0  0  0  0  0  0  0  0
  150.9092  140.2392  155.0444 N   0  0  0  0  0  0  0  0  0  0  0  0
  150.0808  141.1126  155.6174 C   0  0  0  0  0  0  0  0  0  0  0  0
  150.3370  141.3935  156.9111 N   0  0  0  0  0  0  0  0  0  0  0  0
  149.6025  142.3011  157.7807 C   0  0  0  0  0  0  0  0  0  0  0  0
  150.4394  143.4924  158.3146 C   0  0  1  0  0  0  0  0  0  0  0  0
  149.5305  144.4778  158.7691 O   0  0  0  0  0  0  0  0  0  0  0  0
  151.3649  143.0771  159.4799 C   0  0  0  0  0  0  0  0  0  0  0  0
  152.3747  144.1764  159.8242 C   0  0  0  0  0  0  0  0  0  0  0  0
  153.1143  144.6286  158.5603 C   0  0  0  0  0  0  0  0  0  0  0  0
  152.1691  145.1112  157.6158 O   0  0  0  0  0  0  0  0  0  0  0  0
  151.2530  144.1197  157.1573 C   0  0  0  0  0  0  0  0  0  0  0  0
  149.2638  141.5676  155.0771 H   0  0  0  0  0  0  0  0  0  0  0  0
  148.7458  142.6752  157.2185 H   0  0  0  0  0  0  0  0  0  0  0  0
  149.1888  141.7242  158.6090 H   0  0  0  0  0  0  0  0  0  0  0  0
  149.0080  144.7638  158.0354 H   0  0  0  0  0  0  0  0  0  0  0  0
  150.7861  142.8175  160.3671 H   0  0  0  0  0  0  0  0  0  0  0  0
  151.9145  142.1782  159.1974 H   0  0  0  0  0  0  0  0  0  0  0  0
  151.8613  145.0273  160.2734 H   0  0  0  0  0  0  0  0  0  0  0  0
  153.0850  143.8124  160.5670 H   0  0  0  0  0  0  0  0  0  0  0  0
  153.8120  145.4307  158.8011 H   0  0  0  0  0  0  0  0  0  0  0  0
  153.6982  143.8131  158.1308 H   0  0  0  0  0  0  0  0  0  0  0  0
  151.8190  143.3472  156.6344 H   0  0  0  0  0  0  0  0  0  0  0  0
  150.5889  144.5673  156.4167 H   0  0  0  0  0  0  0  0  0  0  0  0
  1  2  2  0  0  0  0
  2 11  1  0  0  0  0
  2  3  1  0  0  0  0
  3  4  1  0  0  0  0
  4  5  1  0  0  0  0
  4  9  2  0  0  0  0
  5  6  1  0  0  0  0
  5  7  1  0  0  0  0
  5  8  1  0  0  0  0
  9 10  1  0  0  0  0
 10 14  1  0  0  0  0
 10 11  2  0  0  0  0
 11 12  1  0  0  0  0
 12 13  2  0  0  0  0
 13 14  1  0  0  0  0
 13 23  1  0  0  0  0
 14 15  1  0  0  0  0
 15 16  1  0  0  0  0
 15 24  1  0  0  0  0
 15 25  1  0  0  0  0
 16 22  1  0  0  0  0
 16 17  1  0  0  0  0
 16 18  1  0  0  0  0
 17 26  1  0  0  0  0
 18 19  1  0  0  0  0
 18 27  1  0  0  0  0
 18 28  1  0  0  0  0
 19 20  1  0  0  0  0
 19 29  1  0  0  0  0
 19 30  1  0  0  0  0
 20 21  1  0  0  0  0
 20 31  1  0  0  0  0
 20 32  1  0  0  0  0
 21 22  1  0  0  0  0
 22 33  1  0  0  0  0
 22 34  1  0  0  0  0
M  CHG  1   3  -1
M  END
> <s_m_source_file>
AV-unprocessed.smi

> <i_m_source_file_index>
9

> <i_lp_mmshare_version>
43012

> <i_f3d_flags>
0

> <s_epik_input>
RkMoRikoRiljKG4xKVtuSF1jKD1PKWMoYzEyKW5bY0hdbjJbQ0gyXVtDQEBdMyhbT0hdKVtDSDJdW0NIMl1bQ0gyXU9bQ0gyXTM=

> <s_epik_cmdline>
J2VwaWtfcHl0aG9uJywgJy1waCcsICc3LjAnLCAnLXRuJywgJzgnLCAnLW1hJywgJzIwMCcsICctbWV0YWxfYmluZGluZycsICctaW1hZScsICc8aW5maWxlLm1hZT4nLCAnLW9tYWUnLCAnPG91dGZpbGUubWFlPic=

> <r_lp_tautomer_probability>
1

> <r_epik_Ionization_Penalty>
0.188582

> <r_epik_Ionization_Penalty_Charging>
1.37005e-11

> <r_epik_Ionization_Penalty_Neutral>
0.188582

> <r_epik_State_Penalty>
0.012336

> <r_epik_Charging_Adjusted_Penalty>
0.012336

> <i_epik_Tot_Q>
-1

> <i_epik_Tot_abs_Q>
1

> <r_epik_Metal_State_Penalty>
0.0089237

> <b_epik_Metal_Only>
0

> <s_lp_Force_Field>
OPLS_2005

> <r_lp_Energy>
37.6166

> <b_lp_Chiralities_Consistent>
1

> <s_lp_Variant>
AV-unprocessed.smi:9-1

> <Gold.Version>
5.8.1

> <Gold.Id.Protein>
6NUR|6NUR_protein|mol2

> <Gold.PLP.Fitness>
38.7781

> <Gold.PLP.PLP>
-30.9282

> <Gold.PLP.part.hbond>
-4.2774

> <Gold.PLP.part.metal>
0.0000

> <Gold.PLP.part.buried>
5.2101

> <Gold.PLP.part.nonpolar>
-30.4871

> <Gold.PLP.part.repulsive>
0.1458

> <Gold.PLP.ligand.clash>
0.0000

> <Gold.PLP.ligand.torsion>
0.5583

> <Gold.PLP.Chemscore.Hbond>
2.9868

> <Gold.PLP.Chemscore.CHOScore>
0.0000

> <Gold.PLP.Chemscore.Metal>
0.0000

> <Gold.Chemscore.Hbonds>
donor molecule, donor type, donor heavy atom, donor atom, acceptor molecule, acceptor atom, score
      L1  H    17    26       P1  8029  0.95
      P1  H  7989  7998       L1    12  1.00
      P1  H  7997  8008       L1     3  0.93

> <Gold.PLP.Chemscore.Internal.Correction>
0.0061

> <Gold.Rescore>
     Score         DG    S(hbond)    S(metal)    S(lipo)     H(rot)  DE(clash)    DE(int)     intcor
      8.88     -13.20       1.33        0.00      74.35       2.12       2.81       1.51       ----

> <Gold.Chemscore.Fitness>
8.8781

> <Gold.Chemscore.DG>
-13.1971

> <Gold.Chemscore.ZeroCoef>
-5.4800

> <Gold.Chemscore.Hbond>
1.3341

> <Gold.Chemscore.Metal>
0.0000

> <Gold.Chemscore.Lipo>
74.3452

> <Gold.Chemscore.Internal_Hbond>
0.0000

> <Gold.Chemscore.DEClash>
2.8108

> <Gold.Chemscore.DEInternal>
1.5082

> <Gold.Chemscore.Rot>
2.1239

> <Gold.Chemscore.Internal.Correction>
   9.000000E+99

> <Gold.Chemscore.Hbonds>
donor molecule, donor type, donor heavy atom, donor atom, acceptor molecule, acceptor atom, score
      L1  H    17    26       P1  8029  0.21
      P1  H  7989  7998       L1    12  0.78

> <Gold.Chemscore.Hbond.Weighted>
-4.4559

> <Gold.Chemscore.Metal.Weighted>
-0.0000

> <Gold.Chemscore.Lipo.Weighted>
-8.6984

> <Gold.Chemscore.Internal_Hbond.Weighted>
0.0000

> <Gold.Chemscore.DEClash.Weighted>
2.8108

> <Gold.Chemscore.DEInternal.Weighted>
1.5082

> <Gold.Chemscore.Rot.Weighted>
5.4373

> <Gold.Chemscore.Internal.Correction.Weighted>
   9.000000E+99

> <Gold.Protein.RotatedTorsions>
[ 6907 6896 6895 6894 ] final   52.12 input  -60.11 | X-H torsion
[ 7974 7965 7964 7962 ] final -112.03 input  175.53 | X-H torsion
[ 8008 7997 7996 7995 ] final  -96.05 input   59.86 | X-H torsion
[ 10167 10162 10161 10158 ] final  -21.86 input  -65.29 | X-H torsion
[ 10718 10713 10712 10709 ] final   20.14 input   66.30 | X-H torsion
[ 10763 10752 10751 10750 ] final  -12.39 input  -60.55 | X-H torsion
[ 11005 11000 10999 10996 ] final  -51.08 input  -57.11 | X-H torsion

> <Gold.Protein.ActiveResidues>
 VAL166  LYS551  ARG553  GLY616  TRP617  ASP618  TYR619  PRO620  LYS621  CYS622 
 ASP623  PHE694  ASN695  SER759  ASP760  ASP761  ALA762  ILE779  LEU786  VAL792 
 PHE793  MET794  SER795  GLU796  ALA797  LYS798  CYS799  TRP800  GLU811  SER814 

> <Gold.Protein.RotatedAtoms>
  152.3199  134.7393  160.0316 H   0  0  0  0  0  0  0  0  0  0  0  0  # atno 6907 bound_to 6896
  151.7845  133.3347  159.3489 H   0  0  0  0  0  0  0  0  0  0  0  0  # atno 6908 bound_to 6896
  150.7364  134.5831  159.5993 H   0  0  0  0  0  0  0  0  0  0  0  0  # atno 6909 bound_to 6896
  145.1489  140.8818  143.3658 H   0  0  0  0  0  0  0  0  0  0  0  0  # atno 7974 bound_to 7965
  154.7694  140.0474  157.1039 H   0  0  0  0  0  0  0  0  0  0  0  0  # atno 8008 bound_to 7997
  154.9839  140.3105  155.4915 H   0  0  0  0  0  0  0  0  0  0  0  0  # atno 8009 bound_to 7997
  156.2918  140.2231  156.4940 H   0  0  0  0  0  0  0  0  0  0  0  0  # atno 8010 bound_to 7997
  140.7284  143.4589  151.0409 H   0  0  0  0  0  0  0  0  0  0  0  0  # atno 10167 bound_to 10162
  157.1203  130.6546  149.5922 H   0  0  0  0  0  0  0  0  0  0  0  0  # atno 10718 bound_to 10713
  153.4977  135.7017  153.5849 H   0  0  0  0  0  0  0  0  0  0  0  0  # atno 10763 bound_to 10752
  153.3993  135.3876  155.1977 H   0  0  0  0  0  0  0  0  0  0  0  0  # atno 10764 bound_to 10752
  154.8713  135.3877  154.4445 H   0  0  0  0  0  0  0  0  0  0  0  0  # atno 10765 bound_to 10752
  141.0851  133.6644  156.3825 H   0  0  0  0  0  0  0  0  0  0  0  0  # atno 11005 bound_to 11000
  145.0452  139.3227  143.5956 LP  0  0  0  0  0  0  0  0  0  0  0  0  # atno 17320 bound_to 7965
  146.3497  139.9840  142.8692 LP  0  0  0  0  0  0  0  0  0  0  0  0  # atno 17321 bound_to 7965
  139.8271  143.7740  152.3179 LP  0  0  0  0  0  0  0  0  0  0  0  0  # atno 17342 bound_to 10162
  139.7843  144.7433  151.0043 LP  0  0  0  0  0  0  0  0  0  0  0  0  # atno 17343 bound_to 10162
  155.9830  130.4847  150.6910 LP  0  0  0  0  0  0  0  0  0  0  0  0  # atno 17370 bound_to 10713
  157.4482  131.0869  151.0873 LP  0  0  0  0  0  0  0  0  0  0  0  0  # atno 17371 bound_to 10713
  140.5380  134.6148  157.5371 LP  0  0  0  0  0  0  0  0  0  0  0  0  # atno 17394 bound_to 11000
  139.9669  134.7358  156.0120 LP  0  0  0  0  0  0  0  0  0  0  0  0  # atno 17395 bound_to 11000

$$$$
